MODEL        1
REMARK 921   NORMALIZED FREE ENERGY PREDICTED BY IDOCK:   -5.27 KCAL/MOL
REMARK 922        TOTAL FREE ENERGY PREDICTED BY IDOCK:   -6.92 KCAL/MOL
REMARK 923 INTER-LIGAND FREE ENERGY PREDICTED BY IDOCK:   -6.51 KCAL/MOL
REMARK 924 INTRA-LIGAND FREE ENERGY PREDICTED BY IDOCK:   -0.41 KCAL/MOL
REMARK 927      BINDING AFFINITY PREDICTED BY RF-SCORE:    0.00 PKD
ROOT
HETATM    1  O   UNL     1     -12.374  14.024  63.163  1.00  0.00    -1.133 OA 
HETATM    2  C   UNL     1     -12.095  13.825  64.538  1.00  0.00    -0.428 C  
HETATM    3  H   UNL     1     -13.244  13.717  62.936  1.00  0.00     0.000 HD 
ENDROOT
BRANCH   2   4
HETATM    4  C   UNL     1     -10.697  14.320  64.903  1.00  0.00    -0.432 C  
BRANCH   4   5
HETATM    5  O   UNL     1     -10.852  15.359  65.875  1.00  0.00    -0.321 OA 
BRANCH   5   6
HETATM    6  C   UNL     1     -10.873  16.614  65.368  1.00  0.00    -0.173 C  
HETATM    7  O   UNL     1     -11.286  16.930  64.263  1.00  0.00    -1.204 OA 
BRANCH   6   8
HETATM    8  C   UNL     1     -10.644  17.592  66.466  1.00  0.00    -0.207 A  
HETATM    9  C   UNL     1     -10.350  17.044  67.726  1.00  0.00    -0.335 A  
HETATM   10  C   UNL     1      -9.952  17.865  68.781  1.00  0.00    -0.377 A  
HETATM   11  C   UNL     1      -9.848  19.240  68.589  1.00  0.00    -0.500 A  
HETATM   12  C   UNL     1     -10.165  19.801  67.351  1.00  0.00    -0.575 A  
HETATM   13  C   UNL     1     -10.570  18.981  66.294  1.00  0.00    -0.412 A  
HETATM   14  O   UNL     1     -10.889  19.562  65.098  1.00  0.00    -0.409 OA 
HETATM   15  H   UNL     1     -10.839  20.503  64.981  1.00  0.00     0.000 HD 
ENDBRANCH   6   8
ENDBRANCH   5   6
ENDBRANCH   4   5
ENDBRANCH   2   4
TORSDOF 4
ENDMDL
MODEL        2
REMARK 921   NORMALIZED FREE ENERGY PREDICTED BY IDOCK:   -5.27 KCAL/MOL
REMARK 922        TOTAL FREE ENERGY PREDICTED BY IDOCK:   -6.92 KCAL/MOL
REMARK 923 INTER-LIGAND FREE ENERGY PREDICTED BY IDOCK:   -6.52 KCAL/MOL
REMARK 924 INTRA-LIGAND FREE ENERGY PREDICTED BY IDOCK:   -0.40 KCAL/MOL
REMARK 927      BINDING AFFINITY PREDICTED BY RF-SCORE:    0.00 PKD
ROOT
HETATM    1  O   UNL     1     -10.196  17.857  68.522  1.00  0.00    -0.363 OA 
HETATM    2  C   UNL     1      -9.508  18.273  67.355  1.00  0.00    -0.266 C  
HETATM    3  H   UNL     1      -9.664  17.977  69.301  1.00  0.00     0.000 HD 
ENDROOT
BRANCH   2   4
HETATM    4  C   UNL     1     -10.363  18.081  66.103  1.00  0.00    -0.366 C  
BRANCH   4   5
HETATM    5  O   UNL     1     -10.028  16.805  65.549  1.00  0.00    -0.567 OA 
BRANCH   5   6
HETATM    6  C   UNL     1     -11.026  16.206  64.856  1.00  0.00    -0.349 C  
HETATM    7  O   UNL     1     -11.548  16.639  63.840  1.00  0.00    -1.204 OA 
BRANCH   6   8
HETATM    8  C   UNL     1     -11.159  14.795  65.308  1.00  0.00    -0.374 A  
HETATM    9  C   UNL     1     -10.592  14.492  66.557  1.00  0.00    -0.297 A  
HETATM   10  C   UNL     1     -10.806  13.249  67.151  1.00  0.00    -0.268 A  
HETATM   11  C   UNL     1     -11.585  12.295  66.502  1.00  0.00    -0.440 A  
HETATM   12  C   UNL     1     -12.131  12.571  65.248  1.00  0.00    -0.500 A  
HETATM   13  C   UNL     1     -11.913  13.814  64.647  1.00  0.00    -0.416 A  
HETATM   14  O   UNL     1     -12.448  14.049  63.411  1.00  0.00    -1.108 OA 
HETATM   15  H   UNL     1     -12.959  13.385  62.964  1.00  0.00     0.000 HD 
ENDBRANCH   6   8
ENDBRANCH   5   6
ENDBRANCH   4   5
ENDBRANCH   2   4
TORSDOF 4
ENDMDL
MODEL        3
REMARK 921   NORMALIZED FREE ENERGY PREDICTED BY IDOCK:   -5.21 KCAL/MOL
REMARK 922        TOTAL FREE ENERGY PREDICTED BY IDOCK:   -6.84 KCAL/MOL
REMARK 923 INTER-LIGAND FREE ENERGY PREDICTED BY IDOCK:   -6.50 KCAL/MOL
REMARK 924 INTRA-LIGAND FREE ENERGY PREDICTED BY IDOCK:   -0.34 KCAL/MOL
REMARK 927      BINDING AFFINITY PREDICTED BY RF-SCORE:    0.00 PKD
ROOT
HETATM    1  O   UNL     1      -9.608  20.855  66.908  1.00  0.00    -0.681 OA 
HETATM    2  C   UNL     1     -10.304  19.921  66.100  1.00  0.00    -0.494 C  
HETATM    3  H   UNL     1      -9.596  21.718  66.511  1.00  0.00     0.000 HD 
ENDROOT
BRANCH   2   4
HETATM    4  C   UNL     1     -10.324  18.533  66.738  1.00  0.00    -0.401 C  
BRANCH   4   5
HETATM    5  O   UNL     1     -10.361  17.575  65.676  1.00  0.00    -0.601 OA 
BRANCH   5   6
HETATM    6  C   UNL     1      -9.637  16.452  65.898  1.00  0.00    -0.274 C  
HETATM    7  O   UNL     1      -8.572  16.395  66.491  1.00  0.00    -0.233 OA 
BRANCH   6   8
HETATM    8  C   UNL     1     -10.485  15.260  65.621  1.00  0.00    -0.377 A  
HETATM    9  C   UNL     1     -10.309  14.166  66.485  1.00  0.00    -0.284 A  
HETATM   10  C   UNL     1     -11.167  13.068  66.423  1.00  0.00    -0.332 A  
HETATM   11  C   UNL     1     -12.205  13.050  65.496  1.00  0.00    -0.521 A  
HETATM   12  C   UNL     1     -12.373  14.117  64.611  1.00  0.00    -0.432 A  
HETATM   13  C   UNL     1     -11.511  15.216  64.667  1.00  0.00    -0.362 A  
HETATM   14  O   UNL     1     -11.692  16.238  63.777  1.00  0.00    -1.511 OA 
HETATM   15  H   UNL     1     -12.388  16.208  63.132  1.00  0.00     0.000 HD 
ENDBRANCH   6   8
ENDBRANCH   5   6
ENDBRANCH   4   5
ENDBRANCH   2   4
TORSDOF 4
ENDMDL
MODEL        4
REMARK 921   NORMALIZED FREE ENERGY PREDICTED BY IDOCK:   -5.13 KCAL/MOL
REMARK 922        TOTAL FREE ENERGY PREDICTED BY IDOCK:   -6.74 KCAL/MOL
REMARK 923 INTER-LIGAND FREE ENERGY PREDICTED BY IDOCK:   -6.25 KCAL/MOL
REMARK 924 INTRA-LIGAND FREE ENERGY PREDICTED BY IDOCK:   -0.48 KCAL/MOL
REMARK 927      BINDING AFFINITY PREDICTED BY RF-SCORE:    0.00 PKD
ROOT
HETATM    1  O   UNL     1     -11.786  16.394  63.615  1.00  0.00    -1.520 OA 
HETATM    2  C   UNL     1     -11.085  16.463  64.845  1.00  0.00    -0.239 C  
HETATM    3  H   UNL     1     -12.113  17.247  63.353  1.00  0.00     0.000 HD 
ENDROOT
BRANCH   2   4
HETATM    4  C   UNL     1     -10.559  15.092  65.267  1.00  0.00    -0.411 C  
BRANCH   4   5
HETATM    5  O   UNL     1     -11.116  14.127  64.369  1.00  0.00    -0.350 OA 
BRANCH   5   6
HETATM    6  C   UNL     1     -11.891  13.184  64.956  1.00  0.00    -0.354 C  
HETATM    7  O   UNL     1     -13.111  13.193  65.005  1.00  0.00    -0.728 OA 
BRANCH   6   8
HETATM    8  C   UNL     1     -11.070  11.974  65.232  1.00  0.00    -0.367 A  
HETATM    9  C   UNL     1     -11.077  11.515  66.560  1.00  0.00    -0.341 A  
HETATM   10  C   UNL     1     -10.483  10.297  66.893  1.00  0.00    -0.291 A  
HETATM   11  C   UNL     1      -9.874   9.530  65.904  1.00  0.00    -0.360 A  
HETATM   12  C   UNL     1      -9.834   9.987  64.586  1.00  0.00    -0.288 A  
HETATM   13  C   UNL     1     -10.423  11.210  64.250  1.00  0.00    -0.362 A  
HETATM   14  O   UNL     1     -10.354  11.638  62.954  1.00  0.00    -0.642 OA 
HETATM   15  H   UNL     1      -9.916  11.121  62.290  1.00  0.00     0.000 HD 
ENDBRANCH   6   8
ENDBRANCH   5   6
ENDBRANCH   4   5
ENDBRANCH   2   4
TORSDOF 4
ENDMDL
MODEL        5
REMARK 921   NORMALIZED FREE ENERGY PREDICTED BY IDOCK:   -5.06 KCAL/MOL
REMARK 922        TOTAL FREE ENERGY PREDICTED BY IDOCK:   -6.66 KCAL/MOL
REMARK 923 INTER-LIGAND FREE ENERGY PREDICTED BY IDOCK:   -6.22 KCAL/MOL
REMARK 924 INTRA-LIGAND FREE ENERGY PREDICTED BY IDOCK:   -0.44 KCAL/MOL
REMARK 927      BINDING AFFINITY PREDICTED BY RF-SCORE:    0.00 PKD
ROOT
HETATM    1  O   UNL     1     -11.349  16.589  63.794  1.00  0.00    -1.553 OA 
HETATM    2  C   UNL     1     -11.134  15.635  64.819  1.00  0.00    -0.412 C  
HETATM    3  H   UNL     1     -10.935  17.419  63.998  1.00  0.00     0.000 HD 
ENDROOT
BRANCH   2   4
HETATM    4  C   UNL     1     -11.800  14.300  64.491  1.00  0.00    -0.442 C  
BRANCH   4   5
HETATM    5  O   UNL     1     -12.250  13.732  65.725  1.00  0.00    -0.403 OA 
BRANCH   5   6
HETATM    6  C   UNL     1     -11.443  12.773  66.238  1.00  0.00    -0.354 C  
HETATM    7  O   UNL     1     -10.425  12.344  65.717  1.00  0.00    -0.248 OA 
BRANCH   6   8
HETATM    8  C   UNL     1     -11.779  12.563  67.672  1.00  0.00    -0.423 A  
HETATM    9  C   UNL     1     -11.774  11.230  68.116  1.00  0.00    -0.323 A  
HETATM   10  C   UNL     1     -11.906  10.934  69.473  1.00  0.00    -0.404 A  
HETATM   11  C   UNL     1     -12.049  11.966  70.397  1.00  0.00    -0.421 A  
HETATM   12  C   UNL     1     -12.085  13.293  69.967  1.00  0.00    -0.385 A  
HETATM   13  C   UNL     1     -11.959  13.592  68.607  1.00  0.00    -0.360 A  
HETATM   14  O   UNL     1     -12.014  14.900  68.215  1.00  0.00    -0.491 OA 
HETATM   15  H   UNL     1     -12.135  15.597  68.849  1.00  0.00     0.000 HD 
ENDBRANCH   6   8
ENDBRANCH   5   6
ENDBRANCH   4   5
ENDBRANCH   2   4
TORSDOF 4
ENDMDL
MODEL        6
REMARK 921   NORMALIZED FREE ENERGY PREDICTED BY IDOCK:   -5.01 KCAL/MOL
REMARK 922        TOTAL FREE ENERGY PREDICTED BY IDOCK:   -6.59 KCAL/MOL
REMARK 923 INTER-LIGAND FREE ENERGY PREDICTED BY IDOCK:   -6.15 KCAL/MOL
REMARK 924 INTRA-LIGAND FREE ENERGY PREDICTED BY IDOCK:   -0.44 KCAL/MOL
REMARK 927      BINDING AFFINITY PREDICTED BY RF-SCORE:    0.00 PKD
ROOT
HETATM    1  O   UNL     1      -9.192  11.915  62.923  1.00  0.00    -0.624 OA 
HETATM    2  C   UNL     1     -10.276  11.343  63.634  1.00  0.00    -0.397 C  
HETATM    3  H   UNL     1      -8.362  11.535  63.187  1.00  0.00     0.000 HD 
ENDROOT
BRANCH   2   4
HETATM    4  C   UNL     1     -11.609  11.954  63.209  1.00  0.00    -0.286 C  
BRANCH   4   5
HETATM    5  O   UNL     1     -11.598  13.327  63.612  1.00  0.00    -0.411 OA 
BRANCH   5   6
HETATM    6  C   UNL     1     -12.314  13.598  64.729  1.00  0.00    -0.390 C  
HETATM    7  O   UNL     1     -13.214  12.909  65.184  1.00  0.00    -0.702 OA 
BRANCH   6   8
HETATM    8  C   UNL     1     -11.626  14.664  65.507  1.00  0.00    -0.335 A  
HETATM    9  C   UNL     1     -11.263  14.329  66.822  1.00  0.00    -0.337 A  
HETATM   10  C   UNL     1     -10.466  15.188  67.579  1.00  0.00    -0.258 A  
HETATM   11  C   UNL     1     -10.028  16.390  67.032  1.00  0.00    -0.261 A  
HETATM   12  C   UNL     1     -10.405  16.749  65.737  1.00  0.00    -0.322 A  
HETATM   13  C   UNL     1     -11.208  15.893  64.978  1.00  0.00    -0.290 A  
HETATM   14  O   UNL     1     -11.574  16.280  63.719  1.00  0.00    -1.539 OA 
HETATM   15  H   UNL     1     -11.291  17.112  63.360  1.00  0.00     0.000 HD 
ENDBRANCH   6   8
ENDBRANCH   5   6
ENDBRANCH   4   5
ENDBRANCH   2   4
TORSDOF 4
ENDMDL
MODEL        7
REMARK 921   NORMALIZED FREE ENERGY PREDICTED BY IDOCK:   -4.99 KCAL/MOL
REMARK 922        TOTAL FREE ENERGY PREDICTED BY IDOCK:   -6.56 KCAL/MOL
REMARK 923 INTER-LIGAND FREE ENERGY PREDICTED BY IDOCK:   -6.17 KCAL/MOL
REMARK 924 INTRA-LIGAND FREE ENERGY PREDICTED BY IDOCK:   -0.39 KCAL/MOL
REMARK 927      BINDING AFFINITY PREDICTED BY RF-SCORE:    0.00 PKD
ROOT
HETATM    1  O   UNL     1     -12.435  13.760  63.119  1.00  0.00    -1.089 OA 
HETATM    2  C   UNL     1     -11.946  13.017  64.223  1.00  0.00    -0.402 C  
HETATM    3  H   UNL     1     -11.998  13.514  62.312  1.00  0.00     0.000 HD 
ENDROOT
BRANCH   2   4
HETATM    4  C   UNL     1     -12.650  13.413  65.519  1.00  0.00    -0.465 C  
BRANCH   4   5
HETATM    5  O   UNL     1     -12.183  12.531  66.545  1.00  0.00    -0.569 OA 
BRANCH   5   6
HETATM    6  C   UNL     1     -11.428  13.121  67.502  1.00  0.00    -0.328 C  
HETATM    7  O   UNL     1     -10.768  14.138  67.364  1.00  0.00    -0.279 OA 
BRANCH   6   8
HETATM    8  C   UNL     1     -11.786  12.552  68.830  1.00  0.00    -0.367 A  
HETATM    9  C   UNL     1     -12.077  13.484  69.840  1.00  0.00    -0.408 A  
HETATM   10  C   UNL     1     -12.588  13.063  71.068  1.00  0.00    -0.386 A  
HETATM   11  C   UNL     1     -12.808  11.708  71.300  1.00  0.00    -0.430 A  
HETATM   12  C   UNL     1     -12.497  10.769  70.316  1.00  0.00    -0.395 A  
HETATM   13  C   UNL     1     -11.979  11.187  69.086  1.00  0.00    -0.343 A  
HETATM   14  O   UNL     1     -11.669  10.242  68.149  1.00  0.00    -0.711 OA 
HETATM   15  H   UNL     1     -11.800   9.318  68.322  1.00  0.00     0.000 HD 
ENDBRANCH   6   8
ENDBRANCH   5   6
ENDBRANCH   4   5
ENDBRANCH   2   4
TORSDOF 4
ENDMDL
MODEL        8
REMARK 921   NORMALIZED FREE ENERGY PREDICTED BY IDOCK:   -4.94 KCAL/MOL
REMARK 922        TOTAL FREE ENERGY PREDICTED BY IDOCK:   -6.50 KCAL/MOL
REMARK 923 INTER-LIGAND FREE ENERGY PREDICTED BY IDOCK:   -5.79 KCAL/MOL
REMARK 924 INTRA-LIGAND FREE ENERGY PREDICTED BY IDOCK:   -0.72 KCAL/MOL
REMARK 927      BINDING AFFINITY PREDICTED BY RF-SCORE:    0.00 PKD
ROOT
HETATM    1  O   UNL     1     -12.464  14.317  63.368  1.00  0.00    -1.125 OA 
HETATM    2  C   UNL     1     -12.167  12.992  63.772  1.00  0.00    -0.460 C  
HETATM    3  H   UNL     1     -12.763  14.348  62.467  1.00  0.00     0.000 HD 
ENDROOT
BRANCH   2   4
HETATM    4  C   UNL     1     -11.686  12.943  65.221  1.00  0.00    -0.364 C  
BRANCH   4   5
HETATM    5  O   UNL     1     -11.779  14.271  65.747  1.00  0.00    -0.344 OA 
BRANCH   5   6
HETATM    6  C   UNL     1     -10.696  14.681  66.450  1.00  0.00    -0.309 C  
HETATM    7  O   UNL     1      -9.724  13.997  66.726  1.00  0.00    -0.259 OA 
BRANCH   6   8
HETATM    8  C   UNL     1     -10.704  16.167  66.540  1.00  0.00    -0.220 A  
HETATM    9  C   UNL     1     -10.478  16.707  67.817  1.00  0.00    -0.316 A  
HETATM   10  C   UNL     1     -10.295  18.080  67.985  1.00  0.00    -0.397 A  
HETATM   11  C   UNL     1     -10.341  18.925  66.880  1.00  0.00    -0.469 A  
HETATM   12  C   UNL     1     -10.594  18.406  65.609  1.00  0.00    -0.128 A  
HETATM   13  C   UNL     1     -10.783  17.032  65.439  1.00  0.00    -0.116 A  
HETATM   14  O   UNL     1     -11.045  16.555  64.185  1.00  0.00    -1.280 OA 
HETATM   15  H   UNL     1     -11.098  17.141  63.439  1.00  0.00     0.000 HD 
ENDBRANCH   6   8
ENDBRANCH   5   6
ENDBRANCH   4   5
ENDBRANCH   2   4
TORSDOF 4
ENDMDL
MODEL        9
REMARK 921   NORMALIZED FREE ENERGY PREDICTED BY IDOCK:   -4.93 KCAL/MOL
REMARK 922        TOTAL FREE ENERGY PREDICTED BY IDOCK:   -6.50 KCAL/MOL
REMARK 923 INTER-LIGAND FREE ENERGY PREDICTED BY IDOCK:   -5.97 KCAL/MOL
REMARK 924 INTRA-LIGAND FREE ENERGY PREDICTED BY IDOCK:   -0.53 KCAL/MOL
REMARK 927      BINDING AFFINITY PREDICTED BY RF-SCORE:    0.00 PKD
ROOT
HETATM    1  O   UNL     1     -12.324  14.490  63.539  1.00  0.00    -1.081 OA 
HETATM    2  C   UNL     1     -11.905  13.781  64.693  1.00  0.00    -0.402 C  
HETATM    3  H   UNL     1     -13.124  14.125  63.178  1.00  0.00     0.000 HD 
ENDROOT
BRANCH   2   4
HETATM    4  C   UNL     1     -10.619  14.368  65.273  1.00  0.00    -0.382 C  
BRANCH   4   5
HETATM    5  O   UNL     1     -10.984  15.518  66.042  1.00  0.00    -0.316 OA 
BRANCH   5   6
HETATM    6  C   UNL     1     -10.736  16.706  65.441  1.00  0.00    -0.215 C  
HETATM    7  O   UNL     1     -11.247  17.101  64.404  1.00  0.00    -1.143 OA 
BRANCH   6   8
HETATM    8  C   UNL     1     -10.020  17.599  66.392  1.00  0.00    -0.337 A  
HETATM    9  C   UNL     1     -10.781  18.642  66.948  1.00  0.00    -0.367 A  
HETATM   10  C   UNL     1     -10.261  19.429  67.975  1.00  0.00    -0.531 A  
HETATM   11  C   UNL     1      -8.977  19.185  68.454  1.00  0.00    -0.392 A  
HETATM   12  C   UNL     1      -8.200  18.171  67.892  1.00  0.00    -0.253 A  
HETATM   13  C   UNL     1      -8.716  17.384  66.859  1.00  0.00    -0.246 A  
HETATM   14  O   UNL     1      -7.925  16.409  66.318  1.00  0.00    -0.308 OA 
HETATM   15  H   UNL     1      -7.041  16.263  66.635  1.00  0.00     0.000 HD 
ENDBRANCH   6   8
ENDBRANCH   5   6
ENDBRANCH   4   5
ENDBRANCH   2   4
TORSDOF 4
ENDMDL
MODEL       10
REMARK 921   NORMALIZED FREE ENERGY PREDICTED BY IDOCK:   -4.93 KCAL/MOL
REMARK 922        TOTAL FREE ENERGY PREDICTED BY IDOCK:   -6.50 KCAL/MOL
REMARK 923 INTER-LIGAND FREE ENERGY PREDICTED BY IDOCK:   -6.12 KCAL/MOL
REMARK 924 INTRA-LIGAND FREE ENERGY PREDICTED BY IDOCK:   -0.38 KCAL/MOL
REMARK 927      BINDING AFFINITY PREDICTED BY RF-SCORE:    0.00 PKD
ROOT
HETATM    1  O   UNL     1     -14.108   8.769  73.375  1.00  0.00    -1.167 OA 
HETATM    2  C   UNL     1     -13.883   8.594  71.987  1.00  0.00    -0.440 C  
HETATM    3  H   UNL     1     -14.867   8.278  73.670  1.00  0.00     0.000 HD 
ENDROOT
BRANCH   2   4
HETATM    4  C   UNL     1     -12.663   9.382  71.514  1.00  0.00    -0.361 C  
BRANCH   4   5
HETATM    5  O   UNL     1     -13.143  10.570  70.878  1.00  0.00    -0.379 OA 
BRANCH   5   6
HETATM    6  C   UNL     1     -12.185  11.478  70.571  1.00  0.00    -0.377 C  
HETATM    7  O   UNL     1     -11.198  11.268  69.884  1.00  0.00    -0.255 OA 
BRANCH   6   8
HETATM    8  C   UNL     1     -12.678  12.843  70.900  1.00  0.00    -0.291 A  
HETATM    9  C   UNL     1     -13.475  12.948  72.053  1.00  0.00    -0.568 A  
HETATM   10  C   UNL     1     -13.847  14.198  72.547  1.00  0.00    -0.590 A  
HETATM   11  C   UNL     1     -13.430  15.354  71.893  1.00  0.00    -0.571 A  
HETATM   12  C   UNL     1     -12.662  15.264  70.731  1.00  0.00    -0.491 A  
HETATM   13  C   UNL     1     -12.293  14.012  70.230  1.00  0.00    -0.358 A  
HETATM   14  O   UNL     1     -11.555  13.956  69.081  1.00  0.00    -0.269 OA 
HETATM   15  H   UNL     1     -11.294  14.749  68.628  1.00  0.00     0.000 HD 
ENDBRANCH   6   8
ENDBRANCH   5   6
ENDBRANCH   4   5
ENDBRANCH   2   4
TORSDOF 4
ENDMDL
MODEL       11
REMARK 921   NORMALIZED FREE ENERGY PREDICTED BY IDOCK:   -4.89 KCAL/MOL
REMARK 922        TOTAL FREE ENERGY PREDICTED BY IDOCK:   -6.44 KCAL/MOL
REMARK 923 INTER-LIGAND FREE ENERGY PREDICTED BY IDOCK:   -6.08 KCAL/MOL
REMARK 924 INTRA-LIGAND FREE ENERGY PREDICTED BY IDOCK:   -0.36 KCAL/MOL
REMARK 927      BINDING AFFINITY PREDICTED BY RF-SCORE:    0.00 PKD
ROOT
HETATM    1  O   UNL     1     -13.412  15.511  70.332  1.00  0.00    -0.791 OA 
HETATM    2  C   UNL     1     -12.186  15.260  69.666  1.00  0.00    -0.271 C  
HETATM    3  H   UNL     1     -13.526  16.437  70.514  1.00  0.00     0.000 HD 
ENDROOT
BRANCH   2   4
HETATM    4  C   UNL     1     -12.003  13.772  69.373  1.00  0.00    -0.347 C  
BRANCH   4   5
HETATM    5  O   UNL     1     -11.939  13.621  67.951  1.00  0.00    -0.358 OA 
BRANCH   5   6
HETATM    6  C   UNL     1     -11.849  12.341  67.518  1.00  0.00    -0.261 C  
HETATM    7  O   UNL     1     -12.224  11.353  68.130  1.00  0.00    -0.602 OA 
BRANCH   6   8
HETATM    8  C   UNL     1     -11.546  12.336  66.061  1.00  0.00    -0.451 A  
HETATM    9  C   UNL     1     -10.512  11.476  65.651  1.00  0.00    -0.317 A  
HETATM   10  C   UNL     1     -10.261  11.266  64.295  1.00  0.00    -0.383 A  
HETATM   11  C   UNL     1     -11.036  11.913  63.337  1.00  0.00    -0.463 A  
HETATM   12  C   UNL     1     -12.047  12.792  63.731  1.00  0.00    -0.596 A  
HETATM   13  C   UNL     1     -12.298  13.009  65.088  1.00  0.00    -0.484 A  
HETATM   14  O   UNL     1     -13.284  13.888  65.442  1.00  0.00    -0.750 OA 
HETATM   15  H   UNL     1     -13.793  14.344  64.783  1.00  0.00     0.000 HD 
ENDBRANCH   6   8
ENDBRANCH   5   6
ENDBRANCH   4   5
ENDBRANCH   2   4
TORSDOF 4
ENDMDL
MODEL       12
REMARK 921   NORMALIZED FREE ENERGY PREDICTED BY IDOCK:   -4.87 KCAL/MOL
REMARK 922        TOTAL FREE ENERGY PREDICTED BY IDOCK:   -6.42 KCAL/MOL
REMARK 923 INTER-LIGAND FREE ENERGY PREDICTED BY IDOCK:   -6.03 KCAL/MOL
REMARK 924 INTRA-LIGAND FREE ENERGY PREDICTED BY IDOCK:   -0.38 KCAL/MOL
REMARK 927      BINDING AFFINITY PREDICTED BY RF-SCORE:    0.00 PKD
ROOT
HETATM    1  O   UNL     1     -12.644  11.674  62.993  1.00  0.00    -0.950 OA 
HETATM    2  C   UNL     1     -11.576  12.401  63.575  1.00  0.00    -0.497 C  
HETATM    3  H   UNL     1     -12.374  10.797  62.744  1.00  0.00     0.000 HD 
ENDROOT
BRANCH   2   4
HETATM    4  C   UNL     1     -12.010  13.810  63.975  1.00  0.00    -0.408 C  
BRANCH   4   5
HETATM    5  O   UNL     1     -10.909  14.419  64.657  1.00  0.00    -0.392 OA 
BRANCH   5   6
HETATM    6  C   UNL     1     -10.989  15.766  64.777  1.00  0.00    -0.393 C  
HETATM    7  O   UNL     1     -11.595  16.514  64.026  1.00  0.00    -1.154 OA 
BRANCH   6   8
HETATM    8  C   UNL     1     -10.527  16.166  66.134  1.00  0.00    -0.334 A  
HETATM    9  C   UNL     1     -10.351  15.121  67.057  1.00  0.00    -0.271 A  
HETATM   10  C   UNL     1      -9.761  15.362  68.298  1.00  0.00    -0.209 A  
HETATM   11  C   UNL     1      -9.346  16.648  68.630  1.00  0.00    -0.247 A  
HETATM   12  C   UNL     1      -9.541  17.701  67.734  1.00  0.00    -0.267 A  
HETATM   13  C   UNL     1     -10.137  17.464  66.493  1.00  0.00    -0.320 A  
HETATM   14  O   UNL     1     -10.330  18.518  65.644  1.00  0.00    -0.594 OA 
HETATM   15  H   UNL     1     -10.065  19.397  65.887  1.00  0.00     0.000 HD 
ENDBRANCH   6   8
ENDBRANCH   5   6
ENDBRANCH   4   5
ENDBRANCH   2   4
TORSDOF 4
ENDMDL
MODEL       13
REMARK 921   NORMALIZED FREE ENERGY PREDICTED BY IDOCK:   -4.86 KCAL/MOL
REMARK 922        TOTAL FREE ENERGY PREDICTED BY IDOCK:   -6.40 KCAL/MOL
REMARK 923 INTER-LIGAND FREE ENERGY PREDICTED BY IDOCK:   -5.95 KCAL/MOL
REMARK 924 INTRA-LIGAND FREE ENERGY PREDICTED BY IDOCK:   -0.46 KCAL/MOL
REMARK 927      BINDING AFFINITY PREDICTED BY RF-SCORE:    0.00 PKD
ROOT
HETATM    1  O   UNL     1     -12.545  11.447  62.895  1.00  0.00    -0.970 OA 
HETATM    2  C   UNL     1     -11.632  12.115  63.750  1.00  0.00    -0.470 C  
HETATM    3  H   UNL     1     -12.261  10.560  62.707  1.00  0.00     0.000 HD 
ENDROOT
BRANCH   2   4
HETATM    4  C   UNL     1     -12.090  13.540  64.053  1.00  0.00    -0.441 C  
BRANCH   4   5
HETATM    5  O   UNL     1     -12.567  13.558  65.402  1.00  0.00    -0.470 OA 
BRANCH   5   6
HETATM    6  C   UNL     1     -11.712  14.102  66.301  1.00  0.00    -0.390 C  
HETATM    7  O   UNL     1     -11.095  15.146  66.157  1.00  0.00    -0.339 OA 
BRANCH   6   8
HETATM    8  C   UNL     1     -11.891  13.431  67.617  1.00  0.00    -0.394 A  
HETATM    9  C   UNL     1     -11.715  12.037  67.626  1.00  0.00    -0.365 A  
HETATM   10  C   UNL     1     -11.691  11.332  68.829  1.00  0.00    -0.405 A  
HETATM   11  C   UNL     1     -11.846  12.012  70.034  1.00  0.00    -0.392 A  
HETATM   12  C   UNL     1     -12.050  13.393  70.039  1.00  0.00    -0.404 A  
HETATM   13  C   UNL     1     -12.081  14.101  68.834  1.00  0.00    -0.304 A  
HETATM   14  O   UNL     1     -12.299  15.450  68.870  1.00  0.00    -0.604 OA 
HETATM   15  H   UNL     1     -12.427  15.904  69.694  1.00  0.00     0.000 HD 
ENDBRANCH   6   8
ENDBRANCH   5   6
ENDBRANCH   4   5
ENDBRANCH   2   4
TORSDOF 4
ENDMDL
MODEL       14
REMARK 921   NORMALIZED FREE ENERGY PREDICTED BY IDOCK:   -4.84 KCAL/MOL
REMARK 922        TOTAL FREE ENERGY PREDICTED BY IDOCK:   -6.39 KCAL/MOL
REMARK 923 INTER-LIGAND FREE ENERGY PREDICTED BY IDOCK:   -5.89 KCAL/MOL
REMARK 924 INTRA-LIGAND FREE ENERGY PREDICTED BY IDOCK:   -0.49 KCAL/MOL
REMARK 927      BINDING AFFINITY PREDICTED BY RF-SCORE:    0.00 PKD
ROOT
HETATM    1  O   UNL     1      -8.166  20.458  66.285  1.00  0.00    -0.521 OA 
HETATM    2  C   UNL     1      -8.364  20.186  67.662  1.00  0.00    -0.298 C  
HETATM    3  H   UNL     1      -7.461  21.081  66.151  1.00  0.00     0.000 HD 
ENDROOT
BRANCH   2   4
HETATM    4  C   UNL     1      -9.497  19.185  67.877  1.00  0.00    -0.320 C  
BRANCH   4   5
HETATM    5  O   UNL     1      -9.246  18.065  67.023  1.00  0.00    -0.254 OA 
BRANCH   5   6
HETATM    6  C   UNL     1     -10.211  17.821  66.105  1.00  0.00    -0.339 C  
HETATM    7  O   UNL     1     -10.746  18.657  65.393  1.00  0.00    -0.572 OA 
BRANCH   6   8
HETATM    8  C   UNL     1     -10.285  16.357  65.847  1.00  0.00    -0.379 A  
HETATM    9  C   UNL     1      -9.703  15.530  66.822  1.00  0.00    -0.252 A  
HETATM   10  C   UNL     1      -9.864  14.146  66.767  1.00  0.00    -0.275 A  
HETATM   11  C   UNL     1     -10.605  13.575  65.735  1.00  0.00    -0.283 A  
HETATM   12  C   UNL     1     -11.164  14.382  64.744  1.00  0.00    -0.391 A  
HETATM   13  C   UNL     1     -11.000  15.769  64.793  1.00  0.00    -0.393 A  
HETATM   14  O   UNL     1     -11.546  16.532  63.799  1.00  0.00    -1.617 OA 
HETATM   15  H   UNL     1     -12.030  16.133  63.086  1.00  0.00     0.000 HD 
ENDBRANCH   6   8
ENDBRANCH   5   6
ENDBRANCH   4   5
ENDBRANCH   2   4
TORSDOF 4
ENDMDL
MODEL       15
REMARK 921   NORMALIZED FREE ENERGY PREDICTED BY IDOCK:   -4.84 KCAL/MOL
REMARK 922        TOTAL FREE ENERGY PREDICTED BY IDOCK:   -6.38 KCAL/MOL
REMARK 923 INTER-LIGAND FREE ENERGY PREDICTED BY IDOCK:   -5.91 KCAL/MOL
REMARK 924 INTRA-LIGAND FREE ENERGY PREDICTED BY IDOCK:   -0.47 KCAL/MOL
REMARK 927      BINDING AFFINITY PREDICTED BY RF-SCORE:    0.00 PKD
ROOT
HETATM    1  O   UNL     1     -10.659  10.892  62.752  1.00  0.00    -0.780 OA 
HETATM    2  C   UNL     1     -10.258  12.088  63.398  1.00  0.00    -0.426 C  
HETATM    3  H   UNL     1     -10.704  11.004  61.809  1.00  0.00     0.000 HD 
ENDROOT
BRANCH   2   4
HETATM    4  C   UNL     1     -10.185  11.908  64.914  1.00  0.00    -0.271 C  
BRANCH   4   5
HETATM    5  O   UNL     1     -11.523  11.723  65.386  1.00  0.00    -0.277 OA 
BRANCH   5   6
HETATM    6  C   UNL     1     -12.171  12.865  65.719  1.00  0.00    -0.439 C  
HETATM    7  O   UNL     1     -13.072  13.386  65.080  1.00  0.00    -0.724 OA 
BRANCH   6   8
HETATM    8  C   UNL     1     -11.870  13.205  67.137  1.00  0.00    -0.424 A  
HETATM    9  C   UNL     1     -11.713  14.572  67.421  1.00  0.00    -0.425 A  
HETATM   10  C   UNL     1     -11.598  15.014  68.739  1.00  0.00    -0.357 A  
HETATM   11  C   UNL     1     -11.636  14.095  69.784  1.00  0.00    -0.351 A  
HETATM   12  C   UNL     1     -11.762  12.732  69.515  1.00  0.00    -0.383 A  
HETATM   13  C   UNL     1     -11.871  12.285  68.195  1.00  0.00    -0.311 A  
HETATM   14  O   UNL     1     -11.977  10.943  67.962  1.00  0.00    -0.744 OA 
HETATM   15  H   UNL     1     -11.979  10.320  68.679  1.00  0.00     0.000 HD 
ENDBRANCH   6   8
ENDBRANCH   5   6
ENDBRANCH   4   5
ENDBRANCH   2   4
TORSDOF 4
ENDMDL
MODEL       16
REMARK 921   NORMALIZED FREE ENERGY PREDICTED BY IDOCK:   -4.83 KCAL/MOL
REMARK 922        TOTAL FREE ENERGY PREDICTED BY IDOCK:   -6.37 KCAL/MOL
REMARK 923 INTER-LIGAND FREE ENERGY PREDICTED BY IDOCK:   -5.75 KCAL/MOL
REMARK 924 INTRA-LIGAND FREE ENERGY PREDICTED BY IDOCK:   -0.62 KCAL/MOL
REMARK 927      BINDING AFFINITY PREDICTED BY RF-SCORE:    0.00 PKD
ROOT
HETATM    1  O   UNL     1     -12.513  14.316  63.289  1.00  0.00    -1.133 OA 
HETATM    2  C   UNL     1     -12.044  12.981  63.370  1.00  0.00    -0.515 C  
HETATM    3  H   UNL     1     -12.327  14.699  62.439  1.00  0.00     0.000 HD 
ENDROOT
BRANCH   2   4
HETATM    4  C   UNL     1     -12.344  12.365  64.736  1.00  0.00    -0.423 C  
BRANCH   4   5
HETATM    5  O   UNL     1     -12.542  13.443  65.656  1.00  0.00    -0.466 OA 
BRANCH   5   6
HETATM    6  C   UNL     1     -12.136  13.190  66.923  1.00  0.00    -0.316 C  
HETATM    7  O   UNL     1     -11.919  12.086  67.396  1.00  0.00    -0.583 OA 
BRANCH   6   8
HETATM    8  C   UNL     1     -11.666  14.456  67.549  1.00  0.00    -0.416 A  
HETATM    9  C   UNL     1     -11.990  14.628  68.906  1.00  0.00    -0.309 A  
HETATM   10  C   UNL     1     -11.455  15.692  69.633  1.00  0.00    -0.345 A  
HETATM   11  C   UNL     1     -10.596  16.595  69.012  1.00  0.00    -0.340 A  
HETATM   12  C   UNL     1     -10.289  16.452  67.658  1.00  0.00    -0.284 A  
HETATM   13  C   UNL     1     -10.828  15.391  66.925  1.00  0.00    -0.313 A  
HETATM   14  O   UNL     1     -10.522  15.287  65.597  1.00  0.00    -0.307 OA 
HETATM   15  H   UNL     1      -9.954  15.920  65.174  1.00  0.00     0.000 HD 
ENDBRANCH   6   8
ENDBRANCH   5   6
ENDBRANCH   4   5
ENDBRANCH   2   4
TORSDOF 4
ENDMDL
MODEL       17
REMARK 921   NORMALIZED FREE ENERGY PREDICTED BY IDOCK:   -4.83 KCAL/MOL
REMARK 922        TOTAL FREE ENERGY PREDICTED BY IDOCK:   -6.37 KCAL/MOL
REMARK 923 INTER-LIGAND FREE ENERGY PREDICTED BY IDOCK:   -5.65 KCAL/MOL
REMARK 924 INTRA-LIGAND FREE ENERGY PREDICTED BY IDOCK:   -0.71 KCAL/MOL
REMARK 927      BINDING AFFINITY PREDICTED BY RF-SCORE:    0.00 PKD
ROOT
HETATM    1  O   UNL     1     -12.147  11.070  68.111  1.00  0.00    -0.743 OA 
HETATM    2  C   UNL     1     -11.021  10.832  67.284  1.00  0.00    -0.297 C  
HETATM    3  H   UNL     1     -12.108  10.554  68.909  1.00  0.00     0.000 HD 
ENDROOT
BRANCH   2   4
HETATM    4  C   UNL     1     -11.082  11.662  66.003  1.00  0.00    -0.270 C  
BRANCH   4   5
HETATM    5  O   UNL     1     -12.242  12.496  66.090  1.00  0.00    -0.609 OA 
BRANCH   5   6
HETATM    6  C   UNL     1     -12.171  13.645  65.376  1.00  0.00    -0.444 C  
HETATM    7  O   UNL     1     -12.855  13.924  64.404  1.00  0.00    -0.632 OA 
BRANCH   6   8
HETATM    8  C   UNL     1     -11.390  14.653  66.143  1.00  0.00    -0.350 A  
HETATM    9  C   UNL     1     -10.499  15.440  65.394  1.00  0.00    -0.426 A  
HETATM   10  C   UNL     1      -9.846  16.524  65.980  1.00  0.00    -0.348 A  
HETATM   11  C   UNL     1     -10.073  16.830  67.319  1.00  0.00    -0.281 A  
HETATM   12  C   UNL     1     -10.933  16.039  68.082  1.00  0.00    -0.339 A  
HETATM   13  C   UNL     1     -11.584  14.948  67.500  1.00  0.00    -0.339 A  
HETATM   14  O   UNL     1     -12.408  14.183  68.277  1.00  0.00    -0.574 OA 
HETATM   15  H   UNL     1     -12.540  14.383  69.196  1.00  0.00     0.000 HD 
ENDBRANCH   6   8
ENDBRANCH   5   6
ENDBRANCH   4   5
ENDBRANCH   2   4
TORSDOF 4
ENDMDL
MODEL       18
REMARK 921   NORMALIZED FREE ENERGY PREDICTED BY IDOCK:   -4.82 KCAL/MOL
REMARK 922        TOTAL FREE ENERGY PREDICTED BY IDOCK:   -6.36 KCAL/MOL
REMARK 923 INTER-LIGAND FREE ENERGY PREDICTED BY IDOCK:   -6.01 KCAL/MOL
REMARK 924 INTRA-LIGAND FREE ENERGY PREDICTED BY IDOCK:   -0.35 KCAL/MOL
REMARK 927      BINDING AFFINITY PREDICTED BY RF-SCORE:    0.00 PKD
ROOT
HETATM    1  O   UNL     1     -12.057  15.954  63.687  1.00  0.00    -1.223 OA 
HETATM    2  C   UNL     1     -11.840  14.804  64.487  1.00  0.00    -0.419 C  
HETATM    3  H   UNL     1     -12.935  15.964  63.323  1.00  0.00     0.000 HD 
ENDROOT
BRANCH   2   4
HETATM    4  C   UNL     1     -10.429  14.788  65.073  1.00  0.00    -0.416 C  
BRANCH   4   5
HETATM    5  O   UNL     1     -10.151  16.107  65.552  1.00  0.00    -0.435 OA 
BRANCH   5   6
HETATM    6  C   UNL     1     -10.634  16.377  66.788  1.00  0.00    -0.238 C  
HETATM    7  O   UNL     1     -11.028  15.550  67.596  1.00  0.00    -0.303 OA 
BRANCH   6   8
HETATM    8  C   UNL     1     -10.299  17.781  67.151  1.00  0.00    -0.354 A  
HETATM    9  C   UNL     1     -10.192  18.684  66.081  1.00  0.00    -0.450 A  
HETATM   10  C   UNL     1     -10.052  20.052  66.317  1.00  0.00    -0.603 A  
HETATM   11  C   UNL     1     -10.014  20.529  67.625  1.00  0.00    -0.454 A  
HETATM   12  C   UNL     1     -10.090  19.640  68.698  1.00  0.00    -0.547 A  
HETATM   13  C   UNL     1     -10.224  18.268  68.464  1.00  0.00    -0.379 A  
HETATM   14  O   UNL     1     -10.280  17.422  69.535  1.00  0.00    -0.192 OA 
HETATM   15  H   UNL     1     -10.229  17.752  70.424  1.00  0.00     0.000 HD 
ENDBRANCH   6   8
ENDBRANCH   5   6
ENDBRANCH   4   5
ENDBRANCH   2   4
TORSDOF 4
ENDMDL
MODEL       19
REMARK 921   NORMALIZED FREE ENERGY PREDICTED BY IDOCK:   -4.81 KCAL/MOL
REMARK 922        TOTAL FREE ENERGY PREDICTED BY IDOCK:   -6.35 KCAL/MOL
REMARK 923 INTER-LIGAND FREE ENERGY PREDICTED BY IDOCK:   -5.61 KCAL/MOL
REMARK 924 INTRA-LIGAND FREE ENERGY PREDICTED BY IDOCK:   -0.73 KCAL/MOL
REMARK 927      BINDING AFFINITY PREDICTED BY RF-SCORE:    0.00 PKD
ROOT
HETATM    1  O   UNL     1     -11.929  10.596  68.170  1.00  0.00    -0.791 OA 
HETATM    2  C   UNL     1     -11.024  11.095  67.200  1.00  0.00    -0.291 C  
HETATM    3  H   UNL     1     -12.006   9.650  68.121  1.00  0.00     0.000 HD 
ENDROOT
BRANCH   2   4
HETATM    4  C   UNL     1     -10.901  12.615  67.280  1.00  0.00    -0.248 C  
BRANCH   4   5
HETATM    5  O   UNL     1     -11.879  13.074  68.219  1.00  0.00    -0.334 OA 
BRANCH   5   6
HETATM    6  C   UNL     1     -11.462  14.073  69.033  1.00  0.00    -0.296 C  
HETATM    7  O   UNL     1     -10.770  15.022  68.700  1.00  0.00    -0.231 OA 
BRANCH   6   8
HETATM    8  C   UNL     1     -12.244  14.034  70.299  1.00  0.00    -0.430 A  
HETATM    9  C   UNL     1     -12.909  15.221  70.648  1.00  0.00    -0.462 A  
HETATM   10  C   UNL     1     -13.803  15.245  71.718  1.00  0.00    -0.622 A  
HETATM   11  C   UNL     1     -14.039  14.085  72.451  1.00  0.00    -0.576 A  
HETATM   12  C   UNL     1     -13.364  12.906  72.133  1.00  0.00    -0.615 A  
HETATM   13  C   UNL     1     -12.463  12.880  71.065  1.00  0.00    -0.283 A  
HETATM   14  O   UNL     1     -11.805  11.715  70.788  1.00  0.00    -0.435 OA 
HETATM   15  H   UNL     1     -11.953  10.933  71.307  1.00  0.00     0.000 HD 
ENDBRANCH   6   8
ENDBRANCH   5   6
ENDBRANCH   4   5
ENDBRANCH   2   4
TORSDOF 4
ENDMDL
MODEL       20
REMARK 921   NORMALIZED FREE ENERGY PREDICTED BY IDOCK:   -4.81 KCAL/MOL
REMARK 922        TOTAL FREE ENERGY PREDICTED BY IDOCK:   -6.35 KCAL/MOL
REMARK 923 INTER-LIGAND FREE ENERGY PREDICTED BY IDOCK:   -5.79 KCAL/MOL
REMARK 924 INTRA-LIGAND FREE ENERGY PREDICTED BY IDOCK:   -0.55 KCAL/MOL
REMARK 927      BINDING AFFINITY PREDICTED BY RF-SCORE:    0.00 PKD
ROOT
HETATM    1  O   UNL     1     -13.595   8.979  72.927  1.00  0.00    -0.830 OA 
HETATM    2  C   UNL     1     -12.384   8.511  72.358  1.00  0.00    -0.359 C  
HETATM    3  H   UNL     1     -13.820   8.496  73.714  1.00  0.00     0.000 HD 
ENDROOT
BRANCH   2   4
HETATM    4  C   UNL     1     -12.023   9.288  71.094  1.00  0.00    -0.322 C  
BRANCH   4   5
HETATM    5  O   UNL     1     -12.063  10.680  71.422  1.00  0.00    -0.328 OA 
BRANCH   5   6
HETATM    6  C   UNL     1     -12.216  11.510  70.363  1.00  0.00    -0.355 C  
HETATM    7  O   UNL     1     -12.361  11.164  69.201  1.00  0.00    -0.438 OA 
BRANCH   6   8
HETATM    8  C   UNL     1     -12.524  12.881  70.854  1.00  0.00    -0.383 A  
HETATM    9  C   UNL     1     -11.963  13.938  70.117  1.00  0.00    -0.402 A  
HETATM   10  C   UNL     1     -12.324  15.259  70.385  1.00  0.00    -0.422 A  
HETATM   11  C   UNL     1     -13.244  15.536  71.392  1.00  0.00    -0.587 A  
HETATM   12  C   UNL     1     -13.787  14.498  72.151  1.00  0.00    -0.574 A  
HETATM   13  C   UNL     1     -13.423  13.174  71.889  1.00  0.00    -0.424 A  
HETATM   14  O   UNL     1     -13.959  12.181  72.659  1.00  0.00    -0.365 OA 
HETATM   15  H   UNL     1     -14.569  12.379  73.360  1.00  0.00     0.000 HD 
ENDBRANCH   6   8
ENDBRANCH   5   6
ENDBRANCH   4   5
ENDBRANCH   2   4
TORSDOF 4
ENDMDL
MODEL       21
REMARK 921   NORMALIZED FREE ENERGY PREDICTED BY IDOCK:   -4.76 KCAL/MOL
REMARK 922        TOTAL FREE ENERGY PREDICTED BY IDOCK:   -6.29 KCAL/MOL
REMARK 923 INTER-LIGAND FREE ENERGY PREDICTED BY IDOCK:   -5.92 KCAL/MOL
REMARK 924 INTRA-LIGAND FREE ENERGY PREDICTED BY IDOCK:   -0.36 KCAL/MOL
REMARK 927      BINDING AFFINITY PREDICTED BY RF-SCORE:    0.00 PKD
ROOT
HETATM    1  O   UNL     1     -12.611  14.612  69.455  1.00  0.00    -0.570 OA 
HETATM    2  C   UNL     1     -11.790  15.543  68.770  1.00  0.00    -0.317 C  
HETATM    3  H   UNL     1     -12.883  14.946  70.302  1.00  0.00     0.000 HD 
ENDROOT
BRANCH   2   4
HETATM    4  C   UNL     1     -11.352  15.007  67.408  1.00  0.00    -0.332 C  
BRANCH   4   5
HETATM    5  O   UNL     1     -12.006  13.749  67.214  1.00  0.00    -0.385 OA 
BRANCH   5   6
HETATM    6  C   UNL     1     -12.394  13.499  65.941  1.00  0.00    -0.456 C  
HETATM    7  O   UNL     1     -13.204  14.151  65.301  1.00  0.00    -0.760 OA 
BRANCH   6   8
HETATM    8  C   UNL     1     -11.448  12.533  65.320  1.00  0.00    -0.374 A  
HETATM    9  C   UNL     1     -10.730  11.717  66.210  1.00  0.00    -0.317 A  
HETATM   10  C   UNL     1      -9.947  10.665  65.734  1.00  0.00    -0.315 A  
HETATM   11  C   UNL     1      -9.872  10.421  64.365  1.00  0.00    -0.395 A  
HETATM   12  C   UNL     1     -10.556  11.241  63.468  1.00  0.00    -0.436 A  
HETATM   13  C   UNL     1     -11.337  12.300  63.942  1.00  0.00    -0.429 A  
HETATM   14  O   UNL     1     -11.983  13.096  63.037  1.00  0.00    -0.835 OA 
HETATM   15  H   UNL     1     -11.908  12.938  62.104  1.00  0.00     0.000 HD 
ENDBRANCH   6   8
ENDBRANCH   5   6
ENDBRANCH   4   5
ENDBRANCH   2   4
TORSDOF 4
ENDMDL
MODEL       22
REMARK 921   NORMALIZED FREE ENERGY PREDICTED BY IDOCK:   -4.73 KCAL/MOL
REMARK 922        TOTAL FREE ENERGY PREDICTED BY IDOCK:   -6.25 KCAL/MOL
REMARK 923 INTER-LIGAND FREE ENERGY PREDICTED BY IDOCK:   -5.57 KCAL/MOL
REMARK 924 INTRA-LIGAND FREE ENERGY PREDICTED BY IDOCK:   -0.68 KCAL/MOL
REMARK 927      BINDING AFFINITY PREDICTED BY RF-SCORE:    0.00 PKD
ROOT
HETATM    1  O   UNL     1     -11.803   6.760  69.465  1.00  0.00    -0.635 OA 
HETATM    2  C   UNL     1     -11.416   6.418  70.785  1.00  0.00    -0.353 C  
HETATM    3  H   UNL     1     -11.222   6.372  68.820  1.00  0.00     0.000 HD 
ENDROOT
BRANCH   2   4
HETATM    4  C   UNL     1     -12.349   7.043  71.821  1.00  0.00    -0.354 C  
BRANCH   4   5
HETATM    5  O   UNL     1     -12.088   8.449  71.838  1.00  0.00    -0.300 OA 
BRANCH   5   6
HETATM    6  C   UNL     1     -13.185   9.230  71.977  1.00  0.00    -0.447 C  
HETATM    7  O   UNL     1     -14.118   9.021  72.737  1.00  0.00    -0.524 OA 
BRANCH   6   8
HETATM    8  C   UNL     1     -12.937  10.547  71.329  1.00  0.00    -0.532 A  
HETATM    9  C   UNL     1     -13.394  11.674  72.032  1.00  0.00    -0.405 A  
HETATM   10  C   UNL     1     -13.065  12.960  71.603  1.00  0.00    -0.430 A  
HETATM   11  C   UNL     1     -12.279  13.132  70.466  1.00  0.00    -0.405 A  
HETATM   12  C   UNL     1     -11.843  12.021  69.742  1.00  0.00    -0.401 A  
HETATM   13  C   UNL     1     -12.176  10.732  70.166  1.00  0.00    -0.346 A  
HETATM   14  O   UNL     1     -11.747   9.666  69.427  1.00  0.00    -0.438 OA 
HETATM   15  H   UNL     1     -11.232   9.791  68.639  1.00  0.00     0.000 HD 
ENDBRANCH   6   8
ENDBRANCH   5   6
ENDBRANCH   4   5
ENDBRANCH   2   4
TORSDOF 4
ENDMDL
MODEL       23
REMARK 921   NORMALIZED FREE ENERGY PREDICTED BY IDOCK:   -4.72 KCAL/MOL
REMARK 922        TOTAL FREE ENERGY PREDICTED BY IDOCK:   -6.24 KCAL/MOL
REMARK 923 INTER-LIGAND FREE ENERGY PREDICTED BY IDOCK:   -5.95 KCAL/MOL
REMARK 924 INTRA-LIGAND FREE ENERGY PREDICTED BY IDOCK:   -0.29 KCAL/MOL
REMARK 927      BINDING AFFINITY PREDICTED BY RF-SCORE:    0.00 PKD
ROOT
HETATM    1  O   UNL     1     -12.582  11.465  62.882  1.00  0.00    -0.970 OA 
HETATM    2  C   UNL     1     -11.519  12.277  63.350  1.00  0.00    -0.430 C  
HETATM    3  H   UNL     1     -12.262  10.653  62.507  1.00  0.00     0.000 HD 
ENDROOT
BRANCH   2   4
HETATM    4  C   UNL     1     -12.034  13.582  63.954  1.00  0.00    -0.440 C  
BRANCH   4   5
HETATM    5  O   UNL     1     -10.910  14.264  64.518  1.00  0.00    -0.381 OA 
BRANCH   5   6
HETATM    6  C   UNL     1     -11.085  15.595  64.700  1.00  0.00    -0.373 C  
HETATM    7  O   UNL     1     -11.682  16.346  63.944  1.00  0.00    -1.085 OA 
BRANCH   6   8
HETATM    8  C   UNL     1     -10.749  15.947  66.106  1.00  0.00    -0.273 A  
HETATM    9  C   UNL     1      -9.915  17.065  66.278  1.00  0.00    -0.324 A  
HETATM   10  C   UNL     1      -9.677  17.583  67.551  1.00  0.00    -0.278 A  
HETATM   11  C   UNL     1     -10.266  16.988  68.663  1.00  0.00    -0.321 A  
HETATM   12  C   UNL     1     -11.074  15.860  68.510  1.00  0.00    -0.340 A  
HETATM   13  C   UNL     1     -11.309  15.335  67.236  1.00  0.00    -0.269 A  
HETATM   14  O   UNL     1     -12.091  14.220  67.120  1.00  0.00    -0.465 OA 
HETATM   15  H   UNL     1     -12.471  13.806  67.886  1.00  0.00     0.000 HD 
ENDBRANCH   6   8
ENDBRANCH   5   6
ENDBRANCH   4   5
ENDBRANCH   2   4
TORSDOF 4
ENDMDL
MODEL       24
REMARK 921   NORMALIZED FREE ENERGY PREDICTED BY IDOCK:   -4.68 KCAL/MOL
REMARK 922        TOTAL FREE ENERGY PREDICTED BY IDOCK:   -6.19 KCAL/MOL
REMARK 923 INTER-LIGAND FREE ENERGY PREDICTED BY IDOCK:   -5.79 KCAL/MOL
REMARK 924 INTRA-LIGAND FREE ENERGY PREDICTED BY IDOCK:   -0.40 KCAL/MOL
REMARK 927      BINDING AFFINITY PREDICTED BY RF-SCORE:    0.00 PKD
ROOT
HETATM    1  O   UNL     1     -12.809  11.870  71.262  1.00  0.00    -0.380 OA 
HETATM    2  C   UNL     1     -12.321  10.814  70.453  1.00  0.00    -0.353 C  
HETATM    3  H   UNL     1     -13.444  11.558  71.897  1.00  0.00     0.000 HD 
ENDROOT
BRANCH   2   4
HETATM    4  C   UNL     1     -11.302  11.315  69.432  1.00  0.00    -0.292 C  
BRANCH   4   5
HETATM    5  O   UNL     1     -11.964  11.383  68.165  1.00  0.00    -0.594 OA 
BRANCH   5   6
HETATM    6  C   UNL     1     -11.891  12.587  67.549  1.00  0.00    -0.323 C  
HETATM    7  O   UNL     1     -11.803  13.670  68.107  1.00  0.00    -0.342 OA 
BRANCH   6   8
HETATM    8  C   UNL     1     -11.589  12.383  66.106  1.00  0.00    -0.452 A  
HETATM    9  C   UNL     1     -10.634  11.395  65.812  1.00  0.00    -0.315 A  
HETATM   10  C   UNL     1     -10.401  11.005  64.493  1.00  0.00    -0.420 A  
HETATM   11  C   UNL     1     -11.116  11.599  63.457  1.00  0.00    -0.476 A  
HETATM   12  C   UNL     1     -12.047  12.602  63.733  1.00  0.00    -0.604 A  
HETATM   13  C   UNL     1     -12.278  13.000  65.053  1.00  0.00    -0.453 A  
HETATM   14  O   UNL     1     -13.184  13.996  65.290  1.00  0.00    -0.782 OA 
HETATM   15  H   UNL     1     -13.651  14.413  64.576  1.00  0.00     0.000 HD 
ENDBRANCH   6   8
ENDBRANCH   5   6
ENDBRANCH   4   5
ENDBRANCH   2   4
TORSDOF 4
ENDMDL
MODEL       25
REMARK 921   NORMALIZED FREE ENERGY PREDICTED BY IDOCK:   -4.67 KCAL/MOL
REMARK 922        TOTAL FREE ENERGY PREDICTED BY IDOCK:   -6.17 KCAL/MOL
REMARK 923 INTER-LIGAND FREE ENERGY PREDICTED BY IDOCK:   -5.73 KCAL/MOL
REMARK 924 INTRA-LIGAND FREE ENERGY PREDICTED BY IDOCK:   -0.44 KCAL/MOL
REMARK 927      BINDING AFFINITY PREDICTED BY RF-SCORE:    0.00 PKD
ROOT
HETATM    1  O   UNL     1     -12.325  14.068  62.903  1.00  0.00    -1.011 OA 
HETATM    2  C   UNL     1     -11.843  12.844  63.429  1.00  0.00    -0.507 C  
HETATM    3  H   UNL     1     -11.858  14.316  62.113  1.00  0.00     0.000 HD 
ENDROOT
BRANCH   2   4
HETATM    4  C   UNL     1     -12.594  12.444  64.697  1.00  0.00    -0.375 C  
BRANCH   4   5
HETATM    5  O   UNL     1     -12.693  13.611  65.520  1.00  0.00    -0.504 OA 
BRANCH   5   6
HETATM    6  C   UNL     1     -12.260  13.448  66.793  1.00  0.00    -0.312 C  
HETATM    7  O   UNL     1     -12.249  12.396  67.414  1.00  0.00    -0.459 OA 
BRANCH   6   8
HETATM    8  C   UNL     1     -11.485  14.650  67.206  1.00  0.00    -0.386 A  
HETATM    9  C   UNL     1     -10.626  15.191  66.236  1.00  0.00    -0.312 A  
HETATM   10  C   UNL     1      -9.985  16.410  66.457  1.00  0.00    -0.294 A  
HETATM   11  C   UNL     1     -10.194  17.097  67.650  1.00  0.00    -0.329 A  
HETATM   12  C   UNL     1     -11.022  16.557  68.634  1.00  0.00    -0.344 A  
HETATM   13  C   UNL     1     -11.661  15.333  68.418  1.00  0.00    -0.349 A  
HETATM   14  O   UNL     1     -12.453  14.821  69.408  1.00  0.00    -0.549 OA 
HETATM   15  H   UNL     1     -12.572  15.284  70.228  1.00  0.00     0.000 HD 
ENDBRANCH   6   8
ENDBRANCH   5   6
ENDBRANCH   4   5
ENDBRANCH   2   4
TORSDOF 4
ENDMDL
MODEL       26
REMARK 921   NORMALIZED FREE ENERGY PREDICTED BY IDOCK:   -4.62 KCAL/MOL
REMARK 922        TOTAL FREE ENERGY PREDICTED BY IDOCK:   -6.11 KCAL/MOL
REMARK 923 INTER-LIGAND FREE ENERGY PREDICTED BY IDOCK:   -5.64 KCAL/MOL
REMARK 924 INTRA-LIGAND FREE ENERGY PREDICTED BY IDOCK:   -0.46 KCAL/MOL
REMARK 927      BINDING AFFINITY PREDICTED BY RF-SCORE:    0.00 PKD
ROOT
HETATM    1  O   UNL     1     -14.330  15.455  70.727  1.00  0.00    -0.842 OA 
HETATM    2  C   UNL     1     -14.324  15.175  72.116  1.00  0.00    -0.552 C  
HETATM    3  H   UNL     1     -15.031  16.052  70.494  1.00  0.00     0.000 HD 
ENDROOT
BRANCH   2   4
HETATM    4  C   UNL     1     -13.196  14.215  72.489  1.00  0.00    -0.502 C  
BRANCH   4   5
HETATM    5  O   UNL     1     -12.523  13.856  71.279  1.00  0.00    -0.344 OA 
BRANCH   5   6
HETATM    6  C   UNL     1     -12.540  12.533  70.990  1.00  0.00    -0.256 C  
HETATM    7  O   UNL     1     -13.131  11.672  71.622  1.00  0.00    -0.445 OA 
BRANCH   6   8
HETATM    8  C   UNL     1     -12.023  12.325  69.609  1.00  0.00    -0.347 A  
HETATM    9  C   UNL     1     -11.577  11.027  69.308  1.00  0.00    -0.384 A  
HETATM   10  C   UNL     1     -11.234  10.680  68.002  1.00  0.00    -0.373 A  
HETATM   11  C   UNL     1     -11.330  11.627  66.985  1.00  0.00    -0.373 A  
HETATM   12  C   UNL     1     -11.744  12.927  67.275  1.00  0.00    -0.431 A  
HETATM   13  C   UNL     1     -12.082  13.280  68.584  1.00  0.00    -0.222 A  
HETATM   14  O   UNL     1     -12.468  14.566  68.839  1.00  0.00    -0.573 OA 
HETATM   15  H   UNL     1     -12.509  15.212  68.145  1.00  0.00     0.000 HD 
ENDBRANCH   6   8
ENDBRANCH   5   6
ENDBRANCH   4   5
ENDBRANCH   2   4
TORSDOF 4
ENDMDL
MODEL       27
REMARK 921   NORMALIZED FREE ENERGY PREDICTED BY IDOCK:   -4.61 KCAL/MOL
REMARK 922        TOTAL FREE ENERGY PREDICTED BY IDOCK:   -6.10 KCAL/MOL
REMARK 923 INTER-LIGAND FREE ENERGY PREDICTED BY IDOCK:   -5.71 KCAL/MOL
REMARK 924 INTRA-LIGAND FREE ENERGY PREDICTED BY IDOCK:   -0.39 KCAL/MOL
REMARK 927      BINDING AFFINITY PREDICTED BY RF-SCORE:    0.00 PKD
ROOT
HETATM    1  O   UNL     1     -13.765  15.751  73.788  1.00  0.00    -0.656 OA 
HETATM    2  C   UNL     1     -12.443  16.241  73.645  1.00  0.00    -0.545 C  
HETATM    3  H   UNL     1     -14.109  15.923  74.658  1.00  0.00     0.000 HD 
ENDROOT
BRANCH   2   4
HETATM    4  C   UNL     1     -11.892  15.964  72.248  1.00  0.00    -0.516 C  
BRANCH   4   5
HETATM    5  O   UNL     1     -12.816  15.091  71.590  1.00  0.00    -0.305 OA 
BRANCH   5   6
HETATM    6  C   UNL     1     -12.343  14.507  70.463  1.00  0.00    -0.337 C  
HETATM    7  O   UNL     1     -11.676  15.057  69.601  1.00  0.00    -0.284 OA 
BRANCH   6   8
HETATM    8  C   UNL     1     -12.457  13.029  70.591  1.00  0.00    -0.347 A  
HETATM    9  C   UNL     1     -11.681  12.272  69.697  1.00  0.00    -0.386 A  
HETATM   10  C   UNL     1     -11.582  10.888  69.840  1.00  0.00    -0.410 A  
HETATM   11  C   UNL     1     -12.258  10.247  70.875  1.00  0.00    -0.465 A  
HETATM   12  C   UNL     1     -13.055  10.983  71.753  1.00  0.00    -0.554 A  
HETATM   13  C   UNL     1     -13.161  12.369  71.608  1.00  0.00    -0.269 A  
HETATM   14  O   UNL     1     -13.963  13.060  72.474  1.00  0.00    -0.632 OA 
HETATM   15  H   UNL     1     -14.439  12.613  73.163  1.00  0.00     0.000 HD 
ENDBRANCH   6   8
ENDBRANCH   5   6
ENDBRANCH   4   5
ENDBRANCH   2   4
TORSDOF 4
ENDMDL
MODEL       28
REMARK 921   NORMALIZED FREE ENERGY PREDICTED BY IDOCK:   -4.60 KCAL/MOL
REMARK 922        TOTAL FREE ENERGY PREDICTED BY IDOCK:   -6.09 KCAL/MOL
REMARK 923 INTER-LIGAND FREE ENERGY PREDICTED BY IDOCK:   -5.63 KCAL/MOL
REMARK 924 INTRA-LIGAND FREE ENERGY PREDICTED BY IDOCK:   -0.45 KCAL/MOL
REMARK 927      BINDING AFFINITY PREDICTED BY RF-SCORE:    0.00 PKD
ROOT
HETATM    1  O   UNL     1     -11.604   6.529  67.591  1.00  0.00    -0.670 OA 
HETATM    2  C   UNL     1     -10.546   6.476  68.533  1.00  0.00    -0.244 C  
HETATM    3  H   UNL     1     -11.303   6.847  66.748  1.00  0.00     0.000 HD 
ENDROOT
BRANCH   2   4
HETATM    4  C   UNL     1     -11.030   5.964  69.889  1.00  0.00    -0.374 C  
BRANCH   4   5
HETATM    5  O   UNL     1     -11.019   7.074  70.793  1.00  0.00    -0.239 OA 
BRANCH   5   6
HETATM    6  C   UNL     1     -12.237   7.442  71.256  1.00  0.00    -0.341 C  
HETATM    7  O   UNL     1     -13.041   6.708  71.809  1.00  0.00    -0.294 OA 
BRANCH   6   8
HETATM    8  C   UNL     1     -12.315   8.927  71.306  1.00  0.00    -0.342 A  
HETATM    9  C   UNL     1     -11.469   9.618  70.421  1.00  0.00    -0.325 A  
HETATM   10  C   UNL     1     -11.583  10.999  70.263  1.00  0.00    -0.414 A  
HETATM   11  C   UNL     1     -12.539  11.703  70.990  1.00  0.00    -0.431 A  
HETATM   12  C   UNL     1     -13.366  11.035  71.894  1.00  0.00    -0.423 A  
HETATM   13  C   UNL     1     -13.250   9.651  72.058  1.00  0.00    -0.453 A  
HETATM   14  O   UNL     1     -14.063   9.027  72.963  1.00  0.00    -1.086 OA 
HETATM   15  H   UNL     1     -14.697   9.518  73.473  1.00  0.00     0.000 HD 
ENDBRANCH   6   8
ENDBRANCH   5   6
ENDBRANCH   4   5
ENDBRANCH   2   4
TORSDOF 4
ENDMDL
MODEL       29
REMARK 921   NORMALIZED FREE ENERGY PREDICTED BY IDOCK:   -4.60 KCAL/MOL
REMARK 922        TOTAL FREE ENERGY PREDICTED BY IDOCK:   -6.09 KCAL/MOL
REMARK 923 INTER-LIGAND FREE ENERGY PREDICTED BY IDOCK:   -5.75 KCAL/MOL
REMARK 924 INTRA-LIGAND FREE ENERGY PREDICTED BY IDOCK:   -0.33 KCAL/MOL
REMARK 927      BINDING AFFINITY PREDICTED BY RF-SCORE:    0.00 PKD
ROOT
HETATM    1  O   UNL     1     -13.361  15.372  70.575  1.00  0.00    -0.699 OA 
HETATM    2  C   UNL     1     -12.390  14.448  70.112  1.00  0.00    -0.348 C  
HETATM    3  H   UNL     1     -13.877  15.008  71.285  1.00  0.00     0.000 HD 
ENDROOT
BRANCH   2   4
HETATM    4  C   UNL     1     -11.560  15.033  68.971  1.00  0.00    -0.319 C  
BRANCH   4   5
HETATM    5  O   UNL     1     -11.929  14.337  67.776  1.00  0.00    -0.371 OA 
BRANCH   5   6
HETATM    6  C   UNL     1     -11.481  14.901  66.628  1.00  0.00    -0.296 C  
HETATM    7  O   UNL     1     -10.990  16.014  66.525  1.00  0.00    -0.226 OA 
BRANCH   6   8
HETATM    8  C   UNL     1     -11.356  13.850  65.581  1.00  0.00    -0.310 A  
HETATM    9  C   UNL     1     -10.739  12.653  65.981  1.00  0.00    -0.295 A  
HETATM   10  C   UNL     1     -10.723  11.545  65.134  1.00  0.00    -0.348 A  
HETATM   11  C   UNL     1     -11.321  11.624  63.879  1.00  0.00    -0.457 A  
HETATM   12  C   UNL     1     -11.912  12.815  63.458  1.00  0.00    -0.633 A  
HETATM   13  C   UNL     1     -11.924  13.929  64.302  1.00  0.00    -0.444 A  
HETATM   14  O   UNL     1     -12.497  15.086  63.854  1.00  0.00    -1.005 OA 
HETATM   15  H   UNL     1     -12.882  15.140  62.988  1.00  0.00     0.000 HD 
ENDBRANCH   6   8
ENDBRANCH   5   6
ENDBRANCH   4   5
ENDBRANCH   2   4
TORSDOF 4
ENDMDL
MODEL       30
REMARK 921   NORMALIZED FREE ENERGY PREDICTED BY IDOCK:   -4.58 KCAL/MOL
REMARK 922        TOTAL FREE ENERGY PREDICTED BY IDOCK:   -6.06 KCAL/MOL
REMARK 923 INTER-LIGAND FREE ENERGY PREDICTED BY IDOCK:   -5.85 KCAL/MOL
REMARK 924 INTRA-LIGAND FREE ENERGY PREDICTED BY IDOCK:   -0.22 KCAL/MOL
REMARK 927      BINDING AFFINITY PREDICTED BY RF-SCORE:    0.00 PKD
ROOT
HETATM    1  O   UNL     1     -10.192  17.856  68.524  1.00  0.00    -0.363 OA 
HETATM    2  C   UNL     1      -9.515  18.273  67.351  1.00  0.00    -0.266 C  
HETATM    3  H   UNL     1      -9.658  17.986  69.299  1.00  0.00     0.000 HD 
ENDROOT
BRANCH   2   4
HETATM    4  C   UNL     1     -10.373  18.064  66.105  1.00  0.00    -0.366 C  
BRANCH   4   5
HETATM    5  O   UNL     1     -10.023  16.791  65.554  1.00  0.00    -0.567 OA 
BRANCH   5   6
HETATM    6  C   UNL     1     -11.017  16.173  64.873  1.00  0.00    -0.349 C  
HETATM    7  O   UNL     1     -11.554  16.590  63.859  1.00  0.00    -1.175 OA 
BRANCH   6   8
HETATM    8  C   UNL     1     -11.125  14.762  65.335  1.00  0.00    -0.359 A  
HETATM    9  C   UNL     1     -12.359  14.132  65.102  1.00  0.00    -0.460 A  
HETATM   10  C   UNL     1     -12.514  12.766  65.339  1.00  0.00    -0.478 A  
HETATM   11  C   UNL     1     -11.439  12.018  65.812  1.00  0.00    -0.377 A  
HETATM   12  C   UNL     1     -10.216  12.637  66.075  1.00  0.00    -0.287 A  
HETATM   13  C   UNL     1     -10.060  14.007  65.844  1.00  0.00    -0.321 A  
HETATM   14  O   UNL     1      -8.855  14.587  66.127  1.00  0.00    -0.480 OA 
HETATM   15  H   UNL     1      -8.133  14.075  66.471  1.00  0.00     0.000 HD 
ENDBRANCH   6   8
ENDBRANCH   5   6
ENDBRANCH   4   5
ENDBRANCH   2   4
TORSDOF 4
ENDMDL
MODEL       31
REMARK 921   NORMALIZED FREE ENERGY PREDICTED BY IDOCK:   -4.58 KCAL/MOL
REMARK 922        TOTAL FREE ENERGY PREDICTED BY IDOCK:   -6.06 KCAL/MOL
REMARK 923 INTER-LIGAND FREE ENERGY PREDICTED BY IDOCK:   -5.68 KCAL/MOL
REMARK 924 INTRA-LIGAND FREE ENERGY PREDICTED BY IDOCK:   -0.38 KCAL/MOL
REMARK 927      BINDING AFFINITY PREDICTED BY RF-SCORE:    0.00 PKD
ROOT
HETATM    1  O   UNL     1     -11.604  16.422  63.740  1.00  0.00    -1.605 OA 
HETATM    2  C   UNL     1     -12.115  15.151  64.101  1.00  0.00    -0.176 C  
HETATM    3  H   UNL     1     -12.188  16.876  63.143  1.00  0.00     0.000 HD 
ENDROOT
BRANCH   2   4
HETATM    4  C   UNL     1     -11.176  14.422  65.060  1.00  0.00    -0.375 C  
BRANCH   4   5
HETATM    5  O   UNL     1     -11.729  14.545  66.374  1.00  0.00    -0.372 OA 
BRANCH   5   6
HETATM    6  C   UNL     1     -11.099  13.818  67.327  1.00  0.00    -0.304 C  
HETATM    7  O   UNL     1     -10.051  13.207  67.182  1.00  0.00    -0.237 OA 
BRANCH   6   8
HETATM    8  C   UNL     1     -11.677  14.146  68.659  1.00  0.00    -0.385 A  
HETATM    9  C   UNL     1     -12.062  13.051  69.449  1.00  0.00    -0.267 A  
HETATM   10  C   UNL     1     -12.455  13.235  70.775  1.00  0.00    -0.403 A  
HETATM   11  C   UNL     1     -12.470  14.516  71.322  1.00  0.00    -0.416 A  
HETATM   12  C   UNL     1     -12.118  15.616  70.539  1.00  0.00    -0.430 A  
HETATM   13  C   UNL     1     -11.730  15.435  69.209  1.00  0.00    -0.349 A  
HETATM   14  O   UNL     1     -11.406  16.534  68.463  1.00  0.00    -0.356 OA 
HETATM   15  H   UNL     1     -11.441  17.407  68.836  1.00  0.00     0.000 HD 
ENDBRANCH   6   8
ENDBRANCH   5   6
ENDBRANCH   4   5
ENDBRANCH   2   4
TORSDOF 4
ENDMDL
MODEL       32
REMARK 921   NORMALIZED FREE ENERGY PREDICTED BY IDOCK:   -4.57 KCAL/MOL
REMARK 922        TOTAL FREE ENERGY PREDICTED BY IDOCK:   -6.05 KCAL/MOL
REMARK 923 INTER-LIGAND FREE ENERGY PREDICTED BY IDOCK:   -5.50 KCAL/MOL
REMARK 924 INTRA-LIGAND FREE ENERGY PREDICTED BY IDOCK:   -0.55 KCAL/MOL
REMARK 927      BINDING AFFINITY PREDICTED BY RF-SCORE:    0.00 PKD
ROOT
HETATM    1  O   UNL     1     -11.058   8.388  68.365  1.00  0.00    -0.426 OA 
HETATM    2  C   UNL     1     -10.698   8.524  69.729  1.00  0.00    -0.213 C  
HETATM    3  H   UNL     1     -11.363   7.509  68.172  1.00  0.00     0.000 HD 
ENDROOT
BRANCH   2   4
HETATM    4  C   UNL     1     -10.208   9.937  70.040  1.00  0.00    -0.271 C  
BRANCH   4   5
HETATM    5  O   UNL     1     -11.304  10.650  70.621  1.00  0.00    -0.316 OA 
BRANCH   5   6
HETATM    6  C   UNL     1     -11.909  11.536  69.794  1.00  0.00    -0.357 C  
HETATM    7  O   UNL     1     -12.273  11.310  68.651  1.00  0.00    -0.562 OA 
BRANCH   6   8
HETATM    8  C   UNL     1     -12.373  12.708  70.584  1.00  0.00    -0.375 A  
HETATM    9  C   UNL     1     -12.103  13.970  70.028  1.00  0.00    -0.412 A  
HETATM   10  C   UNL     1     -12.641  15.125  70.596  1.00  0.00    -0.450 A  
HETATM   11  C   UNL     1     -13.449  15.031  71.726  1.00  0.00    -0.504 A  
HETATM   12  C   UNL     1     -13.702  13.786  72.305  1.00  0.00    -0.673 A  
HETATM   13  C   UNL     1     -13.159  12.628  71.742  1.00  0.00    -0.360 A  
HETATM   14  O   UNL     1     -13.411  11.426  72.342  1.00  0.00    -0.585 OA 
HETATM   15  H   UNL     1     -13.944  11.372  73.126  1.00  0.00     0.000 HD 
ENDBRANCH   6   8
ENDBRANCH   5   6
ENDBRANCH   4   5
ENDBRANCH   2   4
TORSDOF 4
ENDMDL
MODEL       33
REMARK 921   NORMALIZED FREE ENERGY PREDICTED BY IDOCK:   -4.57 KCAL/MOL
REMARK 922        TOTAL FREE ENERGY PREDICTED BY IDOCK:   -6.05 KCAL/MOL
REMARK 923 INTER-LIGAND FREE ENERGY PREDICTED BY IDOCK:   -5.62 KCAL/MOL
REMARK 924 INTRA-LIGAND FREE ENERGY PREDICTED BY IDOCK:   -0.44 KCAL/MOL
REMARK 927      BINDING AFFINITY PREDICTED BY RF-SCORE:    0.00 PKD
ROOT
HETATM    1  O   UNL     1     -11.679  11.211  62.830  1.00  0.00    -0.749 OA 
HETATM    2  C   UNL     1     -10.404  11.187  63.450  1.00  0.00    -0.360 C  
HETATM    3  H   UNL     1     -11.631  10.922  61.926  1.00  0.00     0.000 HD 
ENDROOT
BRANCH   2   4
HETATM    4  C   UNL     1     -10.481  11.650  64.904  1.00  0.00    -0.288 C  
BRANCH   4   5
HETATM    5  O   UNL     1     -11.809  12.134  65.129  1.00  0.00    -0.358 OA 
BRANCH   5   6
HETATM    6  C   UNL     1     -11.972  12.835  66.276  1.00  0.00    -0.395 C  
HETATM    7  O   UNL     1     -12.154  12.356  67.384  1.00  0.00    -0.505 OA 
BRANCH   6   8
HETATM    8  C   UNL     1     -11.561  14.247  66.051  1.00  0.00    -0.362 A  
HETATM    9  C   UNL     1     -10.853  14.856  67.101  1.00  0.00    -0.311 A  
HETATM   10  C   UNL     1     -10.274  16.114  66.931  1.00  0.00    -0.283 A  
HETATM   11  C   UNL     1     -10.399  16.776  65.713  1.00  0.00    -0.322 A  
HETATM   12  C   UNL     1     -11.124  16.195  64.671  1.00  0.00    -0.310 A  
HETATM   13  C   UNL     1     -11.711  14.938  64.840  1.00  0.00    -0.371 A  
HETATM   14  O   UNL     1     -12.428  14.403  63.807  1.00  0.00    -1.002 OA 
HETATM   15  H   UNL     1     -12.529  14.871  62.987  1.00  0.00     0.000 HD 
ENDBRANCH   6   8
ENDBRANCH   5   6
ENDBRANCH   4   5
ENDBRANCH   2   4
TORSDOF 4
ENDMDL
MODEL       34
REMARK 921   NORMALIZED FREE ENERGY PREDICTED BY IDOCK:   -4.56 KCAL/MOL
REMARK 922        TOTAL FREE ENERGY PREDICTED BY IDOCK:   -6.04 KCAL/MOL
REMARK 923 INTER-LIGAND FREE ENERGY PREDICTED BY IDOCK:   -5.61 KCAL/MOL
REMARK 924 INTRA-LIGAND FREE ENERGY PREDICTED BY IDOCK:   -0.43 KCAL/MOL
REMARK 927      BINDING AFFINITY PREDICTED BY RF-SCORE:    0.00 PKD
ROOT
HETATM    1  O   UNL     1     -14.402  15.580  70.919  1.00  0.00    -0.852 OA 
HETATM    2  C   UNL     1     -14.077  15.048  72.192  1.00  0.00    -0.529 C  
HETATM    3  H   UNL     1     -14.775  16.451  70.991  1.00  0.00     0.000 HD 
ENDROOT
BRANCH   2   4
HETATM    4  C   UNL     1     -13.476  13.648  72.076  1.00  0.00    -0.484 C  
BRANCH   4   5
HETATM    5  O   UNL     1     -12.504  13.686  71.027  1.00  0.00    -0.354 OA 
BRANCH   5   6
HETATM    6  C   UNL     1     -12.204  12.482  70.485  1.00  0.00    -0.297 C  
HETATM    7  O   UNL     1     -12.437  11.394  70.990  1.00  0.00    -0.386 OA 
BRANCH   6   8
HETATM    8  C   UNL     1     -11.866  12.660  69.047  1.00  0.00    -0.341 A  
HETATM    9  C   UNL     1     -11.675  13.986  68.620  1.00  0.00    -0.389 A  
HETATM   10  C   UNL     1     -11.190  14.256  67.340  1.00  0.00    -0.330 A  
HETATM   11  C   UNL     1     -10.896  13.206  66.474  1.00  0.00    -0.291 A  
HETATM   12  C   UNL     1     -11.108  11.886  66.875  1.00  0.00    -0.356 A  
HETATM   13  C   UNL     1     -11.599  11.613  68.154  1.00  0.00    -0.319 A  
HETATM   14  O   UNL     1     -11.812  10.310  68.511  1.00  0.00    -0.682 OA 
HETATM   15  H   UNL     1     -11.631   9.601  67.907  1.00  0.00     0.000 HD 
ENDBRANCH   6   8
ENDBRANCH   5   6
ENDBRANCH   4   5
ENDBRANCH   2   4
TORSDOF 4
ENDMDL
MODEL       35
REMARK 921   NORMALIZED FREE ENERGY PREDICTED BY IDOCK:   -4.54 KCAL/MOL
REMARK 922        TOTAL FREE ENERGY PREDICTED BY IDOCK:   -6.01 KCAL/MOL
REMARK 923 INTER-LIGAND FREE ENERGY PREDICTED BY IDOCK:   -5.59 KCAL/MOL
REMARK 924 INTRA-LIGAND FREE ENERGY PREDICTED BY IDOCK:   -0.43 KCAL/MOL
REMARK 927      BINDING AFFINITY PREDICTED BY RF-SCORE:    0.00 PKD
ROOT
HETATM    1  O   UNL     1     -11.059  11.223  63.137  1.00  0.00    -0.811 OA 
HETATM    2  C   UNL     1     -12.326  11.771  63.455  1.00  0.00    -0.383 C  
HETATM    3  H   UNL     1     -11.024  10.292  63.326  1.00  0.00     0.000 HD 
ENDROOT
BRANCH   2   4
HETATM    4  C   UNL     1     -12.382  13.267  63.151  1.00  0.00    -0.079 C  
BRANCH   4   5
HETATM    5  O   UNL     1     -12.707  13.940  64.371  1.00  0.00    -0.656 OA 
BRANCH   5   6
HETATM    6  C   UNL     1     -12.023  15.088  64.588  1.00  0.00    -0.358 C  
HETATM    7  O   UNL     1     -12.116  16.110  63.927  1.00  0.00    -0.956 OA 
BRANCH   6   8
HETATM    8  C   UNL     1     -11.403  15.042  65.940  1.00  0.00    -0.273 A  
HETATM    9  C   UNL     1     -11.855  14.018  66.790  1.00  0.00    -0.450 A  
HETATM   10  C   UNL     1     -11.224  13.778  68.011  1.00  0.00    -0.293 A  
HETATM   11  C   UNL     1     -10.138  14.560  68.395  1.00  0.00    -0.241 A  
HETATM   12  C   UNL     1      -9.696  15.598  67.574  1.00  0.00    -0.222 A  
HETATM   13  C   UNL     1     -10.330  15.845  66.353  1.00  0.00    -0.306 A  
HETATM   14  O   UNL     1      -9.885  16.879  65.579  1.00  0.00    -0.559 OA 
HETATM   15  H   UNL     1      -9.158  17.423  65.858  1.00  0.00     0.000 HD 
ENDBRANCH   6   8
ENDBRANCH   5   6
ENDBRANCH   4   5
ENDBRANCH   2   4
TORSDOF 4
ENDMDL
MODEL       36
REMARK 921   NORMALIZED FREE ENERGY PREDICTED BY IDOCK:   -4.53 KCAL/MOL
REMARK 922        TOTAL FREE ENERGY PREDICTED BY IDOCK:   -6.00 KCAL/MOL
REMARK 923 INTER-LIGAND FREE ENERGY PREDICTED BY IDOCK:   -5.63 KCAL/MOL
REMARK 924 INTRA-LIGAND FREE ENERGY PREDICTED BY IDOCK:   -0.38 KCAL/MOL
REMARK 927      BINDING AFFINITY PREDICTED BY RF-SCORE:    0.00 PKD
ROOT
HETATM    1  O   UNL     1     -14.050  15.580  70.726  1.00  0.00    -0.871 OA 
HETATM    2  C   UNL     1     -12.668  15.313  70.887  1.00  0.00    -0.435 C  
HETATM    3  H   UNL     1     -14.346  16.257  71.324  1.00  0.00     0.000 HD 
ENDROOT
BRANCH   2   4
HETATM    4  C   UNL     1     -12.192  14.226  69.925  1.00  0.00    -0.352 C  
BRANCH   4   5
HETATM    5  O   UNL     1     -12.275  12.976  70.618  1.00  0.00    -0.364 OA 
BRANCH   5   6
HETATM    6  C   UNL     1     -11.906  11.896  69.889  1.00  0.00    -0.343 C  
HETATM    7  O   UNL     1     -11.442  11.922  68.760  1.00  0.00    -0.239 OA 
BRANCH   6   8
HETATM    8  C   UNL     1     -11.824  10.707  70.781  1.00  0.00    -0.459 A  
HETATM    9  C   UNL     1     -12.971  10.431  71.544  1.00  0.00    -0.562 A  
HETATM   10  C   UNL     1     -13.066   9.250  72.281  1.00  0.00    -0.517 A  
HETATM   11  C   UNL     1     -12.015   8.337  72.264  1.00  0.00    -0.448 A  
HETATM   12  C   UNL     1     -10.859   8.612  71.533  1.00  0.00    -0.352 A  
HETATM   13  C   UNL     1     -10.758   9.797  70.799  1.00  0.00    -0.323 A  
HETATM   14  O   UNL     1      -9.606  10.045  70.106  1.00  0.00    -0.360 OA 
HETATM   15  H   UNL     1      -8.885   9.428  70.119  1.00  0.00     0.000 HD 
ENDBRANCH   6   8
ENDBRANCH   5   6
ENDBRANCH   4   5
ENDBRANCH   2   4
TORSDOF 4
ENDMDL
MODEL       37
REMARK 921   NORMALIZED FREE ENERGY PREDICTED BY IDOCK:   -4.50 KCAL/MOL
REMARK 922        TOTAL FREE ENERGY PREDICTED BY IDOCK:   -5.96 KCAL/MOL
REMARK 923 INTER-LIGAND FREE ENERGY PREDICTED BY IDOCK:   -5.57 KCAL/MOL
REMARK 924 INTRA-LIGAND FREE ENERGY PREDICTED BY IDOCK:   -0.40 KCAL/MOL
REMARK 927      BINDING AFFINITY PREDICTED BY RF-SCORE:    0.00 PKD
ROOT
HETATM    1  O   UNL     1      -9.861  14.084  65.430  1.00  0.00    -0.505 OA 
HETATM    2  C   UNL     1     -10.656  14.794  66.364  1.00  0.00    -0.300 C  
HETATM    3  H   UNL     1      -9.213  14.648  65.024  1.00  0.00     0.000 HD 
ENDROOT
BRANCH   2   4
HETATM    4  C   UNL     1     -11.697  13.886  67.017  1.00  0.00    -0.397 C  
BRANCH   4   5
HETATM    5  O   UNL     1     -12.032  14.463  68.283  1.00  0.00    -0.329 OA 
BRANCH   5   6
HETATM    6  C   UNL     1     -11.958  13.612  69.334  1.00  0.00    -0.342 C  
HETATM    7  O   UNL     1     -11.459  12.498  69.316  1.00  0.00    -0.273 OA 
BRANCH   6   8
HETATM    8  C   UNL     1     -12.261  14.353  70.588  1.00  0.00    -0.414 A  
HETATM    9  C   UNL     1     -13.034  13.665  71.538  1.00  0.00    -0.443 A  
HETATM   10  C   UNL     1     -13.232  14.196  72.813  1.00  0.00    -0.604 A  
HETATM   11  C   UNL     1     -12.662  15.422  73.148  1.00  0.00    -0.593 A  
HETATM   12  C   UNL     1     -11.916  16.130  72.205  1.00  0.00    -0.637 A  
HETATM   13  C   UNL     1     -11.722  15.602  70.926  1.00  0.00    -0.387 A  
HETATM   14  O   UNL     1     -11.000  16.327  70.019  1.00  0.00    -0.343 OA 
HETATM   15  H   UNL     1     -10.634  17.173  70.248  1.00  0.00     0.000 HD 
ENDBRANCH   6   8
ENDBRANCH   5   6
ENDBRANCH   4   5
ENDBRANCH   2   4
TORSDOF 4
ENDMDL
MODEL       38
REMARK 921   NORMALIZED FREE ENERGY PREDICTED BY IDOCK:   -4.48 KCAL/MOL
REMARK 922        TOTAL FREE ENERGY PREDICTED BY IDOCK:   -5.94 KCAL/MOL
REMARK 923 INTER-LIGAND FREE ENERGY PREDICTED BY IDOCK:   -5.25 KCAL/MOL
REMARK 924 INTRA-LIGAND FREE ENERGY PREDICTED BY IDOCK:   -0.69 KCAL/MOL
REMARK 927      BINDING AFFINITY PREDICTED BY RF-SCORE:    0.00 PKD
ROOT
HETATM    1  O   UNL     1      -9.640  12.309  63.449  1.00  0.00    -0.663 OA 
HETATM    2  C   UNL     1     -10.897  11.676  63.623  1.00  0.00    -0.432 C  
HETATM    3  H   UNL     1      -8.923  11.694  63.556  1.00  0.00     0.000 HD 
ENDROOT
BRANCH   2   4
HETATM    4  C   UNL     1     -12.049  12.664  63.451  1.00  0.00    -0.525 C  
BRANCH   4   5
HETATM    5  O   UNL     1     -11.699  13.857  64.160  1.00  0.00    -0.391 OA 
BRANCH   5   6
HETATM    6  C   UNL     1     -12.344  14.028  65.339  1.00  0.00    -0.478 C  
HETATM    7  O   UNL     1     -13.554  14.087  65.487  1.00  0.00    -0.596 OA 
BRANCH   6   8
HETATM    8  C   UNL     1     -11.392  13.790  66.458  1.00  0.00    -0.336 A  
HETATM    9  C   UNL     1     -11.910  13.105  67.571  1.00  0.00    -0.409 A  
HETATM   10  C   UNL     1     -11.068  12.681  68.598  1.00  0.00    -0.305 A  
HETATM   11  C   UNL     1      -9.702  12.940  68.526  1.00  0.00    -0.129 A  
HETATM   12  C   UNL     1      -9.178  13.644  67.441  1.00  0.00    -0.222 A  
HETATM   13  C   UNL     1     -10.021  14.076  66.413  1.00  0.00    -0.294 A  
HETATM   14  O   UNL     1      -9.480  14.777  65.372  1.00  0.00    -0.472 OA 
HETATM   15  H   UNL     1      -8.551  14.970  65.340  1.00  0.00     0.000 HD 
ENDBRANCH   6   8
ENDBRANCH   5   6
ENDBRANCH   4   5
ENDBRANCH   2   4
TORSDOF 4
ENDMDL
MODEL       39
REMARK 921   NORMALIZED FREE ENERGY PREDICTED BY IDOCK:   -4.46 KCAL/MOL
REMARK 922        TOTAL FREE ENERGY PREDICTED BY IDOCK:   -5.92 KCAL/MOL
REMARK 923 INTER-LIGAND FREE ENERGY PREDICTED BY IDOCK:   -5.48 KCAL/MOL
REMARK 924 INTRA-LIGAND FREE ENERGY PREDICTED BY IDOCK:   -0.44 KCAL/MOL
REMARK 927      BINDING AFFINITY PREDICTED BY RF-SCORE:    0.00 PKD
ROOT
HETATM    1  O   UNL     1     -12.099  14.858  63.899  1.00  0.00    -0.878 OA 
HETATM    2  C   UNL     1     -12.658  14.151  64.993  1.00  0.00    -0.380 C  
HETATM    3  H   UNL     1     -12.620  15.621  63.674  1.00  0.00     0.000 HD 
ENDROOT
BRANCH   2   4
HETATM    4  C   UNL     1     -11.821  12.926  65.354  1.00  0.00    -0.403 C  
BRANCH   4   5
HETATM    5  O   UNL     1     -11.231  13.173  66.634  1.00  0.00    -0.289 OA 
BRANCH   5   6
HETATM    6  C   UNL     1     -11.857  12.574  67.674  1.00  0.00    -0.317 C  
HETATM    7  O   UNL     1     -12.155  11.392  67.743  1.00  0.00    -0.637 OA 
BRANCH   6   8
HETATM    8  C   UNL     1     -11.824  13.479  68.855  1.00  0.00    -0.384 A  
HETATM    9  C   UNL     1     -11.556  14.832  68.585  1.00  0.00    -0.345 A  
HETATM   10  C   UNL     1     -11.669  15.792  69.591  1.00  0.00    -0.363 A  
HETATM   11  C   UNL     1     -12.047  15.410  70.875  1.00  0.00    -0.413 A  
HETATM   12  C   UNL     1     -12.288  14.065  71.164  1.00  0.00    -0.443 A  
HETATM   13  C   UNL     1     -12.170  13.101  70.160  1.00  0.00    -0.290 A  
HETATM   14  O   UNL     1     -12.396  11.791  70.478  1.00  0.00    -0.334 OA 
HETATM   15  H   UNL     1     -12.631  11.534  71.361  1.00  0.00     0.000 HD 
ENDBRANCH   6   8
ENDBRANCH   5   6
ENDBRANCH   4   5
ENDBRANCH   2   4
TORSDOF 4
ENDMDL
MODEL       40
REMARK 921   NORMALIZED FREE ENERGY PREDICTED BY IDOCK:   -4.46 KCAL/MOL
REMARK 922        TOTAL FREE ENERGY PREDICTED BY IDOCK:   -5.92 KCAL/MOL
REMARK 923 INTER-LIGAND FREE ENERGY PREDICTED BY IDOCK:   -5.53 KCAL/MOL
REMARK 924 INTRA-LIGAND FREE ENERGY PREDICTED BY IDOCK:   -0.39 KCAL/MOL
REMARK 927      BINDING AFFINITY PREDICTED BY RF-SCORE:    0.00 PKD
ROOT
HETATM    1  O   UNL     1     -13.160  16.113  74.439  1.00  0.00    -0.926 OA 
HETATM    2  C   UNL     1     -13.584  15.874  73.108  1.00  0.00    -0.499 C  
HETATM    3  H   UNL     1     -13.895  16.134  75.041  1.00  0.00     0.000 HD 
ENDROOT
BRANCH   2   4
HETATM    4  C   UNL     1     -12.402  15.840  72.141  1.00  0.00    -0.456 C  
BRANCH   4   5
HETATM    5  O   UNL     1     -12.759  14.972  71.061  1.00  0.00    -0.314 OA 
BRANCH   5   6
HETATM    6  C   UNL     1     -12.075  15.184  69.911  1.00  0.00    -0.336 C  
HETATM    7  O   UNL     1     -11.497  16.214  69.605  1.00  0.00    -0.327 OA 
BRANCH   6   8
HETATM    8  C   UNL     1     -11.841  13.880  69.232  1.00  0.00    -0.394 A  
HETATM    9  C   UNL     1     -11.934  12.738  70.044  1.00  0.00    -0.371 A  
HETATM   10  C   UNL     1     -11.901  11.462  69.481  1.00  0.00    -0.426 A  
HETATM   11  C   UNL     1     -11.772  11.316  68.103  1.00  0.00    -0.323 A  
HETATM   12  C   UNL     1     -11.650  12.441  67.287  1.00  0.00    -0.435 A  
HETATM   13  C   UNL     1     -11.676  13.721  67.849  1.00  0.00    -0.360 A  
HETATM   14  O   UNL     1     -11.538  14.803  67.025  1.00  0.00    -0.362 OA 
HETATM   15  H   UNL     1     -11.427  14.695  66.088  1.00  0.00     0.000 HD 
ENDBRANCH   6   8
ENDBRANCH   5   6
ENDBRANCH   4   5
ENDBRANCH   2   4
TORSDOF 4
ENDMDL
MODEL       41
REMARK 921   NORMALIZED FREE ENERGY PREDICTED BY IDOCK:   -4.45 KCAL/MOL
REMARK 922        TOTAL FREE ENERGY PREDICTED BY IDOCK:   -5.90 KCAL/MOL
REMARK 923 INTER-LIGAND FREE ENERGY PREDICTED BY IDOCK:   -5.53 KCAL/MOL
REMARK 924 INTRA-LIGAND FREE ENERGY PREDICTED BY IDOCK:   -0.38 KCAL/MOL
REMARK 927      BINDING AFFINITY PREDICTED BY RF-SCORE:    0.00 PKD
ROOT
HETATM    1  O   UNL     1      -6.951  15.999  69.611  1.00  0.00    -0.205 OA 
HETATM    2  C   UNL     1      -7.826  15.409  68.664  1.00  0.00    -0.142 C  
HETATM    3  H   UNL     1      -6.626  15.357  70.232  1.00  0.00     0.000 HD 
ENDROOT
BRANCH   2   4
HETATM    4  C   UNL     1      -8.348  16.440  67.666  1.00  0.00    -0.165 C  
BRANCH   4   5
HETATM    5  O   UNL     1      -9.758  16.235  67.538  1.00  0.00    -0.230 OA 
BRANCH   5   6
HETATM    6  C   UNL     1     -10.267  16.524  66.316  1.00  0.00    -0.332 C  
HETATM    7  O   UNL     1     -10.000  17.511  65.648  1.00  0.00    -0.561 OA 
BRANCH   6   8
HETATM    8  C   UNL     1     -10.926  15.312  65.759  1.00  0.00    -0.340 A  
HETATM    9  C   UNL     1     -10.920  14.174  66.584  1.00  0.00    -0.303 A  
HETATM   10  C   UNL     1     -11.654  13.041  66.235  1.00  0.00    -0.408 A  
HETATM   11  C   UNL     1     -12.397  13.031  65.058  1.00  0.00    -0.526 A  
HETATM   12  C   UNL     1     -12.389  14.144  64.215  1.00  0.00    -0.398 A  
HETATM   13  C   UNL     1     -11.650  15.279  64.559  1.00  0.00    -0.312 A  
HETATM   14  O   UNL     1     -11.649  16.346  63.705  1.00  0.00    -1.605 OA 
HETATM   15  H   UNL     1     -12.140  16.323  62.892  1.00  0.00     0.000 HD 
ENDBRANCH   6   8
ENDBRANCH   5   6
ENDBRANCH   4   5
ENDBRANCH   2   4
TORSDOF 4
ENDMDL
MODEL       42
REMARK 921   NORMALIZED FREE ENERGY PREDICTED BY IDOCK:   -4.44 KCAL/MOL
REMARK 922        TOTAL FREE ENERGY PREDICTED BY IDOCK:   -5.89 KCAL/MOL
REMARK 923 INTER-LIGAND FREE ENERGY PREDICTED BY IDOCK:   -5.29 KCAL/MOL
REMARK 924 INTRA-LIGAND FREE ENERGY PREDICTED BY IDOCK:   -0.60 KCAL/MOL
REMARK 927      BINDING AFFINITY PREDICTED BY RF-SCORE:    0.00 PKD
ROOT
HETATM    1  O   UNL     1     -10.504  13.110  66.699  1.00  0.00    -0.271 OA 
HETATM    2  C   UNL     1     -11.388  13.199  65.595  1.00  0.00    -0.303 C  
HETATM    3  H   UNL     1     -10.764  12.419  67.299  1.00  0.00     0.000 HD 
ENDROOT
BRANCH   2   4
HETATM    4  C   UNL     1     -10.971  14.308  64.632  1.00  0.00    -0.367 C  
BRANCH   4   5
HETATM    5  O   UNL     1     -10.238  15.277  65.389  1.00  0.00    -0.350 OA 
BRANCH   5   6
HETATM    6  C   UNL     1     -10.611  16.562  65.181  1.00  0.00    -0.215 C  
HETATM    7  O   UNL     1     -11.324  16.960  64.273  1.00  0.00    -1.202 OA 
BRANCH   6   8
HETATM    8  C   UNL     1     -10.314  17.363  66.400  1.00  0.00    -0.317 A  
HETATM    9  C   UNL     1      -9.982  18.711  66.185  1.00  0.00    -0.355 A  
HETATM   10  C   UNL     1      -9.854  19.591  67.260  1.00  0.00    -0.468 A  
HETATM   11  C   UNL     1     -10.052  19.131  68.559  1.00  0.00    -0.499 A  
HETATM   12  C   UNL     1     -10.353  17.788  68.789  1.00  0.00    -0.332 A  
HETATM   13  C   UNL     1     -10.477  16.903  67.714  1.00  0.00    -0.340 A  
HETATM   14  O   UNL     1     -10.757  15.591  67.973  1.00  0.00    -0.266 OA 
HETATM   15  H   UNL     1     -10.868  15.279  68.864  1.00  0.00     0.000 HD 
ENDBRANCH   6   8
ENDBRANCH   5   6
ENDBRANCH   4   5
ENDBRANCH   2   4
TORSDOF 4
ENDMDL
MODEL       43
REMARK 921   NORMALIZED FREE ENERGY PREDICTED BY IDOCK:   -4.43 KCAL/MOL
REMARK 922        TOTAL FREE ENERGY PREDICTED BY IDOCK:   -5.88 KCAL/MOL
REMARK 923 INTER-LIGAND FREE ENERGY PREDICTED BY IDOCK:   -5.52 KCAL/MOL
REMARK 924 INTRA-LIGAND FREE ENERGY PREDICTED BY IDOCK:   -0.36 KCAL/MOL
REMARK 927      BINDING AFFINITY PREDICTED BY RF-SCORE:    0.00 PKD
ROOT
HETATM    1  O   UNL     1     -13.966   7.492  70.966  1.00  0.00    -0.644 OA 
HETATM    2  C   UNL     1     -14.394   8.277  72.066  1.00  0.00    -0.450 C  
HETATM    3  H   UNL     1     -14.560   6.769  70.802  1.00  0.00     0.000 HD 
ENDROOT
BRANCH   2   4
HETATM    4  C   UNL     1     -13.439   9.440  72.328  1.00  0.00    -0.465 C  
BRANCH   4   5
HETATM    5  O   UNL     1     -13.315  10.174  71.106  1.00  0.00    -0.376 OA 
BRANCH   5   6
HETATM    6  C   UNL     1     -12.044  10.488  70.758  1.00  0.00    -0.370 C  
HETATM    7  O   UNL     1     -11.051   9.824  71.008  1.00  0.00    -0.325 OA 
BRANCH   6   8
HETATM    8  C   UNL     1     -12.069  11.572  69.738  1.00  0.00    -0.374 A  
HETATM    9  C   UNL     1     -12.181  12.882  70.236  1.00  0.00    -0.362 A  
HETATM   10  C   UNL     1     -12.042  13.978  69.385  1.00  0.00    -0.386 A  
HETATM   11  C   UNL     1     -11.793  13.777  68.030  1.00  0.00    -0.408 A  
HETATM   12  C   UNL     1     -11.708  12.482  67.517  1.00  0.00    -0.439 A  
HETATM   13  C   UNL     1     -11.853  11.381  68.366  1.00  0.00    -0.274 A  
HETATM   14  O   UNL     1     -11.781  10.125  67.832  1.00  0.00    -0.646 OA 
HETATM   15  H   UNL     1     -11.635   9.996  66.903  1.00  0.00     0.000 HD 
ENDBRANCH   6   8
ENDBRANCH   5   6
ENDBRANCH   4   5
ENDBRANCH   2   4
TORSDOF 4
ENDMDL
MODEL       44
REMARK 921   NORMALIZED FREE ENERGY PREDICTED BY IDOCK:   -4.42 KCAL/MOL
REMARK 922        TOTAL FREE ENERGY PREDICTED BY IDOCK:   -5.87 KCAL/MOL
REMARK 923 INTER-LIGAND FREE ENERGY PREDICTED BY IDOCK:   -5.47 KCAL/MOL
REMARK 924 INTRA-LIGAND FREE ENERGY PREDICTED BY IDOCK:   -0.39 KCAL/MOL
REMARK 927      BINDING AFFINITY PREDICTED BY RF-SCORE:    0.00 PKD
ROOT
HETATM    1  O   UNL     1     -14.272   8.844  73.348  1.00  0.00    -1.241 OA 
HETATM    2  C   UNL     1     -14.113   8.506  71.981  1.00  0.00    -0.444 C  
HETATM    3  H   UNL     1     -15.189   8.903  73.588  1.00  0.00     0.000 HD 
ENDROOT
BRANCH   2   4
HETATM    4  C   UNL     1     -12.638   8.410  71.595  1.00  0.00    -0.332 C  
BRANCH   4   5
HETATM    5  O   UNL     1     -12.162   9.745  71.394  1.00  0.00    -0.342 OA 
BRANCH   5   6
HETATM    6  C   UNL     1     -10.921   9.832  70.857  1.00  0.00    -0.341 C  
HETATM    7  O   UNL     1      -9.962   9.140  71.162  1.00  0.00    -0.268 OA 
BRANCH   6   8
HETATM    8  C   UNL     1     -10.980  10.648  69.614  1.00  0.00    -0.331 A  
HETATM    9  C   UNL     1     -10.514  10.022  68.445  1.00  0.00    -0.235 A  
HETATM   10  C   UNL     1     -10.681  10.630  67.201  1.00  0.00    -0.327 A  
HETATM   11  C   UNL     1     -11.311  11.868  67.112  1.00  0.00    -0.393 A  
HETATM   12  C   UNL     1     -11.753  12.514  68.268  1.00  0.00    -0.390 A  
HETATM   13  C   UNL     1     -11.582  11.910  69.517  1.00  0.00    -0.327 A  
HETATM   14  O   UNL     1     -12.011  12.575  70.632  1.00  0.00    -0.505 OA 
HETATM   15  H   UNL     1     -12.419  13.430  70.566  1.00  0.00     0.000 HD 
ENDBRANCH   6   8
ENDBRANCH   5   6
ENDBRANCH   4   5
ENDBRANCH   2   4
TORSDOF 4
ENDMDL
MODEL       45
REMARK 921   NORMALIZED FREE ENERGY PREDICTED BY IDOCK:   -4.41 KCAL/MOL
REMARK 922        TOTAL FREE ENERGY PREDICTED BY IDOCK:   -5.86 KCAL/MOL
REMARK 923 INTER-LIGAND FREE ENERGY PREDICTED BY IDOCK:   -5.12 KCAL/MOL
REMARK 924 INTRA-LIGAND FREE ENERGY PREDICTED BY IDOCK:   -0.73 KCAL/MOL
REMARK 927      BINDING AFFINITY PREDICTED BY RF-SCORE:    0.00 PKD
ROOT
HETATM    1  O   UNL     1     -11.077   9.187  68.665  1.00  0.00    -0.449 OA 
HETATM    2  C   UNL     1     -11.221   9.953  69.848  1.00  0.00    -0.250 C  
HETATM    3  H   UNL     1     -10.715   8.327  68.849  1.00  0.00     0.000 HD 
ENDROOT
BRANCH   2   4
HETATM    4  C   UNL     1     -11.803  11.335  69.552  1.00  0.00    -0.357 C  
BRANCH   4   5
HETATM    5  O   UNL     1     -12.128  11.372  68.159  1.00  0.00    -0.623 OA 
BRANCH   5   6
HETATM    6  C   UNL     1     -11.900  12.561  67.553  1.00  0.00    -0.323 C  
HETATM    7  O   UNL     1     -11.660  13.616  68.119  1.00  0.00    -0.291 OA 
BRANCH   6   8
HETATM    8  C   UNL     1     -11.644  12.333  66.105  1.00  0.00    -0.450 A  
HETATM    9  C   UNL     1     -12.331  13.178  65.218  1.00  0.00    -0.532 A  
HETATM   10  C   UNL     1     -12.038  13.166  63.854  1.00  0.00    -0.536 A  
HETATM   11  C   UNL     1     -11.058  12.307  63.364  1.00  0.00    -0.487 A  
HETATM   12  C   UNL     1     -10.388  11.441  64.229  1.00  0.00    -0.383 A  
HETATM   13  C   UNL     1     -10.684  11.447  65.595  1.00  0.00    -0.242 A  
HETATM   14  O   UNL     1     -10.022  10.576  66.414  1.00  0.00    -0.202 OA 
HETATM   15  H   UNL     1      -9.372   9.976  66.069  1.00  0.00     0.000 HD 
ENDBRANCH   6   8
ENDBRANCH   5   6
ENDBRANCH   4   5
ENDBRANCH   2   4
TORSDOF 4
ENDMDL
MODEL       46
REMARK 921   NORMALIZED FREE ENERGY PREDICTED BY IDOCK:   -4.41 KCAL/MOL
REMARK 922        TOTAL FREE ENERGY PREDICTED BY IDOCK:   -5.86 KCAL/MOL
REMARK 923 INTER-LIGAND FREE ENERGY PREDICTED BY IDOCK:   -5.50 KCAL/MOL
REMARK 924 INTRA-LIGAND FREE ENERGY PREDICTED BY IDOCK:   -0.35 KCAL/MOL
REMARK 927      BINDING AFFINITY PREDICTED BY RF-SCORE:    0.00 PKD
ROOT
HETATM    1  O   UNL     1     -10.756  18.239  65.519  1.00  0.00    -0.596 OA 
HETATM    2  C   UNL     1      -9.801  17.844  66.489  1.00  0.00    -0.343 C  
HETATM    3  H   UNL     1     -10.564  19.103  65.173  1.00  0.00     0.000 HD 
ENDROOT
BRANCH   2   4
HETATM    4  C   UNL     1     -10.110  16.455  67.044  1.00  0.00    -0.272 C  
BRANCH   4   5
HETATM    5  O   UNL     1     -10.646  15.675  65.971  1.00  0.00    -0.307 OA 
BRANCH   5   6
HETATM    6  C   UNL     1     -11.269  14.535  66.352  1.00  0.00    -0.341 C  
HETATM    7  O   UNL     1     -12.162  14.452  67.180  1.00  0.00    -0.390 OA 
BRANCH   6   8
HETATM    8  C   UNL     1     -10.954  13.454  65.378  1.00  0.00    -0.297 A  
HETATM    9  C   UNL     1     -10.132  12.419  65.854  1.00  0.00    -0.272 A  
HETATM   10  C   UNL     1      -9.914  11.275  65.085  1.00  0.00    -0.312 A  
HETATM   11  C   UNL     1     -10.512  11.157  63.833  1.00  0.00    -0.445 A  
HETATM   12  C   UNL     1     -11.308  12.191  63.336  1.00  0.00    -0.495 A  
HETATM   13  C   UNL     1     -11.523  13.340  64.102  1.00  0.00    -0.396 A  
HETATM   14  O   UNL     1     -12.294  14.341  63.581  1.00  0.00    -1.035 OA 
HETATM   15  H   UNL     1     -12.680  14.264  62.717  1.00  0.00     0.000 HD 
ENDBRANCH   6   8
ENDBRANCH   5   6
ENDBRANCH   4   5
ENDBRANCH   2   4
TORSDOF 4
ENDMDL
MODEL       47
REMARK 921   NORMALIZED FREE ENERGY PREDICTED BY IDOCK:   -4.41 KCAL/MOL
REMARK 922        TOTAL FREE ENERGY PREDICTED BY IDOCK:   -5.85 KCAL/MOL
REMARK 923 INTER-LIGAND FREE ENERGY PREDICTED BY IDOCK:   -5.37 KCAL/MOL
REMARK 924 INTRA-LIGAND FREE ENERGY PREDICTED BY IDOCK:   -0.48 KCAL/MOL
REMARK 927      BINDING AFFINITY PREDICTED BY RF-SCORE:    0.00 PKD
ROOT
HETATM    1  O   UNL     1      -9.812  17.274  65.818  1.00  0.00    -0.528 OA 
HETATM    2  C   UNL     1     -10.100  15.888  65.894  1.00  0.00    -0.352 C  
HETATM    3  H   UNL     1      -9.366  17.580  66.599  1.00  0.00     0.000 HD 
ENDROOT
BRANCH   2   4
HETATM    4  C   UNL     1     -10.817  15.395  64.638  1.00  0.00    -0.258 C  
BRANCH   4   5
HETATM    5  O   UNL     1     -11.949  14.631  65.065  1.00  0.00    -0.379 OA 
BRANCH   5   6
HETATM    6  C   UNL     1     -12.260  13.581  64.268  1.00  0.00    -0.396 C  
HETATM    7  O   UNL     1     -12.779  13.652  63.165  1.00  0.00    -0.737 OA 
BRANCH   6   8
HETATM    8  C   UNL     1     -11.572  12.362  64.772  1.00  0.00    -0.395 A  
HETATM    9  C   UNL     1     -10.826  11.640  63.825  1.00  0.00    -0.493 A  
HETATM   10  C   UNL     1     -10.008  10.583  64.223  1.00  0.00    -0.398 A  
HETATM   11  C   UNL     1      -9.929  10.235  65.569  1.00  0.00    -0.364 A  
HETATM   12  C   UNL     1     -10.687  10.925  66.516  1.00  0.00    -0.270 A  
HETATM   13  C   UNL     1     -11.513  11.980  66.120  1.00  0.00    -0.339 A  
HETATM   14  O   UNL     1     -12.255  12.626  67.069  1.00  0.00    -0.466 OA 
HETATM   15  H   UNL     1     -12.214  12.368  67.982  1.00  0.00     0.000 HD 
ENDBRANCH   6   8
ENDBRANCH   5   6
ENDBRANCH   4   5
ENDBRANCH   2   4
TORSDOF 4
ENDMDL
MODEL       48
REMARK 921   NORMALIZED FREE ENERGY PREDICTED BY IDOCK:   -4.40 KCAL/MOL
REMARK 922        TOTAL FREE ENERGY PREDICTED BY IDOCK:   -5.84 KCAL/MOL
REMARK 923 INTER-LIGAND FREE ENERGY PREDICTED BY IDOCK:   -5.42 KCAL/MOL
REMARK 924 INTRA-LIGAND FREE ENERGY PREDICTED BY IDOCK:   -0.42 KCAL/MOL
REMARK 927      BINDING AFFINITY PREDICTED BY RF-SCORE:    0.00 PKD
ROOT
HETATM    1  O   UNL     1     -12.463  14.310  69.306  1.00  0.00    -0.531 OA 
HETATM    2  C   UNL     1     -11.743  15.341  68.651  1.00  0.00    -0.346 C  
HETATM    3  H   UNL     1     -12.645  14.534  70.212  1.00  0.00     0.000 HD 
ENDROOT
BRANCH   2   4
HETATM    4  C   UNL     1     -11.451  14.981  67.196  1.00  0.00    -0.297 C  
BRANCH   4   5
HETATM    5  O   UNL     1     -12.112  13.741  66.921  1.00  0.00    -0.414 OA 
BRANCH   5   6
HETATM    6  C   UNL     1     -12.355  13.504  65.611  1.00  0.00    -0.476 C  
HETATM    7  O   UNL     1     -12.992  14.227  64.861  1.00  0.00    -0.682 OA 
BRANCH   6   8
HETATM    8  C   UNL     1     -11.454  12.420  65.133  1.00  0.00    -0.379 A  
HETATM    9  C   UNL     1     -10.915  12.591  63.846  1.00  0.00    -0.471 A  
HETATM   10  C   UNL     1      -9.930  11.726  63.369  1.00  0.00    -0.446 A  
HETATM   11  C   UNL     1      -9.477  10.681  64.170  1.00  0.00    -0.327 A  
HETATM   12  C   UNL     1     -10.025  10.482  65.439  1.00  0.00    -0.353 A  
HETATM   13  C   UNL     1     -11.016  11.344  65.917  1.00  0.00    -0.207 A  
HETATM   14  O   UNL     1     -11.544  11.114  67.157  1.00  0.00    -0.495 OA 
HETATM   15  H   UNL     1     -11.247  10.385  67.688  1.00  0.00     0.000 HD 
ENDBRANCH   6   8
ENDBRANCH   5   6
ENDBRANCH   4   5
ENDBRANCH   2   4
TORSDOF 4
ENDMDL
MODEL       49
REMARK 921   NORMALIZED FREE ENERGY PREDICTED BY IDOCK:   -4.40 KCAL/MOL
REMARK 922        TOTAL FREE ENERGY PREDICTED BY IDOCK:   -5.84 KCAL/MOL
REMARK 923 INTER-LIGAND FREE ENERGY PREDICTED BY IDOCK:   -5.18 KCAL/MOL
REMARK 924 INTRA-LIGAND FREE ENERGY PREDICTED BY IDOCK:   -0.66 KCAL/MOL
REMARK 927      BINDING AFFINITY PREDICTED BY RF-SCORE:    0.00 PKD
ROOT
HETATM    1  O   UNL     1     -11.262   9.403  68.520  1.00  0.00    -0.474 OA 
HETATM    2  C   UNL     1     -10.608   8.832  69.640  1.00  0.00    -0.219 C  
HETATM    3  H   UNL     1     -10.719   9.362  67.741  1.00  0.00     0.000 HD 
ENDROOT
BRANCH   2   4
HETATM    4  C   UNL     1     -11.481   8.899  70.892  1.00  0.00    -0.288 C  
BRANCH   4   5
HETATM    5  O   UNL     1     -11.571  10.275  71.277  1.00  0.00    -0.344 OA 
BRANCH   5   6
HETATM    6  C   UNL     1     -12.819  10.699  71.585  1.00  0.00    -0.465 C  
HETATM    7  O   UNL     1     -13.659  10.060  72.199  1.00  0.00    -0.395 OA 
BRANCH   6   8
HETATM    8  C   UNL     1     -12.905  12.170  71.371  1.00  0.00    -0.378 A  
HETATM    9  C   UNL     1     -13.648  12.888  72.323  1.00  0.00    -0.611 A  
HETATM   10  C   UNL     1     -13.652  14.282  72.315  1.00  0.00    -0.573 A  
HETATM   11  C   UNL     1     -12.916  14.973  71.356  1.00  0.00    -0.445 A  
HETATM   12  C   UNL     1     -12.196  14.272  70.387  1.00  0.00    -0.411 A  
HETATM   13  C   UNL     1     -12.196  12.875  70.388  1.00  0.00    -0.304 A  
HETATM   14  O   UNL     1     -11.494  12.217  69.417  1.00  0.00    -0.271 OA 
HETATM   15  H   UNL     1     -11.013  12.695  68.751  1.00  0.00     0.000 HD 
ENDBRANCH   6   8
ENDBRANCH   5   6
ENDBRANCH   4   5
ENDBRANCH   2   4
TORSDOF 4
ENDMDL
MODEL       50
REMARK 921   NORMALIZED FREE ENERGY PREDICTED BY IDOCK:   -4.39 KCAL/MOL
REMARK 922        TOTAL FREE ENERGY PREDICTED BY IDOCK:   -5.83 KCAL/MOL
REMARK 923 INTER-LIGAND FREE ENERGY PREDICTED BY IDOCK:   -5.54 KCAL/MOL
REMARK 924 INTRA-LIGAND FREE ENERGY PREDICTED BY IDOCK:   -0.29 KCAL/MOL
REMARK 927      BINDING AFFINITY PREDICTED BY RF-SCORE:    0.00 PKD
ROOT
HETATM    1  O   UNL     1     -10.637  18.056  67.756  1.00  0.00    -0.401 OA 
HETATM    2  C   UNL     1     -10.388  17.144  68.812  1.00  0.00    -0.353 C  
HETATM    3  H   UNL     1      -9.987  18.748  67.733  1.00  0.00     0.000 HD 
ENDROOT
BRANCH   2   4
HETATM    4  C   UNL     1     -11.434  16.031  68.849  1.00  0.00    -0.362 C  
BRANCH   4   5
HETATM    5  O   UNL     1     -11.265  15.327  70.084  1.00  0.00    -0.252 OA 
BRANCH   5   6
HETATM    6  C   UNL     1     -12.411  15.091  70.765  1.00  0.00    -0.352 C  
HETATM    7  O   UNL     1     -13.290  15.910  70.989  1.00  0.00    -0.514 OA 
BRANCH   6   8
HETATM    8  C   UNL     1     -12.607  13.622  70.904  1.00  0.00    -0.421 A  
HETATM    9  C   UNL     1     -11.819  12.815  70.065  1.00  0.00    -0.352 A  
HETATM   10  C   UNL     1     -11.797  11.431  70.230  1.00  0.00    -0.438 A  
HETATM   11  C   UNL     1     -12.563  10.839  71.231  1.00  0.00    -0.532 A  
HETATM   12  C   UNL     1     -13.372  11.626  72.052  1.00  0.00    -0.405 A  
HETATM   13  C   UNL     1     -13.401  13.013  71.885  1.00  0.00    -0.446 A  
HETATM   14  O   UNL     1     -14.215  13.755  72.694  1.00  0.00    -0.710 OA 
HETATM   15  H   UNL     1     -14.753  13.342  73.359  1.00  0.00     0.000 HD 
ENDBRANCH   6   8
ENDBRANCH   5   6
ENDBRANCH   4   5
ENDBRANCH   2   4
TORSDOF 4
ENDMDL
MODEL       51
REMARK 921   NORMALIZED FREE ENERGY PREDICTED BY IDOCK:   -4.39 KCAL/MOL
REMARK 922        TOTAL FREE ENERGY PREDICTED BY IDOCK:   -5.83 KCAL/MOL
REMARK 923 INTER-LIGAND FREE ENERGY PREDICTED BY IDOCK:   -5.25 KCAL/MOL
REMARK 924 INTRA-LIGAND FREE ENERGY PREDICTED BY IDOCK:   -0.58 KCAL/MOL
REMARK 927      BINDING AFFINITY PREDICTED BY RF-SCORE:    0.00 PKD
ROOT
HETATM    1  O   UNL     1      -9.082  12.925  68.588  1.00  0.00    -0.376 OA 
HETATM    2  C   UNL     1      -9.452  13.318  67.278  1.00  0.00    -0.233 C  
HETATM    3  H   UNL     1      -8.386  12.277  68.573  1.00  0.00     0.000 HD 
ENDROOT
BRANCH   2   4
HETATM    4  C   UNL     1     -10.570  14.359  67.301  1.00  0.00    -0.279 C  
BRANCH   4   5
HETATM    5  O   UNL     1     -11.439  14.028  68.389  1.00  0.00    -0.270 OA 
BRANCH   5   6
HETATM    6  C   UNL     1     -11.549  14.986  69.341  1.00  0.00    -0.315 C  
HETATM    7  O   UNL     1     -11.312  16.174  69.188  1.00  0.00    -0.322 OA 
BRANCH   6   8
HETATM    8  C   UNL     1     -12.323  14.447  70.492  1.00  0.00    -0.413 A  
HETATM    9  C   UNL     1     -13.218  15.341  71.104  1.00  0.00    -0.567 A  
HETATM   10  C   UNL     1     -14.112  14.895  72.077  1.00  0.00    -0.613 A  
HETATM   11  C   UNL     1     -14.118  13.554  72.450  1.00  0.00    -0.563 A  
HETATM   12  C   UNL     1     -13.215  12.661  71.872  1.00  0.00    -0.504 A  
HETATM   13  C   UNL     1     -12.313  13.106  70.901  1.00  0.00    -0.307 A  
HETATM   14  O   UNL     1     -11.430  12.211  70.365  1.00  0.00    -0.491 OA 
HETATM   15  H   UNL     1     -11.424  11.303  70.642  1.00  0.00     0.000 HD 
ENDBRANCH   6   8
ENDBRANCH   5   6
ENDBRANCH   4   5
ENDBRANCH   2   4
TORSDOF 4
ENDMDL
MODEL       52
REMARK 921   NORMALIZED FREE ENERGY PREDICTED BY IDOCK:   -4.38 KCAL/MOL
REMARK 922        TOTAL FREE ENERGY PREDICTED BY IDOCK:   -5.81 KCAL/MOL
REMARK 923 INTER-LIGAND FREE ENERGY PREDICTED BY IDOCK:   -5.48 KCAL/MOL
REMARK 924 INTRA-LIGAND FREE ENERGY PREDICTED BY IDOCK:   -0.33 KCAL/MOL
REMARK 927      BINDING AFFINITY PREDICTED BY RF-SCORE:    0.00 PKD
ROOT
HETATM    1  O   UNL     1     -13.291  16.393  73.847  1.00  0.00    -0.898 OA 
HETATM    2  C   UNL     1     -13.897  15.819  72.701  1.00  0.00    -0.518 C  
HETATM    3  H   UNL     1     -13.641  17.257  74.031  1.00  0.00     0.000 HD 
ENDROOT
BRANCH   2   4
HETATM    4  C   UNL     1     -13.333  14.430  72.407  1.00  0.00    -0.455 C  
BRANCH   4   5
HETATM    5  O   UNL     1     -13.327  14.265  70.985  1.00  0.00    -0.342 OA 
BRANCH   5   6
HETATM    6  C   UNL     1     -12.110  14.384  70.404  1.00  0.00    -0.331 C  
HETATM    7  O   UNL     1     -11.152  14.979  70.870  1.00  0.00    -0.267 OA 
BRANCH   6   8
HETATM    8  C   UNL     1     -12.002  13.405  69.287  1.00  0.00    -0.367 A  
HETATM    9  C   UNL     1     -12.072  13.941  67.990  1.00  0.00    -0.318 A  
HETATM   10  C   UNL     1     -11.812  13.142  66.877  1.00  0.00    -0.444 A  
HETATM   11  C   UNL     1     -11.483  11.800  67.048  1.00  0.00    -0.368 A  
HETATM   12  C   UNL     1     -11.438  11.248  68.329  1.00  0.00    -0.378 A  
HETATM   13  C   UNL     1     -11.704  12.045  69.446  1.00  0.00    -0.340 A  
HETATM   14  O   UNL     1     -11.667  11.470  70.686  1.00  0.00    -0.455 OA 
HETATM   15  H   UNL     1     -11.465  10.549  70.794  1.00  0.00     0.000 HD 
ENDBRANCH   6   8
ENDBRANCH   5   6
ENDBRANCH   4   5
ENDBRANCH   2   4
TORSDOF 4
ENDMDL
MODEL       53
REMARK 921   NORMALIZED FREE ENERGY PREDICTED BY IDOCK:   -4.36 KCAL/MOL
REMARK 922        TOTAL FREE ENERGY PREDICTED BY IDOCK:   -5.79 KCAL/MOL
REMARK 923 INTER-LIGAND FREE ENERGY PREDICTED BY IDOCK:   -5.43 KCAL/MOL
REMARK 924 INTRA-LIGAND FREE ENERGY PREDICTED BY IDOCK:   -0.36 KCAL/MOL
REMARK 927      BINDING AFFINITY PREDICTED BY RF-SCORE:    0.00 PKD
ROOT
HETATM    1  O   UNL     1     -11.311  11.296  63.291  1.00  0.00    -0.804 OA 
HETATM    2  C   UNL     1     -12.457  12.124  63.385  1.00  0.00    -0.512 C  
HETATM    3  H   UNL     1     -11.166  11.002  62.399  1.00  0.00     0.000 HD 
ENDROOT
BRANCH   2   4
HETATM    4  C   UNL     1     -12.690  12.597  64.818  1.00  0.00    -0.379 C  
BRANCH   4   5
HETATM    5  O   UNL     1     -11.567  12.171  65.596  1.00  0.00    -0.364 OA 
BRANCH   5   6
HETATM    6  C   UNL     1     -11.643  12.468  66.915  1.00  0.00    -0.370 C  
HETATM    7  O   UNL     1     -11.964  11.694  67.803  1.00  0.00    -0.608 OA 
BRANCH   6   8
HETATM    8  C   UNL     1     -10.953  13.763  67.168  1.00  0.00    -0.299 A  
HETATM    9  C   UNL     1      -9.856  14.047  66.337  1.00  0.00    -0.306 A  
HETATM   10  C   UNL     1      -9.247  15.301  66.372  1.00  0.00    -0.342 A  
HETATM   11  C   UNL     1      -9.724  16.281  67.239  1.00  0.00    -0.237 A  
HETATM   12  C   UNL     1     -10.794  16.002  68.090  1.00  0.00    -0.322 A  
HETATM   13  C   UNL     1     -11.404  14.744  68.061  1.00  0.00    -0.316 A  
HETATM   14  O   UNL     1     -12.439  14.496  68.918  1.00  0.00    -0.573 OA 
HETATM   15  H   UNL     1     -12.744  15.161  69.524  1.00  0.00     0.000 HD 
ENDBRANCH   6   8
ENDBRANCH   5   6
ENDBRANCH   4   5
ENDBRANCH   2   4
TORSDOF 4
ENDMDL
MODEL       54
REMARK 921   NORMALIZED FREE ENERGY PREDICTED BY IDOCK:   -4.36 KCAL/MOL
REMARK 922        TOTAL FREE ENERGY PREDICTED BY IDOCK:   -5.79 KCAL/MOL
REMARK 923 INTER-LIGAND FREE ENERGY PREDICTED BY IDOCK:   -5.39 KCAL/MOL
REMARK 924 INTRA-LIGAND FREE ENERGY PREDICTED BY IDOCK:   -0.40 KCAL/MOL
REMARK 927      BINDING AFFINITY PREDICTED BY RF-SCORE:    0.00 PKD
ROOT
HETATM    1  O   UNL     1     -12.422   6.964  70.165  1.00  0.00    -0.602 OA 
HETATM    2  C   UNL     1     -11.983   6.730  71.492  1.00  0.00    -0.350 C  
HETATM    3  H   UNL     1     -12.481   6.155  69.670  1.00  0.00     0.000 HD 
ENDROOT
BRANCH   2   4
HETATM    4  C   UNL     1     -11.889   8.031  72.288  1.00  0.00    -0.369 C  
BRANCH   4   5
HETATM    5  O   UNL     1     -11.988   9.111  71.354  1.00  0.00    -0.297 OA 
BRANCH   5   6
HETATM    6  C   UNL     1     -13.010   9.970  71.584  1.00  0.00    -0.449 C  
HETATM    7  O   UNL     1     -13.983   9.749  72.288  1.00  0.00    -0.270 OA 
BRANCH   6   8
HETATM    8  C   UNL     1     -12.614  11.334  71.140  1.00  0.00    -0.501 A  
HETATM    9  C   UNL     1     -11.825  11.398  69.979  1.00  0.00    -0.440 A  
HETATM   10  C   UNL     1     -11.542  12.625  69.380  1.00  0.00    -0.369 A  
HETATM   11  C   UNL     1     -12.040  13.800  69.937  1.00  0.00    -0.412 A  
HETATM   12  C   UNL     1     -12.801  13.753  71.107  1.00  0.00    -0.409 A  
HETATM   13  C   UNL     1     -13.081  12.525  71.712  1.00  0.00    -0.347 A  
HETATM   14  O   UNL     1     -13.815  12.514  72.865  1.00  0.00    -0.579 OA 
HETATM   15  H   UNL     1     -14.131  13.321  73.253  1.00  0.00     0.000 HD 
ENDBRANCH   6   8
ENDBRANCH   5   6
ENDBRANCH   4   5
ENDBRANCH   2   4
TORSDOF 4
ENDMDL
MODEL       55
REMARK 921   NORMALIZED FREE ENERGY PREDICTED BY IDOCK:   -4.32 KCAL/MOL
REMARK 922        TOTAL FREE ENERGY PREDICTED BY IDOCK:   -5.74 KCAL/MOL
REMARK 923 INTER-LIGAND FREE ENERGY PREDICTED BY IDOCK:   -5.04 KCAL/MOL
REMARK 924 INTRA-LIGAND FREE ENERGY PREDICTED BY IDOCK:   -0.70 KCAL/MOL
REMARK 927      BINDING AFFINITY PREDICTED BY RF-SCORE:    0.00 PKD
ROOT
HETATM    1  O   UNL     1     -10.112  16.149  67.193  1.00  0.00    -0.257 OA 
HETATM    2  C   UNL     1      -9.522  15.914  65.926  1.00  0.00    -0.337 C  
HETATM    3  H   UNL     1      -9.615  16.783  67.697  1.00  0.00     0.000 HD 
ENDROOT
BRANCH   2   4
HETATM    4  C   UNL     1     -10.321  14.895  65.117  1.00  0.00    -0.401 C  
BRANCH   4   5
HETATM    5  O   UNL     1     -11.672  14.941  65.587  1.00  0.00    -0.305 OA 
BRANCH   5   6
HETATM    6  C   UNL     1     -12.325  13.755  65.558  1.00  0.00    -0.475 C  
HETATM    7  O   UNL     1     -12.966  13.315  64.616  1.00  0.00    -0.692 OA 
BRANCH   6   8
HETATM    8  C   UNL     1     -11.871  12.916  66.701  1.00  0.00    -0.461 A  
HETATM    9  C   UNL     1     -11.396  11.635  66.373  1.00  0.00    -0.312 A  
HETATM   10  C   UNL     1     -10.790  10.834  67.341  1.00  0.00    -0.345 A  
HETATM   11  C   UNL     1     -10.655  11.303  68.645  1.00  0.00    -0.231 A  
HETATM   12  C   UNL     1     -11.149  12.562  68.991  1.00  0.00    -0.287 A  
HETATM   13  C   UNL     1     -11.762  13.364  68.025  1.00  0.00    -0.356 A  
HETATM   14  O   UNL     1     -12.249  14.586  68.398  1.00  0.00    -0.579 OA 
HETATM   15  H   UNL     1     -12.175  14.889  69.295  1.00  0.00     0.000 HD 
ENDBRANCH   6   8
ENDBRANCH   5   6
ENDBRANCH   4   5
ENDBRANCH   2   4
TORSDOF 4
ENDMDL
MODEL       56
REMARK 921   NORMALIZED FREE ENERGY PREDICTED BY IDOCK:   -4.31 KCAL/MOL
REMARK 922        TOTAL FREE ENERGY PREDICTED BY IDOCK:   -5.72 KCAL/MOL
REMARK 923 INTER-LIGAND FREE ENERGY PREDICTED BY IDOCK:   -5.25 KCAL/MOL
REMARK 924 INTRA-LIGAND FREE ENERGY PREDICTED BY IDOCK:   -0.47 KCAL/MOL
REMARK 927      BINDING AFFINITY PREDICTED BY RF-SCORE:    0.00 PKD
ROOT
HETATM    1  O   UNL     1     -11.265  12.046  69.998  1.00  0.00    -0.493 OA 
HETATM    2  C   UNL     1     -11.076  10.828  69.299  1.00  0.00    -0.256 C  
HETATM    3  H   UNL     1     -10.983  11.975  70.903  1.00  0.00     0.000 HD 
ENDROOT
BRANCH   2   4
HETATM    4  C   UNL     1     -11.529  10.942  67.845  1.00  0.00    -0.266 C  
BRANCH   4   5
HETATM    5  O   UNL     1     -12.053  12.261  67.662  1.00  0.00    -0.502 OA 
BRANCH   5   6
HETATM    6  C   UNL     1     -11.893  12.770  66.417  1.00  0.00    -0.408 C  
HETATM    7  O   UNL     1     -12.295  12.261  65.383  1.00  0.00    -0.582 OA 
BRANCH   6   8
HETATM    8  C   UNL     1     -11.466  14.192  66.518  1.00  0.00    -0.368 A  
HETATM    9  C   UNL     1     -11.557  14.772  67.795  1.00  0.00    -0.378 A  
HETATM   10  C   UNL     1     -11.026  16.039  68.038  1.00  0.00    -0.341 A  
HETATM   11  C   UNL     1     -10.402  16.738  67.008  1.00  0.00    -0.300 A  
HETATM   12  C   UNL     1     -10.330  16.186  65.728  1.00  0.00    -0.398 A  
HETATM   13  C   UNL     1     -10.867  14.919  65.481  1.00  0.00    -0.356 A  
HETATM   14  O   UNL     1     -10.795  14.412  64.213  1.00  0.00    -0.603 OA 
HETATM   15  H   UNL     1     -10.389  14.905  63.510  1.00  0.00     0.000 HD 
ENDBRANCH   6   8
ENDBRANCH   5   6
ENDBRANCH   4   5
ENDBRANCH   2   4
TORSDOF 4
ENDMDL
MODEL       57
REMARK 921   NORMALIZED FREE ENERGY PREDICTED BY IDOCK:   -4.29 KCAL/MOL
REMARK 922        TOTAL FREE ENERGY PREDICTED BY IDOCK:   -5.71 KCAL/MOL
REMARK 923 INTER-LIGAND FREE ENERGY PREDICTED BY IDOCK:   -5.28 KCAL/MOL
REMARK 924 INTRA-LIGAND FREE ENERGY PREDICTED BY IDOCK:   -0.43 KCAL/MOL
REMARK 927      BINDING AFFINITY PREDICTED BY RF-SCORE:    0.00 PKD
ROOT
HETATM    1  O   UNL     1     -12.435  13.615  63.082  1.00  0.00    -1.033 OA 
HETATM    2  C   UNL     1     -12.560  12.237  63.391  1.00  0.00    -0.427 C  
HETATM    3  H   UNL     1     -13.277  14.003  62.875  1.00  0.00     0.000 HD 
ENDROOT
BRANCH   2   4
HETATM    4  C   UNL     1     -11.206  11.613  63.724  1.00  0.00    -0.414 C  
BRANCH   4   5
HETATM    5  O   UNL     1     -11.096  11.569  65.150  1.00  0.00    -0.271 OA 
BRANCH   5   6
HETATM    6  C   UNL     1     -10.756  12.743  65.732  1.00  0.00    -0.272 C  
HETATM    7  O   UNL     1     -10.303  13.720  65.155  1.00  0.00    -0.342 OA 
BRANCH   6   8
HETATM    8  C   UNL     1     -11.328  12.796  67.105  1.00  0.00    -0.365 A  
HETATM    9  C   UNL     1     -11.519  11.556  67.739  1.00  0.00    -0.357 A  
HETATM   10  C   UNL     1     -11.887  11.496  69.083  1.00  0.00    -0.406 A  
HETATM   11  C   UNL     1     -12.070  12.673  69.805  1.00  0.00    -0.301 A  
HETATM   12  C   UNL     1     -11.912  13.910  69.180  1.00  0.00    -0.404 A  
HETATM   13  C   UNL     1     -11.549  13.974  67.832  1.00  0.00    -0.343 A  
HETATM   14  O   UNL     1     -11.418  15.201  67.244  1.00  0.00    -0.345 OA 
HETATM   15  H   UNL     1     -11.567  15.999  67.736  1.00  0.00     0.000 HD 
ENDBRANCH   6   8
ENDBRANCH   5   6
ENDBRANCH   4   5
ENDBRANCH   2   4
TORSDOF 4
ENDMDL
MODEL       58
REMARK 921   NORMALIZED FREE ENERGY PREDICTED BY IDOCK:   -4.28 KCAL/MOL
REMARK 922        TOTAL FREE ENERGY PREDICTED BY IDOCK:   -5.69 KCAL/MOL
REMARK 923 INTER-LIGAND FREE ENERGY PREDICTED BY IDOCK:   -5.21 KCAL/MOL
REMARK 924 INTRA-LIGAND FREE ENERGY PREDICTED BY IDOCK:   -0.48 KCAL/MOL
REMARK 927      BINDING AFFINITY PREDICTED BY RF-SCORE:    0.00 PKD
ROOT
HETATM    1  O   UNL     1      -9.069  12.609  66.123  1.00  0.00    -0.416 OA 
HETATM    2  C   UNL     1     -10.382  13.142  66.117  1.00  0.00    -0.284 C  
HETATM    3  H   UNL     1      -8.414  13.297  66.103  1.00  0.00     0.000 HD 
ENDROOT
BRANCH   2   4
HETATM    4  C   UNL     1     -11.436  12.036  66.149  1.00  0.00    -0.339 C  
BRANCH   4   5
HETATM    5  O   UNL     1     -12.035  12.055  67.449  1.00  0.00    -0.583 OA 
BRANCH   5   6
HETATM    6  C   UNL     1     -11.437  11.255  68.363  1.00  0.00    -0.307 C  
HETATM    7  O   UNL     1     -10.446  10.568  68.170  1.00  0.00    -0.166 OA 
BRANCH   6   8
HETATM    8  C   UNL     1     -11.947  11.592  69.720  1.00  0.00    -0.402 A  
HETATM    9  C   UNL     1     -12.026  12.962  70.025  1.00  0.00    -0.380 A  
HETATM   10  C   UNL     1     -12.647  13.393  71.197  1.00  0.00    -0.430 A  
HETATM   11  C   UNL     1     -13.192  12.461  72.076  1.00  0.00    -0.514 A  
HETATM   12  C   UNL     1     -13.095  11.097  71.800  1.00  0.00    -0.536 A  
HETATM   13  C   UNL     1     -12.468  10.661  70.629  1.00  0.00    -0.371 A  
HETATM   14  O   UNL     1     -12.376   9.318  70.394  1.00  0.00    -0.479 OA 
HETATM   15  H   UNL     1     -12.729   8.687  71.010  1.00  0.00     0.000 HD 
ENDBRANCH   6   8
ENDBRANCH   5   6
ENDBRANCH   4   5
ENDBRANCH   2   4
TORSDOF 4
ENDMDL
MODEL       59
REMARK 921   NORMALIZED FREE ENERGY PREDICTED BY IDOCK:   -4.26 KCAL/MOL
REMARK 922        TOTAL FREE ENERGY PREDICTED BY IDOCK:   -5.67 KCAL/MOL
REMARK 923 INTER-LIGAND FREE ENERGY PREDICTED BY IDOCK:   -5.21 KCAL/MOL
REMARK 924 INTRA-LIGAND FREE ENERGY PREDICTED BY IDOCK:   -0.47 KCAL/MOL
REMARK 927      BINDING AFFINITY PREDICTED BY RF-SCORE:    0.00 PKD
ROOT
HETATM    1  O   UNL     1      -8.213   7.379  72.485  1.00  0.00    -0.101 OA 
HETATM    2  C   UNL     1      -8.874   7.688  73.700  1.00  0.00    -0.243 C  
HETATM    3  H   UNL     1      -7.506   7.989  72.308  1.00  0.00     0.000 HD 
ENDROOT
BRANCH   2   4
HETATM    4  C   UNL     1     -10.010   6.707  73.983  1.00  0.00    -0.320 C  
BRANCH   4   5
HETATM    5  O   UNL     1     -11.239   7.385  73.702  1.00  0.00    -0.180 OA 
BRANCH   5   6
HETATM    6  C   UNL     1     -11.615   7.365  72.401  1.00  0.00    -0.284 C  
HETATM    7  O   UNL     1     -11.929   6.372  71.765  1.00  0.00    -0.328 OA 
BRANCH   6   8
HETATM    8  C   UNL     1     -11.920   8.752  71.957  1.00  0.00    -0.446 A  
HETATM    9  C   UNL     1     -11.048   9.297  71.000  1.00  0.00    -0.396 A  
HETATM   10  C   UNL     1     -11.337  10.518  70.390  1.00  0.00    -0.411 A  
HETATM   11  C   UNL     1     -12.497  11.207  70.733  1.00  0.00    -0.479 A  
HETATM   12  C   UNL     1     -13.357  10.692  71.704  1.00  0.00    -0.407 A  
HETATM   13  C   UNL     1     -13.067   9.471  72.320  1.00  0.00    -0.408 A  
HETATM   14  O   UNL     1     -13.921   9.000  73.278  1.00  0.00    -1.205 OA 
HETATM   15  H   UNL     1     -14.699   9.487  73.524  1.00  0.00     0.000 HD 
ENDBRANCH   6   8
ENDBRANCH   5   6
ENDBRANCH   4   5
ENDBRANCH   2   4
TORSDOF 4
ENDMDL
MODEL       60
REMARK 921   NORMALIZED FREE ENERGY PREDICTED BY IDOCK:   -4.26 KCAL/MOL
REMARK 922        TOTAL FREE ENERGY PREDICTED BY IDOCK:   -5.67 KCAL/MOL
REMARK 923 INTER-LIGAND FREE ENERGY PREDICTED BY IDOCK:   -5.27 KCAL/MOL
REMARK 924 INTRA-LIGAND FREE ENERGY PREDICTED BY IDOCK:   -0.40 KCAL/MOL
REMARK 927      BINDING AFFINITY PREDICTED BY RF-SCORE:    0.00 PKD
ROOT
HETATM    1  O   UNL     1     -12.508  12.636  65.540  1.00  0.00    -0.622 OA 
HETATM    2  C   UNL     1     -11.620  11.902  66.364  1.00  0.00    -0.243 C  
HETATM    3  H   UNL     1     -12.554  12.270  64.664  1.00  0.00     0.000 HD 
ENDROOT
BRANCH   2   4
HETATM    4  C   UNL     1     -11.547  12.491  67.772  1.00  0.00    -0.343 C  
BRANCH   4   5
HETATM    5  O   UNL     1     -12.110  11.527  68.668  1.00  0.00    -0.483 OA 
BRANCH   5   6
HETATM    6  C   UNL     1     -12.117  11.897  69.970  1.00  0.00    -0.291 C  
HETATM    7  O   UNL     1     -12.503  12.971  70.405  1.00  0.00    -0.280 OA 
BRANCH   6   8
HETATM    8  C   UNL     1     -11.912  10.695  70.823  1.00  0.00    -0.477 A  
HETATM    9  C   UNL     1     -12.983  10.349  71.665  1.00  0.00    -0.581 A  
HETATM   10  C   UNL     1     -12.966   9.149  72.378  1.00  0.00    -0.468 A  
HETATM   11  C   UNL     1     -11.879   8.288  72.259  1.00  0.00    -0.451 A  
HETATM   12  C   UNL     1     -10.796   8.633  71.448  1.00  0.00    -0.339 A  
HETATM   13  C   UNL     1     -10.808   9.836  70.738  1.00  0.00    -0.333 A  
HETATM   14  O   UNL     1      -9.725  10.154  69.966  1.00  0.00    -0.363 OA 
HETATM   15  H   UNL     1      -8.977   9.572  69.908  1.00  0.00     0.000 HD 
ENDBRANCH   6   8
ENDBRANCH   5   6
ENDBRANCH   4   5
ENDBRANCH   2   4
TORSDOF 4
ENDMDL
MODEL       61
REMARK 921   NORMALIZED FREE ENERGY PREDICTED BY IDOCK:   -4.26 KCAL/MOL
REMARK 922        TOTAL FREE ENERGY PREDICTED BY IDOCK:   -5.67 KCAL/MOL
REMARK 923 INTER-LIGAND FREE ENERGY PREDICTED BY IDOCK:   -5.24 KCAL/MOL
REMARK 924 INTRA-LIGAND FREE ENERGY PREDICTED BY IDOCK:   -0.43 KCAL/MOL
REMARK 927      BINDING AFFINITY PREDICTED BY RF-SCORE:    0.00 PKD
ROOT
HETATM    1  O   UNL     1      -9.127  12.807  68.542  1.00  0.00    -0.331 OA 
HETATM    2  C   UNL     1      -9.084  13.460  67.285  1.00  0.00    -0.222 C  
HETATM    3  H   UNL     1      -9.322  11.882  68.448  1.00  0.00     0.000 HD 
ENDROOT
BRANCH   2   4
HETATM    4  C   UNL     1      -8.770  14.947  67.437  1.00  0.00    -0.194 C  
BRANCH   4   5
HETATM    5  O   UNL     1      -9.748  15.670  66.682  1.00  0.00    -0.230 OA 
BRANCH   5   6
HETATM    6  C   UNL     1     -10.658  16.341  67.426  1.00  0.00    -0.307 C  
HETATM    7  O   UNL     1     -11.374  15.855  68.288  1.00  0.00    -0.350 OA 
BRANCH   6   8
HETATM    8  C   UNL     1     -10.423  17.804  67.288  1.00  0.00    -0.356 A  
HETATM    9  C   UNL     1      -9.974  18.467  68.443  1.00  0.00    -0.414 A  
HETATM   10  C   UNL     1      -9.561  19.798  68.382  1.00  0.00    -0.454 A  
HETATM   11  C   UNL     1      -9.595  20.480  67.168  1.00  0.00    -0.570 A  
HETATM   12  C   UNL     1     -10.066  19.842  66.019  1.00  0.00    -0.589 A  
HETATM   13  C   UNL     1     -10.486  18.511  66.079  1.00  0.00    -0.400 A  
HETATM   14  O   UNL     1     -10.957  17.919  64.940  1.00  0.00    -0.827 OA 
HETATM   15  H   UNL     1     -10.999  18.398  64.121  1.00  0.00     0.000 HD 
ENDBRANCH   6   8
ENDBRANCH   5   6
ENDBRANCH   4   5
ENDBRANCH   2   4
TORSDOF 4
ENDMDL
MODEL       62
REMARK 921   NORMALIZED FREE ENERGY PREDICTED BY IDOCK:   -4.26 KCAL/MOL
REMARK 922        TOTAL FREE ENERGY PREDICTED BY IDOCK:   -5.67 KCAL/MOL
REMARK 923 INTER-LIGAND FREE ENERGY PREDICTED BY IDOCK:   -5.28 KCAL/MOL
REMARK 924 INTRA-LIGAND FREE ENERGY PREDICTED BY IDOCK:   -0.38 KCAL/MOL
REMARK 927      BINDING AFFINITY PREDICTED BY RF-SCORE:    0.00 PKD
ROOT
HETATM    1  O   UNL     1     -11.359   5.615  66.204  1.00  0.00    -0.739 OA 
HETATM    2  C   UNL     1     -10.968   6.499  67.241  1.00  0.00    -0.400 C  
HETATM    3  H   UNL     1     -11.478   6.075  65.381  1.00  0.00     0.000 HD 
ENDROOT
BRANCH   2   4
HETATM    4  C   UNL     1     -10.775   5.760  68.564  1.00  0.00    -0.217 C  
BRANCH   4   5
HETATM    5  O   UNL     1     -11.534   6.457  69.557  1.00  0.00    -0.407 OA 
BRANCH   5   6
HETATM    6  C   UNL     1     -10.794   7.111  70.483  1.00  0.00    -0.246 C  
HETATM    7  O   UNL     1      -9.588   7.000  70.641  1.00  0.00    -0.166 OA 
BRANCH   6   8
HETATM    8  C   UNL     1     -11.593   8.232  71.049  1.00  0.00    -0.301 A  
HETATM    9  C   UNL     1     -11.162   9.526  70.713  1.00  0.00    -0.383 A  
HETATM   10  C   UNL     1     -11.933  10.640  71.046  1.00  0.00    -0.442 A  
HETATM   11  C   UNL     1     -13.140  10.471  71.721  1.00  0.00    -0.570 A  
HETATM   12  C   UNL     1     -13.566   9.193  72.086  1.00  0.00    -0.534 A  
HETATM   13  C   UNL     1     -12.792   8.076  71.759  1.00  0.00    -0.332 A  
HETATM   14  O   UNL     1     -13.229   6.839  72.144  1.00  0.00    -0.548 OA 
HETATM   15  H   UNL     1     -14.041   6.734  72.625  1.00  0.00     0.000 HD 
ENDBRANCH   6   8
ENDBRANCH   5   6
ENDBRANCH   4   5
ENDBRANCH   2   4
TORSDOF 4
ENDMDL
MODEL       63
REMARK 921   NORMALIZED FREE ENERGY PREDICTED BY IDOCK:   -4.25 KCAL/MOL
REMARK 922        TOTAL FREE ENERGY PREDICTED BY IDOCK:   -5.66 KCAL/MOL
REMARK 923 INTER-LIGAND FREE ENERGY PREDICTED BY IDOCK:   -5.22 KCAL/MOL
REMARK 924 INTRA-LIGAND FREE ENERGY PREDICTED BY IDOCK:   -0.43 KCAL/MOL
REMARK 927      BINDING AFFINITY PREDICTED BY RF-SCORE:    0.00 PKD
ROOT
HETATM    1  O   UNL     1      -9.733  21.063  66.968  1.00  0.00    -0.671 OA 
HETATM    2  C   UNL     1      -9.298  19.745  67.254  1.00  0.00    -0.346 C  
HETATM    3  H   UNL     1      -9.161  21.490  66.340  1.00  0.00     0.000 HD 
ENDROOT
BRANCH   2   4
HETATM    4  C   UNL     1     -10.218  19.059  68.263  1.00  0.00    -0.386 C  
BRANCH   4   5
HETATM    5  O   UNL     1     -10.878  17.989  67.580  1.00  0.00    -0.379 OA 
BRANCH   5   6
HETATM    6  C   UNL     1     -10.752  16.775  68.168  1.00  0.00    -0.361 C  
HETATM    7  O   UNL     1     -10.786  16.558  69.369  1.00  0.00    -0.299 OA 
BRANCH   6   8
HETATM    8  C   UNL     1     -10.910  15.712  67.139  1.00  0.00    -0.297 A  
HETATM    9  C   UNL     1     -11.774  14.656  67.473  1.00  0.00    -0.403 A  
HETATM   10  C   UNL     1     -12.126  13.699  66.521  1.00  0.00    -0.469 A  
HETATM   11  C   UNL     1     -11.616  13.786  65.229  1.00  0.00    -0.330 A  
HETATM   12  C   UNL     1     -10.734  14.813  64.891  1.00  0.00    -0.438 A  
HETATM   13  C   UNL     1     -10.375  15.770  65.844  1.00  0.00    -0.354 A  
HETATM   14  O   UNL     1      -9.496  16.755  65.488  1.00  0.00    -0.490 OA 
HETATM   15  H   UNL     1      -9.134  16.794  64.611  1.00  0.00     0.000 HD 
ENDBRANCH   6   8
ENDBRANCH   5   6
ENDBRANCH   4   5
ENDBRANCH   2   4
TORSDOF 4
ENDMDL
MODEL       64
REMARK 921   NORMALIZED FREE ENERGY PREDICTED BY IDOCK:   -4.24 KCAL/MOL
REMARK 922        TOTAL FREE ENERGY PREDICTED BY IDOCK:   -5.65 KCAL/MOL
REMARK 923 INTER-LIGAND FREE ENERGY PREDICTED BY IDOCK:   -5.22 KCAL/MOL
REMARK 924 INTRA-LIGAND FREE ENERGY PREDICTED BY IDOCK:   -0.43 KCAL/MOL
REMARK 927      BINDING AFFINITY PREDICTED BY RF-SCORE:    0.00 PKD
ROOT
HETATM    1  O   UNL     1      -9.294  11.410  68.891  1.00  0.00    -0.343 OA 
HETATM    2  C   UNL     1     -10.375  10.955  68.095  1.00  0.00    -0.178 C  
HETATM    3  H   UNL     1      -8.600  10.762  68.938  1.00  0.00     0.000 HD 
ENDROOT
BRANCH   2   4
HETATM    4  C   UNL     1     -11.491  11.995  68.019  1.00  0.00    -0.328 C  
BRANCH   4   5
HETATM    5  O   UNL     1     -11.585  12.616  69.305  1.00  0.00    -0.285 OA 
BRANCH   5   6
HETATM    6  C   UNL     1     -11.806  13.952  69.277  1.00  0.00    -0.348 C  
HETATM    7  O   UNL     1     -11.843  14.648  68.275  1.00  0.00    -0.322 OA 
BRANCH   6   8
HETATM    8  C   UNL     1     -12.335  14.389  70.598  1.00  0.00    -0.422 A  
HETATM    9  C   UNL     1     -13.045  13.421  71.327  1.00  0.00    -0.317 A  
HETATM   10  C   UNL     1     -13.435  13.669  72.643  1.00  0.00    -0.608 A  
HETATM   11  C   UNL     1     -13.123  14.887  73.241  1.00  0.00    -0.585 A  
HETATM   12  C   UNL     1     -12.443  15.869  72.519  1.00  0.00    -0.566 A  
HETATM   13  C   UNL     1     -12.056  15.625  71.198  1.00  0.00    -0.404 A  
HETATM   14  O   UNL     1     -11.406  16.612  70.512  1.00  0.00    -0.512 OA 
HETATM   15  H   UNL     1     -11.217  17.449  70.918  1.00  0.00     0.000 HD 
ENDBRANCH   6   8
ENDBRANCH   5   6
ENDBRANCH   4   5
ENDBRANCH   2   4
TORSDOF 4
ENDMDL
MODEL       65
REMARK 921   NORMALIZED FREE ENERGY PREDICTED BY IDOCK:   -4.23 KCAL/MOL
REMARK 922        TOTAL FREE ENERGY PREDICTED BY IDOCK:   -5.63 KCAL/MOL
REMARK 923 INTER-LIGAND FREE ENERGY PREDICTED BY IDOCK:   -5.29 KCAL/MOL
REMARK 924 INTRA-LIGAND FREE ENERGY PREDICTED BY IDOCK:   -0.34 KCAL/MOL
REMARK 927      BINDING AFFINITY PREDICTED BY RF-SCORE:    0.00 PKD
ROOT
HETATM    1  O   UNL     1      -8.524  19.989  65.332  1.00  0.00    -0.383 OA 
HETATM    2  C   UNL     1      -9.248  19.504  66.450  1.00  0.00    -0.371 C  
HETATM    3  H   UNL     1      -7.749  20.469  65.600  1.00  0.00     0.000 HD 
ENDROOT
BRANCH   2   4
HETATM    4  C   UNL     1     -10.493  18.732  66.019  1.00  0.00    -0.432 C  
BRANCH   4   5
HETATM    5  O   UNL     1     -10.123  17.355  65.901  1.00  0.00    -0.500 OA 
BRANCH   5   6
HETATM    6  C   UNL     1     -10.496  16.574  66.943  1.00  0.00    -0.282 C  
HETATM    7  O   UNL     1     -10.658  16.950  68.093  1.00  0.00    -0.330 OA 
BRANCH   6   8
HETATM    8  C   UNL     1     -11.008  15.277  66.425  1.00  0.00    -0.299 A  
HETATM    9  C   UNL     1     -10.587  14.920  65.133  1.00  0.00    -0.450 A  
HETATM   10  C   UNL     1     -10.867  13.654  64.620  1.00  0.00    -0.416 A  
HETATM   11  C   UNL     1     -11.573  12.734  65.390  1.00  0.00    -0.393 A  
HETATM   12  C   UNL     1     -12.023  13.085  66.664  1.00  0.00    -0.453 A  
HETATM   13  C   UNL     1     -11.749  14.355  67.179  1.00  0.00    -0.400 A  
HETATM   14  O   UNL     1     -12.217  14.675  68.422  1.00  0.00    -0.585 OA 
HETATM   15  H   UNL     1     -12.719  14.050  68.933  1.00  0.00     0.000 HD 
ENDBRANCH   6   8
ENDBRANCH   5   6
ENDBRANCH   4   5
ENDBRANCH   2   4
TORSDOF 4
ENDMDL
MODEL       66
REMARK 921   NORMALIZED FREE ENERGY PREDICTED BY IDOCK:   -4.21 KCAL/MOL
REMARK 922        TOTAL FREE ENERGY PREDICTED BY IDOCK:   -5.61 KCAL/MOL
REMARK 923 INTER-LIGAND FREE ENERGY PREDICTED BY IDOCK:   -5.15 KCAL/MOL
REMARK 924 INTRA-LIGAND FREE ENERGY PREDICTED BY IDOCK:   -0.45 KCAL/MOL
REMARK 927      BINDING AFFINITY PREDICTED BY RF-SCORE:    0.00 PKD
ROOT
HETATM    1  O   UNL     1     -14.046  13.258  72.615  1.00  0.00    -0.744 OA 
HETATM    2  C   UNL     1     -13.581  14.595  72.681  1.00  0.00    -0.471 C  
HETATM    3  H   UNL     1     -13.936  12.810  73.446  1.00  0.00     0.000 HD 
ENDROOT
BRANCH   2   4
HETATM    4  C   UNL     1     -13.758  15.316  71.345  1.00  0.00    -0.518 C  
BRANCH   4   5
HETATM    5  O   UNL     1     -12.450  15.608  70.842  1.00  0.00    -0.410 OA 
BRANCH   5   6
HETATM    6  C   UNL     1     -11.964  14.702  69.961  1.00  0.00    -0.320 C  
HETATM    7  O   UNL     1     -12.172  13.499  69.987  1.00  0.00    -0.328 OA 
BRANCH   6   8
HETATM    8  C   UNL     1     -11.427  15.413  68.769  1.00  0.00    -0.352 A  
HETATM    9  C   UNL     1     -10.755  16.621  69.025  1.00  0.00    -0.343 A  
HETATM   10  C   UNL     1     -10.068  17.280  68.006  1.00  0.00    -0.324 A  
HETATM   11  C   UNL     1     -10.049  16.742  66.722  1.00  0.00    -0.295 A  
HETATM   12  C   UNL     1     -10.736  15.558  66.447  1.00  0.00    -0.303 A  
HETATM   13  C   UNL     1     -11.430  14.899  67.466  1.00  0.00    -0.348 A  
HETATM   14  O   UNL     1     -12.106  13.750  67.162  1.00  0.00    -0.398 OA 
HETATM   15  H   UNL     1     -12.108  13.401  66.279  1.00  0.00     0.000 HD 
ENDBRANCH   6   8
ENDBRANCH   5   6
ENDBRANCH   4   5
ENDBRANCH   2   4
TORSDOF 4
ENDMDL
MODEL       67
REMARK 921   NORMALIZED FREE ENERGY PREDICTED BY IDOCK:   -4.20 KCAL/MOL
REMARK 922        TOTAL FREE ENERGY PREDICTED BY IDOCK:   -5.60 KCAL/MOL
REMARK 923 INTER-LIGAND FREE ENERGY PREDICTED BY IDOCK:   -5.40 KCAL/MOL
REMARK 924 INTRA-LIGAND FREE ENERGY PREDICTED BY IDOCK:   -0.20 KCAL/MOL
REMARK 927      BINDING AFFINITY PREDICTED BY RF-SCORE:    0.00 PKD
ROOT
HETATM    1  O   UNL     1     -12.395  14.063  63.036  1.00  0.00    -1.101 OA 
HETATM    2  C   UNL     1     -12.130  12.770  63.552  1.00  0.00    -0.559 C  
HETATM    3  H   UNL     1     -13.275  14.124  62.682  1.00  0.00     0.000 HD 
ENDROOT
BRANCH   2   4
HETATM    4  C   UNL     1     -10.716  12.673  64.122  1.00  0.00    -0.406 C  
BRANCH   4   5
HETATM    5  O   UNL     1     -10.807  12.908  65.531  1.00  0.00    -0.269 OA 
BRANCH   5   6
HETATM    6  C   UNL     1     -10.514  14.173  65.916  1.00  0.00    -0.306 C  
HETATM    7  O   UNL     1     -10.185  15.087  65.176  1.00  0.00    -0.379 OA 
BRANCH   6   8
HETATM    8  C   UNL     1     -10.980  14.380  67.314  1.00  0.00    -0.301 A  
HETATM    9  C   UNL     1     -10.717  15.644  67.870  1.00  0.00    -0.294 A  
HETATM   10  C   UNL     1     -11.257  16.003  69.105  1.00  0.00    -0.342 A  
HETATM   11  C   UNL     1     -12.061  15.103  69.798  1.00  0.00    -0.354 A  
HETATM   12  C   UNL     1     -12.308  13.834  69.271  1.00  0.00    -0.185 A  
HETATM   13  C   UNL     1     -11.763  13.469  68.037  1.00  0.00    -0.359 A  
HETATM   14  O   UNL     1     -12.009  12.214  67.556  1.00  0.00    -0.544 OA 
HETATM   15  H   UNL     1     -12.540  11.596  68.045  1.00  0.00     0.000 HD 
ENDBRANCH   6   8
ENDBRANCH   5   6
ENDBRANCH   4   5
ENDBRANCH   2   4
TORSDOF 4
ENDMDL
MODEL       68
REMARK 921   NORMALIZED FREE ENERGY PREDICTED BY IDOCK:   -4.17 KCAL/MOL
REMARK 922        TOTAL FREE ENERGY PREDICTED BY IDOCK:   -5.56 KCAL/MOL
REMARK 923 INTER-LIGAND FREE ENERGY PREDICTED BY IDOCK:   -5.08 KCAL/MOL
REMARK 924 INTRA-LIGAND FREE ENERGY PREDICTED BY IDOCK:   -0.48 KCAL/MOL
REMARK 927      BINDING AFFINITY PREDICTED BY RF-SCORE:    0.00 PKD
ROOT
HETATM    1  O   UNL     1      -7.644  12.021  66.407  1.00  0.00    -0.374 OA 
HETATM    2  C   UNL     1      -8.241  12.891  67.354  1.00  0.00    -0.187 C  
HETATM    3  H   UNL     1      -7.076  12.494  65.810  1.00  0.00     0.000 HD 
ENDROOT
BRANCH   2   4
HETATM    4  C   UNL     1      -9.155  12.130  68.314  1.00  0.00    -0.191 C  
BRANCH   4   5
HETATM    5  O   UNL     1     -10.486  12.612  68.108  1.00  0.00    -0.217 OA 
BRANCH   5   6
HETATM    6  C   UNL     1     -11.290  11.780  67.406  1.00  0.00    -0.311 C  
HETATM    7  O   UNL     1     -11.982  10.890  67.876  1.00  0.00    -0.585 OA 
BRANCH   6   8
HETATM    8  C   UNL     1     -11.475  12.320  66.031  1.00  0.00    -0.434 A  
HETATM    9  C   UNL     1     -11.087  11.472  64.980  1.00  0.00    -0.268 A  
HETATM   10  C   UNL     1     -11.372  11.806  63.656  1.00  0.00    -0.525 A  
HETATM   11  C   UNL     1     -12.045  12.991  63.370  1.00  0.00    -0.591 A  
HETATM   12  C   UNL     1     -12.411  13.856  64.402  1.00  0.00    -0.400 A  
HETATM   13  C   UNL     1     -12.121  13.527  65.729  1.00  0.00    -0.433 A  
HETATM   14  O   UNL     1     -12.477  14.402  66.716  1.00  0.00    -0.563 OA 
HETATM   15  H   UNL     1     -12.915  15.220  66.512  1.00  0.00     0.000 HD 
ENDBRANCH   6   8
ENDBRANCH   5   6
ENDBRANCH   4   5
ENDBRANCH   2   4
TORSDOF 4
ENDMDL
MODEL       69
REMARK 921   NORMALIZED FREE ENERGY PREDICTED BY IDOCK:   -4.16 KCAL/MOL
REMARK 922        TOTAL FREE ENERGY PREDICTED BY IDOCK:   -5.54 KCAL/MOL
REMARK 923 INTER-LIGAND FREE ENERGY PREDICTED BY IDOCK:   -5.17 KCAL/MOL
REMARK 924 INTRA-LIGAND FREE ENERGY PREDICTED BY IDOCK:   -0.38 KCAL/MOL
REMARK 927      BINDING AFFINITY PREDICTED BY RF-SCORE:    0.00 PKD
ROOT
HETATM    1  O   UNL     1     -12.974  13.348  65.074  1.00  0.00    -0.720 OA 
HETATM    2  C   UNL     1     -11.993  12.517  65.670  1.00  0.00    -0.433 C  
HETATM    3  H   UNL     1     -13.161  13.082  64.181  1.00  0.00     0.000 HD 
ENDROOT
BRANCH   2   4
HETATM    4  C   UNL     1     -11.693  12.945  67.105  1.00  0.00    -0.377 C  
BRANCH   4   5
HETATM    5  O   UNL     1     -11.937  11.815  67.948  1.00  0.00    -0.575 OA 
BRANCH   5   6
HETATM    6  C   UNL     1     -11.806  12.055  69.274  1.00  0.00    -0.318 C  
HETATM    7  O   UNL     1     -12.266  13.013  69.875  1.00  0.00    -0.277 OA 
BRANCH   6   8
HETATM    8  C   UNL     1     -11.321  10.821  69.951  1.00  0.00    -0.385 A  
HETATM    9  C   UNL     1     -10.081  10.326  69.513  1.00  0.00    -0.260 A  
HETATM   10  C   UNL     1      -9.454   9.280  70.191  1.00  0.00    -0.258 A  
HETATM   11  C   UNL     1     -10.062   8.717  71.309  1.00  0.00    -0.336 A  
HETATM   12  C   UNL     1     -11.307   9.179  71.738  1.00  0.00    -0.451 A  
HETATM   13  C   UNL     1     -11.940  10.223  71.058  1.00  0.00    -0.385 A  
HETATM   14  O   UNL     1     -13.166  10.643  71.492  1.00  0.00    -0.389 OA 
HETATM   15  H   UNL     1     -13.585  10.238  72.242  1.00  0.00     0.000 HD 
ENDBRANCH   6   8
ENDBRANCH   5   6
ENDBRANCH   4   5
ENDBRANCH   2   4
TORSDOF 4
ENDMDL
MODEL       70
REMARK 921   NORMALIZED FREE ENERGY PREDICTED BY IDOCK:   -4.16 KCAL/MOL
REMARK 922        TOTAL FREE ENERGY PREDICTED BY IDOCK:   -5.54 KCAL/MOL
REMARK 923 INTER-LIGAND FREE ENERGY PREDICTED BY IDOCK:   -5.16 KCAL/MOL
REMARK 924 INTRA-LIGAND FREE ENERGY PREDICTED BY IDOCK:   -0.38 KCAL/MOL
REMARK 927      BINDING AFFINITY PREDICTED BY RF-SCORE:    0.00 PKD
ROOT
HETATM    1  O   UNL     1      -9.055  17.130  65.729  1.00  0.00    -0.525 OA 
HETATM    2  C   UNL     1      -9.234  15.795  66.170  1.00  0.00    -0.350 C  
HETATM    3  H   UNL     1      -8.141  17.388  65.764  1.00  0.00     0.000 HD 
ENDROOT
BRANCH   2   4
HETATM    4  C   UNL     1     -10.703  15.379  66.113  1.00  0.00    -0.314 C  
BRANCH   4   5
HETATM    5  O   UNL     1     -11.018  14.749  67.359  1.00  0.00    -0.295 OA 
BRANCH   5   6
HETATM    6  C   UNL     1     -11.721  13.597  67.252  1.00  0.00    -0.380 C  
HETATM    7  O   UNL     1     -11.981  13.013  66.212  1.00  0.00    -0.392 OA 
BRANCH   6   8
HETATM    8  C   UNL     1     -11.837  12.966  68.595  1.00  0.00    -0.347 A  
HETATM    9  C   UNL     1     -12.088  13.841  69.666  1.00  0.00    -0.392 A  
HETATM   10  C   UNL     1     -12.383  13.342  70.935  1.00  0.00    -0.436 A  
HETATM   11  C   UNL     1     -12.427  11.967  71.147  1.00  0.00    -0.353 A  
HETATM   12  C   UNL     1     -12.151  11.087  70.099  1.00  0.00    -0.438 A  
HETATM   13  C   UNL     1     -11.849  11.584  68.828  1.00  0.00    -0.330 A  
HETATM   14  O   UNL     1     -11.568  10.697  67.826  1.00  0.00    -0.603 OA 
HETATM   15  H   UNL     1     -11.576   9.761  67.984  1.00  0.00     0.000 HD 
ENDBRANCH   6   8
ENDBRANCH   5   6
ENDBRANCH   4   5
ENDBRANCH   2   4
TORSDOF 4
ENDMDL
MODEL       71
REMARK 921   NORMALIZED FREE ENERGY PREDICTED BY IDOCK:   -4.15 KCAL/MOL
REMARK 922        TOTAL FREE ENERGY PREDICTED BY IDOCK:   -5.53 KCAL/MOL
REMARK 923 INTER-LIGAND FREE ENERGY PREDICTED BY IDOCK:   -5.08 KCAL/MOL
REMARK 924 INTRA-LIGAND FREE ENERGY PREDICTED BY IDOCK:   -0.45 KCAL/MOL
REMARK 927      BINDING AFFINITY PREDICTED BY RF-SCORE:    0.00 PKD
ROOT
HETATM    1  O   UNL     1     -11.182   9.422  67.786  1.00  0.00    -0.492 OA 
HETATM    2  C   UNL     1     -10.298   9.111  68.849  1.00  0.00    -0.214 C  
HETATM    3  H   UNL     1     -10.735   9.410  66.947  1.00  0.00     0.000 HD 
ENDROOT
BRANCH   2   4
HETATM    4  C   UNL     1     -11.016   9.129  70.198  1.00  0.00    -0.239 C  
BRANCH   4   5
HETATM    5  O   UNL     1     -11.178  10.500  70.577  1.00  0.00    -0.314 OA 
BRANCH   5   6
HETATM    6  C   UNL     1     -12.462  10.898  70.736  1.00  0.00    -0.394 C  
HETATM    7  O   UNL     1     -13.399  10.179  71.046  1.00  0.00    -0.387 OA 
BRANCH   6   8
HETATM    8  C   UNL     1     -12.509  12.384  70.816  1.00  0.00    -0.356 A  
HETATM    9  C   UNL     1     -11.874  13.076  69.772  1.00  0.00    -0.381 A  
HETATM   10  C   UNL     1     -12.003  14.461  69.657  1.00  0.00    -0.385 A  
HETATM   11  C   UNL     1     -12.764  15.166  70.585  1.00  0.00    -0.451 A  
HETATM   12  C   UNL     1     -13.377  14.494  71.644  1.00  0.00    -0.441 A  
HETATM   13  C   UNL     1     -13.244  13.108  71.765  1.00  0.00    -0.403 A  
HETATM   14  O   UNL     1     -13.842  12.481  72.822  1.00  0.00    -0.620 OA 
HETATM   15  H   UNL     1     -14.341  12.971  73.465  1.00  0.00     0.000 HD 
ENDBRANCH   6   8
ENDBRANCH   5   6
ENDBRANCH   4   5
ENDBRANCH   2   4
TORSDOF 4
ENDMDL
MODEL       72
REMARK 921   NORMALIZED FREE ENERGY PREDICTED BY IDOCK:   -4.14 KCAL/MOL
REMARK 922        TOTAL FREE ENERGY PREDICTED BY IDOCK:   -5.53 KCAL/MOL
REMARK 923 INTER-LIGAND FREE ENERGY PREDICTED BY IDOCK:   -5.14 KCAL/MOL
REMARK 924 INTRA-LIGAND FREE ENERGY PREDICTED BY IDOCK:   -0.39 KCAL/MOL
REMARK 927      BINDING AFFINITY PREDICTED BY RF-SCORE:    0.00 PKD
ROOT
HETATM    1  O   UNL     1     -12.537  11.377  62.827  1.00  0.00    -0.952 OA 
HETATM    2  C   UNL     1     -12.314  12.702  63.278  1.00  0.00    -0.354 C  
HETATM    3  H   UNL     1     -12.486  11.319  61.880  1.00  0.00     0.000 HD 
ENDROOT
BRANCH   2   4
HETATM    4  C   UNL     1     -12.396  12.796  64.801  1.00  0.00    -0.478 C  
BRANCH   4   5
HETATM    5  O   UNL     1     -11.081  13.092  65.281  1.00  0.00    -0.282 OA 
BRANCH   5   6
HETATM    6  C   UNL     1     -10.820  12.651  66.535  1.00  0.00    -0.258 C  
HETATM    7  O   UNL     1     -11.016  13.275  67.566  1.00  0.00    -0.255 OA 
BRANCH   6   8
HETATM    8  C   UNL     1     -10.587  11.181  66.500  1.00  0.00    -0.314 A  
HETATM    9  C   UNL     1      -9.714  10.721  65.500  1.00  0.00    -0.290 A  
HETATM   10  C   UNL     1      -9.293   9.391  65.483  1.00  0.00    -0.315 A  
HETATM   11  C   UNL     1      -9.742   8.509  66.462  1.00  0.00    -0.330 A  
HETATM   12  C   UNL     1     -10.632   8.946  67.444  1.00  0.00    -0.305 A  
HETATM   13  C   UNL     1     -11.061  10.276  67.460  1.00  0.00    -0.232 A  
HETATM   14  O   UNL     1     -11.945  10.670  68.425  1.00  0.00    -0.775 OA 
HETATM   15  H   UNL     1     -12.266  10.056  69.076  1.00  0.00     0.000 HD 
ENDBRANCH   6   8
ENDBRANCH   5   6
ENDBRANCH   4   5
ENDBRANCH   2   4
TORSDOF 4
ENDMDL
MODEL       73
REMARK 921   NORMALIZED FREE ENERGY PREDICTED BY IDOCK:   -4.14 KCAL/MOL
REMARK 922        TOTAL FREE ENERGY PREDICTED BY IDOCK:   -5.52 KCAL/MOL
REMARK 923 INTER-LIGAND FREE ENERGY PREDICTED BY IDOCK:   -4.83 KCAL/MOL
REMARK 924 INTRA-LIGAND FREE ENERGY PREDICTED BY IDOCK:   -0.69 KCAL/MOL
REMARK 927      BINDING AFFINITY PREDICTED BY RF-SCORE:    0.00 PKD
ROOT
HETATM    1  O   UNL     1      -9.629   9.248  70.824  1.00  0.00    -0.245 OA 
HETATM    2  C   UNL     1      -8.720   9.789  69.880  1.00  0.00    -0.217 C  
HETATM    3  H   UNL     1      -9.188   8.998  71.628  1.00  0.00     0.000 HD 
ENDROOT
BRANCH   2   4
HETATM    4  C   UNL     1      -9.428  10.192  68.588  1.00  0.00    -0.164 C  
BRANCH   4   5
HETATM    5  O   UNL     1     -10.006  11.484  68.803  1.00  0.00    -0.205 OA 
BRANCH   5   6
HETATM    6  C   UNL     1     -11.351  11.538  68.654  1.00  0.00    -0.269 C  
HETATM    7  O   UNL     1     -11.981  11.107  67.701  1.00  0.00    -0.613 OA 
BRANCH   6   8
HETATM    8  C   UNL     1     -11.976  11.884  69.960  1.00  0.00    -0.409 A  
HETATM    9  C   UNL     1     -12.047  13.254  70.263  1.00  0.00    -0.405 A  
HETATM   10  C   UNL     1     -12.763  13.698  71.375  1.00  0.00    -0.437 A  
HETATM   11  C   UNL     1     -13.411  12.778  72.196  1.00  0.00    -0.593 A  
HETATM   12  C   UNL     1     -13.324  11.412  71.922  1.00  0.00    -0.409 A  
HETATM   13  C   UNL     1     -12.603  10.964  70.812  1.00  0.00    -0.377 A  
HETATM   14  O   UNL     1     -12.523   9.619  70.580  1.00  0.00    -0.483 OA 
HETATM   15  H   UNL     1     -12.948   8.996  71.157  1.00  0.00     0.000 HD 
ENDBRANCH   6   8
ENDBRANCH   5   6
ENDBRANCH   4   5
ENDBRANCH   2   4
TORSDOF 4
ENDMDL
MODEL       74
REMARK 921   NORMALIZED FREE ENERGY PREDICTED BY IDOCK:   -4.12 KCAL/MOL
REMARK 922        TOTAL FREE ENERGY PREDICTED BY IDOCK:   -5.49 KCAL/MOL
REMARK 923 INTER-LIGAND FREE ENERGY PREDICTED BY IDOCK:   -4.69 KCAL/MOL
REMARK 924 INTRA-LIGAND FREE ENERGY PREDICTED BY IDOCK:   -0.81 KCAL/MOL
REMARK 927      BINDING AFFINITY PREDICTED BY RF-SCORE:    0.00 PKD
ROOT
HETATM    1  O   UNL     1      -8.390  19.634  67.458  1.00  0.00    -0.285 OA 
HETATM    2  C   UNL     1      -9.666  19.545  68.068  1.00  0.00    -0.376 C  
HETATM    3  H   UNL     1      -7.729  19.927  68.075  1.00  0.00     0.000 HD 
ENDROOT
BRANCH   2   4
HETATM    4  C   UNL     1     -10.729  19.074  67.077  1.00  0.00    -0.432 C  
BRANCH   4   5
HETATM    5  O   UNL     1     -10.044  18.515  65.951  1.00  0.00    -0.532 OA 
BRANCH   5   6
HETATM    6  C   UNL     1     -10.514  17.314  65.538  1.00  0.00    -0.122 C  
HETATM    7  O   UNL     1     -11.209  17.120  64.554  1.00  0.00    -1.104 OA 
BRANCH   6   8
HETATM    8  C   UNL     1      -9.785  16.230  66.252  1.00  0.00    -0.329 A  
HETATM    9  C   UNL     1     -10.569  15.152  66.697  1.00  0.00    -0.304 A  
HETATM   10  C   UNL     1      -9.968  14.008  67.223  1.00  0.00    -0.242 A  
HETATM   11  C   UNL     1      -8.581  13.932  67.314  1.00  0.00    -0.221 A  
HETATM   12  C   UNL     1      -7.792  15.008  66.903  1.00  0.00    -0.056 A  
HETATM   13  C   UNL     1      -8.391  16.158  66.381  1.00  0.00    -0.322 A  
HETATM   14  O   UNL     1      -7.593  17.200  66.002  1.00  0.00    -0.360 OA 
HETATM   15  H   UNL     1      -6.648  17.151  66.089  1.00  0.00     0.000 HD 
ENDBRANCH   6   8
ENDBRANCH   5   6
ENDBRANCH   4   5
ENDBRANCH   2   4
TORSDOF 4
ENDMDL
MODEL       75
REMARK 921   NORMALIZED FREE ENERGY PREDICTED BY IDOCK:   -4.10 KCAL/MOL
REMARK 922        TOTAL FREE ENERGY PREDICTED BY IDOCK:   -5.47 KCAL/MOL
REMARK 923 INTER-LIGAND FREE ENERGY PREDICTED BY IDOCK:   -5.06 KCAL/MOL
REMARK 924 INTRA-LIGAND FREE ENERGY PREDICTED BY IDOCK:   -0.41 KCAL/MOL
REMARK 927      BINDING AFFINITY PREDICTED BY RF-SCORE:    0.00 PKD
ROOT
HETATM    1  O   UNL     1      -8.932  18.241  67.145  1.00  0.00    -0.255 OA 
HETATM    2  C   UNL     1     -10.198  17.613  67.031  1.00  0.00    -0.332 C  
HETATM    3  H   UNL     1      -8.640  18.274  68.048  1.00  0.00     0.000 HD 
ENDROOT
BRANCH   2   4
HETATM    4  C   UNL     1     -10.667  17.559  65.578  1.00  0.00    -0.062 C  
BRANCH   4   5
HETATM    5  O   UNL     1     -10.526  16.206  65.133  1.00  0.00    -0.560 OA 
BRANCH   5   6
HETATM    6  C   UNL     1     -11.647  15.661  64.605  1.00  0.00    -0.249 C  
HETATM    7  O   UNL     1     -12.351  16.169  63.747  1.00  0.00    -0.864 OA 
BRANCH   6   8
HETATM    8  C   UNL     1     -11.709  14.219  64.967  1.00  0.00    -0.383 A  
HETATM    9  C   UNL     1     -11.437  13.312  63.929  1.00  0.00    -0.409 A  
HETATM   10  C   UNL     1     -11.300  11.949  64.195  1.00  0.00    -0.455 A  
HETATM   11  C   UNL     1     -11.438  11.480  65.498  1.00  0.00    -0.074 A  
HETATM   12  C   UNL     1     -11.737  12.366  66.534  1.00  0.00    -0.443 A  
HETATM   13  C   UNL     1     -11.880  13.731  66.270  1.00  0.00    -0.398 A  
HETATM   14  O   UNL     1     -12.190  14.570  67.303  1.00  0.00    -0.575 OA 
HETATM   15  H   UNL     1     -12.305  14.240  68.186  1.00  0.00     0.000 HD 
ENDBRANCH   6   8
ENDBRANCH   5   6
ENDBRANCH   4   5
ENDBRANCH   2   4
TORSDOF 4
ENDMDL
MODEL       76
REMARK 921   NORMALIZED FREE ENERGY PREDICTED BY IDOCK:   -4.10 KCAL/MOL
REMARK 922        TOTAL FREE ENERGY PREDICTED BY IDOCK:   -5.47 KCAL/MOL
REMARK 923 INTER-LIGAND FREE ENERGY PREDICTED BY IDOCK:   -5.07 KCAL/MOL
REMARK 924 INTRA-LIGAND FREE ENERGY PREDICTED BY IDOCK:   -0.40 KCAL/MOL
REMARK 927      BINDING AFFINITY PREDICTED BY RF-SCORE:    0.00 PKD
ROOT
HETATM    1  O   UNL     1     -12.501  13.583  62.872  1.00  0.00    -0.891 OA 
HETATM    2  C   UNL     1     -11.893  13.343  64.130  1.00  0.00    -0.442 C  
HETATM    3  H   UNL     1     -12.441  12.823  62.305  1.00  0.00     0.000 HD 
ENDROOT
BRANCH   2   4
HETATM    4  C   UNL     1     -11.990  14.566  65.040  1.00  0.00    -0.399 C  
BRANCH   4   5
HETATM    5  O   UNL     1     -10.758  14.658  65.763  1.00  0.00    -0.291 OA 
BRANCH   5   6
HETATM    6  C   UNL     1     -10.135  15.857  65.674  1.00  0.00    -0.358 C  
HETATM    7  O   UNL     1     -10.641  16.898  65.284  1.00  0.00    -0.633 OA 
BRANCH   6   8
HETATM    8  C   UNL     1      -8.857  15.804  66.435  1.00  0.00    -0.371 A  
HETATM    9  C   UNL     1      -8.594  14.601  67.113  1.00  0.00    -0.244 A  
HETATM   10  C   UNL     1      -7.355  14.381  67.713  1.00  0.00    -0.186 A  
HETATM   11  C   UNL     1      -6.367  15.361  67.645  1.00  0.00    -0.177 A  
HETATM   12  C   UNL     1      -6.624  16.571  66.999  1.00  0.00    -0.234 A  
HETATM   13  C   UNL     1      -7.868  16.797  66.402  1.00  0.00    -0.318 A  
HETATM   14  O   UNL     1      -8.095  17.999  65.792  1.00  0.00    -0.525 OA 
HETATM   15  H   UNL     1      -7.425  18.671  65.769  1.00  0.00     0.000 HD 
ENDBRANCH   6   8
ENDBRANCH   5   6
ENDBRANCH   4   5
ENDBRANCH   2   4
TORSDOF 4
ENDMDL
MODEL       77
REMARK 921   NORMALIZED FREE ENERGY PREDICTED BY IDOCK:   -4.09 KCAL/MOL
REMARK 922        TOTAL FREE ENERGY PREDICTED BY IDOCK:   -5.46 KCAL/MOL
REMARK 923 INTER-LIGAND FREE ENERGY PREDICTED BY IDOCK:   -4.99 KCAL/MOL
REMARK 924 INTRA-LIGAND FREE ENERGY PREDICTED BY IDOCK:   -0.47 KCAL/MOL
REMARK 927      BINDING AFFINITY PREDICTED BY RF-SCORE:    0.00 PKD
ROOT
HETATM    1  O   UNL     1     -11.217   9.414  69.202  1.00  0.00    -0.437 OA 
HETATM    2  C   UNL     1     -10.636  10.627  69.647  1.00  0.00    -0.217 C  
HETATM    3  H   UNL     1     -10.653   8.671  69.384  1.00  0.00     0.000 HD 
ENDROOT
BRANCH   2   4
HETATM    4  C   UNL     1     -11.542  11.822  69.355  1.00  0.00    -0.322 C  
BRANCH   4   5
HETATM    5  O   UNL     1     -10.931  12.574  68.302  1.00  0.00    -0.217 OA 
BRANCH   5   6
HETATM    6  C   UNL     1     -11.327  12.230  67.054  1.00  0.00    -0.334 C  
HETATM    7  O   UNL     1     -11.750  11.136  66.715  1.00  0.00    -0.349 OA 
BRANCH   6   8
HETATM    8  C   UNL     1     -11.498  13.462  66.236  1.00  0.00    -0.354 A  
HETATM    9  C   UNL     1     -10.672  14.546  66.578  1.00  0.00    -0.312 A  
HETATM   10  C   UNL     1     -10.628  15.685  65.773  1.00  0.00    -0.374 A  
HETATM   11  C   UNL     1     -11.409  15.753  64.623  1.00  0.00    -0.343 A  
HETATM   12  C   UNL     1     -12.255  14.695  64.287  1.00  0.00    -0.432 A  
HETATM   13  C   UNL     1     -12.306  13.555  65.094  1.00  0.00    -0.449 A  
HETATM   14  O   UNL     1     -13.156  12.542  64.747  1.00  0.00    -0.853 OA 
HETATM   15  H   UNL     1     -13.704  12.605  63.974  1.00  0.00     0.000 HD 
ENDBRANCH   6   8
ENDBRANCH   5   6
ENDBRANCH   4   5
ENDBRANCH   2   4
TORSDOF 4
ENDMDL
MODEL       78
REMARK 921   NORMALIZED FREE ENERGY PREDICTED BY IDOCK:   -4.08 KCAL/MOL
REMARK 922        TOTAL FREE ENERGY PREDICTED BY IDOCK:   -5.44 KCAL/MOL
REMARK 923 INTER-LIGAND FREE ENERGY PREDICTED BY IDOCK:   -5.07 KCAL/MOL
REMARK 924 INTRA-LIGAND FREE ENERGY PREDICTED BY IDOCK:   -0.37 KCAL/MOL
REMARK 927      BINDING AFFINITY PREDICTED BY RF-SCORE:    0.00 PKD
ROOT
HETATM    1  O   UNL     1     -10.164  14.415  64.844  1.00  0.00    -0.429 OA 
HETATM    2  C   UNL     1     -10.575  13.643  65.959  1.00  0.00    -0.290 C  
HETATM    3  H   UNL     1     -10.340  13.966  64.025  1.00  0.00     0.000 HD 
ENDROOT
BRANCH   2   4
HETATM    4  C   UNL     1     -10.293  14.366  67.275  1.00  0.00    -0.260 C  
BRANCH   4   5
HETATM    5  O   UNL     1     -11.533  14.464  67.982  1.00  0.00    -0.279 OA 
BRANCH   5   6
HETATM    6  C   UNL     1     -11.426  14.900  69.260  1.00  0.00    -0.303 C  
HETATM    7  O   UNL     1     -10.983  15.983  69.609  1.00  0.00    -0.275 OA 
BRANCH   6   8
HETATM    8  C   UNL     1     -12.236  14.022  70.148  1.00  0.00    -0.425 A  
HETATM    9  C   UNL     1     -11.912  12.655  70.122  1.00  0.00    -0.375 A  
HETATM   10  C   UNL     1     -12.488  11.772  71.036  1.00  0.00    -0.411 A  
HETATM   11  C   UNL     1     -13.395  12.245  71.980  1.00  0.00    -0.491 A  
HETATM   12  C   UNL     1     -13.747  13.596  71.999  1.00  0.00    -0.583 A  
HETATM   13  C   UNL     1     -13.176  14.482  71.081  1.00  0.00    -0.361 A  
HETATM   14  O   UNL     1     -13.554  15.795  71.114  1.00  0.00    -0.591 OA 
HETATM   15  H   UNL     1     -14.190  16.106  71.746  1.00  0.00     0.000 HD 
ENDBRANCH   6   8
ENDBRANCH   5   6
ENDBRANCH   4   5
ENDBRANCH   2   4
TORSDOF 4
ENDMDL
MODEL       79
REMARK 921   NORMALIZED FREE ENERGY PREDICTED BY IDOCK:   -4.07 KCAL/MOL
REMARK 922        TOTAL FREE ENERGY PREDICTED BY IDOCK:   -5.43 KCAL/MOL
REMARK 923 INTER-LIGAND FREE ENERGY PREDICTED BY IDOCK:   -5.02 KCAL/MOL
REMARK 924 INTRA-LIGAND FREE ENERGY PREDICTED BY IDOCK:   -0.41 KCAL/MOL
REMARK 927      BINDING AFFINITY PREDICTED BY RF-SCORE:    0.00 PKD
ROOT
HETATM    1  O   UNL     1     -10.305  19.637  69.165  1.00  0.00    -0.617 OA 
HETATM    2  C   UNL     1     -10.206  19.160  67.834  1.00  0.00    -0.406 C  
HETATM    3  H   UNL     1     -10.713  20.495  69.198  1.00  0.00     0.000 HD 
ENDROOT
BRANCH   2   4
HETATM    4  C   UNL     1      -9.552  17.781  67.782  1.00  0.00    -0.272 C  
BRANCH   4   5
HETATM    5  O   UNL     1     -10.484  16.889  67.163  1.00  0.00    -0.318 OA 
BRANCH   5   6
HETATM    6  C   UNL     1      -9.989  16.184  66.118  1.00  0.00    -0.335 C  
HETATM    7  O   UNL     1      -8.859  16.280  65.664  1.00  0.00    -0.374 OA 
BRANCH   6   8
HETATM    8  C   UNL     1     -10.895  15.041  65.822  1.00  0.00    -0.355 A  
HETATM    9  C   UNL     1     -11.371  14.959  64.502  1.00  0.00    -0.306 A  
HETATM   10  C   UNL     1     -12.086  13.840  64.074  1.00  0.00    -0.448 A  
HETATM   11  C   UNL     1     -12.334  12.795  64.960  1.00  0.00    -0.559 A  
HETATM   12  C   UNL     1     -11.892  12.877  66.282  1.00  0.00    -0.477 A  
HETATM   13  C   UNL     1     -11.181  14.000  66.715  1.00  0.00    -0.315 A  
HETATM   14  O   UNL     1     -10.776  14.057  68.019  1.00  0.00    -0.239 OA 
HETATM   15  H   UNL     1     -10.970  13.351  68.624  1.00  0.00     0.000 HD 
ENDBRANCH   6   8
ENDBRANCH   5   6
ENDBRANCH   4   5
ENDBRANCH   2   4
TORSDOF 4
ENDMDL
MODEL       80
REMARK 921   NORMALIZED FREE ENERGY PREDICTED BY IDOCK:   -4.06 KCAL/MOL
REMARK 922        TOTAL FREE ENERGY PREDICTED BY IDOCK:   -5.42 KCAL/MOL
REMARK 923 INTER-LIGAND FREE ENERGY PREDICTED BY IDOCK:   -5.50 KCAL/MOL
REMARK 924 INTRA-LIGAND FREE ENERGY PREDICTED BY IDOCK:    0.08 KCAL/MOL
REMARK 927      BINDING AFFINITY PREDICTED BY RF-SCORE:    0.00 PKD
ROOT
HETATM    1  O   UNL     1     -11.641  16.413  63.601  1.00  0.00    -1.514 OA 
HETATM    2  C   UNL     1     -11.242  16.500  64.958  1.00  0.00    -0.087 C  
HETATM    3  H   UNL     1     -12.013  17.232  63.294  1.00  0.00     0.000 HD 
ENDROOT
BRANCH   2   4
HETATM    4  C   UNL     1     -10.643  15.184  65.451  1.00  0.00    -0.391 C  
BRANCH   4   5
HETATM    5  O   UNL     1     -11.732  14.322  65.796  1.00  0.00    -0.344 OA 
BRANCH   5   6
HETATM    6  C   UNL     1     -11.541  13.586  66.916  1.00  0.00    -0.363 C  
HETATM    7  O   UNL     1     -11.935  13.875  68.036  1.00  0.00    -0.361 OA 
BRANCH   6   8
HETATM    8  C   UNL     1     -11.088  12.220  66.535  1.00  0.00    -0.343 A  
HETATM    9  C   UNL     1     -10.195  12.148  65.453  1.00  0.00    -0.299 A  
HETATM   10  C   UNL     1      -9.577  10.943  65.121  1.00  0.00    -0.291 A  
HETATM   11  C   UNL     1      -9.847   9.798  65.866  1.00  0.00    -0.352 A  
HETATM   12  C   UNL     1     -10.754   9.848  66.926  1.00  0.00    -0.195 A  
HETATM   13  C   UNL     1     -11.379  11.054  67.256  1.00  0.00    -0.188 A  
HETATM   14  O   UNL     1     -12.274  11.068  68.289  1.00  0.00    -0.769 OA 
HETATM   15  H   UNL     1     -12.471  10.278  68.777  1.00  0.00     0.000 HD 
ENDBRANCH   6   8
ENDBRANCH   5   6
ENDBRANCH   4   5
ENDBRANCH   2   4
TORSDOF 4
ENDMDL
MODEL       81
REMARK 921   NORMALIZED FREE ENERGY PREDICTED BY IDOCK:   -4.05 KCAL/MOL
REMARK 922        TOTAL FREE ENERGY PREDICTED BY IDOCK:   -5.41 KCAL/MOL
REMARK 923 INTER-LIGAND FREE ENERGY PREDICTED BY IDOCK:   -5.09 KCAL/MOL
REMARK 924 INTRA-LIGAND FREE ENERGY PREDICTED BY IDOCK:   -0.33 KCAL/MOL
REMARK 927      BINDING AFFINITY PREDICTED BY RF-SCORE:    0.00 PKD
ROOT
HETATM    1  O   UNL     1     -12.510  13.928  62.918  1.00  0.00    -1.034 OA 
HETATM    2  C   UNL     1     -11.807  13.455  64.054  1.00  0.00    -0.445 C  
HETATM    3  H   UNL     1     -12.081  13.669  62.110  1.00  0.00     0.000 HD 
ENDROOT
BRANCH   2   4
HETATM    4  C   UNL     1     -12.497  13.870  65.352  1.00  0.00    -0.501 C  
BRANCH   4   5
HETATM    5  O   UNL     1     -12.524  12.723  66.207  1.00  0.00    -0.477 OA 
BRANCH   5   6
HETATM    6  C   UNL     1     -11.671  12.777  67.258  1.00  0.00    -0.378 C  
HETATM    7  O   UNL     1     -11.864  13.378  68.303  1.00  0.00    -0.333 OA 
BRANCH   6   8
HETATM    8  C   UNL     1     -10.628  11.727  67.097  1.00  0.00    -0.267 A  
HETATM    9  C   UNL     1     -11.036  10.409  67.360  1.00  0.00    -0.335 A  
HETATM   10  C   UNL     1     -10.192   9.335  67.078  1.00  0.00    -0.331 A  
HETATM   11  C   UNL     1      -8.932   9.568  66.533  1.00  0.00    -0.173 A  
HETATM   12  C   UNL     1      -8.503  10.875  66.293  1.00  0.00    -0.166 A  
HETATM   13  C   UNL     1      -9.344  11.953  66.581  1.00  0.00    -0.205 A  
HETATM   14  O   UNL     1      -8.889  13.221  66.351  1.00  0.00    -0.441 OA 
HETATM   15  H   UNL     1      -8.019  13.373  66.001  1.00  0.00     0.000 HD 
ENDBRANCH   6   8
ENDBRANCH   5   6
ENDBRANCH   4   5
ENDBRANCH   2   4
TORSDOF 4
ENDMDL
MODEL       82
REMARK 921   NORMALIZED FREE ENERGY PREDICTED BY IDOCK:   -4.02 KCAL/MOL
REMARK 922        TOTAL FREE ENERGY PREDICTED BY IDOCK:   -5.37 KCAL/MOL
REMARK 923 INTER-LIGAND FREE ENERGY PREDICTED BY IDOCK:   -4.96 KCAL/MOL
REMARK 924 INTRA-LIGAND FREE ENERGY PREDICTED BY IDOCK:   -0.40 KCAL/MOL
REMARK 927      BINDING AFFINITY PREDICTED BY RF-SCORE:    0.00 PKD
ROOT
HETATM    1  O   UNL     1     -12.531  14.321  63.342  1.00  0.00    -1.125 OA 
HETATM    2  C   UNL     1     -12.091  13.091  63.891  1.00  0.00    -0.471 C  
HETATM    3  H   UNL     1     -12.561  14.289  62.393  1.00  0.00     0.000 HD 
ENDROOT
BRANCH   2   4
HETATM    4  C   UNL     1     -12.044  13.144  65.417  1.00  0.00    -0.433 C  
BRANCH   4   5
HETATM    5  O   UNL     1     -10.932  13.967  65.782  1.00  0.00    -0.289 OA 
BRANCH   5   6
HETATM    6  C   UNL     1     -11.099  14.676  66.923  1.00  0.00    -0.333 C  
HETATM    7  O   UNL     1     -12.008  14.532  67.725  1.00  0.00    -0.363 OA 
BRANCH   6   8
HETATM    8  C   UNL     1      -9.843  15.413  67.233  1.00  0.00    -0.217 A  
HETATM    9  C   UNL     1      -9.194  16.008  66.138  1.00  0.00    -0.388 A  
HETATM   10  C   UNL     1      -8.108  16.861  66.335  1.00  0.00    -0.350 A  
HETATM   11  C   UNL     1      -7.659  17.125  67.627  1.00  0.00    -0.180 A  
HETATM   12  C   UNL     1      -8.277  16.518  68.721  1.00  0.00    -0.248 A  
HETATM   13  C   UNL     1      -9.361  15.658  68.526  1.00  0.00    -0.197 A  
HETATM   14  O   UNL     1      -9.935  15.066  69.617  1.00  0.00    -0.371 OA 
HETATM   15  H   UNL     1      -9.609  15.233  70.493  1.00  0.00     0.000 HD 
ENDBRANCH   6   8
ENDBRANCH   5   6
ENDBRANCH   4   5
ENDBRANCH   2   4
TORSDOF 4
ENDMDL
MODEL       83
REMARK 921   NORMALIZED FREE ENERGY PREDICTED BY IDOCK:   -4.00 KCAL/MOL
REMARK 922        TOTAL FREE ENERGY PREDICTED BY IDOCK:   -5.35 KCAL/MOL
REMARK 923 INTER-LIGAND FREE ENERGY PREDICTED BY IDOCK:   -4.90 KCAL/MOL
REMARK 924 INTRA-LIGAND FREE ENERGY PREDICTED BY IDOCK:   -0.45 KCAL/MOL
REMARK 927      BINDING AFFINITY PREDICTED BY RF-SCORE:    0.00 PKD
ROOT
HETATM    1  O   UNL     1     -11.476   6.597  67.469  1.00  0.00    -0.721 OA 
HETATM    2  C   UNL     1     -10.639   7.671  67.078  1.00  0.00    -0.336 C  
HETATM    3  H   UNL     1     -11.597   5.974  66.762  1.00  0.00     0.000 HD 
ENDROOT
BRANCH   2   4
HETATM    4  C   UNL     1     -10.444   8.672  68.216  1.00  0.00    -0.184 C  
BRANCH   4   5
HETATM    5  O   UNL     1     -10.180   9.947  67.622  1.00  0.00    -0.182 OA 
BRANCH   5   6
HETATM    6  C   UNL     1     -11.278  10.704  67.386  1.00  0.00    -0.205 C  
HETATM    7  O   UNL     1     -12.145  10.976  68.201  1.00  0.00    -0.610 OA 
BRANCH   6   8
HETATM    8  C   UNL     1     -11.104  11.434  66.101  1.00  0.00    -0.259 A  
HETATM    9  C   UNL     1     -10.449  10.730  65.077  1.00  0.00    -0.307 A  
HETATM   10  C   UNL     1     -10.384  11.252  63.785  1.00  0.00    -0.453 A  
HETATM   11  C   UNL     1     -10.970  12.484  63.505  1.00  0.00    -0.472 A  
HETATM   12  C   UNL     1     -11.599  13.208  64.520  1.00  0.00    -0.406 A  
HETATM   13  C   UNL     1     -11.660  12.689  65.816  1.00  0.00    -0.387 A  
HETATM   14  O   UNL     1     -12.268  13.429  66.791  1.00  0.00    -0.377 OA 
HETATM   15  H   UNL     1     -12.645  14.279  66.598  1.00  0.00     0.000 HD 
ENDBRANCH   6   8
ENDBRANCH   5   6
ENDBRANCH   4   5
ENDBRANCH   2   4
TORSDOF 4
ENDMDL
MODEL       84
REMARK 921   NORMALIZED FREE ENERGY PREDICTED BY IDOCK:   -3.99 KCAL/MOL
REMARK 922        TOTAL FREE ENERGY PREDICTED BY IDOCK:   -5.34 KCAL/MOL
REMARK 923 INTER-LIGAND FREE ENERGY PREDICTED BY IDOCK:   -4.96 KCAL/MOL
REMARK 924 INTRA-LIGAND FREE ENERGY PREDICTED BY IDOCK:   -0.38 KCAL/MOL
REMARK 927      BINDING AFFINITY PREDICTED BY RF-SCORE:    0.00 PKD
ROOT
HETATM    1  O   UNL     1      -9.647   8.564  65.386  1.00  0.00    -0.420 OA 
HETATM    2  C   UNL     1      -9.032   9.832  65.237  1.00  0.00    -0.193 C  
HETATM    3  H   UNL     1      -9.007   7.887  65.576  1.00  0.00     0.000 HD 
ENDROOT
BRANCH   2   4
HETATM    4  C   UNL     1     -10.061  10.920  64.932  1.00  0.00    -0.312 C  
BRANCH   4   5
HETATM    5  O   UNL     1     -10.844  11.112  66.114  1.00  0.00    -0.253 OA 
BRANCH   5   6
HETATM    6  C   UNL     1     -11.667  12.186  66.083  1.00  0.00    -0.315 C  
HETATM    7  O   UNL     1     -12.485  12.434  65.211  1.00  0.00    -0.611 OA 
BRANCH   6   8
HETATM    8  C   UNL     1     -11.676  12.836  67.422  1.00  0.00    -0.425 A  
HETATM    9  C   UNL     1     -11.515  14.232  67.429  1.00  0.00    -0.368 A  
HETATM   10  C   UNL     1     -11.678  14.959  68.608  1.00  0.00    -0.358 A  
HETATM   11  C   UNL     1     -12.001  14.299  69.791  1.00  0.00    -0.394 A  
HETATM   12  C   UNL     1     -12.135  12.910  69.804  1.00  0.00    -0.312 A  
HETATM   13  C   UNL     1     -11.966  12.178  68.625  1.00  0.00    -0.237 A  
HETATM   14  O   UNL     1     -12.089  10.818  68.674  1.00  0.00    -0.763 OA 
HETATM   15  H   UNL     1     -12.286  10.372  69.489  1.00  0.00     0.000 HD 
ENDBRANCH   6   8
ENDBRANCH   5   6
ENDBRANCH   4   5
ENDBRANCH   2   4
TORSDOF 4
ENDMDL
MODEL       85
REMARK 921   NORMALIZED FREE ENERGY PREDICTED BY IDOCK:   -3.98 KCAL/MOL
REMARK 922        TOTAL FREE ENERGY PREDICTED BY IDOCK:   -5.32 KCAL/MOL
REMARK 923 INTER-LIGAND FREE ENERGY PREDICTED BY IDOCK:   -4.93 KCAL/MOL
REMARK 924 INTRA-LIGAND FREE ENERGY PREDICTED BY IDOCK:   -0.39 KCAL/MOL
REMARK 927      BINDING AFFINITY PREDICTED BY RF-SCORE:    0.00 PKD
ROOT
HETATM    1  O   UNL     1     -13.816  15.706  72.725  1.00  0.00    -0.559 OA 
HETATM    2  C   UNL     1     -13.693  15.296  71.374  1.00  0.00    -0.518 C  
HETATM    3  H   UNL     1     -14.668  15.480  73.081  1.00  0.00     0.000 HD 
ENDROOT
BRANCH   2   4
HETATM    4  C   UNL     1     -12.323  15.658  70.802  1.00  0.00    -0.419 C  
BRANCH   4   5
HETATM    5  O   UNL     1     -12.106  14.829  69.656  1.00  0.00    -0.304 OA 
BRANCH   5   6
HETATM    6  C   UNL     1     -11.540  15.457  68.599  1.00  0.00    -0.359 C  
HETATM    7  O   UNL     1     -11.030  16.566  68.617  1.00  0.00    -0.328 OA 
BRANCH   6   8
HETATM    8  C   UNL     1     -11.320  14.474  67.503  1.00  0.00    -0.355 A  
HETATM    9  C   UNL     1     -11.482  13.121  67.849  1.00  0.00    -0.346 A  
HETATM   10  C   UNL     1     -11.468  12.131  66.867  1.00  0.00    -0.414 A  
HETATM   11  C   UNL     1     -11.290  12.482  65.531  1.00  0.00    -0.368 A  
HETATM   12  C   UNL     1     -11.100  13.818  65.177  1.00  0.00    -0.330 A  
HETATM   13  C   UNL     1     -11.107  14.812  66.160  1.00  0.00    -0.339 A  
HETATM   14  O   UNL     1     -10.901  16.110  65.783  1.00  0.00    -0.290 OA 
HETATM   15  H   UNL     1     -10.757  16.339  64.873  1.00  0.00     0.000 HD 
ENDBRANCH   6   8
ENDBRANCH   5   6
ENDBRANCH   4   5
ENDBRANCH   2   4
TORSDOF 4
ENDMDL
MODEL       86
REMARK 921   NORMALIZED FREE ENERGY PREDICTED BY IDOCK:   -3.97 KCAL/MOL
REMARK 922        TOTAL FREE ENERGY PREDICTED BY IDOCK:   -5.32 KCAL/MOL
REMARK 923 INTER-LIGAND FREE ENERGY PREDICTED BY IDOCK:   -4.95 KCAL/MOL
REMARK 924 INTRA-LIGAND FREE ENERGY PREDICTED BY IDOCK:   -0.37 KCAL/MOL
REMARK 927      BINDING AFFINITY PREDICTED BY RF-SCORE:    0.00 PKD
ROOT
HETATM    1  O   UNL     1     -11.984  13.570  71.203  1.00  0.00    -0.437 OA 
HETATM    2  C   UNL     1     -12.793  14.450  70.442  1.00  0.00    -0.245 C  
HETATM    3  H   UNL     1     -12.484  13.146  71.891  1.00  0.00     0.000 HD 
ENDROOT
BRANCH   2   4
HETATM    4  C   UNL     1     -11.990  15.133  69.335  1.00  0.00    -0.307 C  
BRANCH   4   5
HETATM    5  O   UNL     1     -12.156  14.355  68.146  1.00  0.00    -0.310 OA 
BRANCH   5   6
HETATM    6  C   UNL     1     -11.515  14.839  67.056  1.00  0.00    -0.353 C  
HETATM    7  O   UNL     1     -10.842  15.858  67.017  1.00  0.00    -0.316 OA 
BRANCH   6   8
HETATM    8  C   UNL     1     -11.463  13.784  66.007  1.00  0.00    -0.336 A  
HETATM    9  C   UNL     1     -12.703  13.345  65.514  1.00  0.00    -0.469 A  
HETATM   10  C   UNL     1     -12.767  12.488  64.416  1.00  0.00    -0.447 A  
HETATM   11  C   UNL     1     -11.593  12.059  63.802  1.00  0.00    -0.565 A  
HETATM   12  C   UNL     1     -10.354  12.464  64.299  1.00  0.00    -0.388 A  
HETATM   13  C   UNL     1     -10.286  13.318  65.403  1.00  0.00    -0.306 A  
HETATM   14  O   UNL     1      -9.058  13.684  65.877  1.00  0.00    -0.469 OA 
HETATM   15  H   UNL     1      -8.261  13.369  65.468  1.00  0.00     0.000 HD 
ENDBRANCH   6   8
ENDBRANCH   5   6
ENDBRANCH   4   5
ENDBRANCH   2   4
TORSDOF 4
ENDMDL
MODEL       87
REMARK 921   NORMALIZED FREE ENERGY PREDICTED BY IDOCK:   -3.97 KCAL/MOL
REMARK 922        TOTAL FREE ENERGY PREDICTED BY IDOCK:   -5.31 KCAL/MOL
REMARK 923 INTER-LIGAND FREE ENERGY PREDICTED BY IDOCK:   -4.91 KCAL/MOL
REMARK 924 INTRA-LIGAND FREE ENERGY PREDICTED BY IDOCK:   -0.41 KCAL/MOL
REMARK 927      BINDING AFFINITY PREDICTED BY RF-SCORE:    0.00 PKD
ROOT
HETATM    1  O   UNL     1     -14.030  14.739  70.913  1.00  0.00    -0.571 OA 
HETATM    2  C   UNL     1     -12.705  14.466  70.489  1.00  0.00    -0.340 C  
HETATM    3  H   UNL     1     -14.082  15.563  71.384  1.00  0.00     0.000 HD 
ENDROOT
BRANCH   2   4
HETATM    4  C   UNL     1     -12.622  13.141  69.733  1.00  0.00     0.179 C  
BRANCH   4   5
HETATM    5  O   UNL     1     -11.452  13.192  68.911  1.00  0.00    -0.258 OA 
BRANCH   5   6
HETATM    6  C   UNL     1     -11.595  12.642  67.682  1.00  0.00    -0.357 C  
HETATM    7  O   UNL     1     -11.930  11.491  67.450  1.00  0.00    -0.623 OA 
BRANCH   6   8
HETATM    8  C   UNL     1     -11.621  13.723  66.659  1.00  0.00    -0.392 A  
HETATM    9  C   UNL     1     -10.961  14.914  67.006  1.00  0.00    -0.327 A  
HETATM   10  C   UNL     1     -10.778  15.925  66.063  1.00  0.00    -0.289 A  
HETATM   11  C   UNL     1     -11.255  15.757  64.765  1.00  0.00    -0.375 A  
HETATM   12  C   UNL     1     -11.938  14.591  64.415  1.00  0.00    -0.467 A  
HETATM   13  C   UNL     1     -12.128  13.579  65.360  1.00  0.00    -0.415 A  
HETATM   14  O   UNL     1     -12.814  12.456  64.991  1.00  0.00    -0.673 OA 
HETATM   15  H   UNL     1     -13.157  12.359  64.111  1.00  0.00     0.000 HD 
ENDBRANCH   6   8
ENDBRANCH   5   6
ENDBRANCH   4   5
ENDBRANCH   2   4
TORSDOF 4
ENDMDL
MODEL       88
REMARK 921   NORMALIZED FREE ENERGY PREDICTED BY IDOCK:   -3.97 KCAL/MOL
REMARK 922        TOTAL FREE ENERGY PREDICTED BY IDOCK:   -5.31 KCAL/MOL
REMARK 923 INTER-LIGAND FREE ENERGY PREDICTED BY IDOCK:   -4.91 KCAL/MOL
REMARK 924 INTRA-LIGAND FREE ENERGY PREDICTED BY IDOCK:   -0.40 KCAL/MOL
REMARK 927      BINDING AFFINITY PREDICTED BY RF-SCORE:    0.00 PKD
ROOT
HETATM    1  O   UNL     1     -10.436  12.173  63.161  1.00  0.00    -0.574 OA 
HETATM    2  C   UNL     1     -11.241  11.762  64.253  1.00  0.00    -0.344 C  
HETATM    3  H   UNL     1      -9.902  11.458  62.834  1.00  0.00     0.000 HD 
ENDROOT
BRANCH   2   4
HETATM    4  C   UNL     1     -12.099  12.912  64.778  1.00  0.00    -0.422 C  
BRANCH   4   5
HETATM    5  O   UNL     1     -11.846  13.027  66.182  1.00  0.00    -0.370 OA 
BRANCH   5   6
HETATM    6  C   UNL     1     -11.433  14.252  66.586  1.00  0.00    -0.364 C  
HETATM    7  O   UNL     1     -11.115  15.176  65.854  1.00  0.00    -0.339 OA 
BRANCH   6   8
HETATM    8  C   UNL     1     -11.748  14.424  68.031  1.00  0.00    -0.374 A  
HETATM    9  C   UNL     1     -12.123  13.259  68.721  1.00  0.00    -0.254 A  
HETATM   10  C   UNL     1     -12.273  13.273  70.108  1.00  0.00    -0.376 A  
HETATM   11  C   UNL     1     -12.053  14.451  70.817  1.00  0.00    -0.408 A  
HETATM   12  C   UNL     1     -11.708  15.622  70.141  1.00  0.00    -0.374 A  
HETATM   13  C   UNL     1     -11.563  15.612  68.751  1.00  0.00    -0.384 A  
HETATM   14  O   UNL     1     -11.240  16.779  68.116  1.00  0.00    -0.325 OA 
HETATM   15  H   UNL     1     -11.114  17.584  68.604  1.00  0.00     0.000 HD 
ENDBRANCH   6   8
ENDBRANCH   5   6
ENDBRANCH   4   5
ENDBRANCH   2   4
TORSDOF 4
ENDMDL
MODEL       89
REMARK 921   NORMALIZED FREE ENERGY PREDICTED BY IDOCK:   -3.97 KCAL/MOL
REMARK 922        TOTAL FREE ENERGY PREDICTED BY IDOCK:   -5.31 KCAL/MOL
REMARK 923 INTER-LIGAND FREE ENERGY PREDICTED BY IDOCK:   -4.91 KCAL/MOL
REMARK 924 INTRA-LIGAND FREE ENERGY PREDICTED BY IDOCK:   -0.40 KCAL/MOL
REMARK 927      BINDING AFFINITY PREDICTED BY RF-SCORE:    0.00 PKD
ROOT
HETATM    1  O   UNL     1      -7.728  18.449  68.696  1.00  0.00    -0.297 OA 
HETATM    2  C   UNL     1      -8.305  17.225  68.272  1.00  0.00    -0.242 C  
HETATM    3  H   UNL     1      -6.794  18.473  68.520  1.00  0.00     0.000 HD 
ENDROOT
BRANCH   2   4
HETATM    4  C   UNL     1      -9.806  17.187  68.554  1.00  0.00    -0.297 C  
BRANCH   4   5
HETATM    5  O   UNL     1     -10.034  16.144  69.508  1.00  0.00    -0.250 OA 
BRANCH   5   6
HETATM    6  C   UNL     1     -11.205  15.482  69.356  1.00  0.00    -0.300 C  
HETATM    7  O   UNL     1     -11.629  15.010  68.313  1.00  0.00    -0.317 OA 
BRANCH   6   8
HETATM    8  C   UNL     1     -11.737  15.112  70.696  1.00  0.00    -0.356 A  
HETATM    9  C   UNL     1     -11.697  16.121  71.674  1.00  0.00    -0.558 A  
HETATM   10  C   UNL     1     -12.322  15.939  72.907  1.00  0.00    -0.593 A  
HETATM   11  C   UNL     1     -12.989  14.747  73.178  1.00  0.00    -0.623 A  
HETATM   12  C   UNL     1     -13.012  13.725  72.227  1.00  0.00    -0.432 A  
HETATM   13  C   UNL     1     -12.381  13.903  70.992  1.00  0.00    -0.376 A  
HETATM   14  O   UNL     1     -12.408  12.878  70.088  1.00  0.00    -0.270 OA 
HETATM   15  H   UNL     1     -12.844  12.059  70.289  1.00  0.00     0.000 HD 
ENDBRANCH   6   8
ENDBRANCH   5   6
ENDBRANCH   4   5
ENDBRANCH   2   4
TORSDOF 4
ENDMDL
MODEL       90
REMARK 921   NORMALIZED FREE ENERGY PREDICTED BY IDOCK:   -3.97 KCAL/MOL
REMARK 922        TOTAL FREE ENERGY PREDICTED BY IDOCK:   -5.31 KCAL/MOL
REMARK 923 INTER-LIGAND FREE ENERGY PREDICTED BY IDOCK:   -4.67 KCAL/MOL
REMARK 924 INTRA-LIGAND FREE ENERGY PREDICTED BY IDOCK:   -0.63 KCAL/MOL
REMARK 927      BINDING AFFINITY PREDICTED BY RF-SCORE:    0.00 PKD
ROOT
HETATM    1  O   UNL     1      -9.972  19.601  68.774  1.00  0.00    -0.433 OA 
HETATM    2  C   UNL     1     -10.683  19.668  67.549  1.00  0.00    -0.406 C  
HETATM    3  H   UNL     1     -10.418  20.083  69.461  1.00  0.00     0.000 HD 
ENDROOT
BRANCH   2   4
HETATM    4  C   UNL     1      -9.967  18.893  66.444  1.00  0.00    -0.393 C  
BRANCH   4   5
HETATM    5  O   UNL     1     -10.723  17.703  66.198  1.00  0.00    -0.256 OA 
BRANCH   5   6
HETATM    6  C   UNL     1      -9.994  16.563  66.162  1.00  0.00    -0.343 C  
HETATM    7  O   UNL     1      -8.814  16.480  65.859  1.00  0.00    -0.464 OA 
BRANCH   6   8
HETATM    8  C   UNL     1     -10.735  15.483  66.869  1.00  0.00    -0.317 A  
HETATM    9  C   UNL     1     -10.966  14.310  66.130  1.00  0.00    -0.313 A  
HETATM   10  C   UNL     1     -11.498  13.177  66.746  1.00  0.00    -0.386 A  
HETATM   11  C   UNL     1     -11.806  13.206  68.103  1.00  0.00    -0.386 A  
HETATM   12  C   UNL     1     -11.608  14.373  68.843  1.00  0.00    -0.340 A  
HETATM   13  C   UNL     1     -11.081  15.512  68.227  1.00  0.00    -0.322 A  
HETATM   14  O   UNL     1     -10.914  16.644  68.974  1.00  0.00    -0.312 OA 
HETATM   15  H   UNL     1     -11.148  16.663  69.894  1.00  0.00     0.000 HD 
ENDBRANCH   6   8
ENDBRANCH   5   6
ENDBRANCH   4   5
ENDBRANCH   2   4
TORSDOF 4
ENDMDL
MODEL       91
REMARK 921   NORMALIZED FREE ENERGY PREDICTED BY IDOCK:   -3.96 KCAL/MOL
REMARK 922        TOTAL FREE ENERGY PREDICTED BY IDOCK:   -5.29 KCAL/MOL
REMARK 923 INTER-LIGAND FREE ENERGY PREDICTED BY IDOCK:   -4.86 KCAL/MOL
REMARK 924 INTRA-LIGAND FREE ENERGY PREDICTED BY IDOCK:   -0.43 KCAL/MOL
REMARK 927      BINDING AFFINITY PREDICTED BY RF-SCORE:    0.00 PKD
ROOT
HETATM    1  O   UNL     1     -10.901  13.490  69.498  1.00  0.00    -0.443 OA 
HETATM    2  C   UNL     1     -11.715  12.875  68.514  1.00  0.00    -0.339 C  
HETATM    3  H   UNL     1     -10.821  14.425  69.350  1.00  0.00     0.000 HD 
ENDROOT
BRANCH   2   4
HETATM    4  C   UNL     1     -11.844  11.372  68.754  1.00  0.00    -0.323 C  
BRANCH   4   5
HETATM    5  O   UNL     1     -11.372  11.109  70.079  1.00  0.00    -0.279 OA 
BRANCH   5   6
HETATM    6  C   UNL     1     -12.175  10.308  70.820  1.00  0.00    -0.350 C  
HETATM    7  O   UNL     1     -13.389  10.222  70.716  1.00  0.00    -0.349 OA 
BRANCH   6   8
HETATM    8  C   UNL     1     -11.342   9.305  71.536  1.00  0.00    -0.455 A  
HETATM    9  C   UNL     1      -9.973   9.304  71.220  1.00  0.00    -0.341 A  
HETATM   10  C   UNL     1      -9.076   8.525  71.952  1.00  0.00    -0.314 A  
HETATM   11  C   UNL     1      -9.538   7.739  73.003  1.00  0.00    -0.320 A  
HETATM   12  C   UNL     1     -10.899   7.708  73.310  1.00  0.00    -0.379 A  
HETATM   13  C   UNL     1     -11.801   8.482  72.574  1.00  0.00    -0.328 A  
HETATM   14  O   UNL     1     -13.130   8.418  72.888  1.00  0.00    -0.639 OA 
HETATM   15  H   UNL     1     -13.441   7.862  73.592  1.00  0.00     0.000 HD 
ENDBRANCH   6   8
ENDBRANCH   5   6
ENDBRANCH   4   5
ENDBRANCH   2   4
TORSDOF 4
ENDMDL
MODEL       92
REMARK 921   NORMALIZED FREE ENERGY PREDICTED BY IDOCK:   -3.95 KCAL/MOL
REMARK 922        TOTAL FREE ENERGY PREDICTED BY IDOCK:   -5.29 KCAL/MOL
REMARK 923 INTER-LIGAND FREE ENERGY PREDICTED BY IDOCK:   -4.77 KCAL/MOL
REMARK 924 INTRA-LIGAND FREE ENERGY PREDICTED BY IDOCK:   -0.52 KCAL/MOL
REMARK 927      BINDING AFFINITY PREDICTED BY RF-SCORE:    0.00 PKD
ROOT
HETATM    1  O   UNL     1     -11.419  15.706  64.202  1.00  0.00    -0.747 OA 
HETATM    2  C   UNL     1     -11.853  14.476  64.756  1.00  0.00    -0.441 C  
HETATM    3  H   UNL     1     -11.536  15.723  63.259  1.00  0.00     0.000 HD 
ENDROOT
BRANCH   2   4
HETATM    4  C   UNL     1     -11.667  14.449  66.272  1.00  0.00    -0.385 C  
BRANCH   4   5
HETATM    5  O   UNL     1     -10.362  14.966  66.551  1.00  0.00    -0.280 OA 
BRANCH   5   6
HETATM    6  C   UNL     1     -10.227  15.541  67.770  1.00  0.00    -0.243 C  
HETATM    7  O   UNL     1     -10.114  14.947  68.831  1.00  0.00    -0.224 OA 
BRANCH   6   8
HETATM    8  C   UNL     1      -9.892  16.981  67.599  1.00  0.00    -0.257 A  
HETATM    9  C   UNL     1     -10.365  17.846  68.601  1.00  0.00    -0.342 A  
HETATM   10  C   UNL     1      -9.967  19.182  68.631  1.00  0.00    -0.486 A  
HETATM   11  C   UNL     1      -9.096  19.668  67.659  1.00  0.00    -0.403 A  
HETATM   12  C   UNL     1      -8.641  18.828  66.642  1.00  0.00    -0.306 A  
HETATM   13  C   UNL     1      -9.043  17.490  66.606  1.00  0.00    -0.269 A  
HETATM   14  O   UNL     1      -8.594  16.696  65.588  1.00  0.00    -0.388 OA 
HETATM   15  H   UNL     1      -8.019  17.040  64.915  1.00  0.00     0.000 HD 
ENDBRANCH   6   8
ENDBRANCH   5   6
ENDBRANCH   4   5
ENDBRANCH   2   4
TORSDOF 4
ENDMDL
MODEL       93
REMARK 921   NORMALIZED FREE ENERGY PREDICTED BY IDOCK:   -3.94 KCAL/MOL
REMARK 922        TOTAL FREE ENERGY PREDICTED BY IDOCK:   -5.27 KCAL/MOL
REMARK 923 INTER-LIGAND FREE ENERGY PREDICTED BY IDOCK:   -4.65 KCAL/MOL
REMARK 924 INTRA-LIGAND FREE ENERGY PREDICTED BY IDOCK:   -0.62 KCAL/MOL
REMARK 927      BINDING AFFINITY PREDICTED BY RF-SCORE:    0.00 PKD
ROOT
HETATM    1  O   UNL     1     -11.456  16.184  68.575  1.00  0.00    -0.376 OA 
HETATM    2  C   UNL     1     -11.236  15.346  69.697  1.00  0.00    -0.283 C  
HETATM    3  H   UNL     1     -11.026  17.025  68.680  1.00  0.00     0.000 HD 
ENDROOT
BRANCH   2   4
HETATM    4  C   UNL     1     -11.927  13.994  69.529  1.00  0.00    -0.339 C  
BRANCH   4   5
HETATM    5  O   UNL     1     -10.979  13.101  68.937  1.00  0.00    -0.242 OA 
BRANCH   5   6
HETATM    6  C   UNL     1     -11.445  12.397  67.877  1.00  0.00    -0.328 C  
HETATM    7  O   UNL     1     -12.133  11.391  67.936  1.00  0.00    -0.646 OA 
BRANCH   6   8
HETATM    8  C   UNL     1     -11.289  13.211  66.641  1.00  0.00    -0.361 A  
HETATM    9  C   UNL     1     -12.435  13.335  65.838  1.00  0.00    -0.433 A  
HETATM   10  C   UNL     1     -12.449  14.210  64.751  1.00  0.00    -0.395 A  
HETATM   11  C   UNL     1     -11.318  14.966  64.456  1.00  0.00    -0.306 A  
HETATM   12  C   UNL     1     -10.163  14.832  65.228  1.00  0.00    -0.415 A  
HETATM   13  C   UNL     1     -10.145  13.952  66.313  1.00  0.00    -0.300 A  
HETATM   14  O   UNL     1      -8.993  13.831  67.041  1.00  0.00    -0.227 OA 
HETATM   15  H   UNL     1      -8.218  14.332  66.819  1.00  0.00     0.000 HD 
ENDBRANCH   6   8
ENDBRANCH   5   6
ENDBRANCH   4   5
ENDBRANCH   2   4
TORSDOF 4
ENDMDL
MODEL       94
REMARK 921   NORMALIZED FREE ENERGY PREDICTED BY IDOCK:   -3.92 KCAL/MOL
REMARK 922        TOTAL FREE ENERGY PREDICTED BY IDOCK:   -5.25 KCAL/MOL
REMARK 923 INTER-LIGAND FREE ENERGY PREDICTED BY IDOCK:   -4.86 KCAL/MOL
REMARK 924 INTRA-LIGAND FREE ENERGY PREDICTED BY IDOCK:   -0.39 KCAL/MOL
REMARK 927      BINDING AFFINITY PREDICTED BY RF-SCORE:    0.00 PKD
ROOT
HETATM    1  O   UNL     1     -11.050   8.760  67.656  1.00  0.00    -0.480 OA 
HETATM    2  C   UNL     1     -10.071   9.715  67.285  1.00  0.00    -0.211 C  
HETATM    3  H   UNL     1     -11.427   8.959  68.505  1.00  0.00     0.000 HD 
ENDROOT
BRANCH   2   4
HETATM    4  C   UNL     1      -9.465   9.395  65.920  1.00  0.00    -0.251 C  
BRANCH   4   5
HETATM    5  O   UNL     1     -10.313   9.982  64.928  1.00  0.00    -0.169 OA 
BRANCH   5   6
HETATM    6  C   UNL     1      -9.766  11.023  64.257  1.00  0.00    -0.284 C  
HETATM    7  O   UNL     1      -8.852  10.951  63.451  1.00  0.00    -0.176 OA 
BRANCH   6   8
HETATM    8  C   UNL     1     -10.657  12.209  64.380  1.00  0.00    -0.363 A  
HETATM    9  C   UNL     1     -10.167  13.269  65.162  1.00  0.00    -0.301 A  
HETATM   10  C   UNL     1     -10.840  14.489  65.205  1.00  0.00    -0.407 A  
HETATM   11  C   UNL     1     -12.010  14.662  64.470  1.00  0.00    -0.473 A  
HETATM   12  C   UNL     1     -12.524  13.609  63.713  1.00  0.00    -0.262 A  
HETATM   13  C   UNL     1     -11.855  12.383  63.672  1.00  0.00    -0.526 A  
HETATM   14  O   UNL     1     -12.392  11.366  62.934  1.00  0.00    -0.954 OA 
HETATM   15  H   UNL     1     -13.203  11.483  62.454  1.00  0.00     0.000 HD 
ENDBRANCH   6   8
ENDBRANCH   5   6
ENDBRANCH   4   5
ENDBRANCH   2   4
TORSDOF 4
ENDMDL
MODEL       95
REMARK 921   NORMALIZED FREE ENERGY PREDICTED BY IDOCK:   -3.92 KCAL/MOL
REMARK 922        TOTAL FREE ENERGY PREDICTED BY IDOCK:   -5.24 KCAL/MOL
REMARK 923 INTER-LIGAND FREE ENERGY PREDICTED BY IDOCK:   -4.82 KCAL/MOL
REMARK 924 INTRA-LIGAND FREE ENERGY PREDICTED BY IDOCK:   -0.43 KCAL/MOL
REMARK 927      BINDING AFFINITY PREDICTED BY RF-SCORE:    0.00 PKD
ROOT
HETATM    1  O   UNL     1     -10.877  18.980  66.591  1.00  0.00    -0.369 OA 
HETATM    2  C   UNL     1      -9.847  18.584  67.480  1.00  0.00    -0.310 C  
HETATM    3  H   UNL     1     -10.707  19.839  66.220  1.00  0.00     0.000 HD 
ENDROOT
BRANCH   2   4
HETATM    4  C   UNL     1     -10.122  17.205  68.076  1.00  0.00    -0.311 C  
BRANCH   4   5
HETATM    5  O   UNL     1     -10.786  16.431  67.071  1.00  0.00    -0.302 OA 
BRANCH   5   6
HETATM    6  C   UNL     1     -11.307  15.259  67.508  1.00  0.00    -0.297 C  
HETATM    7  O   UNL     1     -11.908  15.093  68.557  1.00  0.00    -0.329 OA 
BRANCH   6   8
HETATM    8  C   UNL     1     -11.342  14.288  66.381  1.00  0.00    -0.346 A  
HETATM    9  C   UNL     1     -12.613  13.806  66.024  1.00  0.00    -0.458 A  
HETATM   10  C   UNL     1     -12.781  13.028  64.879  1.00  0.00    -0.456 A  
HETATM   11  C   UNL     1     -11.681  12.720  64.082  1.00  0.00    -0.465 A  
HETATM   12  C   UNL     1     -10.409  13.168  64.440  1.00  0.00    -0.390 A  
HETATM   13  C   UNL     1     -10.237  13.943  65.590  1.00  0.00    -0.328 A  
HETATM   14  O   UNL     1      -8.976  14.353  65.923  1.00  0.00    -0.455 OA 
HETATM   15  H   UNL     1      -8.227  14.120  65.388  1.00  0.00     0.000 HD 
ENDBRANCH   6   8
ENDBRANCH   5   6
ENDBRANCH   4   5
ENDBRANCH   2   4
TORSDOF 4
ENDMDL
MODEL       96
REMARK 921   NORMALIZED FREE ENERGY PREDICTED BY IDOCK:   -3.92 KCAL/MOL
REMARK 922        TOTAL FREE ENERGY PREDICTED BY IDOCK:   -5.24 KCAL/MOL
REMARK 923 INTER-LIGAND FREE ENERGY PREDICTED BY IDOCK:   -4.77 KCAL/MOL
REMARK 924 INTRA-LIGAND FREE ENERGY PREDICTED BY IDOCK:   -0.47 KCAL/MOL
REMARK 927      BINDING AFFINITY PREDICTED BY RF-SCORE:    0.00 PKD
ROOT
HETATM    1  O   UNL     1     -10.948  13.591  69.615  1.00  0.00    -0.455 OA 
HETATM    2  C   UNL     1     -11.909  12.892  68.842  1.00  0.00    -0.309 C  
HETATM    3  H   UNL     1     -10.942  14.518  69.408  1.00  0.00     0.000 HD 
ENDROOT
BRANCH   2   4
HETATM    4  C   UNL     1     -11.919  11.401  69.175  1.00  0.00    -0.328 C  
BRANCH   4   5
HETATM    5  O   UNL     1     -11.472  11.263  70.527  1.00  0.00    -0.236 OA 
BRANCH   5   6
HETATM    6  C   UNL     1     -12.451  11.006  71.427  1.00  0.00    -0.331 C  
HETATM    7  O   UNL     1     -13.306  11.796  71.795  1.00  0.00    -0.407 OA 
BRANCH   6   8
HETATM    8  C   UNL     1     -12.547   9.536  71.642  1.00  0.00    -0.476 A  
HETATM    9  C   UNL     1     -13.844   8.997  71.640  1.00  0.00    -0.422 A  
HETATM   10  C   UNL     1     -14.039   7.616  71.662  1.00  0.00    -0.547 A  
HETATM   11  C   UNL     1     -12.940   6.762  71.690  1.00  0.00    -0.292 A  
HETATM   12  C   UNL     1     -11.646   7.284  71.721  1.00  0.00    -0.309 A  
HETATM   13  C   UNL     1     -11.448   8.667  71.705  1.00  0.00    -0.324 A  
HETATM   14  O   UNL     1     -10.170   9.148  71.753  1.00  0.00    -0.338 OA 
HETATM   15  H   UNL     1      -9.426   8.560  71.796  1.00  0.00     0.000 HD 
ENDBRANCH   6   8
ENDBRANCH   5   6
ENDBRANCH   4   5
ENDBRANCH   2   4
TORSDOF 4
ENDMDL
MODEL       97
REMARK 921   NORMALIZED FREE ENERGY PREDICTED BY IDOCK:   -3.91 KCAL/MOL
REMARK 922        TOTAL FREE ENERGY PREDICTED BY IDOCK:   -5.24 KCAL/MOL
REMARK 923 INTER-LIGAND FREE ENERGY PREDICTED BY IDOCK:   -4.99 KCAL/MOL
REMARK 924 INTRA-LIGAND FREE ENERGY PREDICTED BY IDOCK:   -0.25 KCAL/MOL
REMARK 927      BINDING AFFINITY PREDICTED BY RF-SCORE:    0.00 PKD
ROOT
HETATM    1  O   UNL     1     -10.729  17.558  67.725  1.00  0.00    -0.380 OA 
HETATM    2  C   UNL     1     -11.252  16.253  67.908  1.00  0.00    -0.213 C  
HETATM    3  H   UNL     1     -11.209  18.200  68.235  1.00  0.00     0.000 HD 
ENDROOT
BRANCH   2   4
HETATM    4  C   UNL     1     -10.480  15.221  67.089  1.00  0.00    -0.280 C  
BRANCH   4   5
HETATM    5  O   UNL     1     -11.172  15.057  65.847  1.00  0.00    -0.341 OA 
BRANCH   5   6
HETATM    6  C   UNL     1     -12.044  14.021  65.814  1.00  0.00    -0.427 C  
HETATM    7  O   UNL     1     -13.154  14.038  65.306  1.00  0.00    -0.782 OA 
BRANCH   6   8
HETATM    8  C   UNL     1     -11.330  12.767  66.179  1.00  0.00    -0.371 A  
HETATM    9  C   UNL     1     -11.757  12.136  67.359  1.00  0.00    -0.374 A  
HETATM   10  C   UNL     1     -11.277  10.873  67.703  1.00  0.00    -0.379 A  
HETATM   11  C   UNL     1     -10.363  10.229  66.873  1.00  0.00    -0.298 A  
HETATM   12  C   UNL     1      -9.908  10.856  65.712  1.00  0.00    -0.286 A  
HETATM   13  C   UNL     1     -10.383  12.124  65.368  1.00  0.00    -0.269 A  
HETATM   14  O   UNL     1      -9.906  12.719  64.234  1.00  0.00    -0.591 OA 
HETATM   15  H   UNL     1      -9.265  12.284  63.685  1.00  0.00     0.000 HD 
ENDBRANCH   6   8
ENDBRANCH   5   6
ENDBRANCH   4   5
ENDBRANCH   2   4
TORSDOF 4
ENDMDL
MODEL       98
REMARK 921   NORMALIZED FREE ENERGY PREDICTED BY IDOCK:   -3.91 KCAL/MOL
REMARK 922        TOTAL FREE ENERGY PREDICTED BY IDOCK:   -5.24 KCAL/MOL
REMARK 923 INTER-LIGAND FREE ENERGY PREDICTED BY IDOCK:   -4.92 KCAL/MOL
REMARK 924 INTRA-LIGAND FREE ENERGY PREDICTED BY IDOCK:   -0.32 KCAL/MOL
REMARK 927      BINDING AFFINITY PREDICTED BY RF-SCORE:    0.00 PKD
ROOT
HETATM    1  O   UNL     1     -10.364   9.523  71.158  1.00  0.00    -0.308 OA 
HETATM    2  C   UNL     1     -11.606   9.902  70.592  1.00  0.00    -0.335 C  
HETATM    3  H   UNL     1      -9.900   8.909  70.601  1.00  0.00     0.000 HD 
ENDROOT
BRANCH   2   4
HETATM    4  C   UNL     1     -12.352  10.890  71.487  1.00  0.00    -0.239 C  
BRANCH   4   5
HETATM    5  O   UNL     1     -13.028  11.816  70.631  1.00  0.00    -0.071 OA 
BRANCH   5   6
HETATM    6  C   UNL     1     -12.276  12.864  70.220  1.00  0.00    -0.289 C  
HETATM    7  O   UNL     1     -11.680  12.941  69.158  1.00  0.00    -0.290 OA 
BRANCH   6   8
HETATM    8  C   UNL     1     -12.557  14.040  71.089  1.00  0.00    -0.445 A  
HETATM    9  C   UNL     1     -13.819  14.061  71.706  1.00  0.00    -0.476 A  
HETATM   10  C   UNL     1     -14.121  15.024  72.670  1.00  0.00    -0.397 A  
HETATM   11  C   UNL     1     -13.168  15.975  73.023  1.00  0.00    -0.590 A  
HETATM   12  C   UNL     1     -11.921  15.983  72.396  1.00  0.00    -0.644 A  
HETATM   13  C   UNL     1     -11.617  15.024  71.426  1.00  0.00    -0.346 A  
HETATM   14  O   UNL     1     -10.393  15.068  70.820  1.00  0.00    -0.488 OA 
HETATM   15  H   UNL     1      -9.756  15.734  71.048  1.00  0.00     0.000 HD 
ENDBRANCH   6   8
ENDBRANCH   5   6
ENDBRANCH   4   5
ENDBRANCH   2   4
TORSDOF 4
ENDMDL
MODEL       99
REMARK 921   NORMALIZED FREE ENERGY PREDICTED BY IDOCK:   -3.89 KCAL/MOL
REMARK 922        TOTAL FREE ENERGY PREDICTED BY IDOCK:   -5.21 KCAL/MOL
REMARK 923 INTER-LIGAND FREE ENERGY PREDICTED BY IDOCK:   -4.85 KCAL/MOL
REMARK 924 INTRA-LIGAND FREE ENERGY PREDICTED BY IDOCK:   -0.36 KCAL/MOL
REMARK 927      BINDING AFFINITY PREDICTED BY RF-SCORE:    0.00 PKD
ROOT
HETATM    1  O   UNL     1      -8.305  20.976  67.230  1.00  0.00    -0.514 OA 
HETATM    2  C   UNL     1      -8.585  19.684  66.721  1.00  0.00    -0.320 C  
HETATM    3  H   UNL     1      -7.380  21.184  67.164  1.00  0.00     0.000 HD 
ENDROOT
BRANCH   2   4
HETATM    4  C   UNL     1     -10.072  19.350  66.828  1.00  0.00    -0.396 C  
BRANCH   4   5
HETATM    5  O   UNL     1     -10.181  18.103  67.521  1.00  0.00    -0.336 OA 
BRANCH   5   6
HETATM    6  C   UNL     1     -10.510  17.046  66.741  1.00  0.00    -0.257 C  
HETATM    7  O   UNL     1     -10.216  16.910  65.564  1.00  0.00    -0.580 OA 
BRANCH   6   8
HETATM    8  C   UNL     1     -10.977  15.926  67.603  1.00  0.00    -0.298 A  
HETATM    9  C   UNL     1     -11.087  16.211  68.975  1.00  0.00    -0.336 A  
HETATM   10  C   UNL     1     -11.674  15.292  69.845  1.00  0.00    -0.349 A  
HETATM   11  C   UNL     1     -12.154  14.081  69.355  1.00  0.00    -0.386 A  
HETATM   12  C   UNL     1     -12.025  13.773  67.999  1.00  0.00    -0.390 A  
HETATM   13  C   UNL     1     -11.431  14.689  67.126  1.00  0.00    -0.368 A  
HETATM   14  O   UNL     1     -11.305  14.352  65.807  1.00  0.00    -0.320 OA 
HETATM   15  H   UNL     1     -11.614  13.514  65.484  1.00  0.00     0.000 HD 
ENDBRANCH   6   8
ENDBRANCH   5   6
ENDBRANCH   4   5
ENDBRANCH   2   4
TORSDOF 4
ENDMDL
MODEL      100
REMARK 921   NORMALIZED FREE ENERGY PREDICTED BY IDOCK:   -3.87 KCAL/MOL
REMARK 922        TOTAL FREE ENERGY PREDICTED BY IDOCK:   -5.19 KCAL/MOL
REMARK 923 INTER-LIGAND FREE ENERGY PREDICTED BY IDOCK:   -4.72 KCAL/MOL
REMARK 924 INTRA-LIGAND FREE ENERGY PREDICTED BY IDOCK:   -0.46 KCAL/MOL
REMARK 927      BINDING AFFINITY PREDICTED BY RF-SCORE:    0.00 PKD
ROOT
HETATM    1  O   UNL     1     -11.528  16.481  63.811  1.00  0.00    -1.615 OA 
HETATM    2  C   UNL     1     -10.823  17.079  64.885  1.00  0.00     0.098 C  
HETATM    3  H   UNL     1     -11.716  17.110  63.125  1.00  0.00     0.000 HD 
ENDROOT
BRANCH   2   4
HETATM    4  C   UNL     1     -10.520  16.067  65.989  1.00  0.00    -0.345 C  
BRANCH   4   5
HETATM    5  O   UNL     1     -10.782  16.709  67.241  1.00  0.00    -0.306 OA 
BRANCH   5   6
HETATM    6  C   UNL     1      -9.703  16.844  68.048  1.00  0.00    -0.256 C  
HETATM    7  O   UNL     1      -9.191  15.954  68.709  1.00  0.00    -0.194 OA 
BRANCH   6   8
HETATM    8  C   UNL     1      -9.026  18.136  67.752  1.00  0.00    -0.266 A  
HETATM    9  C   UNL     1      -7.660  18.057  67.435  1.00  0.00    -0.213 A  
HETATM   10  C   UNL     1      -6.971  19.180  66.978  1.00  0.00    -0.208 A  
HETATM   11  C   UNL     1      -7.640  20.393  66.835  1.00  0.00    -0.345 A  
HETATM   12  C   UNL     1      -8.990  20.493  67.174  1.00  0.00    -0.417 A  
HETATM   13  C   UNL     1      -9.681  19.370  67.638  1.00  0.00    -0.331 A  
HETATM   14  O   UNL     1     -10.998  19.504  67.977  1.00  0.00    -0.328 OA 
HETATM   15  H   UNL     1     -11.442  20.340  67.900  1.00  0.00     0.000 HD 
ENDBRANCH   6   8
ENDBRANCH   5   6
ENDBRANCH   4   5
ENDBRANCH   2   4
TORSDOF 4
ENDMDL
MODEL      101
REMARK 921   NORMALIZED FREE ENERGY PREDICTED BY IDOCK:   -3.84 KCAL/MOL
REMARK 922        TOTAL FREE ENERGY PREDICTED BY IDOCK:   -5.14 KCAL/MOL
REMARK 923 INTER-LIGAND FREE ENERGY PREDICTED BY IDOCK:   -4.44 KCAL/MOL
REMARK 924 INTRA-LIGAND FREE ENERGY PREDICTED BY IDOCK:   -0.70 KCAL/MOL
REMARK 927      BINDING AFFINITY PREDICTED BY RF-SCORE:    0.00 PKD
ROOT
HETATM    1  O   UNL     1      -9.972  17.184  65.483  1.00  0.00    -0.565 OA 
HETATM    2  C   UNL     1      -9.621  17.835  66.692  1.00  0.00    -0.307 C  
HETATM    3  H   UNL     1      -9.369  17.403  64.781  1.00  0.00     0.000 HD 
ENDROOT
BRANCH   2   4
HETATM    4  C   UNL     1     -10.590  17.482  67.819  1.00  0.00    -0.375 C  
BRANCH   4   5
HETATM    5  O   UNL     1     -10.280  16.152  68.247  1.00  0.00    -0.236 OA 
BRANCH   5   6
HETATM    6  C   UNL     1     -11.317  15.475  68.795  1.00  0.00    -0.334 C  
HETATM    7  O   UNL     1     -12.281  15.975  69.353  1.00  0.00    -0.231 OA 
BRANCH   6   8
HETATM    8  C   UNL     1     -11.287  14.064  68.322  1.00  0.00    -0.317 A  
HETATM    9  C   UNL     1     -11.300  13.079  69.324  1.00  0.00    -0.310 A  
HETATM   10  C   UNL     1     -11.445  11.732  68.993  1.00  0.00    -0.358 A  
HETATM   11  C   UNL     1     -11.576  11.356  67.659  1.00  0.00    -0.315 A  
HETATM   12  C   UNL     1     -11.536  12.321  66.652  1.00  0.00    -0.438 A  
HETATM   13  C   UNL     1     -11.384  13.671  66.980  1.00  0.00    -0.324 A  
HETATM   14  O   UNL     1     -11.332  14.591  65.970  1.00  0.00    -0.333 OA 
HETATM   15  H   UNL     1     -11.399  14.325  65.061  1.00  0.00     0.000 HD 
ENDBRANCH   6   8
ENDBRANCH   5   6
ENDBRANCH   4   5
ENDBRANCH   2   4
TORSDOF 4
ENDMDL
MODEL      102
REMARK 921   NORMALIZED FREE ENERGY PREDICTED BY IDOCK:   -3.83 KCAL/MOL
REMARK 922        TOTAL FREE ENERGY PREDICTED BY IDOCK:   -5.14 KCAL/MOL
REMARK 923 INTER-LIGAND FREE ENERGY PREDICTED BY IDOCK:   -4.79 KCAL/MOL
REMARK 924 INTRA-LIGAND FREE ENERGY PREDICTED BY IDOCK:   -0.35 KCAL/MOL
REMARK 927      BINDING AFFINITY PREDICTED BY RF-SCORE:    0.00 PKD
ROOT
HETATM    1  O   UNL     1      -6.518  11.060  65.779  1.00  0.00    -0.327 OA 
HETATM    2  C   UNL     1      -7.751  10.395  65.995  1.00  0.00    -0.136 C  
HETATM    3  H   UNL     1      -6.098  11.290  66.600  1.00  0.00     0.000 HD 
ENDROOT
BRANCH   2   4
HETATM    4  C   UNL     1      -8.426  10.025  64.675  1.00  0.00    -0.176 C  
BRANCH   4   5
HETATM    5  O   UNL     1      -9.835  10.205  64.851  1.00  0.00    -0.307 OA 
BRANCH   5   6
HETATM    6  C   UNL     1     -10.377  11.205  64.115  1.00  0.00    -0.361 C  
HETATM    7  O   UNL     1     -10.459  11.230  62.897  1.00  0.00    -0.199 OA 
BRANCH   6   8
HETATM    8  C   UNL     1     -11.159  12.102  65.008  1.00  0.00    -0.368 A  
HETATM    9  C   UNL     1     -10.955  11.930  66.387  1.00  0.00    -0.337 A  
HETATM   10  C   UNL     1     -11.504  12.826  67.304  1.00  0.00    -0.393 A  
HETATM   11  C   UNL     1     -12.265  13.901  66.852  1.00  0.00    -0.415 A  
HETATM   12  C   UNL     1     -12.501  14.068  65.486  1.00  0.00    -0.533 A  
HETATM   13  C   UNL     1     -11.956  13.168  64.566  1.00  0.00    -0.389 A  
HETATM   14  O   UNL     1     -12.218  13.349  63.236  1.00  0.00    -0.847 OA 
HETATM   15  H   UNL     1     -12.757  14.071  62.937  1.00  0.00     0.000 HD 
ENDBRANCH   6   8
ENDBRANCH   5   6
ENDBRANCH   4   5
ENDBRANCH   2   4
TORSDOF 4
ENDMDL
MODEL      103
REMARK 921   NORMALIZED FREE ENERGY PREDICTED BY IDOCK:   -3.83 KCAL/MOL
REMARK 922        TOTAL FREE ENERGY PREDICTED BY IDOCK:   -5.14 KCAL/MOL
REMARK 923 INTER-LIGAND FREE ENERGY PREDICTED BY IDOCK:   -4.77 KCAL/MOL
REMARK 924 INTRA-LIGAND FREE ENERGY PREDICTED BY IDOCK:   -0.37 KCAL/MOL
REMARK 927      BINDING AFFINITY PREDICTED BY RF-SCORE:    0.00 PKD
ROOT
HETATM    1  O   UNL     1      -9.908  20.234  67.465  1.00  0.00    -0.400 OA 
HETATM    2  C   UNL     1     -10.126  18.866  67.165  1.00  0.00    -0.358 C  
HETATM    3  H   UNL     1      -9.746  20.742  66.678  1.00  0.00     0.000 HD 
ENDROOT
BRANCH   2   4
HETATM    4  C   UNL     1     -10.387  18.050  68.430  1.00  0.00    -0.368 C  
BRANCH   4   5
HETATM    5  O   UNL     1     -11.067  16.855  68.034  1.00  0.00    -0.336 OA 
BRANCH   5   6
HETATM    6  C   UNL     1     -11.198  15.925  69.010  1.00  0.00    -0.327 C  
HETATM    7  O   UNL     1     -11.379  16.156  70.196  1.00  0.00    -0.343 OA 
BRANCH   6   8
HETATM    8  C   UNL     1     -11.431  14.592  68.391  1.00  0.00    -0.335 A  
HETATM    9  C   UNL     1     -11.268  14.525  66.997  1.00  0.00    -0.342 A  
HETATM   10  C   UNL     1     -11.295  13.296  66.338  1.00  0.00    -0.341 A  
HETATM   11  C   UNL     1     -11.487  12.124  67.064  1.00  0.00    -0.415 A  
HETATM   12  C   UNL     1     -11.679  12.178  68.445  1.00  0.00    -0.388 A  
HETATM   13  C   UNL     1     -11.659  13.409  69.107  1.00  0.00    -0.315 A  
HETATM   14  O   UNL     1     -11.866  13.431  70.458  1.00  0.00    -0.499 OA 
HETATM   15  H   UNL     1     -12.020  12.630  70.944  1.00  0.00     0.000 HD 
ENDBRANCH   6   8
ENDBRANCH   5   6
ENDBRANCH   4   5
ENDBRANCH   2   4
TORSDOF 4
ENDMDL
MODEL      104
REMARK 921   NORMALIZED FREE ENERGY PREDICTED BY IDOCK:   -3.82 KCAL/MOL
REMARK 922        TOTAL FREE ENERGY PREDICTED BY IDOCK:   -5.12 KCAL/MOL
REMARK 923 INTER-LIGAND FREE ENERGY PREDICTED BY IDOCK:   -4.68 KCAL/MOL
REMARK 924 INTRA-LIGAND FREE ENERGY PREDICTED BY IDOCK:   -0.44 KCAL/MOL
REMARK 927      BINDING AFFINITY PREDICTED BY RF-SCORE:    0.00 PKD
ROOT
HETATM    1  O   UNL     1      -7.927  11.589  69.009  1.00  0.00    -0.304 OA 
HETATM    2  C   UNL     1      -8.077  10.272  68.506  1.00  0.00    -0.109 C  
HETATM    3  H   UNL     1      -7.040  11.748  69.311  1.00  0.00     0.000 HD 
ENDROOT
BRANCH   2   4
HETATM    4  C   UNL     1      -9.502  10.017  68.019  1.00  0.00    -0.137 C  
BRANCH   4   5
HETATM    5  O   UNL     1      -9.888  11.141  67.221  1.00  0.00    -0.173 OA 
BRANCH   5   6
HETATM    6  C   UNL     1     -10.260  10.838  65.955  1.00  0.00    -0.259 C  
HETATM    7  O   UNL     1     -10.149   9.746  65.421  1.00  0.00    -0.305 OA 
BRANCH   6   8
HETATM    8  C   UNL     1     -11.130  11.924  65.426  1.00  0.00    -0.360 A  
HETATM    9  C   UNL     1     -11.630  12.830  66.376  1.00  0.00    -0.435 A  
HETATM   10  C   UNL     1     -12.312  13.978  65.973  1.00  0.00    -0.504 A  
HETATM   11  C   UNL     1     -12.502  14.230  64.617  1.00  0.00    -0.371 A  
HETATM   12  C   UNL     1     -12.036  13.325  63.663  1.00  0.00    -0.547 A  
HETATM   13  C   UNL     1     -11.358  12.170  64.065  1.00  0.00    -0.395 A  
HETATM   14  O   UNL     1     -10.927  11.295  63.107  1.00  0.00    -0.785 OA 
HETATM   15  H   UNL     1     -11.082  11.462  62.185  1.00  0.00     0.000 HD 
ENDBRANCH   6   8
ENDBRANCH   5   6
ENDBRANCH   4   5
ENDBRANCH   2   4
TORSDOF 4
ENDMDL
MODEL      105
REMARK 921   NORMALIZED FREE ENERGY PREDICTED BY IDOCK:   -3.81 KCAL/MOL
REMARK 922        TOTAL FREE ENERGY PREDICTED BY IDOCK:   -5.11 KCAL/MOL
REMARK 923 INTER-LIGAND FREE ENERGY PREDICTED BY IDOCK:   -4.58 KCAL/MOL
REMARK 924 INTRA-LIGAND FREE ENERGY PREDICTED BY IDOCK:   -0.52 KCAL/MOL
REMARK 927      BINDING AFFINITY PREDICTED BY RF-SCORE:    0.00 PKD
ROOT
HETATM    1  O   UNL     1     -12.583  14.731  63.946  1.00  0.00    -0.952 OA 
HETATM    2  C   UNL     1     -12.226  13.485  63.370  1.00  0.00    -0.272 C  
HETATM    3  H   UNL     1     -13.175  15.217  63.383  1.00  0.00     0.000 HD 
ENDROOT
BRANCH   2   4
HETATM    4  C   UNL     1     -11.275  12.703  64.274  1.00  0.00    -0.362 C  
BRANCH   4   5
HETATM    5  O   UNL     1     -12.047  12.188  65.363  1.00  0.00    -0.477 OA 
BRANCH   5   6
HETATM    6  C   UNL     1     -11.766  12.734  66.569  1.00  0.00    -0.400 C  
HETATM    7  O   UNL     1     -12.025  13.877  66.913  1.00  0.00    -0.396 OA 
BRANCH   6   8
HETATM    8  C   UNL     1     -11.410  11.652  67.528  1.00  0.00    -0.364 A  
HETATM    9  C   UNL     1     -11.210  10.378  66.970  1.00  0.00    -0.015 A  
HETATM   10  C   UNL     1     -10.709   9.334  67.748  1.00  0.00    -0.270 A  
HETATM   11  C   UNL     1     -10.407   9.552  69.090  1.00  0.00    -0.218 A  
HETATM   12  C   UNL     1     -10.628  10.805  69.663  1.00  0.00    -0.222 A  
HETATM   13  C   UNL     1     -11.136  11.851  68.888  1.00  0.00    -0.247 A  
HETATM   14  O   UNL     1     -11.357  13.062  69.483  1.00  0.00    -0.390 OA 
HETATM   15  H   UNL     1     -11.170  13.197  70.404  1.00  0.00     0.000 HD 
ENDBRANCH   6   8
ENDBRANCH   5   6
ENDBRANCH   4   5
ENDBRANCH   2   4
TORSDOF 4
ENDMDL
MODEL      106
REMARK 921   NORMALIZED FREE ENERGY PREDICTED BY IDOCK:   -3.80 KCAL/MOL
REMARK 922        TOTAL FREE ENERGY PREDICTED BY IDOCK:   -5.11 KCAL/MOL
REMARK 923 INTER-LIGAND FREE ENERGY PREDICTED BY IDOCK:   -4.70 KCAL/MOL
REMARK 924 INTRA-LIGAND FREE ENERGY PREDICTED BY IDOCK:   -0.41 KCAL/MOL
REMARK 927      BINDING AFFINITY PREDICTED BY RF-SCORE:    0.00 PKD
ROOT
HETATM    1  O   UNL     1     -12.193  15.401  72.412  1.00  0.00    -0.331 OA 
HETATM    2  C   UNL     1     -11.598  15.133  71.154  1.00  0.00    -0.360 C  
HETATM    3  H   UNL     1     -11.612  15.904  72.972  1.00  0.00     0.000 HD 
ENDROOT
BRANCH   2   4
HETATM    4  C   UNL     1     -12.532  14.326  70.254  1.00  0.00    -0.361 C  
BRANCH   4   5
HETATM    5  O   UNL     1     -11.864  14.141  69.002  1.00  0.00    -0.308 OA 
BRANCH   5   6
HETATM    6  C   UNL     1     -11.770  12.854  68.592  1.00  0.00    -0.324 C  
HETATM    7  O   UNL     1     -11.931  11.868  69.295  1.00  0.00    -0.305 OA 
BRANCH   6   8
HETATM    8  C   UNL     1     -11.784  12.810  67.105  1.00  0.00    -0.443 A  
HETATM    9  C   UNL     1     -12.394  13.900  66.463  1.00  0.00    -0.447 A  
HETATM   10  C   UNL     1     -12.313  14.045  65.078  1.00  0.00    -0.458 A  
HETATM   11  C   UNL     1     -11.624  13.100  64.321  1.00  0.00    -0.440 A  
HETATM   12  C   UNL     1     -11.037  11.997  64.943  1.00  0.00    -0.368 A  
HETATM   13  C   UNL     1     -11.123  11.846  66.330  1.00  0.00    -0.314 A  
HETATM   14  O   UNL     1     -10.552  10.747  66.908  1.00  0.00    -0.241 OA 
HETATM   15  H   UNL     1     -10.104  10.094  66.383  1.00  0.00     0.000 HD 
ENDBRANCH   6   8
ENDBRANCH   5   6
ENDBRANCH   4   5
ENDBRANCH   2   4
TORSDOF 4
ENDMDL
MODEL      107
REMARK 921   NORMALIZED FREE ENERGY PREDICTED BY IDOCK:   -3.80 KCAL/MOL
REMARK 922        TOTAL FREE ENERGY PREDICTED BY IDOCK:   -5.10 KCAL/MOL
REMARK 923 INTER-LIGAND FREE ENERGY PREDICTED BY IDOCK:   -4.61 KCAL/MOL
REMARK 924 INTRA-LIGAND FREE ENERGY PREDICTED BY IDOCK:   -0.49 KCAL/MOL
REMARK 927      BINDING AFFINITY PREDICTED BY RF-SCORE:    0.00 PKD
ROOT
HETATM    1  O   UNL     1      -9.708   8.373  69.648  1.00  0.00    -0.170 OA 
HETATM    2  C   UNL     1     -10.329   7.892  70.828  1.00  0.00    -0.203 C  
HETATM    3  H   UNL     1      -9.244   7.680  69.191  1.00  0.00     0.000 HD 
ENDROOT
BRANCH   2   4
HETATM    4  C   UNL     1     -11.074   9.006  71.562  1.00  0.00    -0.349 C  
BRANCH   4   5
HETATM    5  O   UNL     1     -12.145   9.433  70.716  1.00  0.00    -0.276 OA 
BRANCH   5   6
HETATM    6  C   UNL     1     -12.755  10.578  71.104  1.00  0.00    -0.418 C  
HETATM    7  O   UNL     1     -13.347  10.750  72.158  1.00  0.00    -0.442 OA 
BRANCH   6   8
HETATM    8  C   UNL     1     -12.311  11.693  70.223  1.00  0.00    -0.339 A  
HETATM    9  C   UNL     1     -12.301  12.971  70.807  1.00  0.00    -0.394 A  
HETATM   10  C   UNL     1     -11.744  14.056  70.130  1.00  0.00    -0.331 A  
HETATM   11  C   UNL     1     -11.195  13.875  68.863  1.00  0.00    -0.304 A  
HETATM   12  C   UNL     1     -11.225  12.617  68.259  1.00  0.00    -0.312 A  
HETATM   13  C   UNL     1     -11.788  11.530  68.933  1.00  0.00    -0.341 A  
HETATM   14  O   UNL     1     -11.816  10.314  68.309  1.00  0.00    -0.734 OA 
HETATM   15  H   UNL     1     -11.462  10.203  67.435  1.00  0.00     0.000 HD 
ENDBRANCH   6   8
ENDBRANCH   5   6
ENDBRANCH   4   5
ENDBRANCH   2   4
TORSDOF 4
ENDMDL
MODEL      108
REMARK 921   NORMALIZED FREE ENERGY PREDICTED BY IDOCK:   -3.80 KCAL/MOL
REMARK 922        TOTAL FREE ENERGY PREDICTED BY IDOCK:   -5.10 KCAL/MOL
REMARK 923 INTER-LIGAND FREE ENERGY PREDICTED BY IDOCK:   -4.66 KCAL/MOL
REMARK 924 INTRA-LIGAND FREE ENERGY PREDICTED BY IDOCK:   -0.44 KCAL/MOL
REMARK 927      BINDING AFFINITY PREDICTED BY RF-SCORE:    0.00 PKD
ROOT
HETATM    1  O   UNL     1     -13.498  15.616  70.365  1.00  0.00    -0.804 OA 
HETATM    2  C   UNL     1     -12.144  15.236  70.542  1.00  0.00    -0.354 C  
HETATM    3  H   UNL     1     -13.895  15.880  71.187  1.00  0.00     0.000 HD 
ENDROOT
BRANCH   2   4
HETATM    4  C   UNL     1     -11.505  14.811  69.221  1.00  0.00    -0.296 C  
BRANCH   4   5
HETATM    5  O   UNL     1     -12.245  13.688  68.731  1.00  0.00    -0.339 OA 
BRANCH   5   6
HETATM    6  C   UNL     1     -12.048  13.405  67.421  1.00  0.00    -0.293 C  
HETATM    7  O   UNL     1     -12.379  14.110  66.481  1.00  0.00    -0.460 OA 
BRANCH   6   8
HETATM    8  C   UNL     1     -11.073  12.287  67.302  1.00  0.00    -0.326 A  
HETATM    9  C   UNL     1     -11.479  11.056  67.844  1.00  0.00    -0.358 A  
HETATM   10  C   UNL     1     -10.720   9.904  67.638  1.00  0.00    -0.339 A  
HETATM   11  C   UNL     1      -9.546   9.972  66.892  1.00  0.00    -0.219 A  
HETATM   12  C   UNL     1      -9.115  11.194  66.373  1.00  0.00    -0.198 A  
HETATM   13  C   UNL     1      -9.871  12.350  66.583  1.00  0.00    -0.223 A  
HETATM   14  O   UNL     1      -9.414  13.535  66.075  1.00  0.00    -0.456 OA 
HETATM   15  H   UNL     1      -8.601  13.578  65.588  1.00  0.00     0.000 HD 
ENDBRANCH   6   8
ENDBRANCH   5   6
ENDBRANCH   4   5
ENDBRANCH   2   4
TORSDOF 4
ENDMDL
MODEL      109
REMARK 921   NORMALIZED FREE ENERGY PREDICTED BY IDOCK:   -3.80 KCAL/MOL
REMARK 922        TOTAL FREE ENERGY PREDICTED BY IDOCK:   -5.10 KCAL/MOL
REMARK 923 INTER-LIGAND FREE ENERGY PREDICTED BY IDOCK:   -4.68 KCAL/MOL
REMARK 924 INTRA-LIGAND FREE ENERGY PREDICTED BY IDOCK:   -0.42 KCAL/MOL
REMARK 927      BINDING AFFINITY PREDICTED BY RF-SCORE:    0.00 PKD
ROOT
HETATM    1  O   UNL     1     -13.711  15.467  70.725  1.00  0.00    -0.838 OA 
HETATM    2  C   UNL     1     -12.303  15.624  70.737  1.00  0.00    -0.419 C  
HETATM    3  H   UNL     1     -14.113  15.866  71.488  1.00  0.00     0.000 HD 
ENDROOT
BRANCH   2   4
HETATM    4  C   UNL     1     -11.657  14.982  69.510  1.00  0.00    -0.311 C  
BRANCH   4   5
HETATM    5  O   UNL     1     -11.516  16.005  68.519  1.00  0.00    -0.370 OA 
BRANCH   5   6
HETATM    6  C   UNL     1     -10.397  15.913  67.762  1.00  0.00    -0.278 C  
HETATM    7  O   UNL     1     -10.291  15.292  66.716  1.00  0.00    -0.268 OA 
BRANCH   6   8
HETATM    8  C   UNL     1      -9.421  16.947  68.203  1.00  0.00    -0.251 A  
HETATM    9  C   UNL     1      -8.175  16.469  68.643  1.00  0.00    -0.234 A  
HETATM   10  C   UNL     1      -7.131  17.354  68.915  1.00  0.00    -0.251 A  
HETATM   11  C   UNL     1      -7.323  18.723  68.753  1.00  0.00    -0.342 A  
HETATM   12  C   UNL     1      -8.564  19.214  68.344  1.00  0.00    -0.387 A  
HETATM   13  C   UNL     1      -9.614  18.330  68.077  1.00  0.00    -0.304 A  
HETATM   14  O   UNL     1     -10.822  18.842  67.694  1.00  0.00    -0.426 OA 
HETATM   15  H   UNL     1     -10.953  19.778  67.608  1.00  0.00     0.000 HD 
ENDBRANCH   6   8
ENDBRANCH   5   6
ENDBRANCH   4   5
ENDBRANCH   2   4
TORSDOF 4
ENDMDL
MODEL      110
REMARK 921   NORMALIZED FREE ENERGY PREDICTED BY IDOCK:   -3.79 KCAL/MOL
REMARK 922        TOTAL FREE ENERGY PREDICTED BY IDOCK:   -5.09 KCAL/MOL
REMARK 923 INTER-LIGAND FREE ENERGY PREDICTED BY IDOCK:   -4.76 KCAL/MOL
REMARK 924 INTRA-LIGAND FREE ENERGY PREDICTED BY IDOCK:   -0.34 KCAL/MOL
REMARK 927      BINDING AFFINITY PREDICTED BY RF-SCORE:    0.00 PKD
ROOT
HETATM    1  O   UNL     1     -11.892  13.890  71.151  1.00  0.00    -0.479 OA 
HETATM    2  C   UNL     1     -11.977  15.109  70.433  1.00  0.00    -0.320 C  
HETATM    3  H   UNL     1     -12.471  13.888  71.904  1.00  0.00     0.000 HD 
ENDROOT
BRANCH   2   4
HETATM    4  C   UNL     1     -11.045  15.111  69.222  1.00  0.00    -0.274 C  
BRANCH   4   5
HETATM    5  O   UNL     1     -11.379  16.254  68.428  1.00  0.00    -0.367 OA 
BRANCH   5   6
HETATM    6  C   UNL     1     -10.687  16.364  67.269  1.00  0.00    -0.257 C  
HETATM    7  O   UNL     1     -10.786  15.620  66.306  1.00  0.00    -0.308 OA 
BRANCH   6   8
HETATM    8  C   UNL     1     -10.048  17.707  67.205  1.00  0.00    -0.328 A  
HETATM    9  C   UNL     1     -10.626  18.621  66.308  1.00  0.00    -0.396 A  
HETATM   10  C   UNL     1     -10.217  19.954  66.291  1.00  0.00    -0.614 A  
HETATM   11  C   UNL     1      -9.224  20.386  67.167  1.00  0.00    -0.511 A  
HETATM   12  C   UNL     1      -8.621  19.482  68.043  1.00  0.00    -0.365 A  
HETATM   13  C   UNL     1      -9.025  18.144  68.058  1.00  0.00    -0.283 A  
HETATM   14  O   UNL     1      -8.404  17.280  68.916  1.00  0.00    -0.254 OA 
HETATM   15  H   UNL     1      -7.712  17.577  69.494  1.00  0.00     0.000 HD 
ENDBRANCH   6   8
ENDBRANCH   5   6
ENDBRANCH   4   5
ENDBRANCH   2   4
TORSDOF 4
ENDMDL
MODEL      111
REMARK 921   NORMALIZED FREE ENERGY PREDICTED BY IDOCK:   -3.78 KCAL/MOL
REMARK 922        TOTAL FREE ENERGY PREDICTED BY IDOCK:   -5.08 KCAL/MOL
REMARK 923 INTER-LIGAND FREE ENERGY PREDICTED BY IDOCK:   -4.64 KCAL/MOL
REMARK 924 INTRA-LIGAND FREE ENERGY PREDICTED BY IDOCK:   -0.44 KCAL/MOL
REMARK 927      BINDING AFFINITY PREDICTED BY RF-SCORE:    0.00 PKD
ROOT
HETATM    1  O   UNL     1     -10.829  17.782  65.280  1.00  0.00    -0.599 OA 
HETATM    2  C   UNL     1     -10.067  18.008  66.454  1.00  0.00    -0.384 C  
HETATM    3  H   UNL     1     -11.170  18.594  64.924  1.00  0.00     0.000 HD 
ENDROOT
BRANCH   2   4
HETATM    4  C   UNL     1      -9.518  16.702  67.025  1.00  0.00    -0.230 C  
BRANCH   4   5
HETATM    5  O   UNL     1     -10.618  15.994  67.605  1.00  0.00    -0.296 OA 
BRANCH   5   6
HETATM    6  C   UNL     1     -10.269  14.993  68.447  1.00  0.00    -0.228 C  
HETATM    7  O   UNL     1      -9.215  14.377  68.426  1.00  0.00    -0.185 OA 
BRANCH   6   8
HETATM    8  C   UNL     1     -11.201  14.980  69.608  1.00  0.00    -0.296 A  
HETATM    9  C   UNL     1     -11.792  13.741  69.909  1.00  0.00    -0.394 A  
HETATM   10  C   UNL     1     -12.544  13.578  71.072  1.00  0.00    -0.438 A  
HETATM   11  C   UNL     1     -12.715  14.650  71.943  1.00  0.00    -0.402 A  
HETATM   12  C   UNL     1     -12.158  15.894  71.642  1.00  0.00    -0.554 A  
HETATM   13  C   UNL     1     -11.409  16.062  70.474  1.00  0.00    -0.401 A  
HETATM   14  O   UNL     1     -10.890  17.296  70.199  1.00  0.00    -0.231 OA 
HETATM   15  H   UNL     1     -11.031  18.029  70.786  1.00  0.00     0.000 HD 
ENDBRANCH   6   8
ENDBRANCH   5   6
ENDBRANCH   4   5
ENDBRANCH   2   4
TORSDOF 4
ENDMDL
MODEL      112
REMARK 921   NORMALIZED FREE ENERGY PREDICTED BY IDOCK:   -3.77 KCAL/MOL
REMARK 922        TOTAL FREE ENERGY PREDICTED BY IDOCK:   -5.06 KCAL/MOL
REMARK 923 INTER-LIGAND FREE ENERGY PREDICTED BY IDOCK:   -4.62 KCAL/MOL
REMARK 924 INTRA-LIGAND FREE ENERGY PREDICTED BY IDOCK:   -0.44 KCAL/MOL
REMARK 927      BINDING AFFINITY PREDICTED BY RF-SCORE:    0.00 PKD
ROOT
HETATM    1  O   UNL     1     -10.723   9.824  69.124  1.00  0.00    -0.212 OA 
HETATM    2  C   UNL     1     -10.420   8.572  68.533  1.00  0.00    -0.167 C  
HETATM    3  H   UNL     1     -10.832   9.748  70.065  1.00  0.00     0.000 HD 
ENDROOT
BRANCH   2   4
HETATM    4  C   UNL     1     -10.246   8.695  67.020  1.00  0.00    -0.290 C  
BRANCH   4   5
HETATM    5  O   UNL     1      -9.832  10.038  66.746  1.00  0.00    -0.180 OA 
BRANCH   5   6
HETATM    6  C   UNL     1     -10.022  10.441  65.467  1.00  0.00    -0.282 C  
HETATM    7  O   UNL     1      -9.673   9.833  64.468  1.00  0.00    -0.242 OA 
BRANCH   6   8
HETATM    8  C   UNL     1     -11.012  11.553  65.445  1.00  0.00    -0.288 A  
HETATM    9  C   UNL     1     -11.195  12.238  66.658  1.00  0.00    -0.367 A  
HETATM   10  C   UNL     1     -11.967  13.399  66.709  1.00  0.00    -0.447 A  
HETATM   11  C   UNL     1     -12.565  13.884  65.549  1.00  0.00    -0.560 A  
HETATM   12  C   UNL     1     -12.415  13.198  64.343  1.00  0.00    -0.378 A  
HETATM   13  C   UNL     1     -11.648  12.031  64.291  1.00  0.00    -0.358 A  
HETATM   14  O   UNL     1     -11.533  11.373  63.098  1.00  0.00    -0.849 OA 
HETATM   15  H   UNL     1     -11.964  11.697  62.316  1.00  0.00     0.000 HD 
ENDBRANCH   6   8
ENDBRANCH   5   6
ENDBRANCH   4   5
ENDBRANCH   2   4
TORSDOF 4
ENDMDL
MODEL      113
REMARK 921   NORMALIZED FREE ENERGY PREDICTED BY IDOCK:   -3.75 KCAL/MOL
REMARK 922        TOTAL FREE ENERGY PREDICTED BY IDOCK:   -5.04 KCAL/MOL
REMARK 923 INTER-LIGAND FREE ENERGY PREDICTED BY IDOCK:   -4.92 KCAL/MOL
REMARK 924 INTRA-LIGAND FREE ENERGY PREDICTED BY IDOCK:   -0.12 KCAL/MOL
REMARK 927      BINDING AFFINITY PREDICTED BY RF-SCORE:    0.00 PKD
ROOT
HETATM    1  O   UNL     1     -10.883  10.969  64.603  1.00  0.00    -0.296 OA 
HETATM    2  C   UNL     1     -10.472  11.991  65.495  1.00  0.00    -0.269 C  
HETATM    3  H   UNL     1     -10.149  10.625  64.107  1.00  0.00     0.000 HD 
ENDROOT
BRANCH   2   4
HETATM    4  C   UNL     1     -11.652  12.545  66.293  1.00  0.00    -0.394 C  
BRANCH   4   5
HETATM    5  O   UNL     1     -11.810  11.718  67.451  1.00  0.00    -0.590 OA 
BRANCH   5   6
HETATM    6  C   UNL     1     -11.058  12.083  68.516  1.00  0.00    -0.244 C  
HETATM    7  O   UNL     1      -9.901  12.472  68.474  1.00  0.00    -0.214 OA 
BRANCH   6   8
HETATM    8  C   UNL     1     -11.941  12.268  69.700  1.00  0.00    -0.347 A  
HETATM    9  C   UNL     1     -12.327  11.095  70.369  1.00  0.00    -0.430 A  
HETATM   10  C   UNL     1     -13.009  11.163  71.584  1.00  0.00    -0.548 A  
HETATM   11  C   UNL     1     -13.315  12.402  72.139  1.00  0.00    -0.508 A  
HETATM   12  C   UNL     1     -12.963  13.576  71.471  1.00  0.00    -0.440 A  
HETATM   13  C   UNL     1     -12.284  13.511  70.251  1.00  0.00    -0.347 A  
HETATM   14  O   UNL     1     -11.968  14.677  69.612  1.00  0.00    -0.293 OA 
HETATM   15  H   UNL     1     -12.200  15.519  69.986  1.00  0.00     0.000 HD 
ENDBRANCH   6   8
ENDBRANCH   5   6
ENDBRANCH   4   5
ENDBRANCH   2   4
TORSDOF 4
ENDMDL
MODEL      114
REMARK 921   NORMALIZED FREE ENERGY PREDICTED BY IDOCK:   -3.75 KCAL/MOL
REMARK 922        TOTAL FREE ENERGY PREDICTED BY IDOCK:   -5.04 KCAL/MOL
REMARK 923 INTER-LIGAND FREE ENERGY PREDICTED BY IDOCK:   -4.74 KCAL/MOL
REMARK 924 INTRA-LIGAND FREE ENERGY PREDICTED BY IDOCK:   -0.29 KCAL/MOL
REMARK 927      BINDING AFFINITY PREDICTED BY RF-SCORE:    0.00 PKD
ROOT
HETATM    1  O   UNL     1     -11.247   4.488  65.301  1.00  0.00    -0.920 OA 
HETATM    2  C   UNL     1     -10.231   5.145  66.040  1.00  0.00    -0.179 C  
HETATM    3  H   UNL     1     -10.884   3.986  64.581  1.00  0.00     0.000 HD 
ENDROOT
BRANCH   2   4
HETATM    4  C   UNL     1     -10.815   5.953  67.198  1.00  0.00    -0.285 C  
BRANCH   4   5
HETATM    5  O   UNL     1     -10.888   7.317  66.773  1.00  0.00    -0.311 OA 
BRANCH   5   6
HETATM    6  C   UNL     1     -10.498   8.224  67.701  1.00  0.00    -0.235 C  
HETATM    7  O   UNL     1      -9.956   7.968  68.764  1.00  0.00    -0.178 OA 
BRANCH   6   8
HETATM    8  C   UNL     1     -10.512   9.583  67.095  1.00  0.00    -0.322 A  
HETATM    9  C   UNL     1      -9.795   9.729  65.895  1.00  0.00    -0.352 A  
HETATM   10  C   UNL     1      -9.881  10.910  65.157  1.00  0.00    -0.329 A  
HETATM   11  C   UNL     1     -10.680  11.955  65.611  1.00  0.00    -0.325 A  
HETATM   12  C   UNL     1     -11.375  11.835  66.816  1.00  0.00    -0.385 A  
HETATM   13  C   UNL     1     -11.285  10.655  67.561  1.00  0.00    -0.253 A  
HETATM   14  O   UNL     1     -11.964  10.574  68.745  1.00  0.00    -0.670 OA 
HETATM   15  H   UNL     1     -12.489  11.300  69.060  1.00  0.00     0.000 HD 
ENDBRANCH   6   8
ENDBRANCH   5   6
ENDBRANCH   4   5
ENDBRANCH   2   4
TORSDOF 4
ENDMDL
MODEL      115
REMARK 921   NORMALIZED FREE ENERGY PREDICTED BY IDOCK:   -3.75 KCAL/MOL
REMARK 922        TOTAL FREE ENERGY PREDICTED BY IDOCK:   -5.03 KCAL/MOL
REMARK 923 INTER-LIGAND FREE ENERGY PREDICTED BY IDOCK:   -4.50 KCAL/MOL
REMARK 924 INTRA-LIGAND FREE ENERGY PREDICTED BY IDOCK:   -0.53 KCAL/MOL
REMARK 927      BINDING AFFINITY PREDICTED BY RF-SCORE:    0.00 PKD
ROOT
HETATM    1  O   UNL     1     -11.617   6.571  68.585  1.00  0.00    -0.560 OA 
HETATM    2  C   UNL     1     -10.373   6.041  69.010  1.00  0.00    -0.225 C  
HETATM    3  H   UNL     1     -11.562   6.923  67.703  1.00  0.00     0.000 HD 
ENDROOT
BRANCH   2   4
HETATM    4  C   UNL     1     -10.462   5.475  70.427  1.00  0.00    -0.286 C  
BRANCH   4   5
HETATM    5  O   UNL     1     -11.423   6.259  71.140  1.00  0.00    -0.310 OA 
BRANCH   5   6
HETATM    6  C   UNL     1     -10.900   7.264  71.882  1.00  0.00    -0.226 C  
HETATM    7  O   UNL     1      -9.848   7.222  72.500  1.00  0.00    -0.152 OA 
BRANCH   6   8
HETATM    8  C   UNL     1     -11.611   8.532  71.561  1.00  0.00    -0.352 A  
HETATM    9  C   UNL     1     -12.847   8.723  72.202  1.00  0.00    -0.456 A  
HETATM   10  C   UNL     1     -13.514   9.945  72.107  1.00  0.00    -0.454 A  
HETATM   11  C   UNL     1     -12.954  10.985  71.369  1.00  0.00    -0.517 A  
HETATM   12  C   UNL     1     -11.741  10.799  70.705  1.00  0.00    -0.442 A  
HETATM   13  C   UNL     1     -11.074   9.574  70.793  1.00  0.00    -0.323 A  
HETATM   14  O   UNL     1      -9.896   9.418  70.117  1.00  0.00    -0.200 OA 
HETATM   15  H   UNL     1      -9.532  10.124  69.597  1.00  0.00     0.000 HD 
ENDBRANCH   6   8
ENDBRANCH   5   6
ENDBRANCH   4   5
ENDBRANCH   2   4
TORSDOF 4
ENDMDL
MODEL      116
REMARK 921   NORMALIZED FREE ENERGY PREDICTED BY IDOCK:   -3.70 KCAL/MOL
REMARK 922        TOTAL FREE ENERGY PREDICTED BY IDOCK:   -4.98 KCAL/MOL
REMARK 923 INTER-LIGAND FREE ENERGY PREDICTED BY IDOCK:   -4.58 KCAL/MOL
REMARK 924 INTRA-LIGAND FREE ENERGY PREDICTED BY IDOCK:   -0.40 KCAL/MOL
REMARK 927      BINDING AFFINITY PREDICTED BY RF-SCORE:    0.00 PKD
ROOT
HETATM    1  O   UNL     1      -9.778   9.143  65.441  1.00  0.00    -0.453 OA 
HETATM    2  C   UNL     1     -10.511   9.074  66.652  1.00  0.00    -0.165 C  
HETATM    3  H   UNL     1      -9.832   8.329  64.954  1.00  0.00     0.000 HD 
ENDROOT
BRANCH   2   4
HETATM    4  C   UNL     1     -10.425  10.383  67.434  1.00  0.00    -0.249 C  
BRANCH   4   5
HETATM    5  O   UNL     1     -11.757  10.889  67.570  1.00  0.00    -0.543 OA 
BRANCH   5   6
HETATM    6  C   UNL     1     -11.837  12.175  67.985  1.00  0.00    -0.285 C  
HETATM    7  O   UNL     1     -11.909  12.547  69.146  1.00  0.00    -0.298 OA 
BRANCH   6   8
HETATM    8  C   UNL     1     -11.483  13.078  66.856  1.00  0.00    -0.387 A  
HETATM    9  C   UNL     1     -12.240  12.923  65.683  1.00  0.00    -0.519 A  
HETATM   10  C   UNL     1     -12.108  13.827  64.629  1.00  0.00    -0.452 A  
HETATM   11  C   UNL     1     -11.216  14.891  64.735  1.00  0.00    -0.393 A  
HETATM   12  C   UNL     1     -10.437  15.040  65.883  1.00  0.00    -0.341 A  
HETATM   13  C   UNL     1     -10.563  14.133  66.938  1.00  0.00    -0.280 A  
HETATM   14  O   UNL     1      -9.774  14.296  68.043  1.00  0.00    -0.212 OA 
HETATM   15  H   UNL     1      -9.151  15.011  68.098  1.00  0.00     0.000 HD 
ENDBRANCH   6   8
ENDBRANCH   5   6
ENDBRANCH   4   5
ENDBRANCH   2   4
TORSDOF 4
ENDMDL
MODEL      117
REMARK 921   NORMALIZED FREE ENERGY PREDICTED BY IDOCK:   -3.68 KCAL/MOL
REMARK 922        TOTAL FREE ENERGY PREDICTED BY IDOCK:   -4.95 KCAL/MOL
REMARK 923 INTER-LIGAND FREE ENERGY PREDICTED BY IDOCK:   -4.53 KCAL/MOL
REMARK 924 INTRA-LIGAND FREE ENERGY PREDICTED BY IDOCK:   -0.42 KCAL/MOL
REMARK 927      BINDING AFFINITY PREDICTED BY RF-SCORE:    0.00 PKD
ROOT
HETATM    1  O   UNL     1      -8.373  11.604  67.632  1.00  0.00    -0.131 OA 
HETATM    2  C   UNL     1      -9.623  11.105  67.188  1.00  0.00    -0.173 C  
HETATM    3  H   UNL     1      -8.078  11.156  68.416  1.00  0.00     0.000 HD 
ENDROOT
BRANCH   2   4
HETATM    4  C   UNL     1     -10.098  11.825  65.928  1.00  0.00    -0.234 C  
BRANCH   4   5
HETATM    5  O   UNL     1      -9.827  13.219  66.105  1.00  0.00    -0.283 OA 
BRANCH   5   6
HETATM    6  C   UNL     1     -10.743  14.051  65.554  1.00  0.00    -0.313 C  
HETATM    7  O   UNL     1     -11.704  13.710  64.883  1.00  0.00    -0.335 OA 
BRANCH   6   8
HETATM    8  C   UNL     1     -10.609  15.402  66.164  1.00  0.00    -0.321 A  
HETATM    9  C   UNL     1     -10.154  15.434  67.493  1.00  0.00    -0.233 A  
HETATM   10  C   UNL     1      -9.831  16.646  68.103  1.00  0.00    -0.250 A  
HETATM   11  C   UNL     1      -9.961  17.837  67.393  1.00  0.00    -0.323 A  
HETATM   12  C   UNL     1     -10.438  17.822  66.081  1.00  0.00    -0.301 A  
HETATM   13  C   UNL     1     -10.769  16.609  65.470  1.00  0.00    -0.223 A  
HETATM   14  O   UNL     1     -11.249  16.629  64.190  1.00  0.00    -1.410 OA 
HETATM   15  H   UNL     1     -11.357  17.446  63.719  1.00  0.00     0.000 HD 
ENDBRANCH   6   8
ENDBRANCH   5   6
ENDBRANCH   4   5
ENDBRANCH   2   4
TORSDOF 4
ENDMDL
MODEL      118
REMARK 921   NORMALIZED FREE ENERGY PREDICTED BY IDOCK:   -3.67 KCAL/MOL
REMARK 922        TOTAL FREE ENERGY PREDICTED BY IDOCK:   -4.95 KCAL/MOL
REMARK 923 INTER-LIGAND FREE ENERGY PREDICTED BY IDOCK:   -4.39 KCAL/MOL
REMARK 924 INTRA-LIGAND FREE ENERGY PREDICTED BY IDOCK:   -0.56 KCAL/MOL
REMARK 927      BINDING AFFINITY PREDICTED BY RF-SCORE:    0.00 PKD
ROOT
HETATM    1  O   UNL     1      -7.776  14.481  66.964  1.00  0.00    -0.328 OA 
HETATM    2  C   UNL     1      -8.103  13.177  67.414  1.00  0.00    -0.179 C  
HETATM    3  H   UNL     1      -7.025  14.832  67.429  1.00  0.00     0.000 HD 
ENDROOT
BRANCH   2   4
HETATM    4  C   UNL     1      -9.311  12.614  66.667  1.00  0.00    -0.236 C  
BRANCH   4   5
HETATM    5  O   UNL     1     -10.150  13.719  66.317  1.00  0.00    -0.284 OA 
BRANCH   5   6
HETATM    6  C   UNL     1     -11.446  13.588  66.686  1.00  0.00    -0.339 C  
HETATM    7  O   UNL     1     -12.252  12.812  66.196  1.00  0.00    -0.521 OA 
BRANCH   6   8
HETATM    8  C   UNL     1     -11.658  14.273  67.990  1.00  0.00    -0.364 A  
HETATM    9  C   UNL     1     -12.134  13.467  69.038  1.00  0.00    -0.330 A  
HETATM   10  C   UNL     1     -12.206  13.965  70.339  1.00  0.00    -0.438 A  
HETATM   11  C   UNL     1     -11.805  15.271  70.605  1.00  0.00    -0.376 A  
HETATM   12  C   UNL     1     -11.358  16.092  69.568  1.00  0.00    -0.344 A  
HETATM   13  C   UNL     1     -11.291  15.598  68.263  1.00  0.00    -0.356 A  
HETATM   14  O   UNL     1     -10.863  16.431  67.267  1.00  0.00    -0.291 OA 
HETATM   15  H   UNL     1     -10.614  17.329  67.451  1.00  0.00     0.000 HD 
ENDBRANCH   6   8
ENDBRANCH   5   6
ENDBRANCH   4   5
ENDBRANCH   2   4
TORSDOF 4
ENDMDL
MODEL      119
REMARK 921   NORMALIZED FREE ENERGY PREDICTED BY IDOCK:   -3.67 KCAL/MOL
REMARK 922        TOTAL FREE ENERGY PREDICTED BY IDOCK:   -4.94 KCAL/MOL
REMARK 923 INTER-LIGAND FREE ENERGY PREDICTED BY IDOCK:   -4.52 KCAL/MOL
REMARK 924 INTRA-LIGAND FREE ENERGY PREDICTED BY IDOCK:   -0.42 KCAL/MOL
REMARK 927      BINDING AFFINITY PREDICTED BY RF-SCORE:    0.00 PKD
ROOT
HETATM    1  O   UNL     1     -12.424  15.509  69.187  1.00  0.00    -0.609 OA 
HETATM    2  C   UNL     1     -11.950  14.864  70.356  1.00  0.00    -0.314 C  
HETATM    3  H   UNL     1     -11.869  16.240  68.943  1.00  0.00     0.000 HD 
ENDROOT
BRANCH   2   4
HETATM    4  C   UNL     1     -12.843  13.688  70.748  1.00  0.00    -0.202 C  
BRANCH   4   5
HETATM    5  O   UNL     1     -11.988  12.570  71.004  1.00  0.00    -0.084 OA 
BRANCH   5   6
HETATM    6  C   UNL     1     -12.086  11.561  70.106  1.00  0.00    -0.351 C  
HETATM    7  O   UNL     1     -12.117  11.687  68.892  1.00  0.00    -0.342 OA 
BRANCH   6   8
HETATM    8  C   UNL     1     -11.807  10.267  70.788  1.00  0.00    -0.459 A  
HETATM    9  C   UNL     1     -10.609   9.628  70.427  1.00  0.00    -0.354 A  
HETATM   10  C   UNL     1     -10.167   8.503  71.124  1.00  0.00    -0.272 A  
HETATM   11  C   UNL     1     -10.919   8.005  72.185  1.00  0.00    -0.357 A  
HETATM   12  C   UNL     1     -12.125   8.613  72.535  1.00  0.00    -0.368 A  
HETATM   13  C   UNL     1     -12.573   9.737  71.835  1.00  0.00    -0.391 A  
HETATM   14  O   UNL     1     -13.766  10.300  72.192  1.00  0.00    -0.419 OA 
HETATM   15  H   UNL     1     -14.285   9.941  72.902  1.00  0.00     0.000 HD 
ENDBRANCH   6   8
ENDBRANCH   5   6
ENDBRANCH   4   5
ENDBRANCH   2   4
TORSDOF 4
ENDMDL
MODEL      120
REMARK 921   NORMALIZED FREE ENERGY PREDICTED BY IDOCK:   -3.66 KCAL/MOL
REMARK 922        TOTAL FREE ENERGY PREDICTED BY IDOCK:   -4.93 KCAL/MOL
REMARK 923 INTER-LIGAND FREE ENERGY PREDICTED BY IDOCK:   -4.56 KCAL/MOL
REMARK 924 INTRA-LIGAND FREE ENERGY PREDICTED BY IDOCK:   -0.37 KCAL/MOL
REMARK 927      BINDING AFFINITY PREDICTED BY RF-SCORE:    0.00 PKD
ROOT
HETATM    1  O   UNL     1      -6.969  19.159  68.463  1.00  0.00    -0.260 OA 
HETATM    2  C   UNL     1      -7.147  17.959  67.730  1.00  0.00    -0.204 C  
HETATM    3  H   UNL     1      -6.198  19.118  69.017  1.00  0.00     0.000 HD 
ENDROOT
BRANCH   2   4
HETATM    4  C   UNL     1      -8.386  18.025  66.839  1.00  0.00    -0.247 C  
BRANCH   4   5
HETATM    5  O   UNL     1      -9.024  16.745  66.899  1.00  0.00    -0.205 OA 
BRANCH   5   6
HETATM    6  C   UNL     1     -10.133  16.626  66.130  1.00  0.00    -0.345 C  
HETATM    7  O   UNL     1     -10.413  17.326  65.170  1.00  0.00    -0.656 OA 
BRANCH   6   8
HETATM    8  C   UNL     1     -10.784  15.317  66.408  1.00  0.00    -0.318 A  
HETATM    9  C   UNL     1     -10.844  14.934  67.758  1.00  0.00    -0.286 A  
HETATM   10  C   UNL     1     -11.580  13.814  68.146  1.00  0.00    -0.370 A  
HETATM   11  C   UNL     1     -12.258  13.065  67.189  1.00  0.00    -0.200 A  
HETATM   12  C   UNL     1     -12.184  13.417  65.840  1.00  0.00    -0.502 A  
HETATM   13  C   UNL     1     -11.442  14.535  65.448  1.00  0.00    -0.348 A  
HETATM   14  O   UNL     1     -11.375  14.845  64.119  1.00  0.00    -0.622 OA 
HETATM   15  H   UNL     1     -11.821  14.316  63.469  1.00  0.00     0.000 HD 
ENDBRANCH   6   8
ENDBRANCH   5   6
ENDBRANCH   4   5
ENDBRANCH   2   4
TORSDOF 4
ENDMDL
MODEL      121
REMARK 921   NORMALIZED FREE ENERGY PREDICTED BY IDOCK:   -3.65 KCAL/MOL
REMARK 922        TOTAL FREE ENERGY PREDICTED BY IDOCK:   -4.91 KCAL/MOL
REMARK 923 INTER-LIGAND FREE ENERGY PREDICTED BY IDOCK:   -4.34 KCAL/MOL
REMARK 924 INTRA-LIGAND FREE ENERGY PREDICTED BY IDOCK:   -0.57 KCAL/MOL
REMARK 927      BINDING AFFINITY PREDICTED BY RF-SCORE:    0.00 PKD
ROOT
HETATM    1  O   UNL     1     -10.018  12.516  64.388  1.00  0.00    -0.496 OA 
HETATM    2  C   UNL     1     -10.272  11.141  64.157  1.00  0.00    -0.347 C  
HETATM    3  H   UNL     1     -10.683  13.065  63.989  1.00  0.00     0.000 HD 
ENDROOT
BRANCH   2   4
HETATM    4  C   UNL     1      -9.204  10.258  64.800  1.00  0.00    -0.241 C  
BRANCH   4   5
HETATM    5  O   UNL     1      -9.348  10.377  66.218  1.00  0.00    -0.159 OA 
BRANCH   5   6
HETATM    6  C   UNL     1     -10.146   9.443  66.789  1.00  0.00    -0.256 C  
HETATM    7  O   UNL     1     -10.121   8.245  66.555  1.00  0.00    -0.273 OA 
BRANCH   6   8
HETATM    8  C   UNL     1     -10.814  10.031  67.982  1.00  0.00    -0.311 A  
HETATM    9  C   UNL     1     -10.630   9.342  69.192  1.00  0.00    -0.228 A  
HETATM   10  C   UNL     1     -11.066   9.893  70.397  1.00  0.00    -0.382 A  
HETATM   11  C   UNL     1     -11.694  11.136  70.403  1.00  0.00    -0.415 A  
HETATM   12  C   UNL     1     -11.910  11.818  69.205  1.00  0.00    -0.389 A  
HETATM   13  C   UNL     1     -11.479  11.265  67.996  1.00  0.00    -0.298 A  
HETATM   14  O   UNL     1     -11.719  11.950  66.837  1.00  0.00    -0.541 OA 
HETATM   15  H   UNL     1     -12.168  12.786  66.847  1.00  0.00     0.000 HD 
ENDBRANCH   6   8
ENDBRANCH   5   6
ENDBRANCH   4   5
ENDBRANCH   2   4
TORSDOF 4
ENDMDL
MODEL      122
REMARK 921   NORMALIZED FREE ENERGY PREDICTED BY IDOCK:   -3.64 KCAL/MOL
REMARK 922        TOTAL FREE ENERGY PREDICTED BY IDOCK:   -4.90 KCAL/MOL
REMARK 923 INTER-LIGAND FREE ENERGY PREDICTED BY IDOCK:   -4.53 KCAL/MOL
REMARK 924 INTRA-LIGAND FREE ENERGY PREDICTED BY IDOCK:   -0.38 KCAL/MOL
REMARK 927      BINDING AFFINITY PREDICTED BY RF-SCORE:    0.00 PKD
ROOT
HETATM    1  O   UNL     1     -10.372  17.414  65.522  1.00  0.00    -0.621 OA 
HETATM    2  C   UNL     1     -10.253  17.743  66.895  1.00  0.00    -0.346 C  
HETATM    3  H   UNL     1     -10.408  18.193  64.979  1.00  0.00     0.000 HD 
ENDROOT
BRANCH   2   4
HETATM    4  C   UNL     1     -10.193  16.491  67.768  1.00  0.00    -0.278 C  
BRANCH   4   5
HETATM    5  O   UNL     1     -10.300  15.359  66.899  1.00  0.00    -0.266 OA 
BRANCH   5   6
HETATM    6  C   UNL     1     -11.092  14.362  67.358  1.00  0.00    -0.308 C  
HETATM    7  O   UNL     1     -12.125  14.506  67.993  1.00  0.00    -0.297 OA 
BRANCH   6   8
HETATM    8  C   UNL     1     -10.712  13.086  66.691  1.00  0.00    -0.285 A  
HETATM    9  C   UNL     1     -10.877  11.920  67.457  1.00  0.00    -0.283 A  
HETATM   10  C   UNL     1     -10.715  10.662  66.876  1.00  0.00    -0.297 A  
HETATM   11  C   UNL     1     -10.384  10.558  65.528  1.00  0.00    -0.287 A  
HETATM   12  C   UNL     1     -10.189  11.709  64.763  1.00  0.00    -0.321 A  
HETATM   13  C   UNL     1     -10.345  12.971  65.344  1.00  0.00    -0.300 A  
HETATM   14  O   UNL     1     -10.131  14.079  64.573  1.00  0.00    -0.638 OA 
HETATM   15  H   UNL     1      -9.882  14.001  63.660  1.00  0.00     0.000 HD 
ENDBRANCH   6   8
ENDBRANCH   5   6
ENDBRANCH   4   5
ENDBRANCH   2   4
TORSDOF 4
ENDMDL
MODEL      123
REMARK 921   NORMALIZED FREE ENERGY PREDICTED BY IDOCK:   -3.63 KCAL/MOL
REMARK 922        TOTAL FREE ENERGY PREDICTED BY IDOCK:   -4.90 KCAL/MOL
REMARK 923 INTER-LIGAND FREE ENERGY PREDICTED BY IDOCK:   -4.52 KCAL/MOL
REMARK 924 INTRA-LIGAND FREE ENERGY PREDICTED BY IDOCK:   -0.38 KCAL/MOL
REMARK 927      BINDING AFFINITY PREDICTED BY RF-SCORE:    0.00 PKD
ROOT
HETATM    1  O   UNL     1     -12.362  13.782  63.304  1.00  0.00    -1.069 OA 
HETATM    2  C   UNL     1     -12.344  12.865  64.385  1.00  0.00    -0.398 C  
HETATM    3  H   UNL     1     -13.221  13.827  62.900  1.00  0.00     0.000 HD 
ENDROOT
BRANCH   2   4
HETATM    4  C   UNL     1     -10.963  12.794  65.035  1.00  0.00    -0.289 C  
BRANCH   4   5
HETATM    5  O   UNL     1     -11.150  12.381  66.392  1.00  0.00    -0.274 OA 
BRANCH   5   6
HETATM    6  C   UNL     1     -10.202  11.539  66.866  1.00  0.00    -0.217 C  
HETATM    7  O   UNL     1      -9.094  11.366  66.383  1.00  0.00    -0.182 OA 
BRANCH   6   8
HETATM    8  C   UNL     1     -10.569  11.113  68.244  1.00  0.00    -0.221 A  
HETATM    9  C   UNL     1     -11.757  11.657  68.761  1.00  0.00    -0.392 A  
HETATM   10  C   UNL     1     -12.281  11.197  69.969  1.00  0.00    -0.402 A  
HETATM   11  C   UNL     1     -11.623  10.193  70.673  1.00  0.00    -0.429 A  
HETATM   12  C   UNL     1     -10.427   9.664  70.187  1.00  0.00    -0.321 A  
HETATM   13  C   UNL     1      -9.895  10.127  68.980  1.00  0.00    -0.205 A  
HETATM   14  O   UNL     1      -8.714   9.601  68.537  1.00  0.00    -0.118 OA 
HETATM   15  H   UNL     1      -8.258   8.933  69.035  1.00  0.00     0.000 HD 
ENDBRANCH   6   8
ENDBRANCH   5   6
ENDBRANCH   4   5
ENDBRANCH   2   4
TORSDOF 4
ENDMDL
MODEL      124
REMARK 921   NORMALIZED FREE ENERGY PREDICTED BY IDOCK:   -3.62 KCAL/MOL
REMARK 922        TOTAL FREE ENERGY PREDICTED BY IDOCK:   -4.88 KCAL/MOL
REMARK 923 INTER-LIGAND FREE ENERGY PREDICTED BY IDOCK:   -4.59 KCAL/MOL
REMARK 924 INTRA-LIGAND FREE ENERGY PREDICTED BY IDOCK:   -0.29 KCAL/MOL
REMARK 927      BINDING AFFINITY PREDICTED BY RF-SCORE:    0.00 PKD
ROOT
HETATM    1  O   UNL     1      -9.708  19.793  68.272  1.00  0.00    -0.366 OA 
HETATM    2  C   UNL     1     -10.726  19.278  67.431  1.00  0.00    -0.486 C  
HETATM    3  H   UNL     1     -10.071  20.300  68.989  1.00  0.00     0.000 HD 
ENDROOT
BRANCH   2   4
HETATM    4  C   UNL     1     -10.141  18.462  66.280  1.00  0.00    -0.392 C  
BRANCH   4   5
HETATM    5  O   UNL     1     -10.466  17.089  66.521  1.00  0.00    -0.305 OA 
BRANCH   5   6
HETATM    6  C   UNL     1      -9.550  16.200  66.068  1.00  0.00    -0.346 C  
HETATM    7  O   UNL     1      -8.451  16.476  65.614  1.00  0.00    -0.301 OA 
BRANCH   6   8
HETATM    8  C   UNL     1      -9.931  14.832  66.516  1.00  0.00    -0.283 A  
HETATM    9  C   UNL     1     -10.171  14.681  67.892  1.00  0.00    -0.226 A  
HETATM   10  C   UNL     1     -10.697  13.490  68.393  1.00  0.00    -0.273 A  
HETATM   11  C   UNL     1     -10.984  12.439  67.526  1.00  0.00    -0.293 A  
HETATM   12  C   UNL     1     -10.723  12.566  66.161  1.00  0.00    -0.290 A  
HETATM   13  C   UNL     1     -10.191  13.756  65.656  1.00  0.00    -0.313 A  
HETATM   14  O   UNL     1      -9.931  13.844  64.317  1.00  0.00    -0.714 OA 
HETATM   15  H   UNL     1     -10.107  13.115  63.735  1.00  0.00     0.000 HD 
ENDBRANCH   6   8
ENDBRANCH   5   6
ENDBRANCH   4   5
ENDBRANCH   2   4
TORSDOF 4
ENDMDL
MODEL      125
REMARK 921   NORMALIZED FREE ENERGY PREDICTED BY IDOCK:   -3.61 KCAL/MOL
REMARK 922        TOTAL FREE ENERGY PREDICTED BY IDOCK:   -4.87 KCAL/MOL
REMARK 923 INTER-LIGAND FREE ENERGY PREDICTED BY IDOCK:   -4.31 KCAL/MOL
REMARK 924 INTRA-LIGAND FREE ENERGY PREDICTED BY IDOCK:   -0.56 KCAL/MOL
REMARK 927      BINDING AFFINITY PREDICTED BY RF-SCORE:    0.00 PKD
ROOT
HETATM    1  O   UNL     1     -11.183   7.155  68.391  1.00  0.00    -0.464 OA 
HETATM    2  C   UNL     1     -10.910   7.872  69.583  1.00  0.00    -0.176 C  
HETATM    3  H   UNL     1     -11.702   6.378  68.562  1.00  0.00     0.000 HD 
ENDROOT
BRANCH   2   4
HETATM    4  C   UNL     1     -10.076   9.121  69.307  1.00  0.00    -0.194 C  
BRANCH   4   5
HETATM    5  O   UNL     1     -10.933  10.076  68.674  1.00  0.00    -0.227 OA 
BRANCH   5   6
HETATM    6  C   UNL     1     -10.609  10.370  67.392  1.00  0.00    -0.269 C  
HETATM    7  O   UNL     1     -10.263   9.566  66.541  1.00  0.00    -0.254 OA 
BRANCH   6   8
HETATM    8  C   UNL     1     -11.062  11.752  67.076  1.00  0.00    -0.358 A  
HETATM    9  C   UNL     1     -11.615  11.941  65.798  1.00  0.00    -0.281 A  
HETATM   10  C   UNL     1     -12.224  13.149  65.459  1.00  0.00    -0.513 A  
HETATM   11  C   UNL     1     -12.284  14.180  66.393  1.00  0.00    -0.473 A  
HETATM   12  C   UNL     1     -11.714  14.017  67.656  1.00  0.00    -0.412 A  
HETATM   13  C   UNL     1     -11.098  12.809  67.996  1.00  0.00    -0.250 A  
HETATM   14  O   UNL     1     -10.535  12.685  69.235  1.00  0.00    -0.436 OA 
HETATM   15  H   UNL     1     -10.559  13.401  69.859  1.00  0.00     0.000 HD 
ENDBRANCH   6   8
ENDBRANCH   5   6
ENDBRANCH   4   5
ENDBRANCH   2   4
TORSDOF 4
ENDMDL
MODEL      126
REMARK 921   NORMALIZED FREE ENERGY PREDICTED BY IDOCK:   -3.60 KCAL/MOL
REMARK 922        TOTAL FREE ENERGY PREDICTED BY IDOCK:   -4.85 KCAL/MOL
REMARK 923 INTER-LIGAND FREE ENERGY PREDICTED BY IDOCK:   -4.52 KCAL/MOL
REMARK 924 INTRA-LIGAND FREE ENERGY PREDICTED BY IDOCK:   -0.33 KCAL/MOL
REMARK 927      BINDING AFFINITY PREDICTED BY RF-SCORE:    0.00 PKD
ROOT
HETATM    1  O   UNL     1     -11.274   9.163  67.789  1.00  0.00    -0.474 OA 
HETATM    2  C   UNL     1     -10.380   8.448  66.953  1.00  0.00    -0.307 C  
HETATM    3  H   UNL     1     -11.671   8.594  68.439  1.00  0.00     0.000 HD 
ENDROOT
BRANCH   2   4
HETATM    4  C   UNL     1      -9.741   9.362  65.908  1.00  0.00    -0.285 C  
BRANCH   4   5
HETATM    5  O   UNL     1     -10.762  10.242  65.428  1.00  0.00    -0.051 OA 
BRANCH   5   6
HETATM    6  C   UNL     1     -10.309  11.398  64.888  1.00  0.00    -0.292 C  
HETATM    7  O   UNL     1      -9.868  11.533  63.758  1.00  0.00    -0.277 OA 
BRANCH   6   8
HETATM    8  C   UNL     1     -10.740  12.540  65.740  1.00  0.00    -0.299 A  
HETATM    9  C   UNL     1      -9.748  13.103  66.561  1.00  0.00    -0.268 A  
HETATM   10  C   UNL     1      -9.997  14.279  67.269  1.00  0.00    -0.252 A  
HETATM   11  C   UNL     1     -11.238  14.901  67.167  1.00  0.00    -0.345 A  
HETATM   12  C   UNL     1     -12.242  14.337  66.378  1.00  0.00    -0.426 A  
HETATM   13  C   UNL     1     -11.998  13.155  65.672  1.00  0.00    -0.415 A  
HETATM   14  O   UNL     1     -13.006  12.618  64.921  1.00  0.00    -0.830 OA 
HETATM   15  H   UNL     1     -13.858  13.035  64.875  1.00  0.00     0.000 HD 
ENDBRANCH   6   8
ENDBRANCH   5   6
ENDBRANCH   4   5
ENDBRANCH   2   4
TORSDOF 4
ENDMDL
MODEL      127
REMARK 921   NORMALIZED FREE ENERGY PREDICTED BY IDOCK:   -3.57 KCAL/MOL
REMARK 922        TOTAL FREE ENERGY PREDICTED BY IDOCK:   -4.82 KCAL/MOL
REMARK 923 INTER-LIGAND FREE ENERGY PREDICTED BY IDOCK:   -4.50 KCAL/MOL
REMARK 924 INTRA-LIGAND FREE ENERGY PREDICTED BY IDOCK:   -0.32 KCAL/MOL
REMARK 927      BINDING AFFINITY PREDICTED BY RF-SCORE:    0.00 PKD
ROOT
HETATM    1  O   UNL     1      -8.847  15.124  69.785  1.00  0.00    -0.439 OA 
HETATM    2  C   UNL     1      -8.140  15.128  68.557  1.00  0.00    -0.145 C  
HETATM    3  H   UNL     1      -8.305  15.441  70.499  1.00  0.00     0.000 HD 
ENDROOT
BRANCH   2   4
HETATM    4  C   UNL     1      -9.011  14.618  67.409  1.00  0.00    -0.195 C  
BRANCH   4   5
HETATM    5  O   UNL     1     -10.092  15.541  67.251  1.00  0.00    -0.244 OA 
BRANCH   5   6
HETATM    6  C   UNL     1     -10.058  16.267  66.109  1.00  0.00    -0.344 C  
HETATM    7  O   UNL     1     -10.506  15.918  65.028  1.00  0.00    -0.518 OA 
BRANCH   6   8
HETATM    8  C   UNL     1      -9.710  17.678  66.433  1.00  0.00    -0.303 A  
HETATM    9  C   UNL     1     -10.775  18.494  66.850  1.00  0.00    -0.332 A  
HETATM   10  C   UNL     1     -10.535  19.778  67.340  1.00  0.00    -0.577 A  
HETATM   11  C   UNL     1      -9.231  20.259  67.414  1.00  0.00    -0.507 A  
HETATM   12  C   UNL     1      -8.166  19.470  66.976  1.00  0.00    -0.308 A  
HETATM   13  C   UNL     1      -8.404  18.185  66.480  1.00  0.00    -0.265 A  
HETATM   14  O   UNL     1      -7.342  17.443  66.044  1.00  0.00    -0.327 OA 
HETATM   15  H   UNL     1      -6.458  17.786  66.076  1.00  0.00     0.000 HD 
ENDBRANCH   6   8
ENDBRANCH   5   6
ENDBRANCH   4   5
ENDBRANCH   2   4
TORSDOF 4
ENDMDL
MODEL      128
REMARK 921   NORMALIZED FREE ENERGY PREDICTED BY IDOCK:   -3.56 KCAL/MOL
REMARK 922        TOTAL FREE ENERGY PREDICTED BY IDOCK:   -4.81 KCAL/MOL
REMARK 923 INTER-LIGAND FREE ENERGY PREDICTED BY IDOCK:   -4.39 KCAL/MOL
REMARK 924 INTRA-LIGAND FREE ENERGY PREDICTED BY IDOCK:   -0.42 KCAL/MOL
REMARK 927      BINDING AFFINITY PREDICTED BY RF-SCORE:    0.00 PKD
ROOT
HETATM    1  O   UNL     1      -9.002   9.874  70.877  1.00  0.00    -0.330 OA 
HETATM    2  C   UNL     1     -10.149   9.068  71.090  1.00  0.00    -0.295 C  
HETATM    3  H   UNL     1      -8.201   9.391  71.048  1.00  0.00     0.000 HD 
ENDROOT
BRANCH   2   4
HETATM    4  C   UNL     1     -11.436   9.844  70.815  1.00  0.00    -0.354 C  
BRANCH   4   5
HETATM    5  O   UNL     1     -11.060  11.118  70.282  1.00  0.00    -0.160 OA 
BRANCH   5   6
HETATM    6  C   UNL     1     -11.591  11.406  69.069  1.00  0.00    -0.317 C  
HETATM    7  O   UNL     1     -12.110  10.604  68.309  1.00  0.00    -0.423 OA 
BRANCH   6   8
HETATM    8  C   UNL     1     -11.761  12.879  68.945  1.00  0.00    -0.370 A  
HETATM    9  C   UNL     1     -12.146  13.555  70.115  1.00  0.00    -0.425 A  
HETATM   10  C   UNL     1     -12.168  14.949  70.155  1.00  0.00    -0.387 A  
HETATM   11  C   UNL     1     -11.809  15.681  69.026  1.00  0.00    -0.379 A  
HETATM   12  C   UNL     1     -11.453  15.022  67.848  1.00  0.00    -0.354 A  
HETATM   13  C   UNL     1     -11.436  13.625  67.804  1.00  0.00    -0.318 A  
HETATM   14  O   UNL     1     -11.098  13.010  66.631  1.00  0.00    -0.278 OA 
HETATM   15  H   UNL     1     -10.878  13.515  65.858  1.00  0.00     0.000 HD 
ENDBRANCH   6   8
ENDBRANCH   5   6
ENDBRANCH   4   5
ENDBRANCH   2   4
TORSDOF 4
ENDMDL
MODEL      129
REMARK 921   NORMALIZED FREE ENERGY PREDICTED BY IDOCK:   -3.56 KCAL/MOL
REMARK 922        TOTAL FREE ENERGY PREDICTED BY IDOCK:   -4.80 KCAL/MOL
REMARK 923 INTER-LIGAND FREE ENERGY PREDICTED BY IDOCK:   -4.42 KCAL/MOL
REMARK 924 INTRA-LIGAND FREE ENERGY PREDICTED BY IDOCK:   -0.38 KCAL/MOL
REMARK 927      BINDING AFFINITY PREDICTED BY RF-SCORE:    0.00 PKD
ROOT
HETATM    1  O   UNL     1     -11.522   4.602  65.304  1.00  0.00    -1.070 OA 
HETATM    2  C   UNL     1     -10.652   5.060  66.325  1.00  0.00    -0.276 C  
HETATM    3  H   UNL     1     -11.287   3.728  65.012  1.00  0.00     0.000 HD 
ENDROOT
BRANCH   2   4
HETATM    4  C   UNL     1     -11.031   6.463  66.794  1.00  0.00    -0.251 C  
BRANCH   4   5
HETATM    5  O   UNL     1     -10.664   6.566  68.174  1.00  0.00    -0.225 OA 
BRANCH   5   6
HETATM    6  C   UNL     1     -10.535   7.832  68.636  1.00  0.00    -0.172 C  
HETATM    7  O   UNL     1     -10.247   8.810  67.965  1.00  0.00    -0.194 OA 
BRANCH   6   8
HETATM    8  C   UNL     1     -11.126   7.920  69.999  1.00  0.00    -0.165 A  
HETATM    9  C   UNL     1     -11.668   6.729  70.512  1.00  0.00    -0.430 A  
HETATM   10  C   UNL     1     -12.091   6.657  71.839  1.00  0.00    -0.385 A  
HETATM   11  C   UNL     1     -11.981   7.773  72.664  1.00  0.00    -0.257 A  
HETATM   12  C   UNL     1     -11.472   8.970  72.159  1.00  0.00    -0.328 A  
HETATM   13  C   UNL     1     -11.053   9.048  70.828  1.00  0.00    -0.272 A  
HETATM   14  O   UNL     1     -10.574  10.239  70.359  1.00  0.00    -0.395 OA 
HETATM   15  H   UNL     1     -10.524  11.003  70.920  1.00  0.00     0.000 HD 
ENDBRANCH   6   8
ENDBRANCH   5   6
ENDBRANCH   4   5
ENDBRANCH   2   4
TORSDOF 4
ENDMDL
MODEL      130
REMARK 921   NORMALIZED FREE ENERGY PREDICTED BY IDOCK:   -3.55 KCAL/MOL
REMARK 922        TOTAL FREE ENERGY PREDICTED BY IDOCK:   -4.80 KCAL/MOL
REMARK 923 INTER-LIGAND FREE ENERGY PREDICTED BY IDOCK:   -4.17 KCAL/MOL
REMARK 924 INTRA-LIGAND FREE ENERGY PREDICTED BY IDOCK:   -0.63 KCAL/MOL
REMARK 927      BINDING AFFINITY PREDICTED BY RF-SCORE:    0.00 PKD
ROOT
HETATM    1  O   UNL     1      -8.707  15.224  69.629  1.00  0.00    -0.374 OA 
HETATM    2  C   UNL     1      -7.967  15.319  68.424  1.00  0.00    -0.131 C  
HETATM    3  H   UNL     1      -8.162  15.400  70.388  1.00  0.00     0.000 HD 
ENDROOT
BRANCH   2   4
HETATM    4  C   UNL     1      -8.843  15.036  67.205  1.00  0.00    -0.201 C  
BRANCH   4   5
HETATM    5  O   UNL     1     -10.022  15.836  67.332  1.00  0.00    -0.232 OA 
BRANCH   5   6
HETATM    6  C   UNL     1     -10.126  16.842  66.431  1.00  0.00    -0.322 C  
HETATM    7  O   UNL     1     -10.660  16.766  65.336  1.00  0.00    -0.563 OA 
BRANCH   6   8
HETATM    8  C   UNL     1      -9.806  18.134  67.098  1.00  0.00    -0.319 A  
HETATM    9  C   UNL     1      -9.273  19.137  66.271  1.00  0.00    -0.335 A  
HETATM   10  C   UNL     1      -9.098  20.434  66.753  1.00  0.00    -0.371 A  
HETATM   11  C   UNL     1      -9.450  20.740  68.065  1.00  0.00    -0.039 A  
HETATM   12  C   UNL     1      -9.954  19.747  68.906  1.00  0.00    -0.490 A  
HETATM   13  C   UNL     1     -10.125  18.445  68.427  1.00  0.00    -0.390 A  
HETATM   14  O   UNL     1     -10.605  17.490  69.280  1.00  0.00    -0.403 OA 
HETATM   15  H   UNL     1     -10.821  17.700  70.180  1.00  0.00     0.000 HD 
ENDBRANCH   6   8
ENDBRANCH   5   6
ENDBRANCH   4   5
ENDBRANCH   2   4
TORSDOF 4
ENDMDL
MODEL      131
REMARK 921   NORMALIZED FREE ENERGY PREDICTED BY IDOCK:   -3.54 KCAL/MOL
REMARK 922        TOTAL FREE ENERGY PREDICTED BY IDOCK:   -4.78 KCAL/MOL
REMARK 923 INTER-LIGAND FREE ENERGY PREDICTED BY IDOCK:   -4.39 KCAL/MOL
REMARK 924 INTRA-LIGAND FREE ENERGY PREDICTED BY IDOCK:   -0.39 KCAL/MOL
REMARK 927      BINDING AFFINITY PREDICTED BY RF-SCORE:    0.00 PKD
ROOT
HETATM    1  O   UNL     1      -9.221  11.843  65.186  1.00  0.00    -0.424 OA 
HETATM    2  C   UNL     1     -10.552  11.961  64.713  1.00  0.00    -0.299 C  
HETATM    3  H   UNL     1      -8.661  11.414  64.548  1.00  0.00     0.000 HD 
ENDROOT
BRANCH   2   4
HETATM    4  C   UNL     1     -11.451  12.649  65.738  1.00  0.00    -0.358 C  
BRANCH   4   5
HETATM    5  O   UNL     1     -11.746  11.691  66.759  1.00  0.00    -0.541 OA 
BRANCH   5   6
HETATM    6  C   UNL     1     -11.612  12.150  68.026  1.00  0.00    -0.348 C  
HETATM    7  O   UNL     1     -12.125  13.162  68.477  1.00  0.00    -0.317 OA 
BRANCH   6   8
HETATM    8  C   UNL     1     -11.035  11.075  68.879  1.00  0.00    -0.277 A  
HETATM    9  C   UNL     1      -9.639  10.931  68.827  1.00  0.00    -0.195 A  
HETATM   10  C   UNL     1      -8.980  10.074  69.709  1.00  0.00    -0.209 A  
HETATM   11  C   UNL     1      -9.711   9.351  70.648  1.00  0.00    -0.336 A  
HETATM   12  C   UNL     1     -11.101   9.462  70.692  1.00  0.00    -0.351 A  
HETATM   13  C   UNL     1     -11.764  10.316  69.805  1.00  0.00    -0.191 A  
HETATM   14  O   UNL     1     -13.128  10.391  69.862  1.00  0.00    -0.539 OA 
HETATM   15  H   UNL     1     -13.622   9.877  70.489  1.00  0.00     0.000 HD 
ENDBRANCH   6   8
ENDBRANCH   5   6
ENDBRANCH   4   5
ENDBRANCH   2   4
TORSDOF 4
ENDMDL
MODEL      132
REMARK 921   NORMALIZED FREE ENERGY PREDICTED BY IDOCK:   -3.53 KCAL/MOL
REMARK 922        TOTAL FREE ENERGY PREDICTED BY IDOCK:   -4.77 KCAL/MOL
REMARK 923 INTER-LIGAND FREE ENERGY PREDICTED BY IDOCK:   -4.39 KCAL/MOL
REMARK 924 INTRA-LIGAND FREE ENERGY PREDICTED BY IDOCK:   -0.38 KCAL/MOL
REMARK 927      BINDING AFFINITY PREDICTED BY RF-SCORE:    0.00 PKD
ROOT
HETATM    1  O   UNL     1      -9.188  10.472  63.507  1.00  0.00    -0.222 OA 
HETATM    2  C   UNL     1     -10.340  10.951  64.180  1.00  0.00    -0.364 C  
HETATM    3  H   UNL     1      -9.412  10.069  62.677  1.00  0.00     0.000 HD 
ENDROOT
BRANCH   2   4
HETATM    4  C   UNL     1      -9.979  11.600  65.515  1.00  0.00    -0.242 C  
BRANCH   4   5
HETATM    5  O   UNL     1     -10.298  12.991  65.413  1.00  0.00    -0.291 OA 
BRANCH   5   6
HETATM    6  C   UNL     1     -11.367  13.385  66.145  1.00  0.00    -0.303 C  
HETATM    7  O   UNL     1     -12.312  12.680  66.463  1.00  0.00    -0.500 OA 
BRANCH   6   8
HETATM    8  C   UNL     1     -11.067  14.692  66.791  1.00  0.00    -0.335 A  
HETATM    9  C   UNL     1     -10.306  15.594  66.028  1.00  0.00    -0.351 A  
HETATM   10  C   UNL     1     -10.112  16.905  66.465  1.00  0.00    -0.320 A  
HETATM   11  C   UNL     1     -10.673  17.324  67.669  1.00  0.00    -0.307 A  
HETATM   12  C   UNL     1     -11.406  16.430  68.450  1.00  0.00    -0.268 A  
HETATM   13  C   UNL     1     -11.597  15.115  68.018  1.00  0.00    -0.328 A  
HETATM   14  O   UNL     1     -12.306  14.258  68.813  1.00  0.00    -0.562 OA 
HETATM   15  H   UNL     1     -12.665  14.545  69.644  1.00  0.00     0.000 HD 
ENDBRANCH   6   8
ENDBRANCH   5   6
ENDBRANCH   4   5
ENDBRANCH   2   4
TORSDOF 4
ENDMDL
MODEL      133
REMARK 921   NORMALIZED FREE ENERGY PREDICTED BY IDOCK:   -3.52 KCAL/MOL
REMARK 922        TOTAL FREE ENERGY PREDICTED BY IDOCK:   -4.76 KCAL/MOL
REMARK 923 INTER-LIGAND FREE ENERGY PREDICTED BY IDOCK:   -4.47 KCAL/MOL
REMARK 924 INTRA-LIGAND FREE ENERGY PREDICTED BY IDOCK:   -0.29 KCAL/MOL
REMARK 927      BINDING AFFINITY PREDICTED BY RF-SCORE:    0.00 PKD
ROOT
HETATM    1  O   UNL     1      -8.473  19.621  67.255  1.00  0.00    -0.288 OA 
HETATM    2  C   UNL     1      -9.870  19.804  67.406  1.00  0.00    -0.391 C  
HETATM    3  H   UNL     1      -7.990  20.020  67.969  1.00  0.00     0.000 HD 
ENDROOT
BRANCH   2   4
HETATM    4  C   UNL     1     -10.646  19.161  66.258  1.00  0.00    -0.434 C  
BRANCH   4   5
HETATM    5  O   UNL     1      -9.855  18.076  65.763  1.00  0.00    -0.539 OA 
BRANCH   5   6
HETATM    6  C   UNL     1     -10.540  16.930  65.534  1.00  0.00    -0.202 C  
HETATM    7  O   UNL     1     -11.218  16.689  64.548  1.00  0.00    -0.909 OA 
BRANCH   6   8
HETATM    8  C   UNL     1     -10.076  15.883  66.485  1.00  0.00    -0.293 A  
HETATM    9  C   UNL     1      -8.734  15.487  66.356  1.00  0.00    -0.333 A  
HETATM   10  C   UNL     1      -8.150  14.642  67.300  1.00  0.00    -0.230 A  
HETATM   11  C   UNL     1      -8.901  14.182  68.378  1.00  0.00    -0.187 A  
HETATM   12  C   UNL     1     -10.244  14.544  68.502  1.00  0.00    -0.240 A  
HETATM   13  C   UNL     1     -10.833  15.386  67.555  1.00  0.00    -0.305 A  
HETATM   14  O   UNL     1     -12.153  15.710  67.695  1.00  0.00    -0.117 OA 
HETATM   15  H   UNL     1     -12.666  15.373  68.420  1.00  0.00     0.000 HD 
ENDBRANCH   6   8
ENDBRANCH   5   6
ENDBRANCH   4   5
ENDBRANCH   2   4
TORSDOF 4
ENDMDL
MODEL      134
REMARK 921   NORMALIZED FREE ENERGY PREDICTED BY IDOCK:   -3.50 KCAL/MOL
REMARK 922        TOTAL FREE ENERGY PREDICTED BY IDOCK:   -4.72 KCAL/MOL
REMARK 923 INTER-LIGAND FREE ENERGY PREDICTED BY IDOCK:   -4.26 KCAL/MOL
REMARK 924 INTRA-LIGAND FREE ENERGY PREDICTED BY IDOCK:   -0.46 KCAL/MOL
REMARK 927      BINDING AFFINITY PREDICTED BY RF-SCORE:    0.00 PKD
ROOT
HETATM    1  O   UNL     1      -8.675  10.131  69.918  1.00  0.00    -0.322 OA 
HETATM    2  C   UNL     1      -9.759  10.537  69.100  1.00  0.00    -0.211 C  
HETATM    3  H   UNL     1      -7.849  10.474  69.598  1.00  0.00     0.000 HD 
ENDROOT
BRANCH   2   4
HETATM    4  C   UNL     1     -11.087   9.986  69.615  1.00  0.00    -0.259 C  
BRANCH   4   5
HETATM    5  O   UNL     1     -11.205  10.371  70.989  1.00  0.00    -0.266 OA 
BRANCH   5   6
HETATM    6  C   UNL     1     -12.231   9.791  71.656  1.00  0.00    -0.404 C  
HETATM    7  O   UNL     1     -13.367  10.229  71.737  1.00  0.00    -0.401 OA 
BRANCH   6   8
HETATM    8  C   UNL     1     -11.870   8.385  71.985  1.00  0.00    -0.417 A  
HETATM    9  C   UNL     1     -10.749   8.215  72.814  1.00  0.00    -0.391 A  
HETATM   10  C   UNL     1     -10.425   6.957  73.322  1.00  0.00    -0.340 A  
HETATM   11  C   UNL     1     -11.216   5.856  73.003  1.00  0.00    -0.258 A  
HETATM   12  C   UNL     1     -12.316   6.005  72.157  1.00  0.00    -0.034 A  
HETATM   13  C   UNL     1     -12.639   7.264  71.642  1.00  0.00    -0.368 A  
HETATM   14  O   UNL     1     -13.712   7.374  70.803  1.00  0.00    -0.592 OA 
HETATM   15  H   UNL     1     -14.233   6.615  70.571  1.00  0.00     0.000 HD 
ENDBRANCH   6   8
ENDBRANCH   5   6
ENDBRANCH   4   5
ENDBRANCH   2   4
TORSDOF 4
ENDMDL
MODEL      135
REMARK 921   NORMALIZED FREE ENERGY PREDICTED BY IDOCK:   -3.49 KCAL/MOL
REMARK 922        TOTAL FREE ENERGY PREDICTED BY IDOCK:   -4.71 KCAL/MOL
REMARK 923 INTER-LIGAND FREE ENERGY PREDICTED BY IDOCK:   -4.35 KCAL/MOL
REMARK 924 INTRA-LIGAND FREE ENERGY PREDICTED BY IDOCK:   -0.37 KCAL/MOL
REMARK 927      BINDING AFFINITY PREDICTED BY RF-SCORE:    0.00 PKD
ROOT
HETATM    1  O   UNL     1      -6.969  19.159  68.463  1.00  0.00    -0.260 OA 
HETATM    2  C   UNL     1      -7.147  17.959  67.730  1.00  0.00    -0.204 C  
HETATM    3  H   UNL     1      -6.198  19.118  69.017  1.00  0.00     0.000 HD 
ENDROOT
BRANCH   2   4
HETATM    4  C   UNL     1      -8.386  18.025  66.839  1.00  0.00    -0.247 C  
BRANCH   4   5
HETATM    5  O   UNL     1      -9.024  16.745  66.899  1.00  0.00    -0.205 OA 
BRANCH   5   6
HETATM    6  C   UNL     1     -10.133  16.626  66.130  1.00  0.00    -0.345 C  
HETATM    7  O   UNL     1     -10.413  17.326  65.170  1.00  0.00    -0.656 OA 
BRANCH   6   8
HETATM    8  C   UNL     1     -10.784  15.317  66.408  1.00  0.00    -0.318 A  
HETATM    9  C   UNL     1     -10.850  14.421  65.327  1.00  0.00    -0.370 A  
HETATM   10  C   UNL     1     -11.283  13.109  65.518  1.00  0.00    -0.305 A  
HETATM   11  C   UNL     1     -11.657  12.681  66.789  1.00  0.00    -0.438 A  
HETATM   12  C   UNL     1     -11.623  13.567  67.866  1.00  0.00    -0.377 A  
HETATM   13  C   UNL     1     -11.195  14.885  67.676  1.00  0.00    -0.323 A  
HETATM   14  O   UNL     1     -11.189  15.734  68.747  1.00  0.00    -0.297 OA 
HETATM   15  H   UNL     1     -11.468  15.441  69.606  1.00  0.00     0.000 HD 
ENDBRANCH   6   8
ENDBRANCH   5   6
ENDBRANCH   4   5
ENDBRANCH   2   4
TORSDOF 4
ENDMDL
MODEL      136
REMARK 921   NORMALIZED FREE ENERGY PREDICTED BY IDOCK:   -3.47 KCAL/MOL
REMARK 922        TOTAL FREE ENERGY PREDICTED BY IDOCK:   -4.69 KCAL/MOL
REMARK 923 INTER-LIGAND FREE ENERGY PREDICTED BY IDOCK:   -4.29 KCAL/MOL
REMARK 924 INTRA-LIGAND FREE ENERGY PREDICTED BY IDOCK:   -0.40 KCAL/MOL
REMARK 927      BINDING AFFINITY PREDICTED BY RF-SCORE:    0.00 PKD
ROOT
HETATM    1  O   UNL     1      -9.757   8.949  71.181  1.00  0.00    -0.223 OA 
HETATM    2  C   UNL     1     -11.091   8.502  71.011  1.00  0.00    -0.260 C  
HETATM    3  H   UNL     1      -9.136   8.234  71.090  1.00  0.00     0.000 HD 
ENDROOT
BRANCH   2   4
HETATM    4  C   UNL     1     -12.088   9.650  71.157  1.00  0.00    -0.362 C  
BRANCH   4   5
HETATM    5  O   UNL     1     -11.570  10.762  70.419  1.00  0.00    -0.304 OA 
BRANCH   5   6
HETATM    6  C   UNL     1     -12.295  11.901  70.522  1.00  0.00    -0.284 C  
HETATM    7  O   UNL     1     -12.974  12.230  71.482  1.00  0.00    -0.386 OA 
BRANCH   6   8
HETATM    8  C   UNL     1     -11.877  12.847  69.452  1.00  0.00    -0.371 A  
HETATM    9  C   UNL     1     -11.806  12.316  68.154  1.00  0.00    -0.372 A  
HETATM   10  C   UNL     1     -11.592  13.149  67.056  1.00  0.00    -0.408 A  
HETATM   11  C   UNL     1     -11.445  14.521  67.246  1.00  0.00    -0.381 A  
HETATM   12  C   UNL     1     -11.484  15.059  68.533  1.00  0.00    -0.335 A  
HETATM   13  C   UNL     1     -11.692  14.225  69.635  1.00  0.00    -0.308 A  
HETATM   14  O   UNL     1     -11.710  14.780  70.884  1.00  0.00    -0.297 OA 
HETATM   15  H   UNL     1     -11.585  15.713  71.008  1.00  0.00     0.000 HD 
ENDBRANCH   6   8
ENDBRANCH   5   6
ENDBRANCH   4   5
ENDBRANCH   2   4
TORSDOF 4
ENDMDL
MODEL      137
REMARK 921   NORMALIZED FREE ENERGY PREDICTED BY IDOCK:   -3.47 KCAL/MOL
REMARK 922        TOTAL FREE ENERGY PREDICTED BY IDOCK:   -4.69 KCAL/MOL
REMARK 923 INTER-LIGAND FREE ENERGY PREDICTED BY IDOCK:   -4.25 KCAL/MOL
REMARK 924 INTRA-LIGAND FREE ENERGY PREDICTED BY IDOCK:   -0.44 KCAL/MOL
REMARK 927      BINDING AFFINITY PREDICTED BY RF-SCORE:    0.00 PKD
ROOT
HETATM    1  O   UNL     1      -8.903   4.038  71.285  1.00  0.00    -0.094 OA 
HETATM    2  C   UNL     1     -10.041   4.876  71.382  1.00  0.00    -0.198 C  
HETATM    3  H   UNL     1      -8.656   3.889  70.379  1.00  0.00     0.000 HD 
ENDROOT
BRANCH   2   4
HETATM    4  C   UNL     1     -10.436   5.116  72.838  1.00  0.00    -0.211 C  
BRANCH   4   5
HETATM    5  O   UNL     1     -11.366   6.204  72.854  1.00  0.00    -0.242 OA 
BRANCH   5   6
HETATM    6  C   UNL     1     -10.820   7.416  73.113  1.00  0.00    -0.386 C  
HETATM    7  O   UNL     1      -9.824   7.620  73.790  1.00  0.00    -0.286 OA 
BRANCH   6   8
HETATM    8  C   UNL     1     -11.397   8.424  72.183  1.00  0.00    -0.437 A  
HETATM    9  C   UNL     1     -12.776   8.663  72.314  1.00  0.00    -0.450 A  
HETATM   10  C   UNL     1     -13.385   9.704  71.614  1.00  0.00    -0.485 A  
HETATM   11  C   UNL     1     -12.625  10.514  70.775  1.00  0.00    -0.474 A  
HETATM   12  C   UNL     1     -11.260  10.270  70.613  1.00  0.00    -0.406 A  
HETATM   13  C   UNL     1     -10.648   9.223  71.309  1.00  0.00    -0.347 A  
HETATM   14  O   UNL     1      -9.313   9.000  71.117  1.00  0.00    -0.235 OA 
HETATM   15  H   UNL     1      -8.805   9.542  70.525  1.00  0.00     0.000 HD 
ENDBRANCH   6   8
ENDBRANCH   5   6
ENDBRANCH   4   5
ENDBRANCH   2   4
TORSDOF 4
ENDMDL
MODEL      138
REMARK 921   NORMALIZED FREE ENERGY PREDICTED BY IDOCK:   -3.46 KCAL/MOL
REMARK 922        TOTAL FREE ENERGY PREDICTED BY IDOCK:   -4.68 KCAL/MOL
REMARK 923 INTER-LIGAND FREE ENERGY PREDICTED BY IDOCK:   -4.26 KCAL/MOL
REMARK 924 INTRA-LIGAND FREE ENERGY PREDICTED BY IDOCK:   -0.42 KCAL/MOL
REMARK 927      BINDING AFFINITY PREDICTED BY RF-SCORE:    0.00 PKD
ROOT
HETATM    1  O   UNL     1     -11.765  15.855  63.930  1.00  0.00    -1.111 OA 
HETATM    2  C   UNL     1     -12.192  14.610  64.456  1.00  0.00    -0.456 C  
HETATM    3  H   UNL     1     -11.813  15.867  62.981  1.00  0.00     0.000 HD 
ENDROOT
BRANCH   2   4
HETATM    4  C   UNL     1     -12.115  14.591  65.982  1.00  0.00    -0.287 C  
BRANCH   4   5
HETATM    5  O   UNL     1     -10.833  15.109  66.351  1.00  0.00    -0.319 OA 
BRANCH   5   6
HETATM    6  C   UNL     1     -10.820  15.837  67.493  1.00  0.00    -0.315 C  
HETATM    7  O   UNL     1     -11.746  15.941  68.283  1.00  0.00    -0.327 OA 
BRANCH   6   8
HETATM    8  C   UNL     1      -9.418  16.211  67.821  1.00  0.00    -0.217 A  
HETATM    9  C   UNL     1      -9.176  17.582  68.014  1.00  0.00    -0.275 A  
HETATM   10  C   UNL     1      -7.943  18.025  68.491  1.00  0.00    -0.310 A  
HETATM   11  C   UNL     1      -6.938  17.104  68.776  1.00  0.00    -0.217 A  
HETATM   12  C   UNL     1      -7.154  15.742  68.561  1.00  0.00    -0.118 A  
HETATM   13  C   UNL     1      -8.388  15.296  68.078  1.00  0.00    -0.146 A  
HETATM   14  O   UNL     1      -8.564  13.958  67.863  1.00  0.00    -0.159 OA 
HETATM   15  H   UNL     1      -7.866  13.337  68.037  1.00  0.00     0.000 HD 
ENDBRANCH   6   8
ENDBRANCH   5   6
ENDBRANCH   4   5
ENDBRANCH   2   4
TORSDOF 4
ENDMDL
MODEL      139
REMARK 921   NORMALIZED FREE ENERGY PREDICTED BY IDOCK:   -3.45 KCAL/MOL
REMARK 922        TOTAL FREE ENERGY PREDICTED BY IDOCK:   -4.67 KCAL/MOL
REMARK 923 INTER-LIGAND FREE ENERGY PREDICTED BY IDOCK:   -4.26 KCAL/MOL
REMARK 924 INTRA-LIGAND FREE ENERGY PREDICTED BY IDOCK:   -0.41 KCAL/MOL
REMARK 927      BINDING AFFINITY PREDICTED BY RF-SCORE:    0.00 PKD
ROOT
HETATM    1  O   UNL     1      -7.633   9.068  67.773  1.00  0.00    -0.091 OA 
HETATM    2  C   UNL     1      -7.779   8.489  69.058  1.00  0.00    -0.096 C  
HETATM    3  H   UNL     1      -6.933   9.710  67.758  1.00  0.00     0.000 HD 
ENDROOT
BRANCH   2   4
HETATM    4  C   UNL     1      -8.905   7.456  69.082  1.00  0.00    -0.136 C  
BRANCH   4   5
HETATM    5  O   UNL     1      -9.644   7.658  70.290  1.00  0.00    -0.171 OA 
BRANCH   5   6
HETATM    6  C   UNL     1     -10.982   7.487  70.173  1.00  0.00    -0.254 C  
HETATM    7  O   UNL     1     -11.543   6.458  69.832  1.00  0.00    -0.429 OA 
BRANCH   6   8
HETATM    8  C   UNL     1     -11.682   8.617  70.844  1.00  0.00    -0.287 A  
HETATM    9  C   UNL     1     -11.344   9.904  70.393  1.00  0.00    -0.376 A  
HETATM   10  C   UNL     1     -12.059  11.020  70.829  1.00  0.00    -0.467 A  
HETATM   11  C   UNL     1     -13.115  10.860  71.723  1.00  0.00    -0.564 A  
HETATM   12  C   UNL     1     -13.443   9.591  72.201  1.00  0.00    -0.535 A  
HETATM   13  C   UNL     1     -12.724   8.472  71.770  1.00  0.00    -0.349 A  
HETATM   14  O   UNL     1     -13.059   7.244  72.269  1.00  0.00    -0.507 OA 
HETATM   15  H   UNL     1     -13.765   7.146  72.896  1.00  0.00     0.000 HD 
ENDBRANCH   6   8
ENDBRANCH   5   6
ENDBRANCH   4   5
ENDBRANCH   2   4
TORSDOF 4
ENDMDL
MODEL      140
REMARK 921   NORMALIZED FREE ENERGY PREDICTED BY IDOCK:   -3.44 KCAL/MOL
REMARK 922        TOTAL FREE ENERGY PREDICTED BY IDOCK:   -4.66 KCAL/MOL
REMARK 923 INTER-LIGAND FREE ENERGY PREDICTED BY IDOCK:   -4.12 KCAL/MOL
REMARK 924 INTRA-LIGAND FREE ENERGY PREDICTED BY IDOCK:   -0.55 KCAL/MOL
REMARK 927      BINDING AFFINITY PREDICTED BY RF-SCORE:    0.00 PKD
ROOT
HETATM    1  O   UNL     1      -8.687  11.931  69.127  1.00  0.00    -0.346 OA 
HETATM    2  C   UNL     1      -8.516  12.684  67.938  1.00  0.00    -0.173 C  
HETATM    3  H   UNL     1      -8.144  12.265  69.832  1.00  0.00     0.000 HD 
ENDROOT
BRANCH   2   4
HETATM    4  C   UNL     1      -9.389  12.147  66.806  1.00  0.00    -0.212 C  
BRANCH   4   5
HETATM    5  O   UNL     1     -10.723  12.033  67.312  1.00  0.00    -0.219 OA 
BRANCH   5   6
HETATM    6  C   UNL     1     -11.485  13.143  67.162  1.00  0.00    -0.334 C  
HETATM    7  O   UNL     1     -12.139  13.431  66.172  1.00  0.00    -0.399 OA 
BRANCH   6   8
HETATM    8  C   UNL     1     -11.685  13.784  68.490  1.00  0.00    -0.391 A  
HETATM    9  C   UNL     1     -11.725  15.189  68.495  1.00  0.00    -0.347 A  
HETATM   10  C   UNL     1     -12.077  15.884  69.652  1.00  0.00    -0.216 A  
HETATM   11  C   UNL     1     -12.387  15.184  70.814  1.00  0.00    -0.415 A  
HETATM   12  C   UNL     1     -12.323  13.790  70.832  1.00  0.00    -0.456 A  
HETATM   13  C   UNL     1     -11.966  13.091  69.676  1.00  0.00    -0.302 A  
HETATM   14  O   UNL     1     -11.896  11.727  69.729  1.00  0.00    -0.308 OA 
HETATM   15  H   UNL     1     -12.086  11.257  70.532  1.00  0.00     0.000 HD 
ENDBRANCH   6   8
ENDBRANCH   5   6
ENDBRANCH   4   5
ENDBRANCH   2   4
TORSDOF 4
ENDMDL
MODEL      141
REMARK 921   NORMALIZED FREE ENERGY PREDICTED BY IDOCK:   -3.43 KCAL/MOL
REMARK 922        TOTAL FREE ENERGY PREDICTED BY IDOCK:   -4.65 KCAL/MOL
REMARK 923 INTER-LIGAND FREE ENERGY PREDICTED BY IDOCK:   -4.23 KCAL/MOL
REMARK 924 INTRA-LIGAND FREE ENERGY PREDICTED BY IDOCK:   -0.42 KCAL/MOL
REMARK 927      BINDING AFFINITY PREDICTED BY RF-SCORE:    0.00 PKD
ROOT
HETATM    1  O   UNL     1     -11.561  13.284  70.288  1.00  0.00    -0.514 OA 
HETATM    2  C   UNL     1     -12.040  13.832  69.072  1.00  0.00    -0.322 C  
HETATM    3  H   UNL     1     -11.753  13.852  71.025  1.00  0.00     0.000 HD 
ENDROOT
BRANCH   2   4
HETATM    4  C   UNL     1     -11.732  12.918  67.887  1.00  0.00    -0.357 C  
BRANCH   4   5
HETATM    5  O   UNL     1     -11.951  11.571  68.318  1.00  0.00    -0.544 OA 
BRANCH   5   6
HETATM    6  C   UNL     1     -11.175  10.645  67.707  1.00  0.00    -0.313 C  
HETATM    7  O   UNL     1     -10.657  10.761  66.607  1.00  0.00    -0.245 OA 
BRANCH   6   8
HETATM    8  C   UNL     1     -10.762   9.618  68.702  1.00  0.00    -0.233 A  
HETATM    9  C   UNL     1     -10.492  10.090  69.998  1.00  0.00    -0.337 A  
HETATM   10  C   UNL     1     -10.264   9.197  71.045  1.00  0.00    -0.372 A  
HETATM   11  C   UNL     1     -10.301   7.826  70.808  1.00  0.00    -0.206 A  
HETATM   12  C   UNL     1     -10.539   7.344  69.520  1.00  0.00    -0.244 A  
HETATM   13  C   UNL     1     -10.762   8.236  68.467  1.00  0.00    -0.017 A  
HETATM   14  O   UNL     1     -10.977   7.733  67.215  1.00  0.00    -0.525 OA 
HETATM   15  H   UNL     1     -10.977   6.797  67.055  1.00  0.00     0.000 HD 
ENDBRANCH   6   8
ENDBRANCH   5   6
ENDBRANCH   4   5
ENDBRANCH   2   4
TORSDOF 4
ENDMDL
MODEL      142
REMARK 921   NORMALIZED FREE ENERGY PREDICTED BY IDOCK:   -3.43 KCAL/MOL
REMARK 922        TOTAL FREE ENERGY PREDICTED BY IDOCK:   -4.65 KCAL/MOL
REMARK 923 INTER-LIGAND FREE ENERGY PREDICTED BY IDOCK:   -4.24 KCAL/MOL
REMARK 924 INTRA-LIGAND FREE ENERGY PREDICTED BY IDOCK:   -0.41 KCAL/MOL
REMARK 927      BINDING AFFINITY PREDICTED BY RF-SCORE:    0.00 PKD
ROOT
HETATM    1  O   UNL     1     -11.444   6.767  67.438  1.00  0.00    -0.723 OA 
HETATM    2  C   UNL     1     -10.464   7.688  66.991  1.00  0.00    -0.349 C  
HETATM    3  H   UNL     1     -11.548   6.046  66.829  1.00  0.00     0.000 HD 
ENDROOT
BRANCH   2   4
HETATM    4  C   UNL     1     -10.298   8.848  67.971  1.00  0.00    -0.219 C  
BRANCH   4   5
HETATM    5  O   UNL     1     -10.794  10.026  67.327  1.00  0.00    -0.270 OA 
BRANCH   5   6
HETATM    6  C   UNL     1      -9.869  10.994  67.123  1.00  0.00    -0.184 C  
HETATM    7  O   UNL     1      -8.793  10.847  66.565  1.00  0.00    -0.153 OA 
BRANCH   6   8
HETATM    8  C   UNL     1     -10.491  12.325  67.365  1.00  0.00    -0.228 A  
HETATM    9  C   UNL     1     -11.162  12.476  68.590  1.00  0.00    -0.319 A  
HETATM   10  C   UNL     1     -11.631  13.727  68.992  1.00  0.00    -0.356 A  
HETATM   11  C   UNL     1     -11.437  14.836  68.174  1.00  0.00    -0.343 A  
HETATM   12  C   UNL     1     -10.798  14.695  66.942  1.00  0.00    -0.305 A  
HETATM   13  C   UNL     1     -10.332  13.442  66.533  1.00  0.00    -0.284 A  
HETATM   14  O   UNL     1      -9.724  13.333  65.314  1.00  0.00    -0.505 OA 
HETATM   15  H   UNL     1      -9.616  14.090  64.751  1.00  0.00     0.000 HD 
ENDBRANCH   6   8
ENDBRANCH   5   6
ENDBRANCH   4   5
ENDBRANCH   2   4
TORSDOF 4
ENDMDL
MODEL      143
REMARK 921   NORMALIZED FREE ENERGY PREDICTED BY IDOCK:   -3.40 KCAL/MOL
REMARK 922        TOTAL FREE ENERGY PREDICTED BY IDOCK:   -4.61 KCAL/MOL
REMARK 923 INTER-LIGAND FREE ENERGY PREDICTED BY IDOCK:   -4.13 KCAL/MOL
REMARK 924 INTRA-LIGAND FREE ENERGY PREDICTED BY IDOCK:   -0.47 KCAL/MOL
REMARK 927      BINDING AFFINITY PREDICTED BY RF-SCORE:    0.00 PKD
ROOT
HETATM    1  O   UNL     1      -6.269   6.997  71.681  1.00  0.00    -0.037 OA 
HETATM    2  C   UNL     1      -7.416   6.182  71.511  1.00  0.00    -0.094 C  
HETATM    3  H   UNL     1      -5.707   6.669  72.374  1.00  0.00     0.000 HD 
ENDROOT
BRANCH   2   4
HETATM    4  C   UNL     1      -8.318   6.711  70.398  1.00  0.00    -0.127 C  
BRANCH   4   5
HETATM    5  O   UNL     1      -9.491   7.248  71.017  1.00  0.00    -0.159 OA 
BRANCH   5   6
HETATM    6  C   UNL     1      -9.402   8.552  71.369  1.00  0.00    -0.211 C  
HETATM    7  O   UNL     1      -8.398   9.244  71.296  1.00  0.00    -0.317 OA 
BRANCH   6   8
HETATM    8  C   UNL     1     -10.771   9.112  71.534  1.00  0.00    -0.437 A  
HETATM    9  C   UNL     1     -11.123  10.146  70.651  1.00  0.00    -0.397 A  
HETATM   10  C   UNL     1     -12.433  10.624  70.603  1.00  0.00    -0.462 A  
HETATM   11  C   UNL     1     -13.402  10.075  71.439  1.00  0.00    -0.432 A  
HETATM   12  C   UNL     1     -13.060   9.067  72.341  1.00  0.00    -0.487 A  
HETATM   13  C   UNL     1     -11.747   8.590  72.395  1.00  0.00    -0.358 A  
HETATM   14  O   UNL     1     -11.439   7.614  73.301  1.00  0.00    -0.617 OA 
HETATM   15  H   UNL     1     -12.100   7.260  73.884  1.00  0.00     0.000 HD 
ENDBRANCH   6   8
ENDBRANCH   5   6
ENDBRANCH   4   5
ENDBRANCH   2   4
TORSDOF 4
ENDMDL
MODEL      144
REMARK 921   NORMALIZED FREE ENERGY PREDICTED BY IDOCK:   -3.39 KCAL/MOL
REMARK 922        TOTAL FREE ENERGY PREDICTED BY IDOCK:   -4.60 KCAL/MOL
REMARK 923 INTER-LIGAND FREE ENERGY PREDICTED BY IDOCK:   -4.15 KCAL/MOL
REMARK 924 INTRA-LIGAND FREE ENERGY PREDICTED BY IDOCK:   -0.45 KCAL/MOL
REMARK 927      BINDING AFFINITY PREDICTED BY RF-SCORE:    0.00 PKD
ROOT
HETATM    1  O   UNL     1     -11.120   8.904  68.099  1.00  0.00    -0.472 OA 
HETATM    2  C   UNL     1     -10.780   8.329  66.849  1.00  0.00    -0.109 C  
HETATM    3  H   UNL     1     -11.927   8.537  68.443  1.00  0.00     0.000 HD 
ENDROOT
BRANCH   2   4
HETATM    4  C   UNL     1      -9.483   8.919  66.296  1.00  0.00    -0.239 C  
BRANCH   4   5
HETATM    5  O   UNL     1      -9.837  10.048  65.491  1.00  0.00    -0.268 OA 
BRANCH   5   6
HETATM    6  C   UNL     1      -9.340  11.232  65.921  1.00  0.00    -0.219 C  
HETATM    7  O   UNL     1      -8.189  11.436  66.276  1.00  0.00    -0.160 OA 
BRANCH   6   8
HETATM    8  C   UNL     1     -10.295  12.320  65.577  1.00  0.00    -0.296 A  
HETATM    9  C   UNL     1     -11.507  11.912  64.994  1.00  0.00    -0.306 A  
HETATM   10  C   UNL     1     -12.539  12.828  64.789  1.00  0.00    -0.518 A  
HETATM   11  C   UNL     1     -12.370  14.159  65.162  1.00  0.00    -0.460 A  
HETATM   12  C   UNL     1     -11.161  14.583  65.716  1.00  0.00    -0.334 A  
HETATM   13  C   UNL     1     -10.123  13.669  65.917  1.00  0.00    -0.310 A  
HETATM   14  O   UNL     1      -8.946  14.118  66.446  1.00  0.00    -0.455 OA 
HETATM   15  H   UNL     1      -8.829  15.032  66.677  1.00  0.00     0.000 HD 
ENDBRANCH   6   8
ENDBRANCH   5   6
ENDBRANCH   4   5
ENDBRANCH   2   4
TORSDOF 4
ENDMDL
MODEL      145
REMARK 921   NORMALIZED FREE ENERGY PREDICTED BY IDOCK:   -3.39 KCAL/MOL
REMARK 922        TOTAL FREE ENERGY PREDICTED BY IDOCK:   -4.60 KCAL/MOL
REMARK 923 INTER-LIGAND FREE ENERGY PREDICTED BY IDOCK:   -4.22 KCAL/MOL
REMARK 924 INTRA-LIGAND FREE ENERGY PREDICTED BY IDOCK:   -0.38 KCAL/MOL
REMARK 927      BINDING AFFINITY PREDICTED BY RF-SCORE:    0.00 PKD
ROOT
HETATM    1  O   UNL     1     -11.866  14.224  64.153  1.00  0.00    -0.591 OA 
HETATM    2  C   UNL     1     -10.569  13.796  64.532  1.00  0.00    -0.386 C  
HETATM    3  H   UNL     1     -12.254  13.637  63.514  1.00  0.00     0.000 HD 
ENDROOT
BRANCH   2   4
HETATM    4  C   UNL     1      -9.946  14.740  65.559  1.00  0.00    -0.356 C  
BRANCH   4   5
HETATM    5  O   UNL     1     -10.720  14.636  66.758  1.00  0.00    -0.291 OA 
BRANCH   5   6
HETATM    6  C   UNL     1     -10.008  14.342  67.872  1.00  0.00    -0.228 C  
HETATM    7  O   UNL     1      -9.249  15.102  68.454  1.00  0.00    -0.179 OA 
BRANCH   6   8
HETATM    8  C   UNL     1     -10.537  13.090  68.478  1.00  0.00    -0.274 A  
HETATM    9  C   UNL     1      -9.684  11.975  68.428  1.00  0.00    -0.199 A  
HETATM   10  C   UNL     1     -10.007  10.803  69.113  1.00  0.00    -0.206 A  
HETATM   11  C   UNL     1     -11.186  10.734  69.850  1.00  0.00    -0.371 A  
HETATM   12  C   UNL     1     -12.057  11.824  69.884  1.00  0.00    -0.359 A  
HETATM   13  C   UNL     1     -11.738  12.997  69.194  1.00  0.00    -0.326 A  
HETATM   14  O   UNL     1     -12.619  14.042  69.234  1.00  0.00    -0.448 OA 
HETATM   15  H   UNL     1     -13.432  13.979  69.720  1.00  0.00     0.000 HD 
ENDBRANCH   6   8
ENDBRANCH   5   6
ENDBRANCH   4   5
ENDBRANCH   2   4
TORSDOF 4
ENDMDL
MODEL      146
REMARK 921   NORMALIZED FREE ENERGY PREDICTED BY IDOCK:   -3.37 KCAL/MOL
REMARK 922        TOTAL FREE ENERGY PREDICTED BY IDOCK:   -4.56 KCAL/MOL
REMARK 923 INTER-LIGAND FREE ENERGY PREDICTED BY IDOCK:   -4.36 KCAL/MOL
REMARK 924 INTRA-LIGAND FREE ENERGY PREDICTED BY IDOCK:   -0.20 KCAL/MOL
REMARK 927      BINDING AFFINITY PREDICTED BY RF-SCORE:    0.00 PKD
ROOT
HETATM    1  O   UNL     1      -6.551  16.674  69.892  1.00  0.00    -0.160 OA 
HETATM    2  C   UNL     1      -7.420  15.747  69.265  1.00  0.00    -0.220 C  
HETATM    3  H   UNL     1      -5.683  16.308  70.017  1.00  0.00     0.000 HD 
ENDROOT
BRANCH   2   4
HETATM    4  C   UNL     1      -8.815  16.336  69.063  1.00  0.00    -0.243 C  
BRANCH   4   5
HETATM    5  O   UNL     1      -9.760  15.287  69.298  1.00  0.00    -0.230 OA 
BRANCH   5   6
HETATM    6  C   UNL     1     -11.058  15.670  69.252  1.00  0.00    -0.293 C  
HETATM    7  O   UNL     1     -11.584  16.301  68.348  1.00  0.00    -0.327 OA 
BRANCH   6   8
HETATM    8  C   UNL     1     -11.827  14.925  70.285  1.00  0.00    -0.358 A  
HETATM    9  C   UNL     1     -12.150  13.594  69.971  1.00  0.00    -0.417 A  
HETATM   10  C   UNL     1     -12.717  12.755  70.931  1.00  0.00    -0.277 A  
HETATM   11  C   UNL     1     -12.968  13.239  72.212  1.00  0.00    -0.376 A  
HETATM   12  C   UNL     1     -12.679  14.567  72.530  1.00  0.00    -0.433 A  
HETATM   13  C   UNL     1     -12.117  15.411  71.568  1.00  0.00    -0.371 A  
HETATM   14  O   UNL     1     -11.860  16.711  71.904  1.00  0.00    -0.654 OA 
HETATM   15  H   UNL     1     -12.056  17.040  72.773  1.00  0.00     0.000 HD 
ENDBRANCH   6   8
ENDBRANCH   5   6
ENDBRANCH   4   5
ENDBRANCH   2   4
TORSDOF 4
ENDMDL
MODEL      147
REMARK 921   NORMALIZED FREE ENERGY PREDICTED BY IDOCK:   -3.35 KCAL/MOL
REMARK 922        TOTAL FREE ENERGY PREDICTED BY IDOCK:   -4.55 KCAL/MOL
REMARK 923 INTER-LIGAND FREE ENERGY PREDICTED BY IDOCK:   -4.09 KCAL/MOL
REMARK 924 INTRA-LIGAND FREE ENERGY PREDICTED BY IDOCK:   -0.46 KCAL/MOL
REMARK 927      BINDING AFFINITY PREDICTED BY RF-SCORE:    0.00 PKD
ROOT
HETATM    1  O   UNL     1     -14.019  15.519  70.936  1.00  0.00    -0.847 OA 
HETATM    2  C   UNL     1     -13.005  15.320  71.906  1.00  0.00    -0.384 C  
HETATM    3  H   UNL     1     -14.807  15.881  71.324  1.00  0.00     0.000 HD 
ENDROOT
BRANCH   2   4
HETATM    4  C   UNL     1     -11.739  14.738  71.281  1.00  0.00    -0.303 C  
BRANCH   4   5
HETATM    5  O   UNL     1     -10.968  15.834  70.778  1.00  0.00    -0.326 OA 
BRANCH   5   6
HETATM    6  C   UNL     1     -11.012  15.991  69.433  1.00  0.00    -0.321 C  
HETATM    7  O   UNL     1     -12.019  16.188  68.771  1.00  0.00    -0.286 OA 
BRANCH   6   8
HETATM    8  C   UNL     1      -9.636  16.232  68.921  1.00  0.00    -0.243 A  
HETATM    9  C   UNL     1      -9.273  17.577  68.740  1.00  0.00    -0.227 A  
HETATM   10  C   UNL     1      -7.958  17.922  68.429  1.00  0.00    -0.300 A  
HETATM   11  C   UNL     1      -6.994  16.927  68.293  1.00  0.00    -0.170 A  
HETATM   12  C   UNL     1      -7.346  15.585  68.442  1.00  0.00    -0.115 A  
HETATM   13  C   UNL     1      -8.664  15.236  68.748  1.00  0.00    -0.195 A  
HETATM   14  O   UNL     1      -8.981  13.912  68.871  1.00  0.00    -0.374 OA 
HETATM   15  H   UNL     1      -8.324  13.238  68.754  1.00  0.00     0.000 HD 
ENDBRANCH   6   8
ENDBRANCH   5   6
ENDBRANCH   4   5
ENDBRANCH   2   4
TORSDOF 4
ENDMDL
MODEL      148
REMARK 921   NORMALIZED FREE ENERGY PREDICTED BY IDOCK:   -3.33 KCAL/MOL
REMARK 922        TOTAL FREE ENERGY PREDICTED BY IDOCK:   -4.52 KCAL/MOL
REMARK 923 INTER-LIGAND FREE ENERGY PREDICTED BY IDOCK:   -4.08 KCAL/MOL
REMARK 924 INTRA-LIGAND FREE ENERGY PREDICTED BY IDOCK:   -0.44 KCAL/MOL
REMARK 927      BINDING AFFINITY PREDICTED BY RF-SCORE:    0.00 PKD
ROOT
HETATM    1  O   UNL     1      -6.794  13.858  70.382  1.00  0.00    -0.385 OA 
HETATM    2  C   UNL     1      -6.610  13.657  68.992  1.00  0.00    -0.109 C  
HETATM    3  H   UNL     1      -6.235  13.285  70.894  1.00  0.00     0.000 HD 
ENDROOT
BRANCH   2   4
HETATM    4  C   UNL     1      -7.508  14.578  68.169  1.00  0.00    -0.126 C  
BRANCH   4   5
HETATM    5  O   UNL     1      -8.862  14.296  68.538  1.00  0.00    -0.179 OA 
BRANCH   5   6
HETATM    6  C   UNL     1      -9.740  15.295  68.287  1.00  0.00    -0.210 C  
HETATM    7  O   UNL     1      -9.801  16.359  68.884  1.00  0.00    -0.238 OA 
BRANCH   6   8
HETATM    8  C   UNL     1     -10.390  15.058  66.969  1.00  0.00    -0.269 A  
HETATM    9  C   UNL     1     -11.341  14.024  66.929  1.00  0.00    -0.343 A  
HETATM   10  C   UNL     1     -12.130  13.830  65.796  1.00  0.00    -0.458 A  
HETATM   11  C   UNL     1     -11.974  14.663  64.691  1.00  0.00    -0.472 A  
HETATM   12  C   UNL     1     -11.014  15.675  64.706  1.00  0.00    -0.418 A  
HETATM   13  C   UNL     1     -10.218  15.869  65.839  1.00  0.00    -0.352 A  
HETATM   14  O   UNL     1      -9.275  16.858  65.817  1.00  0.00    -0.527 OA 
HETATM   15  H   UNL     1      -9.158  17.408  65.051  1.00  0.00     0.000 HD 
ENDBRANCH   6   8
ENDBRANCH   5   6
ENDBRANCH   4   5
ENDBRANCH   2   4
TORSDOF 4
ENDMDL
MODEL      149
REMARK 921   NORMALIZED FREE ENERGY PREDICTED BY IDOCK:   -3.33 KCAL/MOL
REMARK 922        TOTAL FREE ENERGY PREDICTED BY IDOCK:   -4.52 KCAL/MOL
REMARK 923 INTER-LIGAND FREE ENERGY PREDICTED BY IDOCK:   -4.07 KCAL/MOL
REMARK 924 INTRA-LIGAND FREE ENERGY PREDICTED BY IDOCK:   -0.45 KCAL/MOL
REMARK 927      BINDING AFFINITY PREDICTED BY RF-SCORE:    0.00 PKD
ROOT
HETATM    1  O   UNL     1     -10.259   8.105  66.258  1.00  0.00    -0.475 OA 
HETATM    2  C   UNL     1     -10.073   9.510  66.300  1.00  0.00    -0.257 C  
HETATM    3  H   UNL     1      -9.744   7.707  65.565  1.00  0.00     0.000 HD 
ENDROOT
BRANCH   2   4
HETATM    4  C   UNL     1     -10.901  10.150  67.414  1.00  0.00    -0.261 C  
BRANCH   4   5
HETATM    5  O   UNL     1     -11.140  11.510  67.040  1.00  0.00    -0.278 OA 
BRANCH   5   6
HETATM    6  C   UNL     1     -10.386  12.422  67.698  1.00  0.00    -0.216 C  
HETATM    7  O   UNL     1      -9.548  12.174  68.550  1.00  0.00    -0.198 OA 
BRANCH   6   8
HETATM    8  C   UNL     1     -10.478  13.732  66.998  1.00  0.00    -0.274 A  
HETATM    9  C   UNL     1     -10.650  14.859  67.820  1.00  0.00    -0.262 A  
HETATM   10  C   UNL     1     -10.578  16.145  67.286  1.00  0.00    -0.305 A  
HETATM   11  C   UNL     1     -10.336  16.319  65.926  1.00  0.00    -0.381 A  
HETATM   12  C   UNL     1     -10.192  15.208  65.093  1.00  0.00    -0.386 A  
HETATM   13  C   UNL     1     -10.270  13.918  65.624  1.00  0.00    -0.328 A  
HETATM   14  O   UNL     1     -10.140  12.851  64.779  1.00  0.00    -0.452 OA 
HETATM   15  H   UNL     1      -9.999  12.977  63.849  1.00  0.00     0.000 HD 
ENDBRANCH   6   8
ENDBRANCH   5   6
ENDBRANCH   4   5
ENDBRANCH   2   4
TORSDOF 4
ENDMDL
MODEL      150
REMARK 921   NORMALIZED FREE ENERGY PREDICTED BY IDOCK:   -3.33 KCAL/MOL
REMARK 922        TOTAL FREE ENERGY PREDICTED BY IDOCK:   -4.52 KCAL/MOL
REMARK 923 INTER-LIGAND FREE ENERGY PREDICTED BY IDOCK:   -4.12 KCAL/MOL
REMARK 924 INTRA-LIGAND FREE ENERGY PREDICTED BY IDOCK:   -0.40 KCAL/MOL
REMARK 927      BINDING AFFINITY PREDICTED BY RF-SCORE:    0.00 PKD
ROOT
HETATM    1  O   UNL     1      -8.894   9.625  70.344  1.00  0.00    -0.235 OA 
HETATM    2  C   UNL     1     -10.290   9.816  70.503  1.00  0.00    -0.283 C  
HETATM    3  H   UNL     1      -8.494   9.299  71.142  1.00  0.00     0.000 HD 
ENDROOT
BRANCH   2   4
HETATM    4  C   UNL     1     -10.933  10.340  69.221  1.00  0.00    -0.241 C  
BRANCH   4   5
HETATM    5  O   UNL     1     -10.558  11.714  69.086  1.00  0.00    -0.194 OA 
BRANCH   5   6
HETATM    6  C   UNL     1     -11.201  12.385  68.101  1.00  0.00    -0.265 C  
HETATM    7  O   UNL     1     -12.049  11.920  67.356  1.00  0.00    -0.577 OA 
BRANCH   6   8
HETATM    8  C   UNL     1     -10.979  13.847  68.276  1.00  0.00    -0.274 A  
HETATM    9  C   UNL     1     -10.681  14.568  67.108  1.00  0.00    -0.286 A  
HETATM   10  C   UNL     1     -10.623  15.962  67.130  1.00  0.00    -0.316 A  
HETATM   11  C   UNL     1     -10.859  16.647  68.318  1.00  0.00    -0.356 A  
HETATM   12  C   UNL     1     -11.127  15.941  69.493  1.00  0.00    -0.315 A  
HETATM   13  C   UNL     1     -11.180  14.545  69.475  1.00  0.00    -0.264 A  
HETATM   14  O   UNL     1     -11.429  13.882  70.644  1.00  0.00    -0.513 OA 
HETATM   15  H   UNL     1     -11.566  14.355  71.456  1.00  0.00     0.000 HD 
ENDBRANCH   6   8
ENDBRANCH   5   6
ENDBRANCH   4   5
ENDBRANCH   2   4
TORSDOF 4
ENDMDL
MODEL      151
REMARK 921   NORMALIZED FREE ENERGY PREDICTED BY IDOCK:   -3.32 KCAL/MOL
REMARK 922        TOTAL FREE ENERGY PREDICTED BY IDOCK:   -4.51 KCAL/MOL
REMARK 923 INTER-LIGAND FREE ENERGY PREDICTED BY IDOCK:   -4.08 KCAL/MOL
REMARK 924 INTRA-LIGAND FREE ENERGY PREDICTED BY IDOCK:   -0.44 KCAL/MOL
REMARK 927      BINDING AFFINITY PREDICTED BY RF-SCORE:    0.00 PKD
ROOT
HETATM    1  O   UNL     1      -8.622  12.889  68.789  1.00  0.00    -0.365 OA 
HETATM    2  C   UNL     1      -8.796  14.222  68.340  1.00  0.00    -0.187 C  
HETATM    3  H   UNL     1      -7.815  12.790  69.282  1.00  0.00     0.000 HD 
ENDROOT
BRANCH   2   4
HETATM    4  C   UNL     1     -10.092  14.380  67.547  1.00  0.00    -0.232 C  
BRANCH   4   5
HETATM    5  O   UNL     1     -10.316  15.782  67.370  1.00  0.00    -0.269 OA 
BRANCH   5   6
HETATM    6  C   UNL     1      -9.885  16.282  66.187  1.00  0.00    -0.334 C  
HETATM    7  O   UNL     1     -10.351  16.020  65.090  1.00  0.00    -0.523 OA 
BRANCH   6   8
HETATM    8  C   UNL     1      -8.995  17.448  66.442  1.00  0.00    -0.274 A  
HETATM    9  C   UNL     1      -7.667  17.316  66.001  1.00  0.00    -0.223 A  
HETATM   10  C   UNL     1      -6.797  18.406  66.035  1.00  0.00    -0.308 A  
HETATM   11  C   UNL     1      -7.244  19.635  66.511  1.00  0.00    -0.239 A  
HETATM   12  C   UNL     1      -8.551  19.773  66.979  1.00  0.00    -0.378 A  
HETATM   13  C   UNL     1      -9.424  18.681  66.952  1.00  0.00    -0.301 A  
HETATM   14  O   UNL     1     -10.693  18.843  67.433  1.00  0.00    -0.444 OA 
HETATM   15  H   UNL     1     -10.984  19.678  67.778  1.00  0.00     0.000 HD 
ENDBRANCH   6   8
ENDBRANCH   5   6
ENDBRANCH   4   5
ENDBRANCH   2   4
TORSDOF 4
ENDMDL
MODEL      152
REMARK 921   NORMALIZED FREE ENERGY PREDICTED BY IDOCK:   -3.32 KCAL/MOL
REMARK 922        TOTAL FREE ENERGY PREDICTED BY IDOCK:   -4.51 KCAL/MOL
REMARK 923 INTER-LIGAND FREE ENERGY PREDICTED BY IDOCK:   -3.76 KCAL/MOL
REMARK 924 INTRA-LIGAND FREE ENERGY PREDICTED BY IDOCK:   -0.75 KCAL/MOL
REMARK 927      BINDING AFFINITY PREDICTED BY RF-SCORE:    0.00 PKD
ROOT
HETATM    1  O   UNL     1      -8.321   7.691  71.024  1.00  0.00    -0.109 OA 
HETATM    2  C   UNL     1      -8.074   7.139  69.742  1.00  0.00    -0.129 C  
HETATM    3  H   UNL     1      -7.942   7.156  71.712  1.00  0.00     0.000 HD 
ENDROOT
BRANCH   2   4
HETATM    4  C   UNL     1      -8.684   7.999  68.636  1.00  0.00    -0.131 C  
BRANCH   4   5
HETATM    5  O   UNL     1      -9.179   9.194  69.248  1.00  0.00    -0.141 OA 
BRANCH   5   6
HETATM    6  C   UNL     1     -10.396   9.596  68.810  1.00  0.00    -0.213 C  
HETATM    7  O   UNL     1     -10.839   9.431  67.684  1.00  0.00    -0.267 OA 
BRANCH   6   8
HETATM    8  C   UNL     1     -11.244   9.957  69.979  1.00  0.00    -0.327 A  
HETATM    9  C   UNL     1     -11.686  11.289  70.029  1.00  0.00    -0.428 A  
HETATM   10  C   UNL     1     -12.621  11.691  70.983  1.00  0.00    -0.431 A  
HETATM   11  C   UNL     1     -13.120  10.767  71.897  1.00  0.00    -0.557 A  
HETATM   12  C   UNL     1     -12.668   9.446  71.877  1.00  0.00    -0.484 A  
HETATM   13  C   UNL     1     -11.727   9.043  70.925  1.00  0.00    -0.276 A  
HETATM   14  O   UNL     1     -11.292   7.747  70.941  1.00  0.00    -0.269 OA 
HETATM   15  H   UNL     1     -11.619   7.128  71.582  1.00  0.00     0.000 HD 
ENDBRANCH   6   8
ENDBRANCH   5   6
ENDBRANCH   4   5
ENDBRANCH   2   4
TORSDOF 4
ENDMDL
MODEL      153
REMARK 921   NORMALIZED FREE ENERGY PREDICTED BY IDOCK:   -3.32 KCAL/MOL
REMARK 922        TOTAL FREE ENERGY PREDICTED BY IDOCK:   -4.51 KCAL/MOL
REMARK 923 INTER-LIGAND FREE ENERGY PREDICTED BY IDOCK:   -4.05 KCAL/MOL
REMARK 924 INTRA-LIGAND FREE ENERGY PREDICTED BY IDOCK:   -0.45 KCAL/MOL
REMARK 927      BINDING AFFINITY PREDICTED BY RF-SCORE:    0.00 PKD
ROOT
HETATM    1  O   UNL     1      -7.413  11.819  69.074  1.00  0.00    -0.221 OA 
HETATM    2  C   UNL     1      -7.956  10.589  69.525  1.00  0.00    -0.109 C  
HETATM    3  H   UNL     1      -6.650  12.070  69.582  1.00  0.00     0.000 HD 
ENDROOT
BRANCH   2   4
HETATM    4  C   UNL     1      -9.182  10.186  68.708  1.00  0.00    -0.164 C  
BRANCH   4   5
HETATM    5  O   UNL     1      -9.162  10.954  67.501  1.00  0.00    -0.147 OA 
BRANCH   5   6
HETATM    6  C   UNL     1      -9.597  10.295  66.400  1.00  0.00    -0.185 C  
HETATM    7  O   UNL     1      -9.640   9.082  66.265  1.00  0.00    -0.217 OA 
BRANCH   6   8
HETATM    8  C   UNL     1     -10.330  11.243  65.518  1.00  0.00    -0.321 A  
HETATM    9  C   UNL     1      -9.835  11.373  64.209  1.00  0.00    -0.301 A  
HETATM   10  C   UNL     1     -10.543  12.101  63.252  1.00  0.00    -0.367 A  
HETATM   11  C   UNL     1     -11.749  12.707  63.593  1.00  0.00    -0.597 A  
HETATM   12  C   UNL     1     -12.238  12.610  64.897  1.00  0.00    -0.531 A  
HETATM   13  C   UNL     1     -11.528  11.887  65.860  1.00  0.00    -0.278 A  
HETATM   14  O   UNL     1     -12.024  11.824  67.132  1.00  0.00    -0.617 OA 
HETATM   15  H   UNL     1     -12.835  12.259  67.364  1.00  0.00     0.000 HD 
ENDBRANCH   6   8
ENDBRANCH   5   6
ENDBRANCH   4   5
ENDBRANCH   2   4
TORSDOF 4
ENDMDL
MODEL      154
REMARK 921   NORMALIZED FREE ENERGY PREDICTED BY IDOCK:   -3.31 KCAL/MOL
REMARK 922        TOTAL FREE ENERGY PREDICTED BY IDOCK:   -4.50 KCAL/MOL
REMARK 923 INTER-LIGAND FREE ENERGY PREDICTED BY IDOCK:   -4.20 KCAL/MOL
REMARK 924 INTRA-LIGAND FREE ENERGY PREDICTED BY IDOCK:   -0.30 KCAL/MOL
REMARK 927      BINDING AFFINITY PREDICTED BY RF-SCORE:    0.00 PKD
ROOT
HETATM    1  O   UNL     1      -8.366  13.001  68.784  1.00  0.00    -0.344 OA 
HETATM    2  C   UNL     1      -8.299  14.382  68.472  1.00  0.00    -0.157 C  
HETATM    3  H   UNL     1      -9.126  12.801  69.319  1.00  0.00     0.000 HD 
ENDROOT
BRANCH   2   4
HETATM    4  C   UNL     1      -7.077  14.702  67.613  1.00  0.00    -0.182 C  
BRANCH   4   5
HETATM    5  O   UNL     1      -7.227  16.045  67.141  1.00  0.00    -0.188 OA 
BRANCH   5   6
HETATM    6  C   UNL     1      -7.403  16.972  68.112  1.00  0.00    -0.192 C  
HETATM    7  O   UNL     1      -6.725  17.087  69.121  1.00  0.00    -0.219 OA 
BRANCH   6   8
HETATM    8  C   UNL     1      -8.316  18.037  67.614  1.00  0.00    -0.238 A  
HETATM    9  C   UNL     1      -9.381  18.381  68.463  1.00  0.00    -0.354 A  
HETATM   10  C   UNL     1     -10.193  19.478  68.175  1.00  0.00    -0.556 A  
HETATM   11  C   UNL     1      -9.950  20.240  67.035  1.00  0.00    -0.601 A  
HETATM   12  C   UNL     1      -8.913  19.893  66.168  1.00  0.00    -0.373 A  
HETATM   13  C   UNL     1      -8.102  18.790  66.451  1.00  0.00    -0.280 A  
HETATM   14  O   UNL     1      -7.104  18.466  65.574  1.00  0.00    -0.513 OA 
HETATM   15  H   UNL     1      -6.959  18.976  64.787  1.00  0.00     0.000 HD 
ENDBRANCH   6   8
ENDBRANCH   5   6
ENDBRANCH   4   5
ENDBRANCH   2   4
TORSDOF 4
ENDMDL
MODEL      155
REMARK 921   NORMALIZED FREE ENERGY PREDICTED BY IDOCK:   -3.29 KCAL/MOL
REMARK 922        TOTAL FREE ENERGY PREDICTED BY IDOCK:   -4.48 KCAL/MOL
REMARK 923 INTER-LIGAND FREE ENERGY PREDICTED BY IDOCK:   -4.12 KCAL/MOL
REMARK 924 INTRA-LIGAND FREE ENERGY PREDICTED BY IDOCK:   -0.35 KCAL/MOL
REMARK 927      BINDING AFFINITY PREDICTED BY RF-SCORE:    0.00 PKD
ROOT
HETATM    1  O   UNL     1     -12.358   7.221  70.354  1.00  0.00    -0.564 OA 
HETATM    2  C   UNL     1     -11.643   6.544  71.373  1.00  0.00    -0.318 C  
HETATM    3  H   UNL     1     -12.709   6.614  69.713  1.00  0.00     0.000 HD 
ENDROOT
BRANCH   2   4
HETATM    4  C   UNL     1     -11.078   7.520  72.404  1.00  0.00    -0.301 C  
BRANCH   4   5
HETATM    5  O   UNL     1     -11.186   8.835  71.850  1.00  0.00    -0.322 OA 
BRANCH   5   6
HETATM    6  C   UNL     1     -10.070   9.285  71.230  1.00  0.00    -0.291 C  
HETATM    7  O   UNL     1      -8.929   8.910  71.454  1.00  0.00    -0.217 OA 
BRANCH   6   8
HETATM    8  C   UNL     1     -10.457  10.044  70.010  1.00  0.00    -0.337 A  
HETATM    9  C   UNL     1      -9.728   9.750  68.845  1.00  0.00    -0.172 A  
HETATM   10  C   UNL     1     -10.118  10.275  67.613  1.00  0.00    -0.229 A  
HETATM   11  C   UNL     1     -11.236  11.100  67.533  1.00  0.00    -0.369 A  
HETATM   12  C   UNL     1     -11.953  11.424  68.686  1.00  0.00    -0.317 A  
HETATM   13  C   UNL     1     -11.561  10.904  69.923  1.00  0.00    -0.331 A  
HETATM   14  O   UNL     1     -12.273  11.253  71.037  1.00  0.00    -0.354 OA 
HETATM   15  H   UNL     1     -13.021  11.835  70.978  1.00  0.00     0.000 HD 
ENDBRANCH   6   8
ENDBRANCH   5   6
ENDBRANCH   4   5
ENDBRANCH   2   4
TORSDOF 4
ENDMDL
MODEL      156
REMARK 921   NORMALIZED FREE ENERGY PREDICTED BY IDOCK:   -3.29 KCAL/MOL
REMARK 922        TOTAL FREE ENERGY PREDICTED BY IDOCK:   -4.48 KCAL/MOL
REMARK 923 INTER-LIGAND FREE ENERGY PREDICTED BY IDOCK:   -4.09 KCAL/MOL
REMARK 924 INTRA-LIGAND FREE ENERGY PREDICTED BY IDOCK:   -0.38 KCAL/MOL
REMARK 927      BINDING AFFINITY PREDICTED BY RF-SCORE:    0.00 PKD
ROOT
HETATM    1  O   UNL     1      -6.885  15.467  69.690  1.00  0.00    -0.172 OA 
HETATM    2  C   UNL     1      -7.511  14.864  68.570  1.00  0.00    -0.118 C  
HETATM    3  H   UNL     1      -5.939  15.402  69.637  1.00  0.00     0.000 HD 
ENDROOT
BRANCH   2   4
HETATM    4  C   UNL     1      -9.032  14.970  68.655  1.00  0.00    -0.186 C  
BRANCH   4   5
HETATM    5  O   UNL     1      -9.543  14.851  67.324  1.00  0.00    -0.210 OA 
BRANCH   5   6
HETATM    6  C   UNL     1     -10.831  14.438  67.243  1.00  0.00    -0.290 C  
HETATM    7  O   UNL     1     -11.753  14.840  67.935  1.00  0.00    -0.342 OA 
BRANCH   6   8
HETATM    8  C   UNL     1     -11.027  13.686  65.974  1.00  0.00    -0.288 A  
HETATM    9  C   UNL     1      -9.969  12.847  65.587  1.00  0.00    -0.245 A  
HETATM   10  C   UNL     1     -10.115  11.971  64.511  1.00  0.00    -0.293 A  
HETATM   11  C   UNL     1     -11.318  11.928  63.811  1.00  0.00    -0.532 A  
HETATM   12  C   UNL     1     -12.367  12.776  64.167  1.00  0.00    -0.485 A  
HETATM   13  C   UNL     1     -12.221  13.659  65.240  1.00  0.00    -0.439 A  
HETATM   14  O   UNL     1     -13.261  14.489  65.554  1.00  0.00    -0.495 OA 
HETATM   15  H   UNL     1     -14.070  14.470  65.058  1.00  0.00     0.000 HD 
ENDBRANCH   6   8
ENDBRANCH   5   6
ENDBRANCH   4   5
ENDBRANCH   2   4
TORSDOF 4
ENDMDL
MODEL      157
REMARK 921   NORMALIZED FREE ENERGY PREDICTED BY IDOCK:   -3.29 KCAL/MOL
REMARK 922        TOTAL FREE ENERGY PREDICTED BY IDOCK:   -4.47 KCAL/MOL
REMARK 923 INTER-LIGAND FREE ENERGY PREDICTED BY IDOCK:   -3.75 KCAL/MOL
REMARK 924 INTRA-LIGAND FREE ENERGY PREDICTED BY IDOCK:   -0.72 KCAL/MOL
REMARK 927      BINDING AFFINITY PREDICTED BY RF-SCORE:    0.00 PKD
ROOT
HETATM    1  O   UNL     1      -8.844  10.331  69.937  1.00  0.00    -0.367 OA 
HETATM    2  C   UNL     1      -9.998  10.502  69.132  1.00  0.00    -0.220 C  
HETATM    3  H   UNL     1      -8.073  10.705  69.524  1.00  0.00     0.000 HD 
ENDROOT
BRANCH   2   4
HETATM    4  C   UNL     1     -11.236   9.901  69.795  1.00  0.00    -0.235 C  
BRANCH   4   5
HETATM    5  O   UNL     1     -11.060  10.016  71.211  1.00  0.00    -0.309 OA 
BRANCH   5   6
HETATM    6  C   UNL     1     -11.860   9.212  71.951  1.00  0.00    -0.369 C  
HETATM    7  O   UNL     1     -13.048   9.393  72.170  1.00  0.00    -0.396 OA 
BRANCH   6   8
HETATM    8  C   UNL     1     -11.177   7.908  72.171  1.00  0.00    -0.363 A  
HETATM    9  C   UNL     1     -11.977   6.762  72.023  1.00  0.00    -0.355 A  
HETATM   10  C   UNL     1     -11.404   5.490  72.038  1.00  0.00    -0.181 A  
HETATM   11  C   UNL     1     -10.029   5.351  72.204  1.00  0.00    -0.226 A  
HETATM   12  C   UNL     1      -9.226   6.479  72.381  1.00  0.00    -0.137 A  
HETATM   13  C   UNL     1      -9.798   7.755  72.372  1.00  0.00    -0.206 A  
HETATM   14  O   UNL     1      -8.989   8.839  72.564  1.00  0.00    -0.386 OA 
HETATM   15  H   UNL     1      -8.055   8.735  72.700  1.00  0.00     0.000 HD 
ENDBRANCH   6   8
ENDBRANCH   5   6
ENDBRANCH   4   5
ENDBRANCH   2   4
TORSDOF 4
ENDMDL
MODEL      158
REMARK 921   NORMALIZED FREE ENERGY PREDICTED BY IDOCK:   -3.29 KCAL/MOL
REMARK 922        TOTAL FREE ENERGY PREDICTED BY IDOCK:   -4.47 KCAL/MOL
REMARK 923 INTER-LIGAND FREE ENERGY PREDICTED BY IDOCK:   -4.02 KCAL/MOL
REMARK 924 INTRA-LIGAND FREE ENERGY PREDICTED BY IDOCK:   -0.44 KCAL/MOL
REMARK 927      BINDING AFFINITY PREDICTED BY RF-SCORE:    0.00 PKD
ROOT
HETATM    1  O   UNL     1      -6.876  12.795  69.854  1.00  0.00    -0.349 OA 
HETATM    2  C   UNL     1      -6.655  12.355  68.525  1.00  0.00    -0.073 C  
HETATM    3  H   UNL     1      -6.118  13.251  70.201  1.00  0.00     0.000 HD 
ENDROOT
BRANCH   2   4
HETATM    4  C   UNL     1      -7.874  11.622  67.968  1.00  0.00    -0.128 C  
BRANCH   4   5
HETATM    5  O   UNL     1      -8.445  12.453  66.954  1.00  0.00    -0.190 OA 
BRANCH   5   6
HETATM    6  C   UNL     1      -9.751  12.760  67.138  1.00  0.00    -0.216 C  
HETATM    7  O   UNL     1     -10.255  13.134  68.185  1.00  0.00    -0.227 OA 
BRANCH   6   8
HETATM    8  C   UNL     1     -10.413  12.907  65.813  1.00  0.00    -0.293 A  
HETATM    9  C   UNL     1     -10.352  11.786  64.967  1.00  0.00    -0.325 A  
HETATM   10  C   UNL     1     -11.081  11.753  63.778  1.00  0.00    -0.513 A  
HETATM   11  C   UNL     1     -11.874  12.840  63.421  1.00  0.00    -0.591 A  
HETATM   12  C   UNL     1     -11.921  13.971  64.237  1.00  0.00    -0.463 A  
HETATM   13  C   UNL     1     -11.187  14.009  65.426  1.00  0.00    -0.319 A  
HETATM   14  O   UNL     1     -11.242  15.138  66.196  1.00  0.00    -0.336 OA 
HETATM   15  H   UNL     1     -11.766  15.885  65.934  1.00  0.00     0.000 HD 
ENDBRANCH   6   8
ENDBRANCH   5   6
ENDBRANCH   4   5
ENDBRANCH   2   4
TORSDOF 4
ENDMDL
MODEL      159
REMARK 921   NORMALIZED FREE ENERGY PREDICTED BY IDOCK:   -3.29 KCAL/MOL
REMARK 922        TOTAL FREE ENERGY PREDICTED BY IDOCK:   -4.47 KCAL/MOL
REMARK 923 INTER-LIGAND FREE ENERGY PREDICTED BY IDOCK:   -4.04 KCAL/MOL
REMARK 924 INTRA-LIGAND FREE ENERGY PREDICTED BY IDOCK:   -0.42 KCAL/MOL
REMARK 927      BINDING AFFINITY PREDICTED BY RF-SCORE:    0.00 PKD
ROOT
HETATM    1  O   UNL     1     -12.671  14.848  69.230  1.00  0.00    -0.535 OA 
HETATM    2  C   UNL     1     -11.797  15.366  70.218  1.00  0.00    -0.338 C  
HETATM    3  H   UNL     1     -13.152  14.094  69.551  1.00  0.00     0.000 HD 
ENDROOT
BRANCH   2   4
HETATM    4  C   UNL     1     -11.025  16.578  69.702  1.00  0.00    -0.287 C  
BRANCH   4   5
HETATM    5  O   UNL     1     -11.109  16.562  68.274  1.00  0.00    -0.355 OA 
BRANCH   5   6
HETATM    6  C   UNL     1     -10.439  17.562  67.653  1.00  0.00    -0.370 C  
HETATM    7  O   UNL     1     -10.910  18.638  67.320  1.00  0.00    -0.426 OA 
BRANCH   6   8
HETATM    8  C   UNL     1      -8.976  17.301  67.743  1.00  0.00    -0.234 A  
HETATM    9  C   UNL     1      -8.527  16.106  67.155  1.00  0.00    -0.218 A  
HETATM   10  C   UNL     1      -7.163  15.845  67.031  1.00  0.00    -0.232 A  
HETATM   11  C   UNL     1      -6.234  16.773  67.496  1.00  0.00    -0.188 A  
HETATM   12  C   UNL     1      -6.666  17.951  68.107  1.00  0.00    -0.200 A  
HETATM   13  C   UNL     1      -8.033  18.212  68.238  1.00  0.00    -0.295 A  
HETATM   14  O   UNL     1      -8.425  19.367  68.856  1.00  0.00    -0.367 OA 
HETATM   15  H   UNL     1      -7.786  19.984  69.192  1.00  0.00     0.000 HD 
ENDBRANCH   6   8
ENDBRANCH   5   6
ENDBRANCH   4   5
ENDBRANCH   2   4
TORSDOF 4
ENDMDL
MODEL      160
REMARK 921   NORMALIZED FREE ENERGY PREDICTED BY IDOCK:   -3.28 KCAL/MOL
REMARK 922        TOTAL FREE ENERGY PREDICTED BY IDOCK:   -4.46 KCAL/MOL
REMARK 923 INTER-LIGAND FREE ENERGY PREDICTED BY IDOCK:   -3.88 KCAL/MOL
REMARK 924 INTRA-LIGAND FREE ENERGY PREDICTED BY IDOCK:   -0.58 KCAL/MOL
REMARK 927      BINDING AFFINITY PREDICTED BY RF-SCORE:    0.00 PKD
ROOT
HETATM    1  O   UNL     1      -8.625   5.599  70.412  1.00  0.00    -0.127 OA 
HETATM    2  C   UNL     1      -9.100   5.941  69.121  1.00  0.00    -0.122 C  
HETATM    3  H   UNL     1      -8.703   4.666  70.576  1.00  0.00     0.000 HD 
ENDROOT
BRANCH   2   4
HETATM    4  C   UNL     1      -8.973   7.441  68.858  1.00  0.00    -0.130 C  
BRANCH   4   5
HETATM    5  O   UNL     1     -10.192   8.054  69.290  1.00  0.00    -0.203 OA 
BRANCH   5   6
HETATM    6  C   UNL     1     -10.147   8.598  70.529  1.00  0.00    -0.196 C  
HETATM    7  O   UNL     1      -9.249   9.299  70.968  1.00  0.00    -0.246 OA 
BRANCH   6   8
HETATM    8  C   UNL     1     -11.494   8.507  71.155  1.00  0.00    -0.322 A  
HETATM    9  C   UNL     1     -12.135   9.729  71.417  1.00  0.00    -0.486 A  
HETATM   10  C   UNL     1     -13.463   9.757  71.842  1.00  0.00    -0.485 A  
HETATM   11  C   UNL     1     -14.162   8.565  72.012  1.00  0.00    -0.535 A  
HETATM   12  C   UNL     1     -13.529   7.343  71.783  1.00  0.00    -0.383 A  
HETATM   13  C   UNL     1     -12.196   7.312  71.363  1.00  0.00    -0.349 A  
HETATM   14  O   UNL     1     -11.599   6.098  71.163  1.00  0.00    -0.300 OA 
HETATM   15  H   UNL     1     -12.075   5.289  71.304  1.00  0.00     0.000 HD 
ENDBRANCH   6   8
ENDBRANCH   5   6
ENDBRANCH   4   5
ENDBRANCH   2   4
TORSDOF 4
ENDMDL
MODEL      161
REMARK 921   NORMALIZED FREE ENERGY PREDICTED BY IDOCK:   -3.28 KCAL/MOL
REMARK 922        TOTAL FREE ENERGY PREDICTED BY IDOCK:   -4.46 KCAL/MOL
REMARK 923 INTER-LIGAND FREE ENERGY PREDICTED BY IDOCK:   -4.17 KCAL/MOL
REMARK 924 INTRA-LIGAND FREE ENERGY PREDICTED BY IDOCK:   -0.29 KCAL/MOL
REMARK 927      BINDING AFFINITY PREDICTED BY RF-SCORE:    0.00 PKD
ROOT
HETATM    1  O   UNL     1     -11.175   5.114  65.680  1.00  0.00    -0.802 OA 
HETATM    2  C   UNL     1     -10.441   5.181  66.891  1.00  0.00    -0.223 C  
HETATM    3  H   UNL     1     -10.816   4.460  65.091  1.00  0.00     0.000 HD 
ENDROOT
BRANCH   2   4
HETATM    4  C   UNL     1     -11.018   6.233  67.837  1.00  0.00    -0.327 C  
BRANCH   4   5
HETATM    5  O   UNL     1     -10.995   7.486  67.147  1.00  0.00    -0.293 OA 
BRANCH   5   6
HETATM    6  C   UNL     1      -9.979   8.311  67.498  1.00  0.00    -0.193 C  
HETATM    7  O   UNL     1      -8.920   8.431  66.902  1.00  0.00    -0.136 OA 
BRANCH   6   8
HETATM    8  C   UNL     1     -10.468   9.292  68.504  1.00  0.00    -0.240 A  
HETATM    9  C   UNL     1     -11.244  10.351  68.004  1.00  0.00    -0.340 A  
HETATM   10  C   UNL     1     -11.892  11.228  68.874  1.00  0.00    -0.413 A  
HETATM   11  C   UNL     1     -11.770  11.057  70.250  1.00  0.00    -0.445 A  
HETATM   12  C   UNL     1     -10.979  10.026  70.761  1.00  0.00    -0.375 A  
HETATM   13  C   UNL     1     -10.323   9.149  69.891  1.00  0.00    -0.212 A  
HETATM   14  O   UNL     1      -9.544   8.160  70.422  1.00  0.00    -0.169 OA 
HETATM   15  H   UNL     1      -9.446   8.063  71.361  1.00  0.00     0.000 HD 
ENDBRANCH   6   8
ENDBRANCH   5   6
ENDBRANCH   4   5
ENDBRANCH   2   4
TORSDOF 4
ENDMDL
MODEL      162
REMARK 921   NORMALIZED FREE ENERGY PREDICTED BY IDOCK:   -3.27 KCAL/MOL
REMARK 922        TOTAL FREE ENERGY PREDICTED BY IDOCK:   -4.45 KCAL/MOL
REMARK 923 INTER-LIGAND FREE ENERGY PREDICTED BY IDOCK:   -3.74 KCAL/MOL
REMARK 924 INTRA-LIGAND FREE ENERGY PREDICTED BY IDOCK:   -0.71 KCAL/MOL
REMARK 927      BINDING AFFINITY PREDICTED BY RF-SCORE:    0.00 PKD
ROOT
HETATM    1  O   UNL     1     -10.975   8.444  66.985  1.00  0.00    -0.378 OA 
HETATM    2  C   UNL     1      -9.651   8.143  66.577  1.00  0.00    -0.234 C  
HETATM    3  H   UNL     1     -11.284   7.834  67.645  1.00  0.00     0.000 HD 
ENDROOT
BRANCH   2   4
HETATM    4  C   UNL     1      -9.155   9.124  65.516  1.00  0.00    -0.219 C  
BRANCH   4   5
HETATM    5  O   UNL     1      -9.879  10.346  65.693  1.00  0.00    -0.225 OA 
BRANCH   5   6
HETATM    6  C   UNL     1      -9.187  11.333  66.309  1.00  0.00    -0.200 C  
HETATM    7  O   UNL     1      -7.972  11.453  66.320  1.00  0.00    -0.134 OA 
BRANCH   6   8
HETATM    8  C   UNL     1     -10.121  12.432  66.676  1.00  0.00    -0.234 A  
HETATM    9  C   UNL     1      -9.735  13.725  66.283  1.00  0.00    -0.297 A  
HETATM   10  C   UNL     1     -10.611  14.801  66.424  1.00  0.00    -0.300 A  
HETATM   11  C   UNL     1     -11.879  14.596  66.961  1.00  0.00    -0.358 A  
HETATM   12  C   UNL     1     -12.265  13.323  67.383  1.00  0.00    -0.236 A  
HETATM   13  C   UNL     1     -11.387  12.244  67.249  1.00  0.00    -0.328 A  
HETATM   14  O   UNL     1     -11.788  11.013  67.686  1.00  0.00    -0.599 OA 
HETATM   15  H   UNL     1     -12.645  10.885  68.073  1.00  0.00     0.000 HD 
ENDBRANCH   6   8
ENDBRANCH   5   6
ENDBRANCH   4   5
ENDBRANCH   2   4
TORSDOF 4
ENDMDL
MODEL      163
REMARK 921   NORMALIZED FREE ENERGY PREDICTED BY IDOCK:   -3.26 KCAL/MOL
REMARK 922        TOTAL FREE ENERGY PREDICTED BY IDOCK:   -4.43 KCAL/MOL
REMARK 923 INTER-LIGAND FREE ENERGY PREDICTED BY IDOCK:   -4.16 KCAL/MOL
REMARK 924 INTRA-LIGAND FREE ENERGY PREDICTED BY IDOCK:   -0.28 KCAL/MOL
REMARK 927      BINDING AFFINITY PREDICTED BY RF-SCORE:    0.00 PKD
ROOT
HETATM    1  O   UNL     1     -10.466  10.358  64.835  1.00  0.00    -0.263 OA 
HETATM    2  C   UNL     1     -10.240  11.604  65.472  1.00  0.00    -0.260 C  
HETATM    3  H   UNL     1      -9.867  10.224  64.110  1.00  0.00     0.000 HD 
ENDROOT
BRANCH   2   4
HETATM    4  C   UNL     1     -11.202  11.819  66.638  1.00  0.00    -0.323 C  
BRANCH   4   5
HETATM    5  O   UNL     1     -11.041  10.716  67.534  1.00  0.00    -0.299 OA 
BRANCH   5   6
HETATM    6  C   UNL     1     -10.239  10.959  68.598  1.00  0.00    -0.189 C  
HETATM    7  O   UNL     1      -9.279  11.715  68.610  1.00  0.00    -0.179 OA 
BRANCH   6   8
HETATM    8  C   UNL     1     -10.891  10.445  69.833  1.00  0.00    -0.353 A  
HETATM    9  C   UNL     1     -12.255  10.747  69.980  1.00  0.00    -0.409 A  
HETATM   10  C   UNL     1     -13.002  10.173  71.008  1.00  0.00    -0.473 A  
HETATM   11  C   UNL     1     -12.393   9.296  71.902  1.00  0.00    -0.454 A  
HETATM   12  C   UNL     1     -11.032   9.010  71.785  1.00  0.00    -0.443 A  
HETATM   13  C   UNL     1     -10.280   9.588  70.759  1.00  0.00    -0.293 A  
HETATM   14  O   UNL     1      -8.945   9.301  70.681  1.00  0.00    -0.218 OA 
HETATM   15  H   UNL     1      -8.532   8.720  71.308  1.00  0.00     0.000 HD 
ENDBRANCH   6   8
ENDBRANCH   5   6
ENDBRANCH   4   5
ENDBRANCH   2   4
TORSDOF 4
ENDMDL
MODEL      164
REMARK 921   NORMALIZED FREE ENERGY PREDICTED BY IDOCK:   -3.25 KCAL/MOL
REMARK 922        TOTAL FREE ENERGY PREDICTED BY IDOCK:   -4.42 KCAL/MOL
REMARK 923 INTER-LIGAND FREE ENERGY PREDICTED BY IDOCK:   -4.00 KCAL/MOL
REMARK 924 INTRA-LIGAND FREE ENERGY PREDICTED BY IDOCK:   -0.42 KCAL/MOL
REMARK 927      BINDING AFFINITY PREDICTED BY RF-SCORE:    0.00 PKD
ROOT
HETATM    1  O   UNL     1      -9.268  13.100  65.950  1.00  0.00    -0.465 OA 
HETATM    2  C   UNL     1      -9.374  12.968  67.357  1.00  0.00    -0.209 C  
HETATM    3  H   UNL     1      -9.562  13.955  65.657  1.00  0.00     0.000 HD 
ENDROOT
BRANCH   2   4
HETATM    4  C   UNL     1      -8.902  11.594  67.827  1.00  0.00    -0.159 C  
BRANCH   4   5
HETATM    5  O   UNL     1      -9.676  11.248  68.981  1.00  0.00    -0.160 OA 
BRANCH   5   6
HETATM    6  C   UNL     1     -10.291  10.044  68.913  1.00  0.00    -0.202 C  
HETATM    7  O   UNL     1      -9.873   9.061  68.321  1.00  0.00    -0.156 OA 
BRANCH   6   8
HETATM    8  C   UNL     1     -11.369   9.984  69.938  1.00  0.00    -0.306 A  
HETATM    9  C   UNL     1     -11.474   8.778  70.650  1.00  0.00    -0.263 A  
HETATM   10  C   UNL     1     -12.332   8.673  71.744  1.00  0.00    -0.402 A  
HETATM   11  C   UNL     1     -13.095   9.770  72.136  1.00  0.00    -0.513 A  
HETATM   12  C   UNL     1     -13.021  10.966  71.420  1.00  0.00    -0.527 A  
HETATM   13  C   UNL     1     -12.167  11.072  70.319  1.00  0.00    -0.363 A  
HETATM   14  O   UNL     1     -12.129  12.251  69.628  1.00  0.00    -0.279 OA 
HETATM   15  H   UNL     1     -12.669  12.988  69.887  1.00  0.00     0.000 HD 
ENDBRANCH   6   8
ENDBRANCH   5   6
ENDBRANCH   4   5
ENDBRANCH   2   4
TORSDOF 4
ENDMDL
MODEL      165
REMARK 921   NORMALIZED FREE ENERGY PREDICTED BY IDOCK:   -3.25 KCAL/MOL
REMARK 922        TOTAL FREE ENERGY PREDICTED BY IDOCK:   -4.42 KCAL/MOL
REMARK 923 INTER-LIGAND FREE ENERGY PREDICTED BY IDOCK:   -4.27 KCAL/MOL
REMARK 924 INTRA-LIGAND FREE ENERGY PREDICTED BY IDOCK:   -0.14 KCAL/MOL
REMARK 927      BINDING AFFINITY PREDICTED BY RF-SCORE:    0.00 PKD
ROOT
HETATM    1  O   UNL     1     -10.411  13.724  69.405  1.00  0.00    -0.435 OA 
HETATM    2  C   UNL     1     -10.738  12.720  68.460  1.00  0.00    -0.253 C  
HETATM    3  H   UNL     1      -9.691  14.266  69.103  1.00  0.00     0.000 HD 
ENDROOT
BRANCH   2   4
HETATM    4  C   UNL     1     -11.895  11.849  68.946  1.00  0.00    -0.307 C  
BRANCH   4   5
HETATM    5  O   UNL     1     -11.327  10.685  69.554  1.00  0.00    -0.237 OA 
BRANCH   5   6
HETATM    6  C   UNL     1     -12.029  10.189  70.600  1.00  0.00    -0.332 C  
HETATM    7  O   UNL     1     -13.246  10.173  70.699  1.00  0.00    -0.336 OA 
BRANCH   6   8
HETATM    8  C   UNL     1     -11.129   9.362  71.449  1.00  0.00    -0.450 A  
HETATM    9  C   UNL     1     -11.762   8.485  72.345  1.00  0.00    -0.429 A  
HETATM   10  C   UNL     1     -11.020   7.546  73.063  1.00  0.00    -0.443 A  
HETATM   11  C   UNL     1      -9.640   7.478  72.895  1.00  0.00    -0.247 A  
HETATM   12  C   UNL     1      -8.994   8.363  72.030  1.00  0.00    -0.290 A  
HETATM   13  C   UNL     1      -9.734   9.308  71.314  1.00  0.00    -0.229 A  
HETATM   14  O   UNL     1      -9.071  10.171  70.487  1.00  0.00    -0.284 OA 
HETATM   15  H   UNL     1      -8.127  10.135  70.396  1.00  0.00     0.000 HD 
ENDBRANCH   6   8
ENDBRANCH   5   6
ENDBRANCH   4   5
ENDBRANCH   2   4
TORSDOF 4
ENDMDL
MODEL      166
REMARK 921   NORMALIZED FREE ENERGY PREDICTED BY IDOCK:   -3.24 KCAL/MOL
REMARK 922        TOTAL FREE ENERGY PREDICTED BY IDOCK:   -4.41 KCAL/MOL
REMARK 923 INTER-LIGAND FREE ENERGY PREDICTED BY IDOCK:   -4.08 KCAL/MOL
REMARK 924 INTRA-LIGAND FREE ENERGY PREDICTED BY IDOCK:   -0.33 KCAL/MOL
REMARK 927      BINDING AFFINITY PREDICTED BY RF-SCORE:    0.00 PKD
ROOT
HETATM    1  O   UNL     1      -6.526  11.404  65.944  1.00  0.00    -0.371 OA 
HETATM    2  C   UNL     1      -7.475  11.694  66.956  1.00  0.00    -0.150 C  
HETATM    3  H   UNL     1      -5.639  11.583  66.237  1.00  0.00     0.000 HD 
ENDROOT
BRANCH   2   4
HETATM    4  C   UNL     1      -8.900  11.406  66.485  1.00  0.00    -0.187 C  
BRANCH   4   5
HETATM    5  O   UNL     1      -9.769  11.616  67.602  1.00  0.00    -0.175 OA 
BRANCH   5   6
HETATM    6  C   UNL     1     -10.795  12.469  67.373  1.00  0.00    -0.240 C  
HETATM    7  O   UNL     1     -11.228  12.787  66.276  1.00  0.00    -0.279 OA 
BRANCH   6   8
HETATM    8  C   UNL     1     -11.537  12.697  68.643  1.00  0.00    -0.356 A  
HETATM    9  C   UNL     1     -11.816  11.551  69.407  1.00  0.00    -0.417 A  
HETATM   10  C   UNL     1     -12.353  11.666  70.689  1.00  0.00    -0.437 A  
HETATM   11  C   UNL     1     -12.619  12.926  71.219  1.00  0.00    -0.352 A  
HETATM   12  C   UNL     1     -12.374  14.071  70.460  1.00  0.00    -0.437 A  
HETATM   13  C   UNL     1     -11.842  13.959  69.173  1.00  0.00    -0.358 A  
HETATM   14  O   UNL     1     -11.628  15.098  68.449  1.00  0.00    -0.318 OA 
HETATM   15  H   UNL     1     -11.834  15.953  68.807  1.00  0.00     0.000 HD 
ENDBRANCH   6   8
ENDBRANCH   5   6
ENDBRANCH   4   5
ENDBRANCH   2   4
TORSDOF 4
ENDMDL
MODEL      167
REMARK 921   NORMALIZED FREE ENERGY PREDICTED BY IDOCK:   -3.24 KCAL/MOL
REMARK 922        TOTAL FREE ENERGY PREDICTED BY IDOCK:   -4.41 KCAL/MOL
REMARK 923 INTER-LIGAND FREE ENERGY PREDICTED BY IDOCK:   -4.02 KCAL/MOL
REMARK 924 INTRA-LIGAND FREE ENERGY PREDICTED BY IDOCK:   -0.39 KCAL/MOL
REMARK 927      BINDING AFFINITY PREDICTED BY RF-SCORE:    0.00 PKD
ROOT
HETATM    1  O   UNL     1     -11.641  16.286  63.735  1.00  0.00    -1.539 OA 
HETATM    2  C   UNL     1     -11.315  16.534  65.092  1.00  0.00     0.113 C  
HETATM    3  H   UNL     1     -12.216  16.957  63.387  1.00  0.00     0.000 HD 
ENDROOT
BRANCH   2   4
HETATM    4  C   UNL     1     -10.389  15.455  65.651  1.00  0.00    -0.372 C  
BRANCH   4   5
HETATM    5  O   UNL     1     -11.166  14.263  65.802  1.00  0.00    -0.307 OA 
BRANCH   5   6
HETATM    6  C   UNL     1     -11.066  13.668  67.015  1.00  0.00    -0.301 C  
HETATM    7  O   UNL     1     -11.980  13.508  67.809  1.00  0.00    -0.354 OA 
BRANCH   6   8
HETATM    8  C   UNL     1      -9.772  12.936  67.098  1.00  0.00    -0.221 A  
HETATM    9  C   UNL     1      -9.098  13.016  68.328  1.00  0.00    -0.179 A  
HETATM   10  C   UNL     1      -7.969  12.234  68.570  1.00  0.00    -0.107 A  
HETATM   11  C   UNL     1      -7.501  11.368  67.586  1.00  0.00    -0.103 A  
HETATM   12  C   UNL     1      -8.144  11.300  66.349  1.00  0.00    -0.138 A  
HETATM   13  C   UNL     1      -9.272  12.087  66.101  1.00  0.00    -0.179 A  
HETATM   14  O   UNL     1      -9.870  12.010  64.874  1.00  0.00    -0.329 OA 
HETATM   15  H   UNL     1      -9.531  11.435  64.199  1.00  0.00     0.000 HD 
ENDBRANCH   6   8
ENDBRANCH   5   6
ENDBRANCH   4   5
ENDBRANCH   2   4
TORSDOF 4
ENDMDL
MODEL      168
REMARK 921   NORMALIZED FREE ENERGY PREDICTED BY IDOCK:   -3.23 KCAL/MOL
REMARK 922        TOTAL FREE ENERGY PREDICTED BY IDOCK:   -4.40 KCAL/MOL
REMARK 923 INTER-LIGAND FREE ENERGY PREDICTED BY IDOCK:   -3.96 KCAL/MOL
REMARK 924 INTRA-LIGAND FREE ENERGY PREDICTED BY IDOCK:   -0.44 KCAL/MOL
REMARK 927      BINDING AFFINITY PREDICTED BY RF-SCORE:    0.00 PKD
ROOT
HETATM    1  O   UNL     1     -11.697   4.516  65.250  1.00  0.00    -0.942 OA 
HETATM    2  C   UNL     1     -10.353   4.508  65.699  1.00  0.00    -0.247 C  
HETATM    3  H   UNL     1     -11.885   3.764  64.700  1.00  0.00     0.000 HD 
ENDROOT
BRANCH   2   4
HETATM    4  C   UNL     1     -10.051   5.717  66.583  1.00  0.00    -0.193 C  
BRANCH   4   5
HETATM    5  O   UNL     1     -10.679   5.488  67.848  1.00  0.00    -0.190 OA 
BRANCH   5   6
HETATM    6  C   UNL     1      -9.861   5.618  68.920  1.00  0.00    -0.147 C  
HETATM    7  O   UNL     1      -8.642   5.550  68.900  1.00  0.00    -0.100 OA 
BRANCH   6   8
HETATM    8  C   UNL     1     -10.631   6.193  70.057  1.00  0.00    -0.323 A  
HETATM    9  C   UNL     1     -10.699   5.401  71.216  1.00  0.00    -0.249 A  
HETATM   10  C   UNL     1     -11.246   5.912  72.393  1.00  0.00    -0.340 A  
HETATM   11  C   UNL     1     -11.732   7.216  72.423  1.00  0.00    -0.261 A  
HETATM   12  C   UNL     1     -11.697   8.004  71.271  1.00  0.00    -0.311 A  
HETATM   13  C   UNL     1     -11.155   7.493  70.089  1.00  0.00    -0.231 A  
HETATM   14  O   UNL     1     -11.150   8.283  68.973  1.00  0.00    -0.430 OA 
HETATM   15  H   UNL     1     -11.505   9.163  68.995  1.00  0.00     0.000 HD 
ENDBRANCH   6   8
ENDBRANCH   5   6
ENDBRANCH   4   5
ENDBRANCH   2   4
TORSDOF 4
ENDMDL
MODEL      169
REMARK 921   NORMALIZED FREE ENERGY PREDICTED BY IDOCK:   -3.23 KCAL/MOL
REMARK 922        TOTAL FREE ENERGY PREDICTED BY IDOCK:   -4.40 KCAL/MOL
REMARK 923 INTER-LIGAND FREE ENERGY PREDICTED BY IDOCK:   -4.10 KCAL/MOL
REMARK 924 INTRA-LIGAND FREE ENERGY PREDICTED BY IDOCK:   -0.30 KCAL/MOL
REMARK 927      BINDING AFFINITY PREDICTED BY RF-SCORE:    0.00 PKD
ROOT
HETATM    1  O   UNL     1     -13.012  13.702  65.382  1.00  0.00    -0.683 OA 
HETATM    2  C   UNL     1     -11.844  12.903  65.467  1.00  0.00    -0.411 C  
HETATM    3  H   UNL     1     -13.302  13.799  64.483  1.00  0.00     0.000 HD 
ENDROOT
BRANCH   2   4
HETATM    4  C   UNL     1     -11.378  12.746  66.914  1.00  0.00    -0.321 C  
BRANCH   4   5
HETATM    5  O   UNL     1     -11.959  11.541  67.422  1.00  0.00    -0.623 OA 
BRANCH   5   6
HETATM    6  C   UNL     1     -11.266  10.955  68.426  1.00  0.00    -0.285 C  
HETATM    7  O   UNL     1     -11.241  11.328  69.589  1.00  0.00    -0.257 OA 
BRANCH   6   8
HETATM    8  C   UNL     1     -10.819   9.603  67.991  1.00  0.00    -0.250 A  
HETATM    9  C   UNL     1     -10.078   9.556  66.798  1.00  0.00    -0.312 A  
HETATM   10  C   UNL     1      -9.467   8.370  66.389  1.00  0.00    -0.293 A  
HETATM   11  C   UNL     1      -9.592   7.222  67.166  1.00  0.00    -0.203 A  
HETATM   12  C   UNL     1     -10.348   7.248  68.339  1.00  0.00    -0.213 A  
HETATM   13  C   UNL     1     -10.967   8.433  68.748  1.00  0.00     0.177 A  
HETATM   14  O   UNL     1     -11.715   8.422  69.892  1.00  0.00    -0.422 OA 
HETATM   15  H   UNL     1     -11.815   7.629  70.405  1.00  0.00     0.000 HD 
ENDBRANCH   6   8
ENDBRANCH   5   6
ENDBRANCH   4   5
ENDBRANCH   2   4
TORSDOF 4
ENDMDL
MODEL      170
REMARK 921   NORMALIZED FREE ENERGY PREDICTED BY IDOCK:   -3.22 KCAL/MOL
REMARK 922        TOTAL FREE ENERGY PREDICTED BY IDOCK:   -4.39 KCAL/MOL
REMARK 923 INTER-LIGAND FREE ENERGY PREDICTED BY IDOCK:   -4.45 KCAL/MOL
REMARK 924 INTRA-LIGAND FREE ENERGY PREDICTED BY IDOCK:    0.06 KCAL/MOL
REMARK 927      BINDING AFFINITY PREDICTED BY RF-SCORE:    0.00 PKD
ROOT
HETATM    1  O   UNL     1     -12.412  15.307  69.335  1.00  0.00    -0.578 OA 
HETATM    2  C   UNL     1     -12.023  14.173  68.578  1.00  0.00    -0.332 C  
HETATM    3  H   UNL     1     -13.236  15.159  69.785  1.00  0.00     0.000 HD 
ENDROOT
BRANCH   2   4
HETATM    4  C   UNL     1     -10.698  14.412  67.855  1.00  0.00    -0.244 C  
BRANCH   4   5
HETATM    5  O   UNL     1     -10.220  13.139  67.410  1.00  0.00    -0.229 OA 
BRANCH   5   6
HETATM    6  C   UNL     1     -11.130  12.138  67.465  1.00  0.00    -0.275 C  
HETATM    7  O   UNL     1     -12.032  11.949  66.664  1.00  0.00    -0.601 OA 
BRANCH   6   8
HETATM    8  C   UNL     1     -10.672  11.110  68.439  1.00  0.00    -0.234 A  
HETATM    9  C   UNL     1      -9.285  10.893  68.497  1.00  0.00    -0.181 A  
HETATM   10  C   UNL     1      -8.735  10.080  69.488  1.00  0.00    -0.205 A  
HETATM   11  C   UNL     1      -9.564   9.475  70.428  1.00  0.00    -0.326 A  
HETATM   12  C   UNL     1     -10.946   9.659  70.365  1.00  0.00    -0.356 A  
HETATM   13  C   UNL     1     -11.501  10.467  69.369  1.00  0.00    -0.262 A  
HETATM   14  O   UNL     1     -12.859  10.615  69.323  1.00  0.00    -0.630 OA 
HETATM   15  H   UNL     1     -13.421  10.180  69.954  1.00  0.00     0.000 HD 
ENDBRANCH   6   8
ENDBRANCH   5   6
ENDBRANCH   4   5
ENDBRANCH   2   4
TORSDOF 4
ENDMDL
MODEL      171
REMARK 921   NORMALIZED FREE ENERGY PREDICTED BY IDOCK:   -3.22 KCAL/MOL
REMARK 922        TOTAL FREE ENERGY PREDICTED BY IDOCK:   -4.39 KCAL/MOL
REMARK 923 INTER-LIGAND FREE ENERGY PREDICTED BY IDOCK:   -4.02 KCAL/MOL
REMARK 924 INTRA-LIGAND FREE ENERGY PREDICTED BY IDOCK:   -0.37 KCAL/MOL
REMARK 927      BINDING AFFINITY PREDICTED BY RF-SCORE:    0.00 PKD
ROOT
HETATM    1  O   UNL     1      -7.327   8.162  70.251  1.00  0.00    -0.058 OA 
HETATM    2  C   UNL     1      -8.400   8.942  70.751  1.00  0.00    -0.175 C  
HETATM    3  H   UNL     1      -7.016   7.541  70.900  1.00  0.00     0.000 HD 
ENDROOT
BRANCH   2   4
HETATM    4  C   UNL     1      -8.900   9.940  69.708  1.00  0.00    -0.211 C  
BRANCH   4   5
HETATM    5  O   UNL     1     -10.193   9.499  69.282  1.00  0.00    -0.186 OA 
BRANCH   5   6
HETATM    6  C   UNL     1     -11.225  10.264  69.712  1.00  0.00    -0.282 C  
HETATM    7  O   UNL     1     -11.773  10.176  70.799  1.00  0.00    -0.302 OA 
BRANCH   6   8
HETATM    8  C   UNL     1     -11.370  11.442  68.814  1.00  0.00    -0.334 A  
HETATM    9  C   UNL     1     -11.279  11.181  67.437  1.00  0.00    -0.363 A  
HETATM   10  C   UNL     1     -11.569  12.178  66.505  1.00  0.00    -0.425 A  
HETATM   11  C   UNL     1     -11.949  13.445  66.941  1.00  0.00    -0.437 A  
HETATM   12  C   UNL     1     -12.015  13.726  68.306  1.00  0.00    -0.392 A  
HETATM   13  C   UNL     1     -11.719  12.731  69.242  1.00  0.00    -0.319 A  
HETATM   14  O   UNL     1     -11.778  13.042  70.572  1.00  0.00    -0.533 OA 
HETATM   15  H   UNL     1     -12.015  13.914  70.861  1.00  0.00     0.000 HD 
ENDBRANCH   6   8
ENDBRANCH   5   6
ENDBRANCH   4   5
ENDBRANCH   2   4
TORSDOF 4
ENDMDL
MODEL      172
REMARK 921   NORMALIZED FREE ENERGY PREDICTED BY IDOCK:   -3.21 KCAL/MOL
REMARK 922        TOTAL FREE ENERGY PREDICTED BY IDOCK:   -4.37 KCAL/MOL
REMARK 923 INTER-LIGAND FREE ENERGY PREDICTED BY IDOCK:   -3.96 KCAL/MOL
REMARK 924 INTRA-LIGAND FREE ENERGY PREDICTED BY IDOCK:   -0.41 KCAL/MOL
REMARK 927      BINDING AFFINITY PREDICTED BY RF-SCORE:    0.00 PKD
ROOT
HETATM    1  O   UNL     1     -11.212  14.684  71.224  1.00  0.00    -0.533 OA 
HETATM    2  C   UNL     1     -12.217  15.272  70.416  1.00  0.00    -0.363 C  
HETATM    3  H   UNL     1     -11.587  14.213  71.959  1.00  0.00     0.000 HD 
ENDROOT
BRANCH   2   4
HETATM    4  C   UNL     1     -11.613  16.028  69.234  1.00  0.00    -0.331 C  
BRANCH   4   5
HETATM    5  O   UNL     1     -10.645  15.168  68.626  1.00  0.00    -0.223 OA 
BRANCH   5   6
HETATM    6  C   UNL     1     -10.667  15.153  67.272  1.00  0.00    -0.305 C  
HETATM    7  O   UNL     1     -10.615  16.133  66.547  1.00  0.00    -0.308 OA 
BRANCH   6   8
HETATM    8  C   UNL     1     -10.420  13.766  66.792  1.00  0.00    -0.270 A  
HETATM    9  C   UNL     1      -9.640  12.954  67.633  1.00  0.00    -0.196 A  
HETATM   10  C   UNL     1      -9.489  11.593  67.365  1.00  0.00    -0.171 A  
HETATM   11  C   UNL     1     -10.114  11.032  66.254  1.00  0.00    -0.282 A  
HETATM   12  C   UNL     1     -10.868  11.832  65.395  1.00  0.00    -0.347 A  
HETATM   13  C   UNL     1     -11.015  13.197  65.657  1.00  0.00    -0.277 A  
HETATM   14  O   UNL     1     -11.747  13.957  64.788  1.00  0.00    -0.352 OA 
HETATM   15  H   UNL     1     -12.150  13.572  64.020  1.00  0.00     0.000 HD 
ENDBRANCH   6   8
ENDBRANCH   5   6
ENDBRANCH   4   5
ENDBRANCH   2   4
TORSDOF 4
ENDMDL
MODEL      173
REMARK 921   NORMALIZED FREE ENERGY PREDICTED BY IDOCK:   -3.21 KCAL/MOL
REMARK 922        TOTAL FREE ENERGY PREDICTED BY IDOCK:   -4.37 KCAL/MOL
REMARK 923 INTER-LIGAND FREE ENERGY PREDICTED BY IDOCK:   -4.60 KCAL/MOL
REMARK 924 INTRA-LIGAND FREE ENERGY PREDICTED BY IDOCK:    0.23 KCAL/MOL
REMARK 927      BINDING AFFINITY PREDICTED BY RF-SCORE:    0.00 PKD
ROOT
HETATM    1  O   UNL     1     -10.318  19.323  66.282  1.00  0.00    -0.411 OA 
HETATM    2  C   UNL     1     -10.031  17.950  66.488  1.00  0.00    -0.357 C  
HETATM    3  H   UNL     1      -9.948  19.863  66.970  1.00  0.00     0.000 HD 
ENDROOT
BRANCH   2   4
HETATM    4  C   UNL     1     -10.625  17.082  65.380  1.00  0.00    -0.134 C  
BRANCH   4   5
HETATM    5  O   UNL     1      -9.674  16.053  65.087  1.00  0.00    -0.345 OA 
BRANCH   5   6
HETATM    6  C   UNL     1      -9.708  14.992  65.928  1.00  0.00    -0.342 C  
HETATM    7  O   UNL     1      -9.499  15.028  67.131  1.00  0.00    -0.206 OA 
BRANCH   6   8
HETATM    8  C   UNL     1     -10.366  13.845  65.245  1.00  0.00    -0.396 A  
HETATM    9  C   UNL     1     -11.462  14.164  64.425  1.00  0.00    -0.344 A  
HETATM   10  C   UNL     1     -12.043  13.194  63.608  1.00  0.00    -0.583 A  
HETATM   11  C   UNL     1     -11.538  11.896  63.606  1.00  0.00    -0.559 A  
HETATM   12  C   UNL     1     -10.469  11.559  64.437  1.00  0.00    -0.380 A  
HETATM   13  C   UNL     1      -9.889  12.527  65.261  1.00  0.00    -0.139 A  
HETATM   14  O   UNL     1      -8.854  12.162  66.076  1.00  0.00    -0.403 OA 
HETATM   15  H   UNL     1      -8.530  11.269  66.086  1.00  0.00     0.000 HD 
ENDBRANCH   6   8
ENDBRANCH   5   6
ENDBRANCH   4   5
ENDBRANCH   2   4
TORSDOF 4
ENDMDL
MODEL      174
REMARK 921   NORMALIZED FREE ENERGY PREDICTED BY IDOCK:   -3.20 KCAL/MOL
REMARK 922        TOTAL FREE ENERGY PREDICTED BY IDOCK:   -4.36 KCAL/MOL
REMARK 923 INTER-LIGAND FREE ENERGY PREDICTED BY IDOCK:   -3.85 KCAL/MOL
REMARK 924 INTRA-LIGAND FREE ENERGY PREDICTED BY IDOCK:   -0.51 KCAL/MOL
REMARK 927      BINDING AFFINITY PREDICTED BY RF-SCORE:    0.00 PKD
ROOT
HETATM    1  O   UNL     1      -6.688   7.108  72.546  1.00  0.00    -0.062 OA 
HETATM    2  C   UNL     1      -7.500   7.302  73.691  1.00  0.00    -0.100 C  
HETATM    3  H   UNL     1      -5.786   7.357  72.712  1.00  0.00     0.000 HD 
ENDROOT
BRANCH   2   4
HETATM    4  C   UNL     1      -8.950   6.902  73.424  1.00  0.00    -0.133 C  
BRANCH   4   5
HETATM    5  O   UNL     1      -9.669   8.095  73.100  1.00  0.00    -0.277 OA 
BRANCH   5   6
HETATM    6  C   UNL     1      -9.796   8.341  71.774  1.00  0.00    -0.218 C  
HETATM    7  O   UNL     1      -9.148   7.810  70.885  1.00  0.00    -0.146 OA 
BRANCH   6   8
HETATM    8  C   UNL     1     -11.060   9.088  71.531  1.00  0.00    -0.419 A  
HETATM    9  C   UNL     1     -12.165   8.694  72.304  1.00  0.00    -0.447 A  
HETATM   10  C   UNL     1     -13.347   9.434  72.281  1.00  0.00    -0.539 A  
HETATM   11  C   UNL     1     -13.437  10.573  71.484  1.00  0.00    -0.265 A  
HETATM   12  C   UNL     1     -12.356  10.959  70.690  1.00  0.00    -0.470 A  
HETATM   13  C   UNL     1     -11.173  10.216  70.706  1.00  0.00    -0.336 A  
HETATM   14  O   UNL     1     -10.138  10.611  69.905  1.00  0.00    -0.435 OA 
HETATM   15  H   UNL     1     -10.215  11.375  69.347  1.00  0.00     0.000 HD 
ENDBRANCH   6   8
ENDBRANCH   5   6
ENDBRANCH   4   5
ENDBRANCH   2   4
TORSDOF 4
ENDMDL
MODEL      175
REMARK 921   NORMALIZED FREE ENERGY PREDICTED BY IDOCK:   -3.20 KCAL/MOL
REMARK 922        TOTAL FREE ENERGY PREDICTED BY IDOCK:   -4.36 KCAL/MOL
REMARK 923 INTER-LIGAND FREE ENERGY PREDICTED BY IDOCK:   -3.91 KCAL/MOL
REMARK 924 INTRA-LIGAND FREE ENERGY PREDICTED BY IDOCK:   -0.45 KCAL/MOL
REMARK 927      BINDING AFFINITY PREDICTED BY RF-SCORE:    0.00 PKD
ROOT
HETATM    1  O   UNL     1      -8.810   6.264  70.256  1.00  0.00    -0.149 OA 
HETATM    2  C   UNL     1      -7.791   6.990  69.591  1.00  0.00    -0.119 C  
HETATM    3  H   UNL     1      -8.551   5.362  70.409  1.00  0.00     0.000 HD 
ENDROOT
BRANCH   2   4
HETATM    4  C   UNL     1      -8.207   8.439  69.345  1.00  0.00    -0.116 C  
BRANCH   4   5
HETATM    5  O   UNL     1      -9.620   8.520  69.556  1.00  0.00    -0.167 OA 
BRANCH   5   6
HETATM    6  C   UNL     1     -10.082   9.759  69.845  1.00  0.00    -0.251 C  
HETATM    7  O   UNL     1      -9.712  10.799  69.322  1.00  0.00    -0.198 OA 
BRANCH   6   8
HETATM    8  C   UNL     1     -11.337   9.643  70.637  1.00  0.00    -0.379 A  
HETATM    9  C   UNL     1     -11.574   8.393  71.234  1.00  0.00    -0.326 A  
HETATM   10  C   UNL     1     -12.626   8.225  72.134  1.00  0.00    -0.379 A  
HETATM   11  C   UNL     1     -13.453   9.301  72.443  1.00  0.00    -0.526 A  
HETATM   12  C   UNL     1     -13.247  10.541  71.835  1.00  0.00    -0.526 A  
HETATM   13  C   UNL     1     -12.197  10.711  70.929  1.00  0.00    -0.395 A  
HETATM   14  O   UNL     1     -12.031  11.932  70.338  1.00  0.00    -0.380 OA 
HETATM   15  H   UNL     1     -12.613  12.656  70.536  1.00  0.00     0.000 HD 
ENDBRANCH   6   8
ENDBRANCH   5   6
ENDBRANCH   4   5
ENDBRANCH   2   4
TORSDOF 4
ENDMDL
MODEL      176
REMARK 921   NORMALIZED FREE ENERGY PREDICTED BY IDOCK:   -3.19 KCAL/MOL
REMARK 922        TOTAL FREE ENERGY PREDICTED BY IDOCK:   -4.35 KCAL/MOL
REMARK 923 INTER-LIGAND FREE ENERGY PREDICTED BY IDOCK:   -4.01 KCAL/MOL
REMARK 924 INTRA-LIGAND FREE ENERGY PREDICTED BY IDOCK:   -0.34 KCAL/MOL
REMARK 927      BINDING AFFINITY PREDICTED BY RF-SCORE:    0.00 PKD
ROOT
HETATM    1  O   UNL     1     -11.913  15.734  69.198  1.00  0.00    -0.454 OA 
HETATM    2  C   UNL     1     -10.973  15.440  68.179  1.00  0.00    -0.297 C  
HETATM    3  H   UNL     1     -12.191  16.643  69.163  1.00  0.00     0.000 HD 
ENDROOT
BRANCH   2   4
HETATM    4  C   UNL     1     -10.527  13.980  68.234  1.00  0.00    -0.244 C  
BRANCH   4   5
HETATM    5  O   UNL     1     -11.645  13.177  67.842  1.00  0.00    -0.294 OA 
BRANCH   5   6
HETATM    6  C   UNL     1     -11.352  11.878  67.592  1.00  0.00    -0.304 C  
HETATM    7  O   UNL     1     -11.122  11.398  66.494  1.00  0.00    -0.292 OA 
BRANCH   6   8
HETATM    8  C   UNL     1     -11.016  11.196  68.871  1.00  0.00    -0.276 A  
HETATM    9  C   UNL     1     -11.974  11.298  69.894  1.00  0.00    -0.440 A  
HETATM   10  C   UNL     1     -11.840  10.558  71.068  1.00  0.00    -0.438 A  
HETATM   11  C   UNL     1     -10.746   9.712  71.234  1.00  0.00    -0.317 A  
HETATM   12  C   UNL     1      -9.772   9.623  70.239  1.00  0.00    -0.314 A  
HETATM   13  C   UNL     1      -9.901  10.368  69.063  1.00  0.00    -0.212 A  
HETATM   14  O   UNL     1      -8.922  10.271  68.114  1.00  0.00    -0.127 OA 
HETATM   15  H   UNL     1      -8.167   9.710  68.244  1.00  0.00     0.000 HD 
ENDBRANCH   6   8
ENDBRANCH   5   6
ENDBRANCH   4   5
ENDBRANCH   2   4
TORSDOF 4
ENDMDL
MODEL      177
REMARK 921   NORMALIZED FREE ENERGY PREDICTED BY IDOCK:   -3.13 KCAL/MOL
REMARK 922        TOTAL FREE ENERGY PREDICTED BY IDOCK:   -4.27 KCAL/MOL
REMARK 923 INTER-LIGAND FREE ENERGY PREDICTED BY IDOCK:   -3.83 KCAL/MOL
REMARK 924 INTRA-LIGAND FREE ENERGY PREDICTED BY IDOCK:   -0.44 KCAL/MOL
REMARK 927      BINDING AFFINITY PREDICTED BY RF-SCORE:    0.00 PKD
ROOT
HETATM    1  O   UNL     1     -11.707  12.108  65.627  1.00  0.00    -0.375 OA 
HETATM    2  C   UNL     1     -11.020  13.206  66.202  1.00  0.00    -0.283 C  
HETATM    3  H   UNL     1     -11.119  11.550  65.131  1.00  0.00     0.000 HD 
ENDROOT
BRANCH   2   4
HETATM    4  C   UNL     1     -11.966  14.103  66.999  1.00  0.00    -0.439 C  
BRANCH   4   5
HETATM    5  O   UNL     1     -11.533  15.454  66.811  1.00  0.00    -0.206 OA 
BRANCH   5   6
HETATM    6  C   UNL     1     -10.964  16.026  67.898  1.00  0.00    -0.327 C  
HETATM    7  O   UNL     1     -11.467  16.106  69.008  1.00  0.00    -0.347 OA 
BRANCH   6   8
HETATM    8  C   UNL     1      -9.513  16.234  67.640  1.00  0.00    -0.221 A  
HETATM    9  C   UNL     1      -8.633  15.461  68.417  1.00  0.00    -0.162 A  
HETATM   10  C   UNL     1      -7.265  15.450  68.141  1.00  0.00    -0.124 A  
HETATM   11  C   UNL     1      -6.764  16.213  67.090  1.00  0.00    -0.227 A  
HETATM   12  C   UNL     1      -7.623  17.007  66.328  1.00  0.00    -0.340 A  
HETATM   13  C   UNL     1      -8.992  17.025  66.606  1.00  0.00    -0.254 A  
HETATM   14  O   UNL     1      -9.805  17.825  65.853  1.00  0.00    -0.524 OA 
HETATM   15  H   UNL     1      -9.453  18.361  65.152  1.00  0.00     0.000 HD 
ENDBRANCH   6   8
ENDBRANCH   5   6
ENDBRANCH   4   5
ENDBRANCH   2   4
TORSDOF 4
ENDMDL
MODEL      178
REMARK 921   NORMALIZED FREE ENERGY PREDICTED BY IDOCK:   -3.12 KCAL/MOL
REMARK 922        TOTAL FREE ENERGY PREDICTED BY IDOCK:   -4.26 KCAL/MOL
REMARK 923 INTER-LIGAND FREE ENERGY PREDICTED BY IDOCK:   -3.85 KCAL/MOL
REMARK 924 INTRA-LIGAND FREE ENERGY PREDICTED BY IDOCK:   -0.41 KCAL/MOL
REMARK 927      BINDING AFFINITY PREDICTED BY RF-SCORE:    0.00 PKD
ROOT
HETATM    1  O   UNL     1     -11.499   6.717  67.214  1.00  0.00    -0.752 OA 
HETATM    2  C   UNL     1     -10.355   7.552  67.142  1.00  0.00    -0.313 C  
HETATM    3  H   UNL     1     -11.475   6.036  66.552  1.00  0.00     0.000 HD 
ENDROOT
BRANCH   2   4
HETATM    4  C   UNL     1     -10.394   8.647  68.206  1.00  0.00    -0.207 C  
BRANCH   4   5
HETATM    5  O   UNL     1     -10.697   8.018  69.456  1.00  0.00    -0.230 OA 
BRANCH   5   6
HETATM    6  C   UNL     1      -9.805   8.259  70.445  1.00  0.00    -0.186 C  
HETATM    7  O   UNL     1      -8.980   9.159  70.459  1.00  0.00    -0.191 OA 
BRANCH   6   8
HETATM    8  C   UNL     1     -10.198   7.491  71.658  1.00  0.00    -0.209 A  
HETATM    9  C   UNL     1     -11.130   6.459  71.457  1.00  0.00    -0.322 A  
HETATM   10  C   UNL     1     -11.437   5.570  72.487  1.00  0.00    -0.303 A  
HETATM   11  C   UNL     1     -10.819   5.705  73.728  1.00  0.00    -0.207 A  
HETATM   12  C   UNL     1      -9.912   6.743  73.949  1.00  0.00    -0.340 A  
HETATM   13  C   UNL     1      -9.607   7.639  72.921  1.00  0.00    -0.218 A  
HETATM   14  O   UNL     1      -8.728   8.654  73.174  1.00  0.00    -0.371 OA 
HETATM   15  H   UNL     1      -8.328   8.754  74.029  1.00  0.00     0.000 HD 
ENDBRANCH   6   8
ENDBRANCH   5   6
ENDBRANCH   4   5
ENDBRANCH   2   4
TORSDOF 4
ENDMDL
MODEL      179
REMARK 921   NORMALIZED FREE ENERGY PREDICTED BY IDOCK:   -3.11 KCAL/MOL
REMARK 922        TOTAL FREE ENERGY PREDICTED BY IDOCK:   -4.25 KCAL/MOL
REMARK 923 INTER-LIGAND FREE ENERGY PREDICTED BY IDOCK:   -3.89 KCAL/MOL
REMARK 924 INTRA-LIGAND FREE ENERGY PREDICTED BY IDOCK:   -0.36 KCAL/MOL
REMARK 927      BINDING AFFINITY PREDICTED BY RF-SCORE:    0.00 PKD
ROOT
HETATM    1  O   UNL     1     -10.636   5.737  68.120  1.00  0.00    -0.218 OA 
HETATM    2  C   UNL     1     -11.263   6.444  69.177  1.00  0.00    -0.354 C  
HETATM    3  H   UNL     1     -11.014   4.873  68.007  1.00  0.00     0.000 HD 
ENDROOT
BRANCH   2   4
HETATM    4  C   UNL     1     -10.656   7.834  69.359  1.00  0.00    -0.208 C  
BRANCH   4   5
HETATM    5  O   UNL     1     -10.603   8.449  68.068  1.00  0.00    -0.204 OA 
BRANCH   5   6
HETATM    6  C   UNL     1     -10.009   9.666  68.041  1.00  0.00    -0.160 C  
HETATM    7  O   UNL     1      -9.030   9.996  68.692  1.00  0.00    -0.127 OA 
BRANCH   6   8
HETATM    8  C   UNL     1     -10.504  10.428  66.862  1.00  0.00    -0.300 A  
HETATM    9  C   UNL     1     -11.260  11.577  67.146  1.00  0.00    -0.365 A  
HETATM   10  C   UNL     1     -11.627  12.455  66.126  1.00  0.00    -0.452 A  
HETATM   11  C   UNL     1     -11.244  12.192  64.813  1.00  0.00    -0.373 A  
HETATM   12  C   UNL     1     -10.517  11.039  64.513  1.00  0.00    -0.411 A  
HETATM   13  C   UNL     1     -10.154  10.154  65.532  1.00  0.00    -0.268 A  
HETATM   14  O   UNL     1      -9.456   9.025  65.204  1.00  0.00    -0.451 OA 
HETATM   15  H   UNL     1      -9.219   8.840  64.304  1.00  0.00     0.000 HD 
ENDBRANCH   6   8
ENDBRANCH   5   6
ENDBRANCH   4   5
ENDBRANCH   2   4
TORSDOF 4
ENDMDL
MODEL      180
REMARK 921   NORMALIZED FREE ENERGY PREDICTED BY IDOCK:   -3.11 KCAL/MOL
REMARK 922        TOTAL FREE ENERGY PREDICTED BY IDOCK:   -4.24 KCAL/MOL
REMARK 923 INTER-LIGAND FREE ENERGY PREDICTED BY IDOCK:   -3.82 KCAL/MOL
REMARK 924 INTRA-LIGAND FREE ENERGY PREDICTED BY IDOCK:   -0.42 KCAL/MOL
REMARK 927      BINDING AFFINITY PREDICTED BY RF-SCORE:    0.00 PKD
ROOT
HETATM    1  O   UNL     1      -7.647  11.813  66.230  1.00  0.00    -0.377 OA 
HETATM    2  C   UNL     1      -8.833  12.465  66.650  1.00  0.00    -0.156 C  
HETATM    3  H   UNL     1      -6.900  12.075  66.756  1.00  0.00     0.000 HD 
ENDROOT
BRANCH   2   4
HETATM    4  C   UNL     1     -10.033  12.044  65.804  1.00  0.00    -0.241 C  
BRANCH   4   5
HETATM    5  O   UNL     1     -10.470  10.770  66.287  1.00  0.00    -0.250 OA 
BRANCH   5   6
HETATM    6  C   UNL     1     -11.078  10.797  67.496  1.00  0.00    -0.308 C  
HETATM    7  O   UNL     1     -12.063  11.458  67.784  1.00  0.00    -0.637 OA 
BRANCH   6   8
HETATM    8  C   UNL     1     -10.587   9.658  68.319  1.00  0.00    -0.268 A  
HETATM    9  C   UNL     1     -10.474   9.899  69.699  1.00  0.00    -0.273 A  
HETATM   10  C   UNL     1     -10.189   8.856  70.580  1.00  0.00    -0.267 A  
HETATM   11  C   UNL     1     -10.011   7.565  70.092  1.00  0.00    -0.192 A  
HETATM   12  C   UNL     1     -10.092   7.316  68.721  1.00  0.00    -0.179 A  
HETATM   13  C   UNL     1     -10.371   8.360  67.835  1.00  0.00    -0.221 A  
HETATM   14  O   UNL     1     -10.428   8.088  66.496  1.00  0.00    -0.455 OA 
HETATM   15  H   UNL     1     -10.282   7.209  66.168  1.00  0.00     0.000 HD 
ENDBRANCH   6   8
ENDBRANCH   5   6
ENDBRANCH   4   5
ENDBRANCH   2   4
TORSDOF 4
ENDMDL
MODEL      181
REMARK 921   NORMALIZED FREE ENERGY PREDICTED BY IDOCK:   -3.10 KCAL/MOL
REMARK 922        TOTAL FREE ENERGY PREDICTED BY IDOCK:   -4.24 KCAL/MOL
REMARK 923 INTER-LIGAND FREE ENERGY PREDICTED BY IDOCK:   -3.62 KCAL/MOL
REMARK 924 INTRA-LIGAND FREE ENERGY PREDICTED BY IDOCK:   -0.62 KCAL/MOL
REMARK 927      BINDING AFFINITY PREDICTED BY RF-SCORE:    0.00 PKD
ROOT
HETATM    1  O   UNL     1     -11.591  13.404  70.373  1.00  0.00    -0.520 OA 
HETATM    2  C   UNL     1     -11.936  14.461  69.494  1.00  0.00    -0.330 C  
HETATM    3  H   UNL     1     -11.682  13.664  71.283  1.00  0.00     0.000 HD 
ENDROOT
BRANCH   2   4
HETATM    4  C   UNL     1     -11.790  14.042  68.032  1.00  0.00    -0.368 C  
BRANCH   4   5
HETATM    5  O   UNL     1     -11.614  12.622  68.010  1.00  0.00    -0.300 OA 
BRANCH   5   6
HETATM    6  C   UNL     1     -11.153  12.124  66.838  1.00  0.00    -0.297 C  
HETATM    7  O   UNL     1     -11.284  12.644  65.741  1.00  0.00    -0.291 OA 
BRANCH   6   8
HETATM    8  C   UNL     1     -10.176  11.037  67.117  1.00  0.00    -0.243 A  
HETATM    9  C   UNL     1     -10.243   9.917  66.271  1.00  0.00    -0.282 A  
HETATM   10  C   UNL     1      -9.269   8.921  66.333  1.00  0.00    -0.240 A  
HETATM   11  C   UNL     1      -8.221   9.032  67.243  1.00  0.00    -0.103 A  
HETATM   12  C   UNL     1      -8.158  10.124  68.110  1.00  0.00    -0.105 A  
HETATM   13  C   UNL     1      -9.136  11.121  68.053  1.00  0.00    -0.153 A  
HETATM   14  O   UNL     1      -9.055  12.170  68.926  1.00  0.00    -0.385 OA 
HETATM   15  H   UNL     1      -8.351  12.227  69.560  1.00  0.00     0.000 HD 
ENDBRANCH   6   8
ENDBRANCH   5   6
ENDBRANCH   4   5
ENDBRANCH   2   4
TORSDOF 4
ENDMDL
MODEL      182
REMARK 921   NORMALIZED FREE ENERGY PREDICTED BY IDOCK:   -3.08 KCAL/MOL
REMARK 922        TOTAL FREE ENERGY PREDICTED BY IDOCK:   -4.21 KCAL/MOL
REMARK 923 INTER-LIGAND FREE ENERGY PREDICTED BY IDOCK:   -3.79 KCAL/MOL
REMARK 924 INTRA-LIGAND FREE ENERGY PREDICTED BY IDOCK:   -0.42 KCAL/MOL
REMARK 927      BINDING AFFINITY PREDICTED BY RF-SCORE:    0.00 PKD
ROOT
HETATM    1  O   UNL     1     -10.138   6.814  70.175  1.00  0.00    -0.177 OA 
HETATM    2  C   UNL     1      -9.169   7.820  70.412  1.00  0.00    -0.156 C  
HETATM    3  H   UNL     1     -10.003   6.061  70.740  1.00  0.00     0.000 HD 
ENDROOT
BRANCH   2   4
HETATM    4  C   UNL     1      -9.385   9.030  69.505  1.00  0.00    -0.160 C  
BRANCH   4   5
HETATM    5  O   UNL     1     -10.658   8.866  68.872  1.00  0.00    -0.217 OA 
BRANCH   5   6
HETATM    6  C   UNL     1     -10.628   8.897  67.518  1.00  0.00    -0.237 C  
HETATM    7  O   UNL     1     -10.740   7.930  66.780  1.00  0.00    -0.304 OA 
BRANCH   6   8
HETATM    8  C   UNL     1     -10.784  10.302  67.055  1.00  0.00    -0.281 A  
HETATM    9  C   UNL     1     -10.079  10.648  65.890  1.00  0.00    -0.321 A  
HETATM   10  C   UNL     1     -10.286  11.882  65.274  1.00  0.00    -0.316 A  
HETATM   11  C   UNL     1     -11.197  12.784  65.819  1.00  0.00    -0.341 A  
HETATM   12  C   UNL     1     -11.883  12.465  66.991  1.00  0.00    -0.368 A  
HETATM   13  C   UNL     1     -11.673  11.232  67.613  1.00  0.00    -0.134 A  
HETATM   14  O   UNL     1     -12.348  10.956  68.770  1.00  0.00    -0.783 OA 
HETATM   15  H   UNL     1     -12.950  11.585  69.148  1.00  0.00     0.000 HD 
ENDBRANCH   6   8
ENDBRANCH   5   6
ENDBRANCH   4   5
ENDBRANCH   2   4
TORSDOF 4
ENDMDL
MODEL      183
REMARK 921   NORMALIZED FREE ENERGY PREDICTED BY IDOCK:   -3.06 KCAL/MOL
REMARK 922        TOTAL FREE ENERGY PREDICTED BY IDOCK:   -4.19 KCAL/MOL
REMARK 923 INTER-LIGAND FREE ENERGY PREDICTED BY IDOCK:   -3.88 KCAL/MOL
REMARK 924 INTRA-LIGAND FREE ENERGY PREDICTED BY IDOCK:   -0.30 KCAL/MOL
REMARK 927      BINDING AFFINITY PREDICTED BY RF-SCORE:    0.00 PKD
ROOT
HETATM    1  O   UNL     1      -7.319  11.419  69.068  1.00  0.00    -0.113 OA 
HETATM    2  C   UNL     1      -8.472  10.629  68.833  1.00  0.00    -0.154 C  
HETATM    3  H   UNL     1      -6.684  10.957  69.604  1.00  0.00     0.000 HD 
ENDROOT
BRANCH   2   4
HETATM    4  C   UNL     1      -9.492  11.372  67.972  1.00  0.00    -0.181 C  
BRANCH   4   5
HETATM    5  O   UNL     1      -8.766  12.275  67.133  1.00  0.00    -0.179 OA 
BRANCH   5   6
HETATM    6  C   UNL     1      -9.481  13.333  66.683  1.00  0.00    -0.260 C  
HETATM    7  O   UNL     1      -9.154  14.506  66.774  1.00  0.00    -0.245 OA 
BRANCH   6   8
HETATM    8  C   UNL     1     -10.548  12.850  65.765  1.00  0.00    -0.293 A  
HETATM    9  C   UNL     1     -11.806  13.459  65.909  1.00  0.00    -0.414 A  
HETATM   10  C   UNL     1     -12.827  13.206  64.992  1.00  0.00    -0.370 A  
HETATM   11  C   UNL     1     -12.601  12.341  63.925  1.00  0.00    -0.544 A  
HETATM   12  C   UNL     1     -11.365  11.707  63.786  1.00  0.00    -0.482 A  
HETATM   13  C   UNL     1     -10.343  11.954  64.706  1.00  0.00    -0.281 A  
HETATM   14  O   UNL     1      -9.150  11.306  64.552  1.00  0.00    -0.365 OA 
HETATM   15  H   UNL     1      -9.011  10.699  63.835  1.00  0.00     0.000 HD 
ENDBRANCH   6   8
ENDBRANCH   5   6
ENDBRANCH   4   5
ENDBRANCH   2   4
TORSDOF 4
ENDMDL
MODEL      184
REMARK 921   NORMALIZED FREE ENERGY PREDICTED BY IDOCK:   -3.04 KCAL/MOL
REMARK 922        TOTAL FREE ENERGY PREDICTED BY IDOCK:   -4.17 KCAL/MOL
REMARK 923 INTER-LIGAND FREE ENERGY PREDICTED BY IDOCK:   -3.70 KCAL/MOL
REMARK 924 INTRA-LIGAND FREE ENERGY PREDICTED BY IDOCK:   -0.47 KCAL/MOL
REMARK 927      BINDING AFFINITY PREDICTED BY RF-SCORE:    0.00 PKD
ROOT
HETATM    1  O   UNL     1      -8.335  20.010  65.601  1.00  0.00    -0.471 OA 
HETATM    2  C   UNL     1      -9.255  20.195  66.664  1.00  0.00    -0.351 C  
HETATM    3  H   UNL     1      -7.545  20.522  65.732  1.00  0.00     0.000 HD 
ENDROOT
BRANCH   2   4
HETATM    4  C   UNL     1     -10.525  19.372  66.453  1.00  0.00    -0.488 C  
BRANCH   4   5
HETATM    5  O   UNL     1     -10.123  18.023  66.201  1.00  0.00    -0.426 OA 
BRANCH   5   6
HETATM    6  C   UNL     1     -10.282  17.177  67.246  1.00  0.00    -0.316 C  
HETATM    7  O   UNL     1     -11.233  17.159  68.012  1.00  0.00    -0.224 OA 
BRANCH   6   8
HETATM    8  C   UNL     1      -9.308  16.057  67.124  1.00  0.00    -0.222 A  
HETATM    9  C   UNL     1      -7.955  16.398  67.289  1.00  0.00    -0.196 A  
HETATM   10  C   UNL     1      -6.978  15.405  67.364  1.00  0.00    -0.222 A  
HETATM   11  C   UNL     1      -7.342  14.065  67.272  1.00  0.00    -0.022 A  
HETATM   12  C   UNL     1      -8.679  13.713  67.080  1.00  0.00    -0.224 A  
HETATM   13  C   UNL     1      -9.660  14.706  66.998  1.00  0.00    -0.240 A  
HETATM   14  O   UNL     1     -10.958  14.331  66.794  1.00  0.00    -0.295 OA 
HETATM   15  H   UNL     1     -11.196  13.415  66.709  1.00  0.00     0.000 HD 
ENDBRANCH   6   8
ENDBRANCH   5   6
ENDBRANCH   4   5
ENDBRANCH   2   4
TORSDOF 4
ENDMDL
MODEL      185
REMARK 921   NORMALIZED FREE ENERGY PREDICTED BY IDOCK:   -3.04 KCAL/MOL
REMARK 922        TOTAL FREE ENERGY PREDICTED BY IDOCK:   -4.17 KCAL/MOL
REMARK 923 INTER-LIGAND FREE ENERGY PREDICTED BY IDOCK:   -3.71 KCAL/MOL
REMARK 924 INTRA-LIGAND FREE ENERGY PREDICTED BY IDOCK:   -0.45 KCAL/MOL
REMARK 927      BINDING AFFINITY PREDICTED BY RF-SCORE:    0.00 PKD
ROOT
HETATM    1  O   UNL     1      -7.561   9.315  67.576  1.00  0.00    -0.088 OA 
HETATM    2  C   UNL     1      -8.534   8.290  67.682  1.00  0.00    -0.130 C  
HETATM    3  H   UNL     1      -7.516   9.662  66.692  1.00  0.00     0.000 HD 
ENDROOT
BRANCH   2   4
HETATM    4  C   UNL     1      -8.607   7.732  69.103  1.00  0.00    -0.138 C  
BRANCH   4   5
HETATM    5  O   UNL     1      -9.467   8.593  69.856  1.00  0.00    -0.163 OA 
BRANCH   5   6
HETATM    6  C   UNL     1     -10.722   8.119  70.045  1.00  0.00    -0.243 C  
HETATM    7  O   UNL     1     -11.039   6.941  70.096  1.00  0.00    -0.266 OA 
BRANCH   6   8
HETATM    8  C   UNL     1     -11.598   9.224  70.520  1.00  0.00    -0.266 A  
HETATM    9  C   UNL     1     -12.526   8.886  71.519  1.00  0.00    -0.380 A  
HETATM   10  C   UNL     1     -13.276   9.876  72.156  1.00  0.00    -0.511 A  
HETATM   11  C   UNL     1     -13.107  11.211  71.798  1.00  0.00    -0.536 A  
HETATM   12  C   UNL     1     -12.209  11.558  70.787  1.00  0.00    -0.463 A  
HETATM   13  C   UNL     1     -11.461  10.568  70.144  1.00  0.00    -0.325 A  
HETATM   14  O   UNL     1     -10.602  10.937  69.147  1.00  0.00    -0.203 OA 
HETATM   15  H   UNL     1     -10.509  11.847  68.892  1.00  0.00     0.000 HD 
ENDBRANCH   6   8
ENDBRANCH   5   6
ENDBRANCH   4   5
ENDBRANCH   2   4
TORSDOF 4
ENDMDL
MODEL      186
REMARK 921   NORMALIZED FREE ENERGY PREDICTED BY IDOCK:   -3.04 KCAL/MOL
REMARK 922        TOTAL FREE ENERGY PREDICTED BY IDOCK:   -4.16 KCAL/MOL
REMARK 923 INTER-LIGAND FREE ENERGY PREDICTED BY IDOCK:   -3.72 KCAL/MOL
REMARK 924 INTRA-LIGAND FREE ENERGY PREDICTED BY IDOCK:   -0.43 KCAL/MOL
REMARK 927      BINDING AFFINITY PREDICTED BY RF-SCORE:    0.00 PKD
ROOT
HETATM    1  O   UNL     1      -6.338  13.125  70.713  1.00  0.00    -0.486 OA 
HETATM    2  C   UNL     1      -6.089  14.487  70.410  1.00  0.00    -0.176 C  
HETATM    3  H   UNL     1      -5.605  12.729  71.171  1.00  0.00     0.000 HD 
ENDROOT
BRANCH   2   4
HETATM    4  C   UNL     1      -7.267  15.122  69.675  1.00  0.00    -0.194 C  
BRANCH   4   5
HETATM    5  O   UNL     1      -6.976  16.514  69.522  1.00  0.00    -0.229 OA 
BRANCH   5   6
HETATM    6  C   UNL     1      -6.842  16.931  68.241  1.00  0.00    -0.164 C  
HETATM    7  O   UNL     1      -5.920  16.649  67.491  1.00  0.00    -0.126 OA 
BRANCH   6   8
HETATM    8  C   UNL     1      -8.137  17.493  67.770  1.00  0.00    -0.221 A  
HETATM    9  C   UNL     1      -8.486  18.752  68.287  1.00  0.00    -0.357 A  
HETATM   10  C   UNL     1      -9.588  19.444  67.786  1.00  0.00    -0.422 A  
HETATM   11  C   UNL     1     -10.354  18.885  66.767  1.00  0.00    -0.477 A  
HETATM   12  C   UNL     1     -10.036  17.623  66.263  1.00  0.00    -0.324 A  
HETATM   13  C   UNL     1      -8.936  16.924  66.768  1.00  0.00    -0.240 A  
HETATM   14  O   UNL     1      -8.660  15.683  66.266  1.00  0.00    -0.308 OA 
HETATM   15  H   UNL     1      -9.200  15.297  65.587  1.00  0.00     0.000 HD 
ENDBRANCH   6   8
ENDBRANCH   5   6
ENDBRANCH   4   5
ENDBRANCH   2   4
TORSDOF 4
ENDMDL
MODEL      187
REMARK 921   NORMALIZED FREE ENERGY PREDICTED BY IDOCK:   -3.03 KCAL/MOL
REMARK 922        TOTAL FREE ENERGY PREDICTED BY IDOCK:   -4.16 KCAL/MOL
REMARK 923 INTER-LIGAND FREE ENERGY PREDICTED BY IDOCK:   -3.91 KCAL/MOL
REMARK 924 INTRA-LIGAND FREE ENERGY PREDICTED BY IDOCK:   -0.25 KCAL/MOL
REMARK 927      BINDING AFFINITY PREDICTED BY RF-SCORE:    0.00 PKD
ROOT
HETATM    1  O   UNL     1     -11.969  15.668  68.354  1.00  0.00    -0.481 OA 
HETATM    2  C   UNL     1     -11.501  14.446  67.807  1.00  0.00    -0.336 C  
HETATM    3  H   UNL     1     -12.732  15.533  68.904  1.00  0.00     0.000 HD 
ENDROOT
BRANCH   2   4
HETATM    4  C   UNL     1     -10.274  14.662  66.924  1.00  0.00    -0.262 C  
BRANCH   4   5
HETATM    5  O   UNL     1      -9.664  13.384  66.720  1.00  0.00    -0.247 OA 
BRANCH   5   6
HETATM    6  C   UNL     1     -10.401  12.511  65.993  1.00  0.00    -0.256 C  
HETATM    7  O   UNL     1     -10.997  12.769  64.959  1.00  0.00    -0.277 OA 
BRANCH   6   8
HETATM    8  C   UNL     1     -10.103  11.124  66.442  1.00  0.00    -0.269 A  
HETATM    9  C   UNL     1      -8.931  10.548  65.924  1.00  0.00    -0.185 A  
HETATM   10  C   UNL     1      -8.468   9.324  66.407  1.00  0.00    -0.128 A  
HETATM   11  C   UNL     1      -9.173   8.663  67.409  1.00  0.00    -0.158 A  
HETATM   12  C   UNL     1     -10.354   9.209  67.912  1.00  0.00    -0.285 A  
HETATM   13  C   UNL     1     -10.824  10.433  67.426  1.00  0.00    -0.286 A  
HETATM   14  O   UNL     1     -11.992  10.934  67.928  1.00  0.00    -0.735 OA 
HETATM   15  H   UNL     1     -12.480  10.466  68.595  1.00  0.00     0.000 HD 
ENDBRANCH   6   8
ENDBRANCH   5   6
ENDBRANCH   4   5
ENDBRANCH   2   4
TORSDOF 4
ENDMDL
MODEL      188
REMARK 921   NORMALIZED FREE ENERGY PREDICTED BY IDOCK:   -3.03 KCAL/MOL
REMARK 922        TOTAL FREE ENERGY PREDICTED BY IDOCK:   -4.15 KCAL/MOL
REMARK 923 INTER-LIGAND FREE ENERGY PREDICTED BY IDOCK:   -3.75 KCAL/MOL
REMARK 924 INTRA-LIGAND FREE ENERGY PREDICTED BY IDOCK:   -0.40 KCAL/MOL
REMARK 927      BINDING AFFINITY PREDICTED BY RF-SCORE:    0.00 PKD
ROOT
HETATM    1  O   UNL     1      -9.212   7.564  74.261  1.00  0.00    -0.392 OA 
HETATM    2  C   UNL     1     -10.346   6.860  73.782  1.00  0.00    -0.376 C  
HETATM    3  H   UNL     1      -9.189   7.581  75.211  1.00  0.00     0.000 HD 
ENDROOT
BRANCH   2   4
HETATM    4  C   UNL     1     -10.382   6.833  72.255  1.00  0.00    -0.196 C  
BRANCH   4   5
HETATM    5  O   UNL     1     -10.196   8.176  71.798  1.00  0.00    -0.187 OA 
BRANCH   5   6
HETATM    6  C   UNL     1      -9.758   8.288  70.522  1.00  0.00    -0.171 C  
HETATM    7  O   UNL     1      -9.027   7.497  69.947  1.00  0.00    -0.141 OA 
BRANCH   6   8
HETATM    8  C   UNL     1     -10.563   9.322  69.815  1.00  0.00    -0.244 A  
HETATM    9  C   UNL     1     -11.295  10.198  70.635  1.00  0.00    -0.433 A  
HETATM   10  C   UNL     1     -11.944  11.304  70.088  1.00  0.00    -0.452 A  
HETATM   11  C   UNL     1     -11.871  11.545  68.718  1.00  0.00    -0.394 A  
HETATM   12  C   UNL     1     -11.171  10.667  67.889  1.00  0.00    -0.376 A  
HETATM   13  C   UNL     1     -10.525   9.554  68.433  1.00  0.00    -0.224 A  
HETATM   14  O   UNL     1      -9.861   8.704  67.593  1.00  0.00    -0.162 OA 
HETATM   15  H   UNL     1      -9.836   8.861  66.657  1.00  0.00     0.000 HD 
ENDBRANCH   6   8
ENDBRANCH   5   6
ENDBRANCH   4   5
ENDBRANCH   2   4
TORSDOF 4
ENDMDL
MODEL      189
REMARK 921   NORMALIZED FREE ENERGY PREDICTED BY IDOCK:   -3.03 KCAL/MOL
REMARK 922        TOTAL FREE ENERGY PREDICTED BY IDOCK:   -4.15 KCAL/MOL
REMARK 923 INTER-LIGAND FREE ENERGY PREDICTED BY IDOCK:   -3.81 KCAL/MOL
REMARK 924 INTRA-LIGAND FREE ENERGY PREDICTED BY IDOCK:   -0.34 KCAL/MOL
REMARK 927      BINDING AFFINITY PREDICTED BY RF-SCORE:    0.00 PKD
ROOT
HETATM    1  O   UNL     1     -11.389   4.940  65.463  1.00  0.00    -0.906 OA 
HETATM    2  C   UNL     1     -10.416   4.599  66.436  1.00  0.00    -0.163 C  
HETATM    3  H   UNL     1     -11.581   4.206  64.891  1.00  0.00     0.000 HD 
ENDROOT
BRANCH   2   4
HETATM    4  C   UNL     1     -10.107   5.779  67.356  1.00  0.00    -0.175 C  
BRANCH   4   5
HETATM    5  O   UNL     1     -11.001   5.697  68.471  1.00  0.00    -0.184 OA 
BRANCH   5   6
HETATM    6  C   UNL     1     -10.445   5.227  69.612  1.00  0.00    -0.250 C  
HETATM    7  O   UNL     1      -9.710   4.256  69.700  1.00  0.00    -0.200 OA 
BRANCH   6   8
HETATM    8  C   UNL     1     -10.576   6.254  70.682  1.00  0.00    -0.301 A  
HETATM    9  C   UNL     1     -11.515   7.272  70.445  1.00  0.00    -0.279 A  
HETATM   10  C   UNL     1     -11.840   8.184  71.449  1.00  0.00    -0.329 A  
HETATM   11  C   UNL     1     -11.229   8.090  72.696  1.00  0.00    -0.462 A  
HETATM   12  C   UNL     1     -10.273   7.101  72.936  1.00  0.00    -0.266 A  
HETATM   13  C   UNL     1      -9.941   6.190  71.930  1.00  0.00    -0.164 A  
HETATM   14  O   UNL     1      -8.989   5.243  72.190  1.00  0.00    -0.129 OA 
HETATM   15  H   UNL     1      -8.559   5.200  73.035  1.00  0.00     0.000 HD 
ENDBRANCH   6   8
ENDBRANCH   5   6
ENDBRANCH   4   5
ENDBRANCH   2   4
TORSDOF 4
ENDMDL
MODEL      190
REMARK 921   NORMALIZED FREE ENERGY PREDICTED BY IDOCK:   -3.02 KCAL/MOL
REMARK 922        TOTAL FREE ENERGY PREDICTED BY IDOCK:   -4.14 KCAL/MOL
REMARK 923 INTER-LIGAND FREE ENERGY PREDICTED BY IDOCK:   -3.81 KCAL/MOL
REMARK 924 INTRA-LIGAND FREE ENERGY PREDICTED BY IDOCK:   -0.33 KCAL/MOL
REMARK 927      BINDING AFFINITY PREDICTED BY RF-SCORE:    0.00 PKD
ROOT
HETATM    1  O   UNL     1     -11.716   4.475  65.191  1.00  0.00    -1.036 OA 
HETATM    2  C   UNL     1     -10.618   4.778  66.033  1.00  0.00    -0.254 C  
HETATM    3  H   UNL     1     -11.708   3.564  64.921  1.00  0.00     0.000 HD 
ENDROOT
BRANCH   2   4
HETATM    4  C   UNL     1     -10.632   6.243  66.466  1.00  0.00    -0.108 C  
BRANCH   4   5
HETATM    5  O   UNL     1     -11.506   6.346  67.595  1.00  0.00    -0.142 OA 
BRANCH   5   6
HETATM    6  C   UNL     1     -11.067   7.164  68.581  1.00  0.00     0.052 C  
HETATM    7  O   UNL     1     -10.971   8.379  68.511  1.00  0.00     0.014 OA 
BRANCH   6   8
HETATM    8  C   UNL     1     -11.044   6.415  69.867  1.00  0.00    -0.444 A  
HETATM    9  C   UNL     1      -9.895   5.644  70.109  1.00  0.00    -0.250 A  
HETATM   10  C   UNL     1      -9.693   5.041  71.351  1.00  0.00    -0.231 A  
HETATM   11  C   UNL     1     -10.640   5.199  72.360  1.00  0.00    -0.278 A  
HETATM   12  C   UNL     1     -11.800   5.938  72.124  1.00  0.00    -0.247 A  
HETATM   13  C   UNL     1     -12.007   6.538  70.879  1.00  0.00    -0.291 A  
HETATM   14  O   UNL     1     -13.160   7.242  70.673  1.00  0.00    -0.591 OA 
HETATM   15  H   UNL     1     -13.812   7.326  71.358  1.00  0.00     0.000 HD 
ENDBRANCH   6   8
ENDBRANCH   5   6
ENDBRANCH   4   5
ENDBRANCH   2   4
TORSDOF 4
ENDMDL
MODEL      191
REMARK 921   NORMALIZED FREE ENERGY PREDICTED BY IDOCK:   -3.02 KCAL/MOL
REMARK 922        TOTAL FREE ENERGY PREDICTED BY IDOCK:   -4.13 KCAL/MOL
REMARK 923 INTER-LIGAND FREE ENERGY PREDICTED BY IDOCK:   -3.70 KCAL/MOL
REMARK 924 INTRA-LIGAND FREE ENERGY PREDICTED BY IDOCK:   -0.43 KCAL/MOL
REMARK 927      BINDING AFFINITY PREDICTED BY RF-SCORE:    0.00 PKD
ROOT
HETATM    1  O   UNL     1      -8.887   7.409  64.723  1.00  0.00    -0.340 OA 
HETATM    2  C   UNL     1      -8.845   8.682  65.343  1.00  0.00    -0.155 C  
HETATM    3  H   UNL     1      -8.684   7.466  63.796  1.00  0.00     0.000 HD 
ENDROOT
BRANCH   2   4
HETATM    4  C   UNL     1      -9.170   8.590  66.833  1.00  0.00    -0.158 C  
BRANCH   4   5
HETATM    5  O   UNL     1      -9.484   9.911  67.284  1.00  0.00    -0.149 OA 
BRANCH   5   6
HETATM    6  C   UNL     1     -10.552   9.991  68.113  1.00  0.00    -0.227 C  
HETATM    7  O   UNL     1     -10.811   9.215  69.019  1.00  0.00    -0.191 OA 
BRANCH   6   8
HETATM    8  C   UNL     1     -11.172  11.338  67.985  1.00  0.00    -0.351 A  
HETATM    9  C   UNL     1     -11.455  12.001  69.192  1.00  0.00    -0.357 A  
HETATM   10  C   UNL     1     -11.877  13.331  69.188  1.00  0.00    -0.378 A  
HETATM   11  C   UNL     1     -12.023  14.009  67.981  1.00  0.00    -0.386 A  
HETATM   12  C   UNL     1     -11.773  13.354  66.774  1.00  0.00    -0.429 A  
HETATM   13  C   UNL     1     -11.356  12.020  66.774  1.00  0.00    -0.339 A  
HETATM   14  O   UNL     1     -11.135  11.401  65.576  1.00  0.00    -0.239 OA 
HETATM   15  H   UNL     1     -11.260  11.862  64.755  1.00  0.00     0.000 HD 
ENDBRANCH   6   8
ENDBRANCH   5   6
ENDBRANCH   4   5
ENDBRANCH   2   4
TORSDOF 4
ENDMDL
MODEL      192
REMARK 921   NORMALIZED FREE ENERGY PREDICTED BY IDOCK:   -3.01 KCAL/MOL
REMARK 922        TOTAL FREE ENERGY PREDICTED BY IDOCK:   -4.13 KCAL/MOL
REMARK 923 INTER-LIGAND FREE ENERGY PREDICTED BY IDOCK:   -3.76 KCAL/MOL
REMARK 924 INTRA-LIGAND FREE ENERGY PREDICTED BY IDOCK:   -0.38 KCAL/MOL
REMARK 927      BINDING AFFINITY PREDICTED BY RF-SCORE:    0.00 PKD
ROOT
HETATM    1  O   UNL     1      -8.475  11.844  66.454  1.00  0.00    -0.327 OA 
HETATM    2  C   UNL     1      -9.039  11.632  67.737  1.00  0.00    -0.175 C  
HETATM    3  H   UNL     1      -8.805  12.640  66.055  1.00  0.00     0.000 HD 
ENDROOT
BRANCH   2   4
HETATM    4  C   UNL     1      -8.507  10.352  68.378  1.00  0.00    -0.124 C  
BRANCH   4   5
HETATM    5  O   UNL     1      -9.462   9.937  69.359  1.00  0.00    -0.187 OA 
BRANCH   5   6
HETATM    6  C   UNL     1      -8.940   9.268  70.415  1.00  0.00    -0.239 C  
HETATM    7  O   UNL     1      -7.917   9.565  71.012  1.00  0.00    -0.321 OA 
BRANCH   6   8
HETATM    8  C   UNL     1      -9.962   8.331  70.957  1.00  0.00    -0.226 A  
HETATM    9  C   UNL     1     -10.036   8.246  72.357  1.00  0.00    -0.383 A  
HETATM   10  C   UNL     1     -11.066   7.532  72.971  1.00  0.00    -0.413 A  
HETATM   11  C   UNL     1     -12.028   6.895  72.191  1.00  0.00    -0.302 A  
HETATM   12  C   UNL     1     -11.949   6.947  70.799  1.00  0.00    -0.424 A  
HETATM   13  C   UNL     1     -10.915   7.657  70.182  1.00  0.00    -0.246 A  
HETATM   14  O   UNL     1     -10.856   7.676  68.816  1.00  0.00    -0.390 OA 
HETATM   15  H   UNL     1     -11.502   7.220  68.291  1.00  0.00     0.000 HD 
ENDBRANCH   6   8
ENDBRANCH   5   6
ENDBRANCH   4   5
ENDBRANCH   2   4
TORSDOF 4
ENDMDL
MODEL      193
REMARK 921   NORMALIZED FREE ENERGY PREDICTED BY IDOCK:   -3.01 KCAL/MOL
REMARK 922        TOTAL FREE ENERGY PREDICTED BY IDOCK:   -4.12 KCAL/MOL
REMARK 923 INTER-LIGAND FREE ENERGY PREDICTED BY IDOCK:   -4.35 KCAL/MOL
REMARK 924 INTRA-LIGAND FREE ENERGY PREDICTED BY IDOCK:    0.23 KCAL/MOL
REMARK 927      BINDING AFFINITY PREDICTED BY RF-SCORE:    0.00 PKD
ROOT
HETATM    1  O   UNL     1     -11.492  16.305  63.723  1.00  0.00    -1.475 OA 
HETATM    2  C   UNL     1     -11.089  16.923  64.933  1.00  0.00     0.036 C  
HETATM    3  H   UNL     1     -11.891  16.930  63.129  1.00  0.00     0.000 HD 
ENDROOT
BRANCH   2   4
HETATM    4  C   UNL     1     -10.449  15.917  65.889  1.00  0.00    -0.359 C  
BRANCH   4   5
HETATM    5  O   UNL     1     -10.054  14.782  65.112  1.00  0.00    -0.372 OA 
BRANCH   5   6
HETATM    6  C   UNL     1     -10.799  13.669  65.311  1.00  0.00    -0.322 C  
HETATM    7  O   UNL     1     -11.882  13.434  64.798  1.00  0.00    -0.350 OA 
BRANCH   6   8
HETATM    8  C   UNL     1      -9.962  12.629  65.970  1.00  0.00    -0.267 A  
HETATM    9  C   UNL     1     -10.388  11.301  65.803  1.00  0.00    -0.310 A  
HETATM   10  C   UNL     1      -9.588  10.241  66.231  1.00  0.00    -0.238 A  
HETATM   11  C   UNL     1      -8.359  10.498  66.833  1.00  0.00    -0.126 A  
HETATM   12  C   UNL     1      -7.938  11.813  67.031  1.00  0.00    -0.164 A  
HETATM   13  C   UNL     1      -8.739  12.878  66.609  1.00  0.00    -0.037 A  
HETATM   14  O   UNL     1      -8.306  14.155  66.832  1.00  0.00    -0.368 OA 
HETATM   15  H   UNL     1      -7.478  14.323  67.264  1.00  0.00     0.000 HD 
ENDBRANCH   6   8
ENDBRANCH   5   6
ENDBRANCH   4   5
ENDBRANCH   2   4
TORSDOF 4
ENDMDL
MODEL      194
REMARK 921   NORMALIZED FREE ENERGY PREDICTED BY IDOCK:   -2.97 KCAL/MOL
REMARK 922        TOTAL FREE ENERGY PREDICTED BY IDOCK:   -4.08 KCAL/MOL
REMARK 923 INTER-LIGAND FREE ENERGY PREDICTED BY IDOCK:   -3.51 KCAL/MOL
REMARK 924 INTRA-LIGAND FREE ENERGY PREDICTED BY IDOCK:   -0.57 KCAL/MOL
REMARK 927      BINDING AFFINITY PREDICTED BY RF-SCORE:    0.00 PKD
ROOT
HETATM    1  O   UNL     1      -8.190   6.293  67.243  1.00  0.00    -0.109 OA 
HETATM    2  C   UNL     1      -7.469   7.258  66.495  1.00  0.00    -0.088 C  
HETATM    3  H   UNL     1      -7.630   5.850  67.870  1.00  0.00     0.000 HD 
ENDROOT
BRANCH   2   4
HETATM    4  C   UNL     1      -8.370   7.971  65.487  1.00  0.00    -0.147 C  
BRANCH   4   5
HETATM    5  O   UNL     1      -8.836   9.173  66.107  1.00  0.00    -0.142 OA 
BRANCH   5   6
HETATM    6  C   UNL     1     -10.126   9.138  66.519  1.00  0.00    -0.287 C  
HETATM    7  O   UNL     1     -10.742   8.136  66.848  1.00  0.00    -0.309 OA 
BRANCH   6   8
HETATM    8  C   UNL     1     -10.578  10.519  66.839  1.00  0.00    -0.303 A  
HETATM    9  C   UNL     1     -10.370  11.482  65.836  1.00  0.00    -0.293 A  
HETATM   10  C   UNL     1     -10.907  12.764  65.961  1.00  0.00    -0.301 A  
HETATM   11  C   UNL     1     -11.652  13.096  67.089  1.00  0.00    -0.410 A  
HETATM   12  C   UNL     1     -11.841  12.159  68.106  1.00  0.00    -0.362 A  
HETATM   13  C   UNL     1     -11.300  10.876  67.986  1.00  0.00    -0.312 A  
HETATM   14  O   UNL     1     -11.490   9.985  69.006  1.00  0.00    -0.449 OA 
HETATM   15  H   UNL     1     -11.979  10.227  69.783  1.00  0.00     0.000 HD 
ENDBRANCH   6   8
ENDBRANCH   5   6
ENDBRANCH   4   5
ENDBRANCH   2   4
TORSDOF 4
ENDMDL
MODEL      195
REMARK 921   NORMALIZED FREE ENERGY PREDICTED BY IDOCK:   -2.96 KCAL/MOL
REMARK 922        TOTAL FREE ENERGY PREDICTED BY IDOCK:   -4.07 KCAL/MOL
REMARK 923 INTER-LIGAND FREE ENERGY PREDICTED BY IDOCK:   -3.70 KCAL/MOL
REMARK 924 INTRA-LIGAND FREE ENERGY PREDICTED BY IDOCK:   -0.37 KCAL/MOL
REMARK 927      BINDING AFFINITY PREDICTED BY RF-SCORE:    0.00 PKD
ROOT
HETATM    1  O   UNL     1      -5.973  14.771  71.018  1.00  0.00    -0.112 OA 
HETATM    2  C   UNL     1      -6.720  14.654  69.819  1.00  0.00    -0.165 C  
HETATM    3  H   UNL     1      -5.473  13.982  71.195  1.00  0.00     0.000 HD 
ENDROOT
BRANCH   2   4
HETATM    4  C   UNL     1      -7.523  15.922  69.534  1.00  0.00    -0.157 C  
BRANCH   4   5
HETATM    5  O   UNL     1      -8.870  15.522  69.262  1.00  0.00    -0.228 OA 
BRANCH   5   6
HETATM    6  C   UNL     1      -9.641  16.475  68.687  1.00  0.00    -0.241 C  
HETATM    7  O   UNL     1      -9.506  17.681  68.824  1.00  0.00    -0.286 OA 
BRANCH   6   8
HETATM    8  C   UNL     1     -10.453  15.861  67.601  1.00  0.00    -0.289 A  
HETATM    9  C   UNL     1     -10.184  16.316  66.299  1.00  0.00    -0.339 A  
HETATM   10  C   UNL     1     -10.763  15.689  65.195  1.00  0.00    -0.463 A  
HETATM   11  C   UNL     1     -11.617  14.606  65.381  1.00  0.00    -0.345 A  
HETATM   12  C   UNL     1     -11.916  14.162  66.671  1.00  0.00    -0.470 A  
HETATM   13  C   UNL     1     -11.342  14.792  67.779  1.00  0.00    -0.330 A  
HETATM   14  O   UNL     1     -11.667  14.344  69.029  1.00  0.00    -0.275 OA 
HETATM   15  H   UNL     1     -12.268  13.620  69.149  1.00  0.00     0.000 HD 
ENDBRANCH   6   8
ENDBRANCH   5   6
ENDBRANCH   4   5
ENDBRANCH   2   4
TORSDOF 4
ENDMDL
MODEL      196
REMARK 921   NORMALIZED FREE ENERGY PREDICTED BY IDOCK:   -2.96 KCAL/MOL
REMARK 922        TOTAL FREE ENERGY PREDICTED BY IDOCK:   -4.07 KCAL/MOL
REMARK 923 INTER-LIGAND FREE ENERGY PREDICTED BY IDOCK:   -3.66 KCAL/MOL
REMARK 924 INTRA-LIGAND FREE ENERGY PREDICTED BY IDOCK:   -0.41 KCAL/MOL
REMARK 927      BINDING AFFINITY PREDICTED BY RF-SCORE:    0.00 PKD
ROOT
HETATM    1  O   UNL     1      -9.496  19.689  68.531  1.00  0.00    -0.355 OA 
HETATM    2  C   UNL     1      -9.159  19.763  67.156  1.00  0.00    -0.330 C  
HETATM    3  H   UNL     1     -10.294  20.169  68.720  1.00  0.00     0.000 HD 
ENDROOT
BRANCH   2   4
HETATM    4  C   UNL     1      -7.876  18.991  66.852  1.00  0.00    -0.245 C  
BRANCH   4   5
HETATM    5  O   UNL     1      -8.174  18.063  65.804  1.00  0.00    -0.519 OA 
BRANCH   5   6
HETATM    6  C   UNL     1      -9.141  17.162  66.100  1.00  0.00    -0.179 C  
HETATM    7  O   UNL     1     -10.121  16.917  65.415  1.00  0.00    -0.586 OA 
BRANCH   6   8
HETATM    8  C   UNL     1      -8.667  16.276  67.198  1.00  0.00    -0.213 A  
HETATM    9  C   UNL     1      -7.426  15.650  66.990  1.00  0.00    -0.228 A  
HETATM   10  C   UNL     1      -6.810  14.937  68.019  1.00  0.00    -0.147 A  
HETATM   11  C   UNL     1      -7.428  14.840  69.263  1.00  0.00    -0.162 A  
HETATM   12  C   UNL     1      -8.674  15.433  69.474  1.00  0.00    -0.210 A  
HETATM   13  C   UNL     1      -9.297  16.143  68.443  1.00  0.00    -0.206 A  
HETATM   14  O   UNL     1     -10.524  16.698  68.676  1.00  0.00    -0.281 OA 
HETATM   15  H   UNL     1     -10.950  16.608  69.520  1.00  0.00     0.000 HD 
ENDBRANCH   6   8
ENDBRANCH   5   6
ENDBRANCH   4   5
ENDBRANCH   2   4
TORSDOF 4
ENDMDL
MODEL      197
REMARK 921   NORMALIZED FREE ENERGY PREDICTED BY IDOCK:   -2.92 KCAL/MOL
REMARK 922        TOTAL FREE ENERGY PREDICTED BY IDOCK:   -4.02 KCAL/MOL
REMARK 923 INTER-LIGAND FREE ENERGY PREDICTED BY IDOCK:   -3.52 KCAL/MOL
REMARK 924 INTRA-LIGAND FREE ENERGY PREDICTED BY IDOCK:   -0.50 KCAL/MOL
REMARK 927      BINDING AFFINITY PREDICTED BY RF-SCORE:    0.00 PKD
ROOT
HETATM    1  O   UNL     1      -8.603  19.514  68.581  1.00  0.00    -0.356 OA 
HETATM    2  C   UNL     1      -8.842  19.586  67.186  1.00  0.00    -0.304 C  
HETATM    3  H   UNL     1      -9.346  19.837  69.079  1.00  0.00     0.000 HD 
ENDROOT
BRANCH   2   4
HETATM    4  C   UNL     1      -7.649  19.067  66.386  1.00  0.00    -0.263 C  
BRANCH   4   5
HETATM    5  O   UNL     1      -7.976  17.747  65.940  1.00  0.00    -0.523 OA 
BRANCH   5   6
HETATM    6  C   UNL     1      -7.406  16.748  66.654  1.00  0.00    -0.262 C  
HETATM    7  O   UNL     1      -6.292  16.774  67.154  1.00  0.00    -0.153 OA 
BRANCH   6   8
HETATM    8  C   UNL     1      -8.449  15.756  67.032  1.00  0.00    -0.251 A  
HETATM    9  C   UNL     1      -9.527  15.627  66.139  1.00  0.00    -0.376 A  
HETATM   10  C   UNL     1     -10.469  14.612  66.307  1.00  0.00    -0.302 A  
HETATM   11  C   UNL     1     -10.346  13.720  67.369  1.00  0.00    -0.252 A  
HETATM   12  C   UNL     1      -9.297  13.855  68.279  1.00  0.00    -0.209 A  
HETATM   13  C   UNL     1      -8.355  14.874  68.117  1.00  0.00    -0.144 A  
HETATM   14  O   UNL     1      -7.348  14.990  69.035  1.00  0.00    -0.127 OA 
HETATM   15  H   UNL     1      -7.284  14.392  69.770  1.00  0.00     0.000 HD 
ENDBRANCH   6   8
ENDBRANCH   5   6
ENDBRANCH   4   5
ENDBRANCH   2   4
TORSDOF 4
ENDMDL
MODEL      198
REMARK 921   NORMALIZED FREE ENERGY PREDICTED BY IDOCK:   -2.92 KCAL/MOL
REMARK 922        TOTAL FREE ENERGY PREDICTED BY IDOCK:   -4.02 KCAL/MOL
REMARK 923 INTER-LIGAND FREE ENERGY PREDICTED BY IDOCK:   -3.64 KCAL/MOL
REMARK 924 INTRA-LIGAND FREE ENERGY PREDICTED BY IDOCK:   -0.38 KCAL/MOL
REMARK 927      BINDING AFFINITY PREDICTED BY RF-SCORE:    0.00 PKD
ROOT
HETATM    1  O   UNL     1     -10.918  15.307  68.768  1.00  0.00    -0.239 OA 
HETATM    2  C   UNL     1     -11.778  14.182  68.715  1.00  0.00    -0.345 C  
HETATM    3  H   UNL     1     -10.978  15.753  69.605  1.00  0.00     0.000 HD 
ENDROOT
BRANCH   2   4
HETATM    4  C   UNL     1     -11.680  13.466  67.369  1.00  0.00    -0.373 C  
BRANCH   4   5
HETATM    5  O   UNL     1     -10.788  12.359  67.538  1.00  0.00    -0.225 OA 
BRANCH   5   6
HETATM    6  C   UNL     1     -10.692  11.538  66.466  1.00  0.00    -0.273 C  
HETATM    7  O   UNL     1     -10.567  11.892  65.304  1.00  0.00    -0.257 OA 
BRANCH   6   8
HETATM    8  C   UNL     1     -10.416  10.152  66.932  1.00  0.00    -0.286 A  
HETATM    9  C   UNL     1     -10.772   9.868  68.262  1.00  0.00    -0.276 A  
HETATM   10  C   UNL     1     -10.716   8.562  68.748  1.00  0.00    -0.089 A  
HETATM   11  C   UNL     1     -10.302   7.528  67.913  1.00  0.00    -0.266 A  
HETATM   12  C   UNL     1      -9.918   7.800  66.599  1.00  0.00    -0.299 A  
HETATM   13  C   UNL     1      -9.967   9.109  66.111  1.00  0.00    -0.268 A  
HETATM   14  O   UNL     1      -9.569   9.345  64.824  1.00  0.00    -0.446 OA 
HETATM   15  H   UNL     1      -9.265   8.639  64.268  1.00  0.00     0.000 HD 
ENDBRANCH   6   8
ENDBRANCH   5   6
ENDBRANCH   4   5
ENDBRANCH   2   4
TORSDOF 4
ENDMDL
MODEL      199
REMARK 921   NORMALIZED FREE ENERGY PREDICTED BY IDOCK:   -2.92 KCAL/MOL
REMARK 922        TOTAL FREE ENERGY PREDICTED BY IDOCK:   -4.02 KCAL/MOL
REMARK 923 INTER-LIGAND FREE ENERGY PREDICTED BY IDOCK:   -3.59 KCAL/MOL
REMARK 924 INTRA-LIGAND FREE ENERGY PREDICTED BY IDOCK:   -0.43 KCAL/MOL
REMARK 927      BINDING AFFINITY PREDICTED BY RF-SCORE:    0.00 PKD
ROOT
HETATM    1  O   UNL     1     -11.653   4.595  65.112  1.00  0.00    -1.107 OA 
HETATM    2  C   UNL     1     -10.542   4.751  65.978  1.00  0.00    -0.254 C  
HETATM    3  H   UNL     1     -11.682   3.722  64.738  1.00  0.00     0.000 HD 
ENDROOT
BRANCH   2   4
HETATM    4  C   UNL     1     -10.495   6.154  66.580  1.00  0.00    -0.202 C  
BRANCH   4   5
HETATM    5  O   UNL     1     -11.279   6.132  67.777  1.00  0.00    -0.294 OA 
BRANCH   5   6
HETATM    6  C   UNL     1     -10.572   5.946  68.917  1.00  0.00    -0.288 C  
HETATM    7  O   UNL     1     -10.313   4.867  69.427  1.00  0.00    -0.207 OA 
BRANCH   6   8
HETATM    8  C   UNL     1      -9.870   7.209  69.271  1.00  0.00    -0.161 A  
HETATM    9  C   UNL     1     -10.689   8.273  69.686  1.00  0.00    -0.196 A  
HETATM   10  C   UNL     1     -10.128   9.441  70.202  1.00  0.00    -0.273 A  
HETATM   11  C   UNL     1      -8.744   9.559  70.304  1.00  0.00    -0.270 A  
HETATM   12  C   UNL     1      -7.918   8.522  69.869  1.00  0.00    -0.106 A  
HETATM   13  C   UNL     1      -8.477   7.353  69.347  1.00  0.00    -0.133 A  
HETATM   14  O   UNL     1      -7.641   6.361  68.914  1.00  0.00    -0.095 OA 
HETATM   15  H   UNL     1      -6.698   6.458  68.966  1.00  0.00     0.000 HD 
ENDBRANCH   6   8
ENDBRANCH   5   6
ENDBRANCH   4   5
ENDBRANCH   2   4
TORSDOF 4
ENDMDL
MODEL      200
REMARK 921   NORMALIZED FREE ENERGY PREDICTED BY IDOCK:   -2.92 KCAL/MOL
REMARK 922        TOTAL FREE ENERGY PREDICTED BY IDOCK:   -4.01 KCAL/MOL
REMARK 923 INTER-LIGAND FREE ENERGY PREDICTED BY IDOCK:   -3.93 KCAL/MOL
REMARK 924 INTRA-LIGAND FREE ENERGY PREDICTED BY IDOCK:   -0.08 KCAL/MOL
REMARK 927      BINDING AFFINITY PREDICTED BY RF-SCORE:    0.00 PKD
ROOT
HETATM    1  O   UNL     1      -7.656  11.667  69.139  1.00  0.00    -0.283 OA 
HETATM    2  C   UNL     1      -7.628  10.564  68.248  1.00  0.00    -0.096 C  
HETATM    3  H   UNL     1      -6.892  11.678  69.704  1.00  0.00     0.000 HD 
ENDROOT
BRANCH   2   4
HETATM    4  C   UNL     1      -8.855  10.547  67.339  1.00  0.00    -0.132 C  
BRANCH   4   5
HETATM    5  O   UNL     1      -9.595  11.745  67.598  1.00  0.00    -0.177 OA 
BRANCH   5   6
HETATM    6  C   UNL     1     -10.904  11.690  67.257  1.00  0.00    -0.256 C  
HETATM    7  O   UNL     1     -11.786  11.137  67.896  1.00  0.00    -0.542 OA 
BRANCH   6   8
HETATM    8  C   UNL     1     -11.173  12.682  66.181  1.00  0.00    -0.350 A  
HETATM    9  C   UNL     1     -12.455  12.636  65.608  1.00  0.00    -0.255 A  
HETATM   10  C   UNL     1     -12.870  13.625  64.716  1.00  0.00    -0.176 A  
HETATM   11  C   UNL     1     -12.007  14.666  64.385  1.00  0.00    -0.454 A  
HETATM   12  C   UNL     1     -10.721  14.709  64.924  1.00  0.00    -0.447 A  
HETATM   13  C   UNL     1     -10.301  13.716  65.814  1.00  0.00    -0.298 A  
HETATM   14  O   UNL     1      -9.029  13.776  66.313  1.00  0.00    -0.464 OA 
HETATM   15  H   UNL     1      -8.438  14.477  66.064  1.00  0.00     0.000 HD 
ENDBRANCH   6   8
ENDBRANCH   5   6
ENDBRANCH   4   5
ENDBRANCH   2   4
TORSDOF 4
ENDMDL
MODEL      201
REMARK 921   NORMALIZED FREE ENERGY PREDICTED BY IDOCK:   -2.90 KCAL/MOL
REMARK 922        TOTAL FREE ENERGY PREDICTED BY IDOCK:   -4.00 KCAL/MOL
REMARK 923 INTER-LIGAND FREE ENERGY PREDICTED BY IDOCK:   -3.77 KCAL/MOL
REMARK 924 INTRA-LIGAND FREE ENERGY PREDICTED BY IDOCK:   -0.22 KCAL/MOL
REMARK 927      BINDING AFFINITY PREDICTED BY RF-SCORE:    0.00 PKD
ROOT
HETATM    1  O   UNL     1     -11.172  14.562  71.118  1.00  0.00    -0.517 OA 
HETATM    2  C   UNL     1     -10.807  14.805  69.769  1.00  0.00    -0.198 C  
HETATM    3  H   UNL     1     -12.104  14.397  71.202  1.00  0.00     0.000 HD 
ENDROOT
BRANCH   2   4
HETATM    4  C   UNL     1      -9.309  15.071  69.634  1.00  0.00    -0.001 C  
BRANCH   4   5
HETATM    5  O   UNL     1      -9.130  15.946  68.516  1.00  0.00    -0.186 OA 
BRANCH   5   6
HETATM    6  C   UNL     1      -8.375  17.042  68.767  1.00  0.00    -0.237 C  
HETATM    7  O   UNL     1      -7.281  17.046  69.309  1.00  0.00    -0.231 OA 
BRANCH   6   8
HETATM    8  C   UNL     1      -8.907  18.194  67.988  1.00  0.00    -0.286 A  
HETATM    9  C   UNL     1      -7.949  19.090  67.484  1.00  0.00    -0.276 A  
HETATM   10  C   UNL     1      -8.321  20.104  66.601  1.00  0.00    -0.338 A  
HETATM   11  C   UNL     1      -9.653  20.234  66.217  1.00  0.00    -0.428 A  
HETATM   12  C   UNL     1     -10.619  19.369  66.733  1.00  0.00    -0.574 A  
HETATM   13  C   UNL     1     -10.250  18.356  67.622  1.00  0.00    -0.379 A  
HETATM   14  O   UNL     1     -11.222  17.535  68.122  1.00  0.00    -0.121 OA 
HETATM   15  H   UNL     1     -12.132  17.644  67.874  1.00  0.00     0.000 HD 
ENDBRANCH   6   8
ENDBRANCH   5   6
ENDBRANCH   4   5
ENDBRANCH   2   4
TORSDOF 4
ENDMDL
MODEL      202
REMARK 921   NORMALIZED FREE ENERGY PREDICTED BY IDOCK:   -2.90 KCAL/MOL
REMARK 922        TOTAL FREE ENERGY PREDICTED BY IDOCK:   -3.99 KCAL/MOL
REMARK 923 INTER-LIGAND FREE ENERGY PREDICTED BY IDOCK:   -3.52 KCAL/MOL
REMARK 924 INTRA-LIGAND FREE ENERGY PREDICTED BY IDOCK:   -0.47 KCAL/MOL
REMARK 927      BINDING AFFINITY PREDICTED BY RF-SCORE:    0.00 PKD
ROOT
HETATM    1  O   UNL     1     -10.463  13.434  69.178  1.00  0.00    -0.422 OA 
HETATM    2  C   UNL     1     -10.811  12.763  67.979  1.00  0.00    -0.233 C  
HETATM    3  H   UNL     1      -9.828  14.123  69.020  1.00  0.00     0.000 HD 
ENDROOT
BRANCH   2   4
HETATM    4  C   UNL     1     -11.833  11.657  68.233  1.00  0.00    -0.265 C  
BRANCH   4   5
HETATM    5  O   UNL     1     -11.103  10.454  68.495  1.00  0.00    -0.247 OA 
BRANCH   5   6
HETATM    6  C   UNL     1     -11.076  10.077  69.796  1.00  0.00    -0.274 C  
HETATM    7  O   UNL     1     -11.512  10.725  70.735  1.00  0.00    -0.306 OA 
BRANCH   6   8
HETATM    8  C   UNL     1     -10.755   8.627  69.881  1.00  0.00    -0.227 A  
HETATM    9  C   UNL     1     -11.447   7.900  70.864  1.00  0.00    -0.294 A  
HETATM   10  C   UNL     1     -11.351   6.509  70.918  1.00  0.00    -0.393 A  
HETATM   11  C   UNL     1     -10.559   5.833  69.993  1.00  0.00    -0.380 A  
HETATM   12  C   UNL     1      -9.843   6.545  69.030  1.00  0.00    -0.153 A  
HETATM   13  C   UNL     1      -9.933   7.938  68.977  1.00  0.00    -0.187 A  
HETATM   14  O   UNL     1      -9.208   8.608  68.032  1.00  0.00    -0.139 OA 
HETATM   15  H   UNL     1      -8.651   8.142  67.420  1.00  0.00     0.000 HD 
ENDBRANCH   6   8
ENDBRANCH   5   6
ENDBRANCH   4   5
ENDBRANCH   2   4
TORSDOF 4
ENDMDL
MODEL      203
REMARK 921   NORMALIZED FREE ENERGY PREDICTED BY IDOCK:   -2.90 KCAL/MOL
REMARK 922        TOTAL FREE ENERGY PREDICTED BY IDOCK:   -3.98 KCAL/MOL
REMARK 923 INTER-LIGAND FREE ENERGY PREDICTED BY IDOCK:   -3.73 KCAL/MOL
REMARK 924 INTRA-LIGAND FREE ENERGY PREDICTED BY IDOCK:   -0.26 KCAL/MOL
REMARK 927      BINDING AFFINITY PREDICTED BY RF-SCORE:    0.00 PKD
ROOT
HETATM    1  O   UNL     1      -5.651   8.815  63.699  1.00  0.00    -0.066 OA 
HETATM    2  C   UNL     1      -6.434   9.406  64.722  1.00  0.00    -0.079 C  
HETATM    3  H   UNL     1      -4.781   8.594  64.009  1.00  0.00     0.000 HD 
ENDROOT
BRANCH   2   4
HETATM    4  C   UNL     1      -7.833   9.761  64.223  1.00  0.00    -0.134 C  
BRANCH   4   5
HETATM    5  O   UNL     1      -8.506  10.442  65.286  1.00  0.00    -0.160 OA 
BRANCH   5   6
HETATM    6  C   UNL     1      -9.843  10.232  65.340  1.00  0.00    -0.296 C  
HETATM    7  O   UNL     1     -10.392   9.249  65.812  1.00  0.00    -0.078 OA 
BRANCH   6   8
HETATM    8  C   UNL     1     -10.553  11.510  65.059  1.00  0.00    -0.354 A  
HETATM    9  C   UNL     1     -10.569  12.447  66.106  1.00  0.00    -0.283 A  
HETATM   10  C   UNL     1     -11.056  13.738  65.895  1.00  0.00    -0.286 A  
HETATM   11  C   UNL     1     -11.532  14.102  64.639  1.00  0.00    -0.392 A  
HETATM   12  C   UNL     1     -11.548  13.173  63.598  1.00  0.00    -0.445 A  
HETATM   13  C   UNL     1     -11.067  11.877  63.808  1.00  0.00    -0.436 A  
HETATM   14  O   UNL     1     -11.111  10.985  62.773  1.00  0.00    -0.721 OA 
HETATM   15  H   UNL     1     -11.459  11.234  61.926  1.00  0.00     0.000 HD 
ENDBRANCH   6   8
ENDBRANCH   5   6
ENDBRANCH   4   5
ENDBRANCH   2   4
TORSDOF 4
ENDMDL
MODEL      204
REMARK 921   NORMALIZED FREE ENERGY PREDICTED BY IDOCK:   -2.89 KCAL/MOL
REMARK 922        TOTAL FREE ENERGY PREDICTED BY IDOCK:   -3.98 KCAL/MOL
REMARK 923 INTER-LIGAND FREE ENERGY PREDICTED BY IDOCK:   -3.54 KCAL/MOL
REMARK 924 INTRA-LIGAND FREE ENERGY PREDICTED BY IDOCK:   -0.44 KCAL/MOL
REMARK 927      BINDING AFFINITY PREDICTED BY RF-SCORE:    0.00 PKD
ROOT
HETATM    1  O   UNL     1     -10.383   5.361  68.223  1.00  0.00    -0.180 OA 
HETATM    2  C   UNL     1     -10.869   5.599  69.534  1.00  0.00    -0.274 C  
HETATM    3  H   UNL     1     -10.817   4.617  67.821  1.00  0.00     0.000 HD 
ENDROOT
BRANCH   2   4
HETATM    4  C   UNL     1     -10.171   6.795  70.180  1.00  0.00    -0.195 C  
BRANCH   4   5
HETATM    5  O   UNL     1     -10.787   7.979  69.663  1.00  0.00    -0.240 OA 
BRANCH   5   6
HETATM    6  C   UNL     1      -9.937   9.006  69.428  1.00  0.00    -0.191 C  
HETATM    7  O   UNL     1      -8.861   8.925  68.858  1.00  0.00    -0.135 OA 
BRANCH   6   8
HETATM    8  C   UNL     1     -10.649  10.294  69.655  1.00  0.00    -0.288 A  
HETATM    9  C   UNL     1     -10.469  11.278  68.669  1.00  0.00    -0.226 A  
HETATM   10  C   UNL     1     -11.220  12.453  68.694  1.00  0.00    -0.314 A  
HETATM   11  C   UNL     1     -12.155  12.657  69.705  1.00  0.00    -0.301 A  
HETATM   12  C   UNL     1     -12.323  11.701  70.708  1.00  0.00    -0.454 A  
HETATM   13  C   UNL     1     -11.567  10.525  70.689  1.00  0.00    -0.352 A  
HETATM   14  O   UNL     1     -11.743   9.615  71.694  1.00  0.00    -0.386 OA 
HETATM   15  H   UNL     1     -12.365   9.772  72.393  1.00  0.00     0.000 HD 
ENDBRANCH   6   8
ENDBRANCH   5   6
ENDBRANCH   4   5
ENDBRANCH   2   4
TORSDOF 4
ENDMDL
MODEL      205
REMARK 921   NORMALIZED FREE ENERGY PREDICTED BY IDOCK:   -2.89 KCAL/MOL
REMARK 922        TOTAL FREE ENERGY PREDICTED BY IDOCK:   -3.98 KCAL/MOL
REMARK 923 INTER-LIGAND FREE ENERGY PREDICTED BY IDOCK:   -3.57 KCAL/MOL
REMARK 924 INTRA-LIGAND FREE ENERGY PREDICTED BY IDOCK:   -0.41 KCAL/MOL
REMARK 927      BINDING AFFINITY PREDICTED BY RF-SCORE:    0.00 PKD
ROOT
HETATM    1  O   UNL     1      -8.249   7.743  70.920  1.00  0.00    -0.103 OA 
HETATM    2  C   UNL     1      -8.684   9.035  71.311  1.00  0.00    -0.171 C  
HETATM    3  H   UNL     1      -7.319   7.627  71.076  1.00  0.00     0.000 HD 
ENDROOT
BRANCH   2   4
HETATM    4  C   UNL     1     -10.179   9.221  71.060  1.00  0.00    -0.314 C  
BRANCH   4   5
HETATM    5  O   UNL     1     -10.403   9.037  69.658  1.00  0.00    -0.199 OA 
BRANCH   5   6
HETATM    6  C   UNL     1     -11.199   9.970  69.082  1.00  0.00    -0.149 C  
HETATM    7  O   UNL     1     -11.989  10.693  69.668  1.00  0.00    -0.290 OA 
BRANCH   6   8
HETATM    8  C   UNL     1     -10.729  10.225  67.693  1.00  0.00    -0.339 A  
HETATM    9  C   UNL     1      -9.838   9.278  67.161  1.00  0.00    -0.251 A  
HETATM   10  C   UNL     1      -9.470   9.326  65.817  1.00  0.00    -0.329 A  
HETATM   11  C   UNL     1      -9.987  10.322  64.992  1.00  0.00    -0.393 A  
HETATM   12  C   UNL     1     -10.850  11.286  65.514  1.00  0.00    -0.244 A  
HETATM   13  C   UNL     1     -11.216  11.244  66.862  1.00  0.00    -0.230 A  
HETATM   14  O   UNL     1     -12.051  12.212  67.347  1.00  0.00    -0.553 OA 
HETATM   15  H   UNL     1     -12.380  12.902  66.784  1.00  0.00     0.000 HD 
ENDBRANCH   6   8
ENDBRANCH   5   6
ENDBRANCH   4   5
ENDBRANCH   2   4
TORSDOF 4
ENDMDL
MODEL      206
REMARK 921   NORMALIZED FREE ENERGY PREDICTED BY IDOCK:   -2.88 KCAL/MOL
REMARK 922        TOTAL FREE ENERGY PREDICTED BY IDOCK:   -3.96 KCAL/MOL
REMARK 923 INTER-LIGAND FREE ENERGY PREDICTED BY IDOCK:   -3.42 KCAL/MOL
REMARK 924 INTRA-LIGAND FREE ENERGY PREDICTED BY IDOCK:   -0.54 KCAL/MOL
REMARK 927      BINDING AFFINITY PREDICTED BY RF-SCORE:    0.00 PKD
ROOT
HETATM    1  O   UNL     1      -6.285  12.908  70.895  1.00  0.00    -0.532 OA 
HETATM    2  C   UNL     1      -6.169  14.213  70.354  1.00  0.00    -0.149 C  
HETATM    3  H   UNL     1      -5.555  12.702  71.468  1.00  0.00     0.000 HD 
ENDROOT
BRANCH   2   4
HETATM    4  C   UNL     1      -7.342  14.543  69.433  1.00  0.00    -0.098 C  
BRANCH   4   5
HETATM    5  O   UNL     1      -7.164  13.790  68.228  1.00  0.00    -0.091 OA 
BRANCH   5   6
HETATM    6  C   UNL     1      -8.102  12.838  68.009  1.00  0.00    -0.162 C  
HETATM    7  O   UNL     1      -8.048  11.681  68.396  1.00  0.00    -0.141 OA 
BRANCH   6   8
HETATM    8  C   UNL     1      -9.355  13.483  67.530  1.00  0.00    -0.220 A  
HETATM    9  C   UNL     1      -9.307  14.035  66.239  1.00  0.00    -0.199 A  
HETATM   10  C   UNL     1     -10.468  14.510  65.627  1.00  0.00    -0.351 A  
HETATM   11  C   UNL     1     -11.684  14.441  66.301  1.00  0.00    -0.394 A  
HETATM   12  C   UNL     1     -11.741  13.922  67.595  1.00  0.00    -0.403 A  
HETATM   13  C   UNL     1     -10.579  13.451  68.213  1.00  0.00    -0.254 A  
HETATM   14  O   UNL     1     -10.663  12.964  69.487  1.00  0.00    -0.428 OA 
HETATM   15  H   UNL     1     -11.493  12.942  69.949  1.00  0.00     0.000 HD 
ENDBRANCH   6   8
ENDBRANCH   5   6
ENDBRANCH   4   5
ENDBRANCH   2   4
TORSDOF 4
ENDMDL
MODEL      207
REMARK 921   NORMALIZED FREE ENERGY PREDICTED BY IDOCK:   -2.87 KCAL/MOL
REMARK 922        TOTAL FREE ENERGY PREDICTED BY IDOCK:   -3.96 KCAL/MOL
REMARK 923 INTER-LIGAND FREE ENERGY PREDICTED BY IDOCK:   -3.46 KCAL/MOL
REMARK 924 INTRA-LIGAND FREE ENERGY PREDICTED BY IDOCK:   -0.50 KCAL/MOL
REMARK 927      BINDING AFFINITY PREDICTED BY RF-SCORE:    0.00 PKD
ROOT
HETATM    1  O   UNL     1      -8.916  16.640  65.918  1.00  0.00    -0.482 OA 
HETATM    2  C   UNL     1      -9.033  15.387  66.571  1.00  0.00    -0.309 C  
HETATM    3  H   UNL     1      -8.059  16.747  65.522  1.00  0.00     0.000 HD 
ENDROOT
BRANCH   2   4
HETATM    4  C   UNL     1     -10.411  15.213  67.207  1.00  0.00    -0.261 C  
BRANCH   4   5
HETATM    5  O   UNL     1     -10.233  14.460  68.411  1.00  0.00    -0.229 OA 
BRANCH   5   6
HETATM    6  C   UNL     1     -11.026  13.367  68.520  1.00  0.00    -0.268 C  
HETATM    7  O   UNL     1     -12.212  13.372  68.811  1.00  0.00    -0.295 OA 
BRANCH   6   8
HETATM    8  C   UNL     1     -10.339  12.199  67.904  1.00  0.00    -0.216 A  
HETATM    9  C   UNL     1     -11.059  11.515  66.910  1.00  0.00    -0.366 A  
HETATM   10  C   UNL     1     -10.449  10.517  66.151  1.00  0.00    -0.237 A  
HETATM   11  C   UNL     1      -9.115  10.190  66.380  1.00  0.00    -0.176 A  
HETATM   12  C   UNL     1      -8.396  10.841  67.384  1.00  0.00    -0.119 A  
HETATM   13  C   UNL     1      -9.007  11.837  68.150  1.00  0.00    -0.181 A  
HETATM   14  O   UNL     1      -8.281  12.445  69.136  1.00  0.00    -0.320 OA 
HETATM   15  H   UNL     1      -7.379  12.200  69.303  1.00  0.00     0.000 HD 
ENDBRANCH   6   8
ENDBRANCH   5   6
ENDBRANCH   4   5
ENDBRANCH   2   4
TORSDOF 4
ENDMDL
MODEL      208
REMARK 921   NORMALIZED FREE ENERGY PREDICTED BY IDOCK:   -2.86 KCAL/MOL
REMARK 922        TOTAL FREE ENERGY PREDICTED BY IDOCK:   -3.94 KCAL/MOL
REMARK 923 INTER-LIGAND FREE ENERGY PREDICTED BY IDOCK:   -3.59 KCAL/MOL
REMARK 924 INTRA-LIGAND FREE ENERGY PREDICTED BY IDOCK:   -0.35 KCAL/MOL
REMARK 927      BINDING AFFINITY PREDICTED BY RF-SCORE:    0.00 PKD
ROOT
HETATM    1  O   UNL     1      -8.987   7.279  65.052  1.00  0.00    -0.341 OA 
HETATM    2  C   UNL     1      -9.118   8.469  65.810  1.00  0.00    -0.167 C  
HETATM    3  H   UNL     1      -8.638   7.455  64.185  1.00  0.00     0.000 HD 
ENDROOT
BRANCH   2   4
HETATM    4  C   UNL     1      -9.677   8.185  67.203  1.00  0.00    -0.199 C  
BRANCH   4   5
HETATM    5  O   UNL     1     -10.963   7.582  67.033  1.00  0.00    -0.306 OA 
BRANCH   5   6
HETATM    6  C   UNL     1     -11.005   6.251  67.279  1.00  0.00    -0.366 C  
HETATM    7  O   UNL     1     -10.993   5.368  66.435  1.00  0.00    -0.243 OA 
BRANCH   6   8
HETATM    8  C   UNL     1     -10.722   6.009  68.720  1.00  0.00    -0.375 A  
HETATM    9  C   UNL     1     -11.496   6.748  69.631  1.00  0.00    -0.286 A  
HETATM   10  C   UNL     1     -11.434   6.477  70.998  1.00  0.00    -0.392 A  
HETATM   11  C   UNL     1     -10.598   5.468  71.468  1.00  0.00    -0.302 A  
HETATM   12  C   UNL     1      -9.803   4.746  70.577  1.00  0.00    -0.301 A  
HETATM   13  C   UNL     1      -9.858   5.019  69.207  1.00  0.00    -0.196 A  
HETATM   14  O   UNL     1      -9.055   4.305  68.362  1.00  0.00    -0.112 OA 
HETATM   15  H   UNL     1      -8.470   3.634  68.693  1.00  0.00     0.000 HD 
ENDBRANCH   6   8
ENDBRANCH   5   6
ENDBRANCH   4   5
ENDBRANCH   2   4
TORSDOF 4
ENDMDL
MODEL      209
REMARK 921   NORMALIZED FREE ENERGY PREDICTED BY IDOCK:   -2.85 KCAL/MOL
REMARK 922        TOTAL FREE ENERGY PREDICTED BY IDOCK:   -3.92 KCAL/MOL
REMARK 923 INTER-LIGAND FREE ENERGY PREDICTED BY IDOCK:   -3.51 KCAL/MOL
REMARK 924 INTRA-LIGAND FREE ENERGY PREDICTED BY IDOCK:   -0.41 KCAL/MOL
REMARK 927      BINDING AFFINITY PREDICTED BY RF-SCORE:    0.00 PKD
ROOT
HETATM    1  O   UNL     1     -13.543  10.016  70.588  1.00  0.00    -0.526 OA 
HETATM    2  C   UNL     1     -12.679   9.603  71.633  1.00  0.00    -0.407 C  
HETATM    3  H   UNL     1     -14.362  10.358  70.929  1.00  0.00     0.000 HD 
ENDROOT
BRANCH   2   4
HETATM    4  C   UNL     1     -11.362   9.054  71.086  1.00  0.00    -0.307 C  
BRANCH   4   5
HETATM    5  O   UNL     1     -11.456   7.626  71.101  1.00  0.00    -0.266 OA 
BRANCH   5   6
HETATM    6  C   UNL     1     -10.614   7.009  71.963  1.00  0.00    -0.211 C  
HETATM    7  O   UNL     1     -10.497   7.263  73.151  1.00  0.00    -0.267 OA 
BRANCH   6   8
HETATM    8  C   UNL     1     -10.104   5.757  71.340  1.00  0.00    -0.249 A  
HETATM    9  C   UNL     1     -10.169   4.602  72.139  1.00  0.00    -0.259 A  
HETATM   10  C   UNL     1      -9.879   3.349  71.599  1.00  0.00    -0.222 A  
HETATM   11  C   UNL     1      -9.519   3.238  70.259  1.00  0.00    -0.234 A  
HETATM   12  C   UNL     1      -9.422   4.380  69.462  1.00  0.00    -0.251 A  
HETATM   13  C   UNL     1      -9.706   5.637  70.002  1.00  0.00    -0.173 A  
HETATM   14  O   UNL     1      -9.587   6.738  69.200  1.00  0.00    -0.141 OA 
HETATM   15  H   UNL     1      -9.318   6.657  68.293  1.00  0.00     0.000 HD 
ENDBRANCH   6   8
ENDBRANCH   5   6
ENDBRANCH   4   5
ENDBRANCH   2   4
TORSDOF 4
ENDMDL
MODEL      210
REMARK 921   NORMALIZED FREE ENERGY PREDICTED BY IDOCK:   -2.85 KCAL/MOL
REMARK 922        TOTAL FREE ENERGY PREDICTED BY IDOCK:   -3.92 KCAL/MOL
REMARK 923 INTER-LIGAND FREE ENERGY PREDICTED BY IDOCK:   -3.47 KCAL/MOL
REMARK 924 INTRA-LIGAND FREE ENERGY PREDICTED BY IDOCK:   -0.45 KCAL/MOL
REMARK 927      BINDING AFFINITY PREDICTED BY RF-SCORE:    0.00 PKD
ROOT
HETATM    1  O   UNL     1     -10.926   6.241  68.846  1.00  0.00    -0.306 OA 
HETATM    2  C   UNL     1     -10.976   6.788  70.152  1.00  0.00    -0.292 C  
HETATM    3  H   UNL     1     -11.281   5.359  68.824  1.00  0.00     0.000 HD 
ENDROOT
BRANCH   2   4
HETATM    4  C   UNL     1     -10.407   8.205  70.187  1.00  0.00    -0.215 C  
BRANCH   4   5
HETATM    5  O   UNL     1     -11.254   9.026  69.376  1.00  0.00    -0.060 OA 
BRANCH   5   6
HETATM    6  C   UNL     1     -10.600   9.845  68.518  1.00  0.00    -0.217 C  
HETATM    7  O   UNL     1      -9.785   9.495  67.679  1.00  0.00    -0.146 OA 
BRANCH   6   8
HETATM    8  C   UNL     1     -11.264  11.177  68.508  1.00  0.00    -0.318 A  
HETATM    9  C   UNL     1     -11.731  11.641  69.750  1.00  0.00    -0.425 A  
HETATM   10  C   UNL     1     -12.213  12.942  69.885  1.00  0.00    -0.258 A  
HETATM   11  C   UNL     1     -12.237  13.791  68.782  1.00  0.00    -0.221 A  
HETATM   12  C   UNL     1     -11.804  13.334  67.536  1.00  0.00    -0.403 A  
HETATM   13  C   UNL     1     -11.326  12.029  67.396  1.00  0.00    -0.327 A  
HETATM   14  O   UNL     1     -10.924  11.605  66.160  1.00  0.00    -0.284 OA 
HETATM   15  H   UNL     1     -10.965  12.182  65.407  1.00  0.00     0.000 HD 
ENDBRANCH   6   8
ENDBRANCH   5   6
ENDBRANCH   4   5
ENDBRANCH   2   4
TORSDOF 4
ENDMDL
MODEL      211
REMARK 921   NORMALIZED FREE ENERGY PREDICTED BY IDOCK:   -2.84 KCAL/MOL
REMARK 922        TOTAL FREE ENERGY PREDICTED BY IDOCK:   -3.91 KCAL/MOL
REMARK 923 INTER-LIGAND FREE ENERGY PREDICTED BY IDOCK:   -3.50 KCAL/MOL
REMARK 924 INTRA-LIGAND FREE ENERGY PREDICTED BY IDOCK:   -0.42 KCAL/MOL
REMARK 927      BINDING AFFINITY PREDICTED BY RF-SCORE:    0.00 PKD
ROOT
HETATM    1  O   UNL     1      -9.005  11.483  65.454  1.00  0.00    -0.376 OA 
HETATM    2  C   UNL     1      -9.386  11.162  66.781  1.00  0.00    -0.177 C  
HETATM    3  H   UNL     1      -9.296  12.354  65.210  1.00  0.00     0.000 HD 
ENDROOT
BRANCH   2   4
HETATM    4  C   UNL     1      -8.918   9.761  67.173  1.00  0.00    -0.135 C  
BRANCH   4   5
HETATM    5  O   UNL     1      -9.932   9.190  68.005  1.00  0.00    -0.162 OA 
BRANCH   5   6
HETATM    6  C   UNL     1      -9.472   8.386  68.993  1.00  0.00    -0.151 C  
HETATM    7  O   UNL     1      -8.310   8.048  69.154  1.00  0.00    -0.128 OA 
BRANCH   6   8
HETATM    8  C   UNL     1     -10.516   8.254  70.045  1.00  0.00    -0.231 A  
HETATM    9  C   UNL     1     -10.920   6.943  70.350  1.00  0.00    -0.315 A  
HETATM   10  C   UNL     1     -11.763   6.694  71.432  1.00  0.00    -0.374 A  
HETATM   11  C   UNL     1     -12.213   7.751  72.219  1.00  0.00    -0.298 A  
HETATM   12  C   UNL     1     -11.843   9.061  71.911  1.00  0.00    -0.447 A  
HETATM   13  C   UNL     1     -11.003   9.314  70.823  1.00  0.00    -0.284 A  
HETATM   14  O   UNL     1     -10.671  10.609  70.537  1.00  0.00    -0.419 OA 
HETATM   15  H   UNL     1     -11.001  11.327  71.063  1.00  0.00     0.000 HD 
ENDBRANCH   6   8
ENDBRANCH   5   6
ENDBRANCH   4   5
ENDBRANCH   2   4
TORSDOF 4
ENDMDL
MODEL      212
REMARK 921   NORMALIZED FREE ENERGY PREDICTED BY IDOCK:   -2.83 KCAL/MOL
REMARK 922        TOTAL FREE ENERGY PREDICTED BY IDOCK:   -3.90 KCAL/MOL
REMARK 923 INTER-LIGAND FREE ENERGY PREDICTED BY IDOCK:   -3.50 KCAL/MOL
REMARK 924 INTRA-LIGAND FREE ENERGY PREDICTED BY IDOCK:   -0.40 KCAL/MOL
REMARK 927      BINDING AFFINITY PREDICTED BY RF-SCORE:    0.00 PKD
ROOT
HETATM    1  O   UNL     1      -8.480  16.487  67.473  1.00  0.00    -0.173 OA 
HETATM    2  C   UNL     1      -9.315  15.781  66.571  1.00  0.00    -0.283 C  
HETATM    3  H   UNL     1      -8.281  17.360  67.153  1.00  0.00     0.000 HD 
ENDROOT
BRANCH   2   4
HETATM    4  C   UNL     1      -9.634  14.379  67.085  1.00  0.00    -0.250 C  
BRANCH   4   5
HETATM    5  O   UNL     1      -9.661  13.504  65.953  1.00  0.00    -0.260 OA 
BRANCH   5   6
HETATM    6  C   UNL     1     -10.650  12.579  65.972  1.00  0.00    -0.263 C  
HETATM    7  O   UNL     1     -11.843  12.808  65.851  1.00  0.00    -0.393 OA 
BRANCH   6   8
HETATM    8  C   UNL     1     -10.057  11.223  65.816  1.00  0.00    -0.294 A  
HETATM    9  C   UNL     1     -10.361  10.299  66.830  1.00  0.00    -0.298 A  
HETATM   10  C   UNL     1     -10.001   8.957  66.699  1.00  0.00    -0.346 A  
HETATM   11  C   UNL     1      -9.332   8.528  65.556  1.00  0.00    -0.039 A  
HETATM   12  C   UNL     1      -8.998   9.440  64.554  1.00  0.00    -0.227 A  
HETATM   13  C   UNL     1      -9.352  10.786  64.686  1.00  0.00    -0.233 A  
HETATM   14  O   UNL     1      -8.997  11.659  63.695  1.00  0.00    -0.443 OA 
HETATM   15  H   UNL     1      -8.520  11.363  62.930  1.00  0.00     0.000 HD 
ENDBRANCH   6   8
ENDBRANCH   5   6
ENDBRANCH   4   5
ENDBRANCH   2   4
TORSDOF 4
ENDMDL
MODEL      213
REMARK 921   NORMALIZED FREE ENERGY PREDICTED BY IDOCK:   -2.83 KCAL/MOL
REMARK 922        TOTAL FREE ENERGY PREDICTED BY IDOCK:   -3.90 KCAL/MOL
REMARK 923 INTER-LIGAND FREE ENERGY PREDICTED BY IDOCK:   -3.43 KCAL/MOL
REMARK 924 INTRA-LIGAND FREE ENERGY PREDICTED BY IDOCK:   -0.47 KCAL/MOL
REMARK 927      BINDING AFFINITY PREDICTED BY RF-SCORE:    0.00 PKD
ROOT
HETATM    1  O   UNL     1      -5.888   9.753  69.814  1.00  0.00    -0.039 OA 
HETATM    2  C   UNL     1      -6.845  10.797  69.863  1.00  0.00    -0.146 C  
HETATM    3  H   UNL     1      -5.230   9.851  70.492  1.00  0.00     0.000 HD 
ENDROOT
BRANCH   2   4
HETATM    4  C   UNL     1      -7.903  10.638  68.773  1.00  0.00    -0.125 C  
BRANCH   4   5
HETATM    5  O   UNL     1      -8.835   9.649  69.223  1.00  0.00    -0.143 OA 
BRANCH   5   6
HETATM    6  C   UNL     1      -9.976  10.144  69.757  1.00  0.00    -0.220 C  
HETATM    7  O   UNL     1     -10.675  11.016  69.265  1.00  0.00    -0.219 OA 
BRANCH   6   8
HETATM    8  C   UNL     1     -10.438   9.243  70.849  1.00  0.00    -0.372 A  
HETATM    9  C   UNL     1      -9.430   8.567  71.556  1.00  0.00    -0.290 A  
HETATM   10  C   UNL     1      -9.737   7.835  72.703  1.00  0.00    -0.278 A  
HETATM   11  C   UNL     1     -11.054   7.768  73.151  1.00  0.00    -0.336 A  
HETATM   12  C   UNL     1     -12.069   8.410  72.441  1.00  0.00    -0.443 A  
HETATM   13  C   UNL     1     -11.765   9.140  71.289  1.00  0.00    -0.326 A  
HETATM   14  O   UNL     1     -12.784   9.745  70.607  1.00  0.00    -0.495 OA 
HETATM   15  H   UNL     1     -13.683   9.675  70.905  1.00  0.00     0.000 HD 
ENDBRANCH   6   8
ENDBRANCH   5   6
ENDBRANCH   4   5
ENDBRANCH   2   4
TORSDOF 4
ENDMDL
MODEL      214
REMARK 921   NORMALIZED FREE ENERGY PREDICTED BY IDOCK:   -2.82 KCAL/MOL
REMARK 922        TOTAL FREE ENERGY PREDICTED BY IDOCK:   -3.90 KCAL/MOL
REMARK 923 INTER-LIGAND FREE ENERGY PREDICTED BY IDOCK:   -3.27 KCAL/MOL
REMARK 924 INTRA-LIGAND FREE ENERGY PREDICTED BY IDOCK:   -0.63 KCAL/MOL
REMARK 927      BINDING AFFINITY PREDICTED BY RF-SCORE:    0.00 PKD
ROOT
HETATM    1  O   UNL     1      -9.081   9.954  70.728  1.00  0.00    -0.340 OA 
HETATM    2  C   UNL     1     -10.387   9.408  70.662  1.00  0.00    -0.284 C  
HETATM    3  H   UNL     1      -8.461   9.332  71.091  1.00  0.00     0.000 HD 
ENDROOT
BRANCH   2   4
HETATM    4  C   UNL     1     -11.383  10.409  70.078  1.00  0.00    -0.313 C  
BRANCH   4   5
HETATM    5  O   UNL     1     -10.673  11.215  69.132  1.00  0.00    -0.213 OA 
BRANCH   5   6
HETATM    6  C   UNL     1     -10.976  10.970  67.835  1.00  0.00    -0.264 C  
HETATM    7  O   UNL     1     -12.005  11.302  67.267  1.00  0.00    -0.529 OA 
BRANCH   6   8
HETATM    8  C   UNL     1      -9.745  10.544  67.115  1.00  0.00    -0.202 A  
HETATM    9  C   UNL     1      -9.942   9.726  65.989  1.00  0.00    -0.342 A  
HETATM   10  C   UNL     1      -8.877   9.411  65.145  1.00  0.00    -0.233 A  
HETATM   11  C   UNL     1      -7.605   9.907  65.420  1.00  0.00    -0.131 A  
HETATM   12  C   UNL     1      -7.389  10.696  66.550  1.00  0.00    -0.134 A  
HETATM   13  C   UNL     1      -8.454  11.009  67.401  1.00  0.00    -0.132 A  
HETATM   14  O   UNL     1      -8.207  11.771  68.508  1.00  0.00    -0.150 OA 
HETATM   15  H   UNL     1      -7.332  12.086  68.702  1.00  0.00     0.000 HD 
ENDBRANCH   6   8
ENDBRANCH   5   6
ENDBRANCH   4   5
ENDBRANCH   2   4
TORSDOF 4
ENDMDL
MODEL      215
REMARK 921   NORMALIZED FREE ENERGY PREDICTED BY IDOCK:   -2.82 KCAL/MOL
REMARK 922        TOTAL FREE ENERGY PREDICTED BY IDOCK:   -3.89 KCAL/MOL
REMARK 923 INTER-LIGAND FREE ENERGY PREDICTED BY IDOCK:   -3.55 KCAL/MOL
REMARK 924 INTRA-LIGAND FREE ENERGY PREDICTED BY IDOCK:   -0.33 KCAL/MOL
REMARK 927      BINDING AFFINITY PREDICTED BY RF-SCORE:    0.00 PKD
ROOT
HETATM    1  O   UNL     1     -10.631  14.263  66.309  1.00  0.00    -0.283 OA 
HETATM    2  C   UNL     1     -10.997  13.350  67.329  1.00  0.00    -0.272 C  
HETATM    3  H   UNL     1     -10.922  13.966  65.454  1.00  0.00     0.000 HD 
ENDROOT
BRANCH   2   4
HETATM    4  C   UNL     1     -10.529  13.828  68.702  1.00  0.00    -0.239 C  
BRANCH   4   5
HETATM    5  O   UNL     1      -9.714  14.985  68.497  1.00  0.00    -0.204 OA 
BRANCH   5   6
HETATM    6  C   UNL     1     -10.214  16.132  69.015  1.00  0.00    -0.250 C  
HETATM    7  O   UNL     1     -11.114  16.212  69.836  1.00  0.00    -0.318 OA 
BRANCH   6   8
HETATM    8  C   UNL     1      -9.289  17.256  68.703  1.00  0.00    -0.267 A  
HETATM    9  C   UNL     1      -7.917  16.975  68.824  1.00  0.00    -0.248 A  
HETATM   10  C   UNL     1      -6.963  17.898  68.395  1.00  0.00    -0.234 A  
HETATM   11  C   UNL     1      -7.370  19.110  67.844  1.00  0.00    -0.279 A  
HETATM   12  C   UNL     1      -8.728  19.414  67.744  1.00  0.00    -0.352 A  
HETATM   13  C   UNL     1      -9.686  18.494  68.180  1.00  0.00    -0.339 A  
HETATM   14  O   UNL     1     -11.008  18.828  68.084  1.00  0.00    -0.269 OA 
HETATM   15  H   UNL     1     -11.278  19.666  67.729  1.00  0.00     0.000 HD 
ENDBRANCH   6   8
ENDBRANCH   5   6
ENDBRANCH   4   5
ENDBRANCH   2   4
TORSDOF 4
ENDMDL
MODEL      216
REMARK 921   NORMALIZED FREE ENERGY PREDICTED BY IDOCK:   -2.82 KCAL/MOL
REMARK 922        TOTAL FREE ENERGY PREDICTED BY IDOCK:   -3.89 KCAL/MOL
REMARK 923 INTER-LIGAND FREE ENERGY PREDICTED BY IDOCK:   -3.58 KCAL/MOL
REMARK 924 INTRA-LIGAND FREE ENERGY PREDICTED BY IDOCK:   -0.31 KCAL/MOL
REMARK 927      BINDING AFFINITY PREDICTED BY RF-SCORE:    0.00 PKD
ROOT
HETATM    1  O   UNL     1     -11.185   5.110  65.671  1.00  0.00    -0.802 OA 
HETATM    2  C   UNL     1     -10.431   5.240  66.865  1.00  0.00    -0.254 C  
HETATM    3  H   UNL     1     -10.811   4.455  65.093  1.00  0.00     0.000 HD 
ENDROOT
BRANCH   2   4
HETATM    4  C   UNL     1     -11.032   6.294  67.793  1.00  0.00    -0.332 C  
BRANCH   4   5
HETATM    5  O   UNL     1     -11.136   7.511  67.048  1.00  0.00    -0.224 OA 
BRANCH   5   6
HETATM    6  C   UNL     1     -10.156   8.413  67.292  1.00  0.00    -0.253 C  
HETATM    7  O   UNL     1      -9.621   8.611  68.371  1.00  0.00    -0.144 OA 
BRANCH   6   8
HETATM    8  C   UNL     1      -9.589   8.884  65.999  1.00  0.00    -0.320 A  
HETATM    9  C   UNL     1      -8.700   8.004  65.360  1.00  0.00    -0.101 A  
HETATM   10  C   UNL     1      -8.245   8.268  64.068  1.00  0.00    -0.098 A  
HETATM   11  C   UNL     1      -8.671   9.416  63.404  1.00  0.00    -0.219 A  
HETATM   12  C   UNL     1      -9.531  10.313  64.038  1.00  0.00    -0.356 A  
HETATM   13  C   UNL     1      -9.984  10.054  65.334  1.00  0.00    -0.294 A  
HETATM   14  O   UNL     1     -10.813  10.960  65.934  1.00  0.00    -0.178 OA 
HETATM   15  H   UNL     1     -11.081  11.752  65.484  1.00  0.00     0.000 HD 
ENDBRANCH   6   8
ENDBRANCH   5   6
ENDBRANCH   4   5
ENDBRANCH   2   4
TORSDOF 4
ENDMDL
MODEL      217
REMARK 921   NORMALIZED FREE ENERGY PREDICTED BY IDOCK:   -2.81 KCAL/MOL
REMARK 922        TOTAL FREE ENERGY PREDICTED BY IDOCK:   -3.88 KCAL/MOL
REMARK 923 INTER-LIGAND FREE ENERGY PREDICTED BY IDOCK:   -3.68 KCAL/MOL
REMARK 924 INTRA-LIGAND FREE ENERGY PREDICTED BY IDOCK:   -0.20 KCAL/MOL
REMARK 927      BINDING AFFINITY PREDICTED BY RF-SCORE:    0.00 PKD
ROOT
HETATM    1  O   UNL     1      -5.981  11.409  65.893  1.00  0.00    -0.410 OA 
HETATM    2  C   UNL     1      -6.874  11.466  66.992  1.00  0.00    -0.137 C  
HETATM    3  H   UNL     1      -5.163  11.852  66.086  1.00  0.00     0.000 HD 
ENDROOT
BRANCH   2   4
HETATM    4  C   UNL     1      -8.190  10.754  66.682  1.00  0.00    -0.140 C  
BRANCH   4   5
HETATM    5  O   UNL     1      -9.035  10.901  67.827  1.00  0.00    -0.136 OA 
BRANCH   5   6
HETATM    6  C   UNL     1     -10.325  11.204  67.547  1.00  0.00    -0.196 C  
HETATM    7  O   UNL     1     -10.914  10.930  66.513  1.00  0.00    -0.223 OA 
BRANCH   6   8
HETATM    8  C   UNL     1     -11.017  11.611  68.800  1.00  0.00    -0.274 A  
HETATM    9  C   UNL     1     -11.085  12.993  69.044  1.00  0.00    -0.281 A  
HETATM   10  C   UNL     1     -11.856  13.491  70.095  1.00  0.00    -0.348 A  
HETATM   11  C   UNL     1     -12.561  12.614  70.914  1.00  0.00    -0.338 A  
HETATM   12  C   UNL     1     -12.479  11.237  70.701  1.00  0.00    -0.439 A  
HETATM   13  C   UNL     1     -11.704  10.735  69.652  1.00  0.00    -0.323 A  
HETATM   14  O   UNL     1     -11.631   9.381  69.479  1.00  0.00    -0.437 OA 
HETATM   15  H   UNL     1     -12.096   8.787  70.056  1.00  0.00     0.000 HD 
ENDBRANCH   6   8
ENDBRANCH   5   6
ENDBRANCH   4   5
ENDBRANCH   2   4
TORSDOF 4
ENDMDL
MODEL      218
REMARK 921   NORMALIZED FREE ENERGY PREDICTED BY IDOCK:   -2.80 KCAL/MOL
REMARK 922        TOTAL FREE ENERGY PREDICTED BY IDOCK:   -3.87 KCAL/MOL
REMARK 923 INTER-LIGAND FREE ENERGY PREDICTED BY IDOCK:   -3.52 KCAL/MOL
REMARK 924 INTRA-LIGAND FREE ENERGY PREDICTED BY IDOCK:   -0.35 KCAL/MOL
REMARK 927      BINDING AFFINITY PREDICTED BY RF-SCORE:    0.00 PKD
ROOT
HETATM    1  O   UNL     1      -9.127  12.664  68.730  1.00  0.00    -0.392 OA 
HETATM    2  C   UNL     1      -9.380  11.344  68.281  1.00  0.00    -0.187 C  
HETATM    3  H   UNL     1      -8.370  13.040  68.295  1.00  0.00     0.000 HD 
ENDROOT
BRANCH   2   4
HETATM    4  C   UNL     1     -10.596  10.739  68.981  1.00  0.00    -0.219 C  
BRANCH   4   5
HETATM    5  O   UNL     1     -10.761   9.409  68.477  1.00  0.00    -0.214 OA 
BRANCH   5   6
HETATM    6  C   UNL     1      -9.911   8.494  69.001  1.00  0.00    -0.193 C  
HETATM    7  O   UNL     1      -8.887   8.088  68.474  1.00  0.00    -0.134 OA 
BRANCH   6   8
HETATM    8  C   UNL     1     -10.217   8.310  70.446  1.00  0.00    -0.209 A  
HETATM    9  C   UNL     1     -11.431   7.665  70.740  1.00  0.00    -0.295 A  
HETATM   10  C   UNL     1     -11.735   7.290  72.049  1.00  0.00    -0.329 A  
HETATM   11  C   UNL     1     -10.833   7.558  73.075  1.00  0.00    -0.445 A  
HETATM   12  C   UNL     1      -9.637   8.223  72.801  1.00  0.00    -0.338 A  
HETATM   13  C   UNL     1      -9.332   8.605  71.492  1.00  0.00    -0.249 A  
HETATM   14  O   UNL     1      -8.160   9.269  71.258  1.00  0.00    -0.320 OA 
HETATM   15  H   UNL     1      -7.560   9.469  71.966  1.00  0.00     0.000 HD 
ENDBRANCH   6   8
ENDBRANCH   5   6
ENDBRANCH   4   5
ENDBRANCH   2   4
TORSDOF 4
ENDMDL
MODEL      219
REMARK 921   NORMALIZED FREE ENERGY PREDICTED BY IDOCK:   -2.80 KCAL/MOL
REMARK 922        TOTAL FREE ENERGY PREDICTED BY IDOCK:   -3.87 KCAL/MOL
REMARK 923 INTER-LIGAND FREE ENERGY PREDICTED BY IDOCK:   -3.46 KCAL/MOL
REMARK 924 INTRA-LIGAND FREE ENERGY PREDICTED BY IDOCK:   -0.41 KCAL/MOL
REMARK 927      BINDING AFFINITY PREDICTED BY RF-SCORE:    0.00 PKD
ROOT
HETATM    1  O   UNL     1      -8.982   7.356  65.316  1.00  0.00    -0.372 OA 
HETATM    2  C   UNL     1      -9.248   8.146  66.463  1.00  0.00    -0.188 C  
HETATM    3  H   UNL     1      -8.144   7.580  64.927  1.00  0.00     0.000 HD 
ENDROOT
BRANCH   2   4
HETATM    4  C   UNL     1     -10.595   7.787  67.089  1.00  0.00    -0.331 C  
BRANCH   4   5
HETATM    5  O   UNL     1     -10.542   8.173  68.466  1.00  0.00    -0.186 OA 
BRANCH   5   6
HETATM    6  C   UNL     1     -10.846   7.189  69.345  1.00  0.00    -0.206 C  
HETATM    7  O   UNL     1     -11.158   6.045  69.055  1.00  0.00    -0.351 OA 
BRANCH   6   8
HETATM    8  C   UNL     1     -10.414   7.599  70.709  1.00  0.00    -0.211 A  
HETATM    9  C   UNL     1     -11.238   7.177  71.767  1.00  0.00    -0.278 A  
HETATM   10  C   UNL     1     -10.839   7.358  73.091  1.00  0.00    -0.435 A  
HETATM   11  C   UNL     1      -9.617   7.964  73.371  1.00  0.00    -0.331 A  
HETATM   12  C   UNL     1      -8.803   8.414  72.331  1.00  0.00    -0.294 A  
HETATM   13  C   UNL     1      -9.203   8.239  71.003  1.00  0.00    -0.158 A  
HETATM   14  O   UNL     1      -8.391   8.705  70.006  1.00  0.00    -0.115 OA 
HETATM   15  H   UNL     1      -7.570   9.138  70.205  1.00  0.00     0.000 HD 
ENDBRANCH   6   8
ENDBRANCH   5   6
ENDBRANCH   4   5
ENDBRANCH   2   4
TORSDOF 4
ENDMDL
MODEL      220
REMARK 921   NORMALIZED FREE ENERGY PREDICTED BY IDOCK:   -2.79 KCAL/MOL
REMARK 922        TOTAL FREE ENERGY PREDICTED BY IDOCK:   -3.85 KCAL/MOL
REMARK 923 INTER-LIGAND FREE ENERGY PREDICTED BY IDOCK:   -3.95 KCAL/MOL
REMARK 924 INTRA-LIGAND FREE ENERGY PREDICTED BY IDOCK:    0.10 KCAL/MOL
REMARK 927      BINDING AFFINITY PREDICTED BY RF-SCORE:    0.00 PKD
ROOT
HETATM    1  O   UNL     1     -10.507  13.728  63.847  1.00  0.00    -0.494 OA 
HETATM    2  C   UNL     1     -10.858  14.219  65.130  1.00  0.00    -0.378 C  
HETATM    3  H   UNL     1     -10.573  12.780  63.807  1.00  0.00     0.000 HD 
ENDROOT
BRANCH   2   4
HETATM    4  C   UNL     1     -10.751  15.741  65.194  1.00  0.00    -0.435 C  
BRANCH   4   5
HETATM    5  O   UNL     1     -10.198  16.076  66.471  1.00  0.00    -0.273 OA 
BRANCH   5   6
HETATM    6  C   UNL     1      -9.733  15.023  67.184  1.00  0.00    -0.226 C  
HETATM    7  O   UNL     1      -8.616  14.539  67.095  1.00  0.00    -0.201 OA 
BRANCH   6   8
HETATM    8  C   UNL     1     -10.651  14.759  68.325  1.00  0.00    -0.241 A  
HETATM    9  C   UNL     1     -11.521  15.807  68.669  1.00  0.00    -0.389 A  
HETATM   10  C   UNL     1     -12.535  15.609  69.607  1.00  0.00    -0.084 A  
HETATM   11  C   UNL     1     -12.686  14.364  70.211  1.00  0.00    -0.318 A  
HETATM   12  C   UNL     1     -11.811  13.322  69.900  1.00  0.00    -0.380 A  
HETATM   13  C   UNL     1     -10.790  13.520  68.966  1.00  0.00    -0.192 A  
HETATM   14  O   UNL     1      -9.939  12.486  68.694  1.00  0.00    -0.344 OA 
HETATM   15  H   UNL     1     -10.033  11.646  69.128  1.00  0.00     0.000 HD 
ENDBRANCH   6   8
ENDBRANCH   5   6
ENDBRANCH   4   5
ENDBRANCH   2   4
TORSDOF 4
ENDMDL
MODEL      221
REMARK 921   NORMALIZED FREE ENERGY PREDICTED BY IDOCK:   -2.78 KCAL/MOL
REMARK 922        TOTAL FREE ENERGY PREDICTED BY IDOCK:   -3.85 KCAL/MOL
REMARK 923 INTER-LIGAND FREE ENERGY PREDICTED BY IDOCK:   -3.43 KCAL/MOL
REMARK 924 INTRA-LIGAND FREE ENERGY PREDICTED BY IDOCK:   -0.42 KCAL/MOL
REMARK 927      BINDING AFFINITY PREDICTED BY RF-SCORE:    0.00 PKD
ROOT
HETATM    1  O   UNL     1      -5.725  15.734  70.115  1.00  0.00    -0.151 OA 
HETATM    2  C   UNL     1      -6.519  15.091  69.132  1.00  0.00    -0.116 C  
HETATM    3  H   UNL     1      -4.817  15.457  70.066  1.00  0.00     0.000 HD 
ENDROOT
BRANCH   2   4
HETATM    4  C   UNL     1      -7.977  15.538  69.210  1.00  0.00    -0.238 C  
BRANCH   4   5
HETATM    5  O   UNL     1      -8.603  15.172  67.977  1.00  0.00    -0.151 OA 
BRANCH   5   6
HETATM    6  C   UNL     1      -9.952  15.068  68.032  1.00  0.00    -0.219 C  
HETATM    7  O   UNL     1     -10.744  15.989  67.907  1.00  0.00    -0.297 OA 
BRANCH   6   8
HETATM    8  C   UNL     1     -10.339  13.635  67.924  1.00  0.00    -0.249 A  
HETATM    9  C   UNL     1     -11.202  13.154  68.924  1.00  0.00    -0.324 A  
HETATM   10  C   UNL     1     -11.762  11.880  68.826  1.00  0.00    -0.379 A  
HETATM   11  C   UNL     1     -11.462  11.074  67.731  1.00  0.00    -0.339 A  
HETATM   12  C   UNL     1     -10.584  11.528  66.746  1.00  0.00    -0.289 A  
HETATM   13  C   UNL     1     -10.017  12.801  66.844  1.00  0.00    -0.232 A  
HETATM   14  O   UNL     1      -9.148  13.211  65.872  1.00  0.00    -0.447 OA 
HETATM   15  H   UNL     1      -8.930  12.646  65.140  1.00  0.00     0.000 HD 
ENDBRANCH   6   8
ENDBRANCH   5   6
ENDBRANCH   4   5
ENDBRANCH   2   4
TORSDOF 4
ENDMDL
MODEL      222
REMARK 921   NORMALIZED FREE ENERGY PREDICTED BY IDOCK:   -2.76 KCAL/MOL
REMARK 922        TOTAL FREE ENERGY PREDICTED BY IDOCK:   -3.82 KCAL/MOL
REMARK 923 INTER-LIGAND FREE ENERGY PREDICTED BY IDOCK:   -3.36 KCAL/MOL
REMARK 924 INTRA-LIGAND FREE ENERGY PREDICTED BY IDOCK:   -0.46 KCAL/MOL
REMARK 927      BINDING AFFINITY PREDICTED BY RF-SCORE:    0.00 PKD
ROOT
HETATM    1  O   UNL     1     -10.415   5.317  69.778  1.00  0.00    -0.291 OA 
HETATM    2  C   UNL     1     -11.394   6.335  69.655  1.00  0.00    -0.422 C  
HETATM    3  H   UNL     1     -10.798   4.500  70.075  1.00  0.00     0.000 HD 
ENDROOT
BRANCH   2   4
HETATM    4  C   UNL     1     -10.778   7.649  69.178  1.00  0.00    -0.141 C  
BRANCH   4   5
HETATM    5  O   UNL     1      -9.660   7.930  70.026  1.00  0.00    -0.168 OA 
BRANCH   5   6
HETATM    6  C   UNL     1      -9.937   8.723  71.088  1.00  0.00    -0.248 C  
HETATM    7  O   UNL     1     -10.861   9.518  71.163  1.00  0.00    -0.315 OA 
BRANCH   6   8
HETATM    8  C   UNL     1      -9.169   8.247  72.271  1.00  0.00    -0.297 A  
HETATM    9  C   UNL     1      -7.800   8.563  72.284  1.00  0.00    -0.122 A  
HETATM   10  C   UNL     1      -7.026   8.316  73.417  1.00  0.00    -0.148 A  
HETATM   11  C   UNL     1      -7.610   7.748  74.546  1.00  0.00    -0.219 A  
HETATM   12  C   UNL     1      -8.962   7.403  74.537  1.00  0.00    -0.122 A  
HETATM   13  C   UNL     1      -9.739   7.643  73.400  1.00  0.00    -0.304 A  
HETATM   14  O   UNL     1     -11.057   7.279  73.416  1.00  0.00    -0.559 OA 
HETATM   15  H   UNL     1     -11.443   6.870  74.181  1.00  0.00     0.000 HD 
ENDBRANCH   6   8
ENDBRANCH   5   6
ENDBRANCH   4   5
ENDBRANCH   2   4
TORSDOF 4
ENDMDL
MODEL      223
REMARK 921   NORMALIZED FREE ENERGY PREDICTED BY IDOCK:   -2.76 KCAL/MOL
REMARK 922        TOTAL FREE ENERGY PREDICTED BY IDOCK:   -3.81 KCAL/MOL
REMARK 923 INTER-LIGAND FREE ENERGY PREDICTED BY IDOCK:   -3.42 KCAL/MOL
REMARK 924 INTRA-LIGAND FREE ENERGY PREDICTED BY IDOCK:   -0.40 KCAL/MOL
REMARK 927      BINDING AFFINITY PREDICTED BY RF-SCORE:    0.00 PKD
ROOT
HETATM    1  O   UNL     1      -9.331   9.656  70.576  1.00  0.00    -0.266 OA 
HETATM    2  C   UNL     1      -9.682   8.857  69.460  1.00  0.00    -0.173 C  
HETATM    3  H   UNL     1      -8.956   9.133  71.275  1.00  0.00     0.000 HD 
ENDROOT
BRANCH   2   4
HETATM    4  C   UNL     1     -10.284   9.698  68.336  1.00  0.00    -0.188 C  
BRANCH   4   5
HETATM    5  O   UNL     1     -10.161  11.072  68.719  1.00  0.00    -0.185 OA 
BRANCH   5   6
HETATM    6  C   UNL     1     -11.182  11.867  68.319  1.00  0.00    -0.261 C  
HETATM    7  O   UNL     1     -12.348  11.758  68.663  1.00  0.00    -0.335 OA 
BRANCH   6   8
HETATM    8  C   UNL     1     -10.629  13.091  67.678  1.00  0.00    -0.232 A  
HETATM    9  C   UNL     1      -9.497  13.651  68.296  1.00  0.00    -0.213 A  
HETATM   10  C   UNL     1      -8.799  14.694  67.686  1.00  0.00    -0.184 A  
HETATM   11  C   UNL     1      -9.226  15.188  66.456  1.00  0.00    -0.318 A  
HETATM   12  C   UNL     1     -10.364  14.661  65.845  1.00  0.00    -0.334 A  
HETATM   13  C   UNL     1     -11.069  13.620  66.457  1.00  0.00    -0.305 A  
HETATM   14  O   UNL     1     -12.190  13.136  65.842  1.00  0.00    -0.425 OA 
HETATM   15  H   UNL     1     -12.488  13.494  65.015  1.00  0.00     0.000 HD 
ENDBRANCH   6   8
ENDBRANCH   5   6
ENDBRANCH   4   5
ENDBRANCH   2   4
TORSDOF 4
ENDMDL
MODEL      224
REMARK 921   NORMALIZED FREE ENERGY PREDICTED BY IDOCK:   -2.75 KCAL/MOL
REMARK 922        TOTAL FREE ENERGY PREDICTED BY IDOCK:   -3.81 KCAL/MOL
REMARK 923 INTER-LIGAND FREE ENERGY PREDICTED BY IDOCK:   -3.20 KCAL/MOL
REMARK 924 INTRA-LIGAND FREE ENERGY PREDICTED BY IDOCK:   -0.61 KCAL/MOL
REMARK 927      BINDING AFFINITY PREDICTED BY RF-SCORE:    0.00 PKD
ROOT
HETATM    1  O   UNL     1      -8.295   6.368  68.049  1.00  0.00    -0.115 OA 
HETATM    2  C   UNL     1      -7.345   7.336  67.636  1.00  0.00    -0.093 C  
HETATM    3  H   UNL     1      -7.970   5.849  68.775  1.00  0.00     0.000 HD 
ENDROOT
BRANCH   2   4
HETATM    4  C   UNL     1      -7.868   8.171  66.469  1.00  0.00    -0.093 C  
BRANCH   4   5
HETATM    5  O   UNL     1      -8.561   9.294  67.023  1.00  0.00    -0.122 OA 
BRANCH   5   6
HETATM    6  C   UNL     1      -9.906   9.264  66.871  1.00  0.00    -0.214 C  
HETATM    7  O   UNL     1     -10.621   8.287  67.031  1.00  0.00    -0.321 OA 
BRANCH   6   8
HETATM    8  C   UNL     1     -10.425  10.658  66.816  1.00  0.00    -0.303 A  
HETATM    9  C   UNL     1     -11.373  11.000  67.795  1.00  0.00    -0.365 A  
HETATM   10  C   UNL     1     -11.797  12.321  67.942  1.00  0.00    -0.358 A  
HETATM   11  C   UNL     1     -11.279  13.311  67.112  1.00  0.00    -0.327 A  
HETATM   12  C   UNL     1     -10.358  12.981  66.117  1.00  0.00    -0.285 A  
HETATM   13  C   UNL     1      -9.936  11.657  65.963  1.00  0.00    -0.228 A  
HETATM   14  O   UNL     1      -9.045  11.363  64.969  1.00  0.00    -0.373 OA 
HETATM   15  H   UNL     1      -8.714  12.040  64.391  1.00  0.00     0.000 HD 
ENDBRANCH   6   8
ENDBRANCH   5   6
ENDBRANCH   4   5
ENDBRANCH   2   4
TORSDOF 4
ENDMDL
MODEL      225
REMARK 921   NORMALIZED FREE ENERGY PREDICTED BY IDOCK:   -2.75 KCAL/MOL
REMARK 922        TOTAL FREE ENERGY PREDICTED BY IDOCK:   -3.81 KCAL/MOL
REMARK 923 INTER-LIGAND FREE ENERGY PREDICTED BY IDOCK:   -3.26 KCAL/MOL
REMARK 924 INTRA-LIGAND FREE ENERGY PREDICTED BY IDOCK:   -0.55 KCAL/MOL
REMARK 927      BINDING AFFINITY PREDICTED BY RF-SCORE:    0.00 PKD
ROOT
HETATM    1  O   UNL     1      -9.087   7.732  71.762  1.00  0.00    -0.130 OA 
HETATM    2  C   UNL     1     -10.211   8.287  72.421  1.00  0.00    -0.327 C  
HETATM    3  H   UNL     1      -8.337   7.672  72.342  1.00  0.00     0.000 HD 
ENDROOT
BRANCH   2   4
HETATM    4  C   UNL     1     -11.417   8.383  71.488  1.00  0.00    -0.278 C  
BRANCH   4   5
HETATM    5  O   UNL     1     -11.341   7.281  70.578  1.00  0.00    -0.274 OA 
BRANCH   5   6
HETATM    6  C   UNL     1     -10.866   7.590  69.348  1.00  0.00    -0.150 C  
HETATM    7  O   UNL     1     -10.446   8.682  68.999  1.00  0.00    -0.216 OA 
BRANCH   6   8
HETATM    8  C   UNL     1     -10.608   6.334  68.592  1.00  0.00    -0.314 A  
HETATM    9  C   UNL     1     -10.963   6.351  67.233  1.00  0.00    -0.474 A  
HETATM   10  C   UNL     1     -10.611   5.294  66.394  1.00  0.00    -0.338 A  
HETATM   11  C   UNL     1      -9.904   4.209  66.905  1.00  0.00    -0.197 A  
HETATM   12  C   UNL     1      -9.569   4.166  68.259  1.00  0.00    -0.191 A  
HETATM   13  C   UNL     1      -9.926   5.221  69.104  1.00  0.00    -0.205 A  
HETATM   14  O   UNL     1      -9.599   5.142  70.428  1.00  0.00    -0.163 OA 
HETATM   15  H   UNL     1      -9.137   4.388  70.775  1.00  0.00     0.000 HD 
ENDBRANCH   6   8
ENDBRANCH   5   6
ENDBRANCH   4   5
ENDBRANCH   2   4
TORSDOF 4
ENDMDL
MODEL      226
REMARK 921   NORMALIZED FREE ENERGY PREDICTED BY IDOCK:   -2.75 KCAL/MOL
REMARK 922        TOTAL FREE ENERGY PREDICTED BY IDOCK:   -3.81 KCAL/MOL
REMARK 923 INTER-LIGAND FREE ENERGY PREDICTED BY IDOCK:   -3.42 KCAL/MOL
REMARK 924 INTRA-LIGAND FREE ENERGY PREDICTED BY IDOCK:   -0.38 KCAL/MOL
REMARK 927      BINDING AFFINITY PREDICTED BY RF-SCORE:    0.00 PKD
ROOT
HETATM    1  O   UNL     1      -6.157  15.338  69.735  1.00  0.00    -0.128 OA 
HETATM    2  C   UNL     1      -6.272  14.745  68.453  1.00  0.00    -0.105 C  
HETATM    3  H   UNL     1      -5.444  14.956  70.233  1.00  0.00     0.000 HD 
ENDROOT
BRANCH   2   4
HETATM    4  C   UNL     1      -7.419  15.360  67.653  1.00  0.00    -0.173 C  
BRANCH   4   5
HETATM    5  O   UNL     1      -8.200  14.282  67.127  1.00  0.00    -0.199 OA 
BRANCH   5   6
HETATM    6  C   UNL     1      -9.507  14.301  67.480  1.00  0.00    -0.209 C  
HETATM    7  O   UNL     1      -9.974  14.863  68.458  1.00  0.00    -0.211 OA 
BRANCH   6   8
HETATM    8  C   UNL     1     -10.332  13.835  66.332  1.00  0.00    -0.290 A  
HETATM    9  C   UNL     1     -11.135  14.810  65.716  1.00  0.00    -0.338 A  
HETATM   10  C   UNL     1     -11.815  14.525  64.532  1.00  0.00    -0.459 A  
HETATM   11  C   UNL     1     -11.701  13.263  63.954  1.00  0.00    -0.486 A  
HETATM   12  C   UNL     1     -10.930  12.277  64.570  1.00  0.00    -0.358 A  
HETATM   13  C   UNL     1     -10.252  12.558  65.760  1.00  0.00    -0.270 A  
HETATM   14  O   UNL     1      -9.518  11.566  66.347  1.00  0.00    -0.200 OA 
HETATM   15  H   UNL     1      -9.464  10.701  65.959  1.00  0.00     0.000 HD 
ENDBRANCH   6   8
ENDBRANCH   5   6
ENDBRANCH   4   5
ENDBRANCH   2   4
TORSDOF 4
ENDMDL
MODEL      227
REMARK 921   NORMALIZED FREE ENERGY PREDICTED BY IDOCK:   -2.75 KCAL/MOL
REMARK 922        TOTAL FREE ENERGY PREDICTED BY IDOCK:   -3.80 KCAL/MOL
REMARK 923 INTER-LIGAND FREE ENERGY PREDICTED BY IDOCK:   -3.40 KCAL/MOL
REMARK 924 INTRA-LIGAND FREE ENERGY PREDICTED BY IDOCK:   -0.40 KCAL/MOL
REMARK 927      BINDING AFFINITY PREDICTED BY RF-SCORE:    0.00 PKD
ROOT
HETATM    1  O   UNL     1     -12.152  15.395  70.058  1.00  0.00    -0.321 OA 
HETATM    2  C   UNL     1     -11.230  14.645  69.284  1.00  0.00    -0.282 C  
HETATM    3  H   UNL     1     -11.716  15.862  70.762  1.00  0.00     0.000 HD 
ENDROOT
BRANCH   2   4
HETATM    4  C   UNL     1     -11.931  13.894  68.153  1.00  0.00    -0.350 C  
BRANCH   4   5
HETATM    5  O   UNL     1     -10.959  13.665  67.127  1.00  0.00    -0.282 OA 
BRANCH   5   6
HETATM    6  C   UNL     1     -11.059  12.466  66.507  1.00  0.00    -0.301 C  
HETATM    7  O   UNL     1     -12.038  12.053  65.906  1.00  0.00    -0.546 OA 
BRANCH   6   8
HETATM    8  C   UNL     1      -9.702  11.870  66.368  1.00  0.00    -0.238 A  
HETATM    9  C   UNL     1      -8.845  12.029  67.470  1.00  0.00    -0.172 A  
HETATM   10  C   UNL     1      -7.618  11.367  67.515  1.00  0.00    -0.117 A  
HETATM   11  C   UNL     1      -7.234  10.545  66.459  1.00  0.00    -0.124 A  
HETATM   12  C   UNL     1      -8.062  10.402  65.345  1.00  0.00    -0.152 A  
HETATM   13  C   UNL     1      -9.290  11.068  65.294  1.00  0.00    -0.216 A  
HETATM   14  O   UNL     1     -10.072  10.920  64.183  1.00  0.00    -0.302 OA 
HETATM   15  H   UNL     1      -9.793  10.377  63.456  1.00  0.00     0.000 HD 
ENDBRANCH   6   8
ENDBRANCH   5   6
ENDBRANCH   4   5
ENDBRANCH   2   4
TORSDOF 4
ENDMDL
MODEL      228
REMARK 921   NORMALIZED FREE ENERGY PREDICTED BY IDOCK:   -2.74 KCAL/MOL
REMARK 922        TOTAL FREE ENERGY PREDICTED BY IDOCK:   -3.80 KCAL/MOL
REMARK 923 INTER-LIGAND FREE ENERGY PREDICTED BY IDOCK:   -3.51 KCAL/MOL
REMARK 924 INTRA-LIGAND FREE ENERGY PREDICTED BY IDOCK:   -0.29 KCAL/MOL
REMARK 927      BINDING AFFINITY PREDICTED BY RF-SCORE:    0.00 PKD
ROOT
HETATM    1  O   UNL     1      -9.847  13.973  69.176  1.00  0.00    -0.422 OA 
HETATM    2  C   UNL     1      -9.743  15.267  68.606  1.00  0.00    -0.212 C  
HETATM    3  H   UNL     1     -10.674  13.858  69.629  1.00  0.00     0.000 HD 
ENDROOT
BRANCH   2   4
HETATM    4  C   UNL     1      -8.413  15.452  67.877  1.00  0.00    -0.147 C  
BRANCH   4   5
HETATM    5  O   UNL     1      -7.553  16.201  68.742  1.00  0.00    -0.167 OA 
BRANCH   5   6
HETATM    6  C   UNL     1      -6.466  16.736  68.139  1.00  0.00    -0.143 C  
HETATM    7  O   UNL     1      -5.552  16.108  67.627  1.00  0.00    -0.128 OA 
BRANCH   6   8
HETATM    8  C   UNL     1      -6.707  18.183  67.885  1.00  0.00    -0.203 A  
HETATM    9  C   UNL     1      -6.355  19.057  68.927  1.00  0.00    -0.282 A  
HETATM   10  C   UNL     1      -6.379  20.438  68.733  1.00  0.00    -0.338 A  
HETATM   11  C   UNL     1      -6.758  20.959  67.499  1.00  0.00    -0.422 A  
HETATM   12  C   UNL     1      -7.138  20.103  66.464  1.00  0.00    -0.284 A  
HETATM   13  C   UNL     1      -7.121  18.718  66.657  1.00  0.00    -0.213 A  
HETATM   14  O   UNL     1      -7.514  17.907  65.630  1.00  0.00    -0.544 OA 
HETATM   15  H   UNL     1      -7.794  18.270  64.798  1.00  0.00     0.000 HD 
ENDBRANCH   6   8
ENDBRANCH   5   6
ENDBRANCH   4   5
ENDBRANCH   2   4
TORSDOF 4
ENDMDL
MODEL      229
REMARK 921   NORMALIZED FREE ENERGY PREDICTED BY IDOCK:   -2.73 KCAL/MOL
REMARK 922        TOTAL FREE ENERGY PREDICTED BY IDOCK:   -3.78 KCAL/MOL
REMARK 923 INTER-LIGAND FREE ENERGY PREDICTED BY IDOCK:   -3.50 KCAL/MOL
REMARK 924 INTRA-LIGAND FREE ENERGY PREDICTED BY IDOCK:   -0.29 KCAL/MOL
REMARK 927      BINDING AFFINITY PREDICTED BY RF-SCORE:    0.00 PKD
ROOT
HETATM    1  O   UNL     1      -9.038  11.891  65.295  1.00  0.00    -0.421 OA 
HETATM    2  C   UNL     1     -10.269  11.253  65.586  1.00  0.00    -0.253 C  
HETATM    3  H   UNL     1      -8.878  11.929  64.358  1.00  0.00     0.000 HD 
ENDROOT
BRANCH   2   4
HETATM    4  C   UNL     1     -10.526  11.193  67.091  1.00  0.00    -0.231 C  
BRANCH   4   5
HETATM    5  O   UNL     1      -9.761  10.100  67.610  1.00  0.00    -0.157 OA 
BRANCH   5   6
HETATM    6  C   UNL     1     -10.484   9.000  67.929  1.00  0.00    -0.234 C  
HETATM    7  O   UNL     1     -10.866   8.146  67.145  1.00  0.00    -0.261 OA 
BRANCH   6   8
HETATM    8  C   UNL     1     -10.452   8.802  69.404  1.00  0.00    -0.228 A  
HETATM    9  C   UNL     1     -11.192   9.723  70.164  1.00  0.00    -0.324 A  
HETATM   10  C   UNL     1     -11.371   9.531  71.534  1.00  0.00    -0.456 A  
HETATM   11  C   UNL     1     -10.808   8.421  72.158  1.00  0.00    -0.407 A  
HETATM   12  C   UNL     1     -10.046   7.514  71.420  1.00  0.00    -0.201 A  
HETATM   13  C   UNL     1      -9.861   7.707  70.048  1.00  0.00    -0.180 A  
HETATM   14  O   UNL     1      -9.096   6.810  69.357  1.00  0.00    -0.143 OA 
HETATM   15  H   UNL     1      -8.696   6.067  69.793  1.00  0.00     0.000 HD 
ENDBRANCH   6   8
ENDBRANCH   5   6
ENDBRANCH   4   5
ENDBRANCH   2   4
TORSDOF 4
ENDMDL
MODEL      230
REMARK 921   NORMALIZED FREE ENERGY PREDICTED BY IDOCK:   -2.70 KCAL/MOL
REMARK 922        TOTAL FREE ENERGY PREDICTED BY IDOCK:   -3.74 KCAL/MOL
REMARK 923 INTER-LIGAND FREE ENERGY PREDICTED BY IDOCK:   -3.45 KCAL/MOL
REMARK 924 INTRA-LIGAND FREE ENERGY PREDICTED BY IDOCK:   -0.30 KCAL/MOL
REMARK 927      BINDING AFFINITY PREDICTED BY RF-SCORE:    0.00 PKD
ROOT
HETATM    1  O   UNL     1      -6.484   9.215  63.275  1.00  0.00    -0.090 OA 
HETATM    2  C   UNL     1      -6.857   9.651  64.571  1.00  0.00    -0.107 C  
HETATM    3  H   UNL     1      -5.598   8.871  63.265  1.00  0.00     0.000 HD 
ENDROOT
BRANCH   2   4
HETATM    4  C   UNL     1      -8.281  10.203  64.587  1.00  0.00    -0.165 C  
BRANCH   4   5
HETATM    5  O   UNL     1      -8.604  10.510  65.947  1.00  0.00    -0.151 OA 
BRANCH   5   6
HETATM    6  C   UNL     1      -9.913  10.368  66.266  1.00  0.00    -0.226 C  
HETATM    7  O   UNL     1     -10.458   9.327  66.598  1.00  0.00    -0.237 OA 
BRANCH   6   8
HETATM    8  C   UNL     1     -10.513  11.712  66.487  1.00  0.00    -0.276 A  
HETATM    9  C   UNL     1     -11.339  12.193  65.457  1.00  0.00    -0.393 A  
HETATM   10  C   UNL     1     -12.085  13.359  65.633  1.00  0.00    -0.476 A  
HETATM   11  C   UNL     1     -12.010  14.056  66.835  1.00  0.00    -0.479 A  
HETATM   12  C   UNL     1     -11.171  13.605  67.856  1.00  0.00    -0.300 A  
HETATM   13  C   UNL     1     -10.418  12.441  67.681  1.00  0.00    -0.216 A  
HETATM   14  O   UNL     1      -9.594  12.034  68.692  1.00  0.00    -0.331 OA 
HETATM   15  H   UNL     1      -9.530  12.527  69.501  1.00  0.00     0.000 HD 
ENDBRANCH   6   8
ENDBRANCH   5   6
ENDBRANCH   4   5
ENDBRANCH   2   4
TORSDOF 4
ENDMDL
MODEL      231
REMARK 921   NORMALIZED FREE ENERGY PREDICTED BY IDOCK:   -2.69 KCAL/MOL
REMARK 922        TOTAL FREE ENERGY PREDICTED BY IDOCK:   -3.73 KCAL/MOL
REMARK 923 INTER-LIGAND FREE ENERGY PREDICTED BY IDOCK:   -3.57 KCAL/MOL
REMARK 924 INTRA-LIGAND FREE ENERGY PREDICTED BY IDOCK:   -0.16 KCAL/MOL
REMARK 927      BINDING AFFINITY PREDICTED BY RF-SCORE:    0.00 PKD
ROOT
HETATM    1  O   UNL     1      -8.621  13.232  67.920  1.00  0.00    -0.164 OA 
HETATM    2  C   UNL     1      -9.318  13.876  66.868  1.00  0.00    -0.258 C  
HETATM    3  H   UNL     1      -7.733  13.010  67.665  1.00  0.00     0.000 HD 
ENDROOT
BRANCH   2   4
HETATM    4  C   UNL     1     -10.746  14.234  67.279  1.00  0.00    -0.277 C  
BRANCH   4   5
HETATM    5  O   UNL     1     -11.250  13.145  68.059  1.00  0.00    -0.251 OA 
BRANCH   5   6
HETATM    6  C   UNL     1     -12.046  13.507  69.094  1.00  0.00    -0.288 C  
HETATM    7  O   UNL     1     -12.714  14.527  69.157  1.00  0.00     0.042 OA 
BRANCH   6   8
HETATM    8  C   UNL     1     -12.256  12.334  69.986  1.00  0.00    -0.267 A  
HETATM    9  C   UNL     1     -12.758  12.618  71.267  1.00  0.00    -0.354 A  
HETATM   10  C   UNL     1     -13.152  11.586  72.119  1.00  0.00    -0.286 A  
HETATM   11  C   UNL     1     -13.044  10.263  71.701  1.00  0.00    -0.553 A  
HETATM   12  C   UNL     1     -12.520   9.965  70.442  1.00  0.00    -0.107 A  
HETATM   13  C   UNL     1     -12.119  10.997  69.589  1.00  0.00    -0.340 A  
HETATM   14  O   UNL     1     -11.595  10.673  68.369  1.00  0.00    -0.472 OA 
HETATM   15  H   UNL     1     -11.502   9.767  68.100  1.00  0.00     0.000 HD 
ENDBRANCH   6   8
ENDBRANCH   5   6
ENDBRANCH   4   5
ENDBRANCH   2   4
TORSDOF 4
ENDMDL
MODEL      232
REMARK 921   NORMALIZED FREE ENERGY PREDICTED BY IDOCK:   -2.69 KCAL/MOL
REMARK 922        TOTAL FREE ENERGY PREDICTED BY IDOCK:   -3.72 KCAL/MOL
REMARK 923 INTER-LIGAND FREE ENERGY PREDICTED BY IDOCK:   -3.42 KCAL/MOL
REMARK 924 INTRA-LIGAND FREE ENERGY PREDICTED BY IDOCK:   -0.31 KCAL/MOL
REMARK 927      BINDING AFFINITY PREDICTED BY RF-SCORE:    0.00 PKD
ROOT
HETATM    1  O   UNL     1      -6.535  15.244  69.386  1.00  0.00    -0.122 OA 
HETATM    2  C   UNL     1      -6.883  15.296  68.013  1.00  0.00    -0.140 C  
HETATM    3  H   UNL     1      -5.798  14.664  69.537  1.00  0.00     0.000 HD 
ENDROOT
BRANCH   2   4
HETATM    4  C   UNL     1      -8.068  16.229  67.770  1.00  0.00    -0.149 C  
BRANCH   4   5
HETATM    5  O   UNL     1      -9.161  15.423  67.318  1.00  0.00    -0.194 OA 
BRANCH   5   6
HETATM    6  C   UNL     1     -10.389  15.932  67.578  1.00  0.00    -0.283 C  
HETATM    7  O   UNL     1     -11.068  16.588  66.803  1.00  0.00    -0.037 OA 
BRANCH   6   8
HETATM    8  C   UNL     1     -10.935  15.294  68.806  1.00  0.00    -0.260 A  
HETATM    9  C   UNL     1     -10.958  16.097  69.959  1.00  0.00    -0.364 A  
HETATM   10  C   UNL     1     -11.602  15.660  71.116  1.00  0.00    -0.462 A  
HETATM   11  C   UNL     1     -12.226  14.416  71.134  1.00  0.00    -0.420 A  
HETATM   12  C   UNL     1     -12.186  13.595  70.006  1.00  0.00    -0.395 A  
HETATM   13  C   UNL     1     -11.536  14.028  68.847  1.00  0.00    -0.315 A  
HETATM   14  O   UNL     1     -11.501  13.195  67.764  1.00  0.00    -0.276 OA 
HETATM   15  H   UNL     1     -11.908  12.338  67.791  1.00  0.00     0.000 HD 
ENDBRANCH   6   8
ENDBRANCH   5   6
ENDBRANCH   4   5
ENDBRANCH   2   4
TORSDOF 4
ENDMDL
MODEL      233
REMARK 921   NORMALIZED FREE ENERGY PREDICTED BY IDOCK:   -2.66 KCAL/MOL
REMARK 922        TOTAL FREE ENERGY PREDICTED BY IDOCK:   -3.69 KCAL/MOL
REMARK 923 INTER-LIGAND FREE ENERGY PREDICTED BY IDOCK:   -3.27 KCAL/MOL
REMARK 924 INTRA-LIGAND FREE ENERGY PREDICTED BY IDOCK:   -0.41 KCAL/MOL
REMARK 927      BINDING AFFINITY PREDICTED BY RF-SCORE:    0.00 PKD
ROOT
HETATM    1  O   UNL     1      -6.434  13.386  71.221  1.00  0.00    -0.318 OA 
HETATM    2  C   UNL     1      -6.474  13.910  69.905  1.00  0.00    -0.077 C  
HETATM    3  H   UNL     1      -5.833  12.653  71.286  1.00  0.00     0.000 HD 
ENDROOT
BRANCH   2   4
HETATM    4  C   UNL     1      -7.441  15.088  69.800  1.00  0.00    -0.102 C  
BRANCH   4   5
HETATM    5  O   UNL     1      -8.575  14.644  69.048  1.00  0.00    -0.164 OA 
BRANCH   5   6
HETATM    6  C   UNL     1      -9.688  15.400  69.198  1.00  0.00    -0.252 C  
HETATM    7  O   UNL     1     -10.314  15.552  70.235  1.00  0.00    -0.306 OA 
BRANCH   6   8
HETATM    8  C   UNL     1      -9.842  16.287  68.013  1.00  0.00    -0.236 A  
HETATM    9  C   UNL     1      -9.849  15.647  66.762  1.00  0.00    -0.255 A  
HETATM   10  C   UNL     1     -10.156  16.358  65.602  1.00  0.00    -0.314 A  
HETATM   11  C   UNL     1     -10.457  17.715  65.680  1.00  0.00    -0.150 A  
HETATM   12  C   UNL     1     -10.427  18.370  66.912  1.00  0.00    -0.419 A  
HETATM   13  C   UNL     1     -10.113  17.661  68.075  1.00  0.00    -0.343 A  
HETATM   14  O   UNL     1     -10.075  18.334  69.264  1.00  0.00    -0.339 OA 
HETATM   15  H   UNL     1     -10.258  19.265  69.307  1.00  0.00     0.000 HD 
ENDBRANCH   6   8
ENDBRANCH   5   6
ENDBRANCH   4   5
ENDBRANCH   2   4
TORSDOF 4
ENDMDL
MODEL      234
REMARK 921   NORMALIZED FREE ENERGY PREDICTED BY IDOCK:   -2.65 KCAL/MOL
REMARK 922        TOTAL FREE ENERGY PREDICTED BY IDOCK:   -3.68 KCAL/MOL
REMARK 923 INTER-LIGAND FREE ENERGY PREDICTED BY IDOCK:   -3.26 KCAL/MOL
REMARK 924 INTRA-LIGAND FREE ENERGY PREDICTED BY IDOCK:   -0.42 KCAL/MOL
REMARK 927      BINDING AFFINITY PREDICTED BY RF-SCORE:    0.00 PKD
ROOT
HETATM    1  O   UNL     1      -6.336   5.889  69.109  1.00  0.00    -0.037 OA 
HETATM    2  C   UNL     1      -6.856   7.206  69.047  1.00  0.00    -0.061 C  
HETATM    3  H   UNL     1      -5.693   5.800  69.803  1.00  0.00     0.000 HD 
ENDROOT
BRANCH   2   4
HETATM    4  C   UNL     1      -7.890   7.348  67.932  1.00  0.00    -0.118 C  
BRANCH   4   5
HETATM    5  O   UNL     1      -8.760   8.426  68.291  1.00  0.00    -0.141 OA 
BRANCH   5   6
HETATM    6  C   UNL     1     -10.081   8.140  68.216  1.00  0.00    -0.197 C  
HETATM    7  O   UNL     1     -10.661   7.696  67.238  1.00  0.00    -0.306 OA 
BRANCH   6   8
HETATM    8  C   UNL     1     -10.657   8.119  69.589  1.00  0.00    -0.223 A  
HETATM    9  C   UNL     1     -10.724   9.358  70.247  1.00  0.00    -0.299 A  
HETATM   10  C   UNL     1     -11.398   9.481  71.462  1.00  0.00    -0.456 A  
HETATM   11  C   UNL     1     -12.008   8.367  72.032  1.00  0.00    -0.419 A  
HETATM   12  C   UNL     1     -11.925   7.123  71.403  1.00  0.00    -0.364 A  
HETATM   13  C   UNL     1     -11.245   6.996  70.189  1.00  0.00    -0.284 A  
HETATM   14  O   UNL     1     -11.167   5.763  69.606  1.00  0.00    -0.353 OA 
HETATM   15  H   UNL     1     -11.565   5.002  70.012  1.00  0.00     0.000 HD 
ENDBRANCH   6   8
ENDBRANCH   5   6
ENDBRANCH   4   5
ENDBRANCH   2   4
TORSDOF 4
ENDMDL
MODEL      235
REMARK 921   NORMALIZED FREE ENERGY PREDICTED BY IDOCK:   -2.65 KCAL/MOL
REMARK 922        TOTAL FREE ENERGY PREDICTED BY IDOCK:   -3.68 KCAL/MOL
REMARK 923 INTER-LIGAND FREE ENERGY PREDICTED BY IDOCK:   -3.22 KCAL/MOL
REMARK 924 INTRA-LIGAND FREE ENERGY PREDICTED BY IDOCK:   -0.46 KCAL/MOL
REMARK 927      BINDING AFFINITY PREDICTED BY RF-SCORE:    0.00 PKD
ROOT
HETATM    1  O   UNL     1      -6.479   5.551  68.890  1.00  0.00    -0.039 OA 
HETATM    2  C   UNL     1      -7.253   6.738  68.907  1.00  0.00    -0.091 C  
HETATM    3  H   UNL     1      -5.865   5.526  69.615  1.00  0.00     0.000 HD 
ENDROOT
BRANCH   2   4
HETATM    4  C   UNL     1      -8.241   6.778  67.743  1.00  0.00    -0.120 C  
BRANCH   4   5
HETATM    5  O   UNL     1      -9.204   7.797  68.034  1.00  0.00    -0.138 OA 
BRANCH   5   6
HETATM    6  C   UNL     1     -10.455   7.342  68.281  1.00  0.00    -0.189 C  
HETATM    7  O   UNL     1     -11.089   6.576  67.573  1.00  0.00    -0.341 OA 
BRANCH   6   8
HETATM    8  C   UNL     1     -10.813   7.634  69.696  1.00  0.00    -0.195 A  
HETATM    9  C   UNL     1     -11.411   6.582  70.409  1.00  0.00    -0.465 A  
HETATM   10  C   UNL     1     -11.630   6.689  71.783  1.00  0.00    -0.347 A  
HETATM   11  C   UNL     1     -11.256   7.849  72.456  1.00  0.00    -0.436 A  
HETATM   12  C   UNL     1     -10.687   8.913  71.755  1.00  0.00    -0.432 A  
HETATM   13  C   UNL     1     -10.472   8.811  70.378  1.00  0.00    -0.209 A  
HETATM   14  O   UNL     1      -9.928   9.877  69.717  1.00  0.00    -0.217 OA 
HETATM   15  H   UNL     1      -9.697  10.674  70.179  1.00  0.00     0.000 HD 
ENDBRANCH   6   8
ENDBRANCH   5   6
ENDBRANCH   4   5
ENDBRANCH   2   4
TORSDOF 4
ENDMDL
MODEL      236
REMARK 921   NORMALIZED FREE ENERGY PREDICTED BY IDOCK:   -2.62 KCAL/MOL
REMARK 922        TOTAL FREE ENERGY PREDICTED BY IDOCK:   -3.64 KCAL/MOL
REMARK 923 INTER-LIGAND FREE ENERGY PREDICTED BY IDOCK:   -4.01 KCAL/MOL
REMARK 924 INTRA-LIGAND FREE ENERGY PREDICTED BY IDOCK:    0.37 KCAL/MOL
REMARK 927      BINDING AFFINITY PREDICTED BY RF-SCORE:    0.00 PKD
ROOT
HETATM    1  O   UNL     1     -10.619  14.131  66.669  1.00  0.00    -0.275 OA 
HETATM    2  C   UNL     1     -10.246  15.498  66.643  1.00  0.00    -0.276 C  
HETATM    3  H   UNL     1     -10.184  13.638  65.984  1.00  0.00     0.000 HD 
ENDROOT
BRANCH   2   4
HETATM    4  C   UNL     1     -10.946  16.291  67.745  1.00  0.00    -0.281 C  
BRANCH   4   5
HETATM    5  O   UNL     1     -10.408  17.617  67.725  1.00  0.00    -0.333 OA 
BRANCH   5   6
HETATM    6  C   UNL     1      -9.861  17.991  66.544  1.00  0.00    -0.353 C  
HETATM    7  O   UNL     1     -10.445  18.046  65.473  1.00  0.00    -0.636 OA 
BRANCH   6   8
HETATM    8  C   UNL     1      -8.550  18.649  66.796  1.00  0.00    -0.291 A  
HETATM    9  C   UNL     1      -8.574  20.051  66.886  1.00  0.00    -0.402 A  
HETATM   10  C   UNL     1      -7.438  20.756  67.287  1.00  0.00    -0.381 A  
HETATM   11  C   UNL     1      -6.270  20.067  67.599  1.00  0.00    -0.243 A  
HETATM   12  C   UNL     1      -6.224  18.676  67.487  1.00  0.00    -0.179 A  
HETATM   13  C   UNL     1      -7.358  17.969  67.079  1.00  0.00    -0.202 A  
HETATM   14  O   UNL     1      -7.277  16.609  66.964  1.00  0.00    -0.159 OA 
HETATM   15  H   UNL     1      -6.470  16.148  67.156  1.00  0.00     0.000 HD 
ENDBRANCH   6   8
ENDBRANCH   5   6
ENDBRANCH   4   5
ENDBRANCH   2   4
TORSDOF 4
ENDMDL
MODEL      237
REMARK 921   NORMALIZED FREE ENERGY PREDICTED BY IDOCK:   -2.61 KCAL/MOL
REMARK 922        TOTAL FREE ENERGY PREDICTED BY IDOCK:   -3.63 KCAL/MOL
REMARK 923 INTER-LIGAND FREE ENERGY PREDICTED BY IDOCK:   -3.25 KCAL/MOL
REMARK 924 INTRA-LIGAND FREE ENERGY PREDICTED BY IDOCK:   -0.38 KCAL/MOL
REMARK 927      BINDING AFFINITY PREDICTED BY RF-SCORE:    0.00 PKD
ROOT
HETATM    1  O   UNL     1     -11.465   4.638  65.275  1.00  0.00    -1.070 OA 
HETATM    2  C   UNL     1     -10.594   5.093  66.297  1.00  0.00    -0.266 C  
HETATM    3  H   UNL     1     -11.129   3.854  64.855  1.00  0.00     0.000 HD 
ENDROOT
BRANCH   2   4
HETATM    4  C   UNL     1     -11.134   6.353  66.971  1.00  0.00    -0.329 C  
BRANCH   4   5
HETATM    5  O   UNL     1     -10.184   6.745  67.967  1.00  0.00    -0.151 OA 
BRANCH   5   6
HETATM    6  C   UNL     1     -10.006   8.081  68.089  1.00  0.00    -0.185 C  
HETATM    7  O   UNL     1     -10.820   8.940  67.786  1.00  0.00    -0.181 OA 
BRANCH   6   8
HETATM    8  C   UNL     1      -8.825   8.343  68.956  1.00  0.00    -0.146 A  
HETATM    9  C   UNL     1      -7.704   7.526  68.731  1.00  0.00    -0.119 A  
HETATM   10  C   UNL     1      -6.491   7.795  69.366  1.00  0.00    -0.035 A  
HETATM   11  C   UNL     1      -6.388   8.879  70.233  1.00  0.00    -0.039 A  
HETATM   12  C   UNL     1      -7.501   9.681  70.488  1.00  0.00    -0.147 A  
HETATM   13  C   UNL     1      -8.719   9.411  69.858  1.00  0.00    -0.197 A  
HETATM   14  O   UNL     1      -9.795  10.205  70.140  1.00  0.00    -0.384 OA 
HETATM   15  H   UNL     1      -9.723  10.929  70.751  1.00  0.00     0.000 HD 
ENDBRANCH   6   8
ENDBRANCH   5   6
ENDBRANCH   4   5
ENDBRANCH   2   4
TORSDOF 4
ENDMDL
MODEL      238
REMARK 921   NORMALIZED FREE ENERGY PREDICTED BY IDOCK:   -2.60 KCAL/MOL
REMARK 922        TOTAL FREE ENERGY PREDICTED BY IDOCK:   -3.62 KCAL/MOL
REMARK 923 INTER-LIGAND FREE ENERGY PREDICTED BY IDOCK:   -3.17 KCAL/MOL
REMARK 924 INTRA-LIGAND FREE ENERGY PREDICTED BY IDOCK:   -0.44 KCAL/MOL
REMARK 927      BINDING AFFINITY PREDICTED BY RF-SCORE:    0.00 PKD
ROOT
HETATM    1  O   UNL     1     -10.672  10.721  63.422  1.00  0.00    -0.533 OA 
HETATM    2  C   UNL     1      -9.906  11.663  64.155  1.00  0.00    -0.242 C  
HETATM    3  H   UNL     1     -10.942  11.071  62.581  1.00  0.00     0.000 HD 
ENDROOT
BRANCH   2   4
HETATM    4  C   UNL     1      -9.471  11.099  65.506  1.00  0.00    -0.221 C  
BRANCH   4   5
HETATM    5  O   UNL     1      -9.862  12.043  66.508  1.00  0.00    -0.201 OA 
BRANCH   5   6
HETATM    6  C   UNL     1      -8.838  12.710  67.093  1.00  0.00    -0.204 C  
HETATM    7  O   UNL     1      -7.765  12.226  67.417  1.00  0.00    -0.146 OA 
BRANCH   6   8
HETATM    8  C   UNL     1      -9.073  14.175  66.972  1.00  0.00    -0.255 A  
HETATM    9  C   UNL     1     -10.373  14.561  66.602  1.00  0.00    -0.274 A  
HETATM   10  C   UNL     1     -10.748  15.904  66.625  1.00  0.00    -0.270 A  
HETATM   11  C   UNL     1      -9.828  16.874  67.015  1.00  0.00    -0.270 A  
HETATM   12  C   UNL     1      -8.525  16.507  67.357  1.00  0.00    -0.194 A  
HETATM   13  C   UNL     1      -8.145  15.163  67.329  1.00  0.00    -0.201 A  
HETATM   14  O   UNL     1      -6.858  14.837  67.654  1.00  0.00    -0.162 OA 
HETATM   15  H   UNL     1      -6.229  15.506  67.896  1.00  0.00     0.000 HD 
ENDBRANCH   6   8
ENDBRANCH   5   6
ENDBRANCH   4   5
ENDBRANCH   2   4
TORSDOF 4
ENDMDL
MODEL      239
REMARK 921   NORMALIZED FREE ENERGY PREDICTED BY IDOCK:   -2.56 KCAL/MOL
REMARK 922        TOTAL FREE ENERGY PREDICTED BY IDOCK:   -3.57 KCAL/MOL
REMARK 923 INTER-LIGAND FREE ENERGY PREDICTED BY IDOCK:   -3.13 KCAL/MOL
REMARK 924 INTRA-LIGAND FREE ENERGY PREDICTED BY IDOCK:   -0.43 KCAL/MOL
REMARK 927      BINDING AFFINITY PREDICTED BY RF-SCORE:    0.00 PKD
ROOT
HETATM    1  O   UNL     1      -6.655   9.317  67.998  1.00  0.00    -0.059 OA 
HETATM    2  C   UNL     1      -7.631   9.102  69.003  1.00  0.00    -0.074 C  
HETATM    3  H   UNL     1      -6.202   8.511  67.775  1.00  0.00     0.000 HD 
ENDROOT
BRANCH   2   4
HETATM    4  C   UNL     1      -8.359  10.396  69.362  1.00  0.00    -0.142 C  
BRANCH   4   5
HETATM    5  O   UNL     1      -9.348  10.623  68.352  1.00  0.00    -0.150 OA 
BRANCH   5   6
HETATM    6  C   UNL     1     -10.626  10.425  68.753  1.00  0.00    -0.208 C  
HETATM    7  O   UNL     1     -11.114   9.353  69.077  1.00  0.00    -0.125 OA 
BRANCH   6   8
HETATM    8  C   UNL     1     -11.251  11.738  69.070  1.00  0.00    -0.324 A  
HETATM    9  C   UNL     1     -12.003  11.791  70.255  1.00  0.00    -0.429 A  
HETATM   10  C   UNL     1     -12.488  13.008  70.734  1.00  0.00    -0.384 A  
HETATM   11  C   UNL     1     -12.229  14.182  70.033  1.00  0.00    -0.418 A  
HETATM   12  C   UNL     1     -11.507  14.140  68.839  1.00  0.00    -0.327 A  
HETATM   13  C   UNL     1     -11.025  12.922  68.353  1.00  0.00    -0.258 A  
HETATM   14  O   UNL     1     -10.336  12.911  67.173  1.00  0.00    -0.236 OA 
HETATM   15  H   UNL     1     -10.183  13.713  66.688  1.00  0.00     0.000 HD 
ENDBRANCH   6   8
ENDBRANCH   5   6
ENDBRANCH   4   5
ENDBRANCH   2   4
TORSDOF 4
ENDMDL
MODEL      240
REMARK 921   NORMALIZED FREE ENERGY PREDICTED BY IDOCK:   -2.55 KCAL/MOL
REMARK 922        TOTAL FREE ENERGY PREDICTED BY IDOCK:   -3.56 KCAL/MOL
REMARK 923 INTER-LIGAND FREE ENERGY PREDICTED BY IDOCK:   -2.99 KCAL/MOL
REMARK 924 INTRA-LIGAND FREE ENERGY PREDICTED BY IDOCK:   -0.57 KCAL/MOL
REMARK 927      BINDING AFFINITY PREDICTED BY RF-SCORE:    0.00 PKD
ROOT
HETATM    1  O   UNL     1      -9.361   6.107  68.918  1.00  0.00    -0.124 OA 
HETATM    2  C   UNL     1     -10.366   7.047  68.578  1.00  0.00    -0.186 C  
HETATM    3  H   UNL     1      -9.114   5.575  68.170  1.00  0.00     0.000 HD 
ENDROOT
BRANCH   2   4
HETATM    4  C   UNL     1     -10.762   7.902  69.781  1.00  0.00    -0.233 C  
BRANCH   4   5
HETATM    5  O   UNL     1     -11.475   7.058  70.689  1.00  0.00    -0.292 OA 
BRANCH   5   6
HETATM    6  C   UNL     1     -11.126   7.198  71.990  1.00  0.00    -0.245 C  
HETATM    7  O   UNL     1     -11.449   8.122  72.720  1.00  0.00    -0.408 OA 
BRANCH   6   8
HETATM    8  C   UNL     1     -10.585   5.906  72.495  1.00  0.00    -0.256 A  
HETATM    9  C   UNL     1     -11.514   5.048  73.107  1.00  0.00    -0.362 A  
HETATM   10  C   UNL     1     -11.153   3.748  73.462  1.00  0.00    -0.328 A  
HETATM   11  C   UNL     1      -9.861   3.295  73.211  1.00  0.00    -0.168 A  
HETATM   12  C   UNL     1      -8.920   4.146  72.629  1.00  0.00    -0.124 A  
HETATM   13  C   UNL     1      -9.277   5.451  72.279  1.00  0.00    -0.142 A  
HETATM   14  O   UNL     1      -8.329   6.265  71.726  1.00  0.00    -0.120 OA 
HETATM   15  H   UNL     1      -7.443   5.957  71.579  1.00  0.00     0.000 HD 
ENDBRANCH   6   8
ENDBRANCH   5   6
ENDBRANCH   4   5
ENDBRANCH   2   4
TORSDOF 4
ENDMDL
MODEL      241
REMARK 921   NORMALIZED FREE ENERGY PREDICTED BY IDOCK:   -2.54 KCAL/MOL
REMARK 922        TOTAL FREE ENERGY PREDICTED BY IDOCK:   -3.55 KCAL/MOL
REMARK 923 INTER-LIGAND FREE ENERGY PREDICTED BY IDOCK:   -3.15 KCAL/MOL
REMARK 924 INTRA-LIGAND FREE ENERGY PREDICTED BY IDOCK:   -0.40 KCAL/MOL
REMARK 927      BINDING AFFINITY PREDICTED BY RF-SCORE:    0.00 PKD
ROOT
HETATM    1  O   UNL     1     -10.055   4.033  66.323  1.00  0.00    -0.387 OA 
HETATM    2  C   UNL     1      -9.640   3.779  67.654  1.00  0.00    -0.147 C  
HETATM    3  H   UNL     1     -10.003   3.249  65.787  1.00  0.00     0.000 HD 
ENDROOT
BRANCH   2   4
HETATM    4  C   UNL     1      -9.723   5.038  68.516  1.00  0.00    -0.154 C  
BRANCH   4   5
HETATM    5  O   UNL     1      -9.702   6.162  67.631  1.00  0.00    -0.114 OA 
BRANCH   5   6
HETATM    6  C   UNL     1      -9.183   7.295  68.163  1.00  0.00    -0.132 C  
HETATM    7  O   UNL     1      -8.193   7.359  68.876  1.00  0.00    -0.125 OA 
BRANCH   6   8
HETATM    8  C   UNL     1      -9.780   8.476  67.482  1.00  0.00    -0.209 A  
HETATM    9  C   UNL     1     -10.471   9.378  68.308  1.00  0.00    -0.260 A  
HETATM   10  C   UNL     1     -10.921  10.599  67.806  1.00  0.00    -0.364 A  
HETATM   11  C   UNL     1     -10.688  10.928  66.473  1.00  0.00    -0.270 A  
HETATM   12  C   UNL     1     -10.028  10.030  65.634  1.00  0.00    -0.355 A  
HETATM   13  C   UNL     1      -9.581   8.803  66.133  1.00  0.00    -0.253 A  
HETATM   14  O   UNL     1      -8.953   7.937  65.283  1.00  0.00    -0.384 OA 
HETATM   15  H   UNL     1      -8.818   8.159  64.369  1.00  0.00     0.000 HD 
ENDBRANCH   6   8
ENDBRANCH   5   6
ENDBRANCH   4   5
ENDBRANCH   2   4
TORSDOF 4
ENDMDL
MODEL      242
REMARK 921   NORMALIZED FREE ENERGY PREDICTED BY IDOCK:   -2.54 KCAL/MOL
REMARK 922        TOTAL FREE ENERGY PREDICTED BY IDOCK:   -3.54 KCAL/MOL
REMARK 923 INTER-LIGAND FREE ENERGY PREDICTED BY IDOCK:   -3.27 KCAL/MOL
REMARK 924 INTRA-LIGAND FREE ENERGY PREDICTED BY IDOCK:   -0.27 KCAL/MOL
REMARK 927      BINDING AFFINITY PREDICTED BY RF-SCORE:    0.00 PKD
ROOT
HETATM    1  O   UNL     1     -10.891  18.604  67.406  1.00  0.00    -0.439 OA 
HETATM    2  C   UNL     1      -9.677  18.110  67.946  1.00  0.00    -0.299 C  
HETATM    3  H   UNL     1     -11.154  19.416  67.825  1.00  0.00     0.000 HD 
ENDROOT
BRANCH   2   4
HETATM    4  C   UNL     1      -9.254  16.806  67.272  1.00  0.00    -0.228 C  
BRANCH   4   5
HETATM    5  O   UNL     1     -10.045  15.757  67.839  1.00  0.00    -0.226 OA 
BRANCH   5   6
HETATM    6  C   UNL     1      -9.367  14.906  68.645  1.00  0.00    -0.194 C  
HETATM    7  O   UNL     1      -8.971  15.155  69.773  1.00  0.00    -0.149 OA 
BRANCH   6   8
HETATM    8  C   UNL     1      -9.472  13.525  68.100  1.00  0.00    -0.214 A  
HETATM    9  C   UNL     1     -10.703  12.877  68.300  1.00  0.00    -0.261 A  
HETATM   10  C   UNL     1     -10.968  11.653  67.686  1.00  0.00    -0.294 A  
HETATM   11  C   UNL     1     -10.006  11.063  66.871  1.00  0.00    -0.231 A  
HETATM   12  C   UNL     1      -8.769  11.681  66.687  1.00  0.00    -0.187 A  
HETATM   13  C   UNL     1      -8.498  12.905  67.306  1.00  0.00    -0.197 A  
HETATM   14  O   UNL     1      -7.270  13.477  67.120  1.00  0.00    -0.348 OA 
HETATM   15  H   UNL     1      -6.610  13.058  66.581  1.00  0.00     0.000 HD 
ENDBRANCH   6   8
ENDBRANCH   5   6
ENDBRANCH   4   5
ENDBRANCH   2   4
TORSDOF 4
ENDMDL
MODEL      243
REMARK 921   NORMALIZED FREE ENERGY PREDICTED BY IDOCK:   -2.52 KCAL/MOL
REMARK 922        TOTAL FREE ENERGY PREDICTED BY IDOCK:   -3.52 KCAL/MOL
REMARK 923 INTER-LIGAND FREE ENERGY PREDICTED BY IDOCK:   -3.11 KCAL/MOL
REMARK 924 INTRA-LIGAND FREE ENERGY PREDICTED BY IDOCK:   -0.41 KCAL/MOL
REMARK 927      BINDING AFFINITY PREDICTED BY RF-SCORE:    0.00 PKD
ROOT
HETATM    1  O   UNL     1      -9.608   8.693  65.647  1.00  0.00    -0.442 OA 
HETATM    2  C   UNL     1     -10.357   8.604  66.847  1.00  0.00    -0.285 C  
HETATM    3  H   UNL     1      -9.789   9.503  65.183  1.00  0.00     0.000 HD 
ENDROOT
BRANCH   2   4
HETATM    4  C   UNL     1     -10.067   7.303  67.592  1.00  0.00    -0.181 C  
BRANCH   4   5
HETATM    5  O   UNL     1      -9.567   7.654  68.886  1.00  0.00    -0.149 OA 
BRANCH   5   6
HETATM    6  C   UNL     1      -9.228   6.603  69.670  1.00  0.00    -0.145 C  
HETATM    7  O   UNL     1      -8.474   5.695  69.358  1.00  0.00    -0.105 OA 
BRANCH   6   8
HETATM    8  C   UNL     1      -9.630   6.888  71.074  1.00  0.00    -0.172 A  
HETATM    9  C   UNL     1      -8.607   6.811  72.035  1.00  0.00    -0.122 A  
HETATM   10  C   UNL     1      -8.834   7.223  73.348  1.00  0.00    -0.194 A  
HETATM   11  C   UNL     1     -10.085   7.712  73.715  1.00  0.00    -0.148 A  
HETATM   12  C   UNL     1     -11.119   7.766  72.778  1.00  0.00    -0.457 A  
HETATM   13  C   UNL     1     -10.896   7.349  71.463  1.00  0.00    -0.224 A  
HETATM   14  O   UNL     1     -11.932   7.399  70.574  1.00  0.00    -0.489 OA 
HETATM   15  H   UNL     1     -12.790   7.711  70.837  1.00  0.00     0.000 HD 
ENDBRANCH   6   8
ENDBRANCH   5   6
ENDBRANCH   4   5
ENDBRANCH   2   4
TORSDOF 4
ENDMDL
MODEL      244
REMARK 921   NORMALIZED FREE ENERGY PREDICTED BY IDOCK:   -2.52 KCAL/MOL
REMARK 922        TOTAL FREE ENERGY PREDICTED BY IDOCK:   -3.52 KCAL/MOL
REMARK 923 INTER-LIGAND FREE ENERGY PREDICTED BY IDOCK:   -3.27 KCAL/MOL
REMARK 924 INTRA-LIGAND FREE ENERGY PREDICTED BY IDOCK:   -0.25 KCAL/MOL
REMARK 927      BINDING AFFINITY PREDICTED BY RF-SCORE:    0.00 PKD
ROOT
HETATM    1  O   UNL     1     -11.075   5.028  65.652  1.00  0.00    -0.778 OA 
HETATM    2  C   UNL     1     -10.557   5.326  66.937  1.00  0.00    -0.214 C  
HETATM    3  H   UNL     1     -10.634   4.281  65.264  1.00  0.00     0.000 HD 
ENDROOT
BRANCH   2   4
HETATM    4  C   UNL     1     -11.266   6.526  67.562  1.00  0.00    -0.196 C  
BRANCH   4   5
HETATM    5  O   UNL     1     -10.430   7.015  68.616  1.00  0.00    -0.190 OA 
BRANCH   5   6
HETATM    6  C   UNL     1     -10.956   6.900  69.858  1.00  0.00    -0.277 C  
HETATM    7  O   UNL     1     -12.086   6.520  70.122  1.00  0.00    -0.323 OA 
BRANCH   6   8
HETATM    8  C   UNL     1      -9.862   6.973  70.864  1.00  0.00    -0.190 A  
HETATM    9  C   UNL     1      -8.970   5.888  70.883  1.00  0.00    -0.152 A  
HETATM   10  C   UNL     1      -7.815   5.931  71.663  1.00  0.00    -0.106 A  
HETATM   11  C   UNL     1      -7.541   7.058  72.435  1.00  0.00    -0.090 A  
HETATM   12  C   UNL     1      -8.433   8.131  72.448  1.00  0.00    -0.238 A  
HETATM   13  C   UNL     1      -9.594   8.088  71.672  1.00  0.00    -0.167 A  
HETATM   14  O   UNL     1     -10.456   9.148  71.718  1.00  0.00    -0.352 OA 
HETATM   15  H   UNL     1     -10.275   9.903  72.265  1.00  0.00     0.000 HD 
ENDBRANCH   6   8
ENDBRANCH   5   6
ENDBRANCH   4   5
ENDBRANCH   2   4
TORSDOF 4
ENDMDL
MODEL      245
REMARK 921   NORMALIZED FREE ENERGY PREDICTED BY IDOCK:   -2.51 KCAL/MOL
REMARK 922        TOTAL FREE ENERGY PREDICTED BY IDOCK:   -3.51 KCAL/MOL
REMARK 923 INTER-LIGAND FREE ENERGY PREDICTED BY IDOCK:   -3.15 KCAL/MOL
REMARK 924 INTRA-LIGAND FREE ENERGY PREDICTED BY IDOCK:   -0.36 KCAL/MOL
REMARK 927      BINDING AFFINITY PREDICTED BY RF-SCORE:    0.00 PKD
ROOT
HETATM    1  O   UNL     1     -11.537   4.573  65.244  1.00  0.00    -1.061 OA 
HETATM    2  C   UNL     1     -10.558   4.885  66.221  1.00  0.00    -0.255 C  
HETATM    3  H   UNL     1     -11.441   3.683  64.927  1.00  0.00     0.000 HD 
ENDROOT
BRANCH   2   4
HETATM    4  C   UNL     1     -10.713   6.316  66.732  1.00  0.00    -0.293 C  
BRANCH   4   5
HETATM    5  O   UNL     1     -10.308   6.326  68.104  1.00  0.00    -0.155 OA 
BRANCH   5   6
HETATM    6  C   UNL     1      -9.872   7.525  68.560  1.00  0.00    -0.165 C  
HETATM    7  O   UNL     1     -10.190   8.616  68.114  1.00  0.00    -0.190 OA 
BRANCH   6   8
HETATM    8  C   UNL     1      -9.227   7.340  69.888  1.00  0.00    -0.141 A  
HETATM    9  C   UNL     1      -8.027   8.042  70.093  1.00  0.00    -0.105 A  
HETATM   10  C   UNL     1      -7.431   8.076  71.353  1.00  0.00    -0.071 A  
HETATM   11  C   UNL     1      -8.025   7.407  72.420  1.00  0.00    -0.112 A  
HETATM   12  C   UNL     1      -9.201   6.682  72.225  1.00  0.00    -0.139 A  
HETATM   13  C   UNL     1      -9.798   6.641  70.961  1.00  0.00    -0.182 A  
HETATM   14  O   UNL     1     -10.941   5.909  70.798  1.00  0.00    -0.283 OA 
HETATM   15  H   UNL     1     -11.328   5.436  71.525  1.00  0.00     0.000 HD 
ENDBRANCH   6   8
ENDBRANCH   5   6
ENDBRANCH   4   5
ENDBRANCH   2   4
TORSDOF 4
ENDMDL
MODEL      246
REMARK 921   NORMALIZED FREE ENERGY PREDICTED BY IDOCK:   -2.51 KCAL/MOL
REMARK 922        TOTAL FREE ENERGY PREDICTED BY IDOCK:   -3.51 KCAL/MOL
REMARK 923 INTER-LIGAND FREE ENERGY PREDICTED BY IDOCK:   -3.13 KCAL/MOL
REMARK 924 INTRA-LIGAND FREE ENERGY PREDICTED BY IDOCK:   -0.38 KCAL/MOL
REMARK 927      BINDING AFFINITY PREDICTED BY RF-SCORE:    0.00 PKD
ROOT
HETATM    1  O   UNL     1      -6.960  19.624  69.084  1.00  0.00    -0.338 OA 
HETATM    2  C   UNL     1      -7.024  18.291  68.608  1.00  0.00    -0.261 C  
HETATM    3  H   UNL     1      -6.061  19.916  69.183  1.00  0.00     0.000 HD 
ENDROOT
BRANCH   2   4
HETATM    4  C   UNL     1      -8.469  17.822  68.448  1.00  0.00    -0.295 C  
BRANCH   4   5
HETATM    5  O   UNL     1      -8.435  16.416  68.185  1.00  0.00    -0.180 OA 
BRANCH   5   6
HETATM    6  C   UNL     1      -9.330  15.683  68.890  1.00  0.00    -0.223 C  
HETATM    7  O   UNL     1     -10.027  16.095  69.803  1.00  0.00    -0.230 OA 
BRANCH   6   8
HETATM    8  C   UNL     1      -9.589  14.404  68.174  1.00  0.00    -0.218 A  
HETATM    9  C   UNL     1      -8.507  13.872  67.454  1.00  0.00    -0.208 A  
HETATM   10  C   UNL     1      -8.588  12.599  66.890  1.00  0.00    -0.151 A  
HETATM   11  C   UNL     1      -9.751  11.847  67.038  1.00  0.00    -0.204 A  
HETATM   12  C   UNL     1     -10.844  12.375  67.726  1.00  0.00    -0.257 A  
HETATM   13  C   UNL     1     -10.768  13.653  68.287  1.00  0.00    -0.254 A  
HETATM   14  O   UNL     1     -11.861  14.149  68.942  1.00  0.00    -0.311 OA 
HETATM   15  H   UNL     1     -12.659  13.640  69.018  1.00  0.00     0.000 HD 
ENDBRANCH   6   8
ENDBRANCH   5   6
ENDBRANCH   4   5
ENDBRANCH   2   4
TORSDOF 4
ENDMDL
MODEL      247
REMARK 921   NORMALIZED FREE ENERGY PREDICTED BY IDOCK:   -2.50 KCAL/MOL
REMARK 922        TOTAL FREE ENERGY PREDICTED BY IDOCK:   -3.50 KCAL/MOL
REMARK 923 INTER-LIGAND FREE ENERGY PREDICTED BY IDOCK:   -2.93 KCAL/MOL
REMARK 924 INTRA-LIGAND FREE ENERGY PREDICTED BY IDOCK:   -0.57 KCAL/MOL
REMARK 927      BINDING AFFINITY PREDICTED BY RF-SCORE:    0.00 PKD
ROOT
HETATM    1  O   UNL     1      -7.190   4.112  68.779  1.00  0.00    -0.054 OA 
HETATM    2  C   UNL     1      -8.007   4.894  67.925  1.00  0.00    -0.093 C  
HETATM    3  H   UNL     1      -6.669   3.487  68.287  1.00  0.00     0.000 HD 
ENDROOT
BRANCH   2   4
HETATM    4  C   UNL     1      -8.844   5.897  68.715  1.00  0.00    -0.111 C  
BRANCH   4   5
HETATM    5  O   UNL     1     -10.023   5.217  69.156  1.00  0.00    -0.173 OA 
BRANCH   5   6
HETATM    6  C   UNL     1     -10.036   4.894  70.471  1.00  0.00    -0.242 C  
HETATM    7  O   UNL     1      -9.568   3.878  70.960  1.00  0.00    -0.157 OA 
BRANCH   6   8
HETATM    8  C   UNL     1     -10.391   6.099  71.269  1.00  0.00    -0.264 A  
HETATM    9  C   UNL     1      -9.483   6.457  72.279  1.00  0.00    -0.149 A  
HETATM   10  C   UNL     1      -9.629   7.660  72.971  1.00  0.00    -0.292 A  
HETATM   11  C   UNL     1     -10.685   8.513  72.662  1.00  0.00    -0.205 A  
HETATM   12  C   UNL     1     -11.611   8.156  71.681  1.00  0.00    -0.325 A  
HETATM   13  C   UNL     1     -11.471   6.949  70.991  1.00  0.00    -0.314 A  
HETATM   14  O   UNL     1     -12.403   6.620  70.047  1.00  0.00    -0.549 OA 
HETATM   15  H   UNL     1     -13.134   7.196  69.858  1.00  0.00     0.000 HD 
ENDBRANCH   6   8
ENDBRANCH   5   6
ENDBRANCH   4   5
ENDBRANCH   2   4
TORSDOF 4
ENDMDL
MODEL      248
REMARK 921   NORMALIZED FREE ENERGY PREDICTED BY IDOCK:   -2.49 KCAL/MOL
REMARK 922        TOTAL FREE ENERGY PREDICTED BY IDOCK:   -3.49 KCAL/MOL
REMARK 923 INTER-LIGAND FREE ENERGY PREDICTED BY IDOCK:   -3.10 KCAL/MOL
REMARK 924 INTRA-LIGAND FREE ENERGY PREDICTED BY IDOCK:   -0.39 KCAL/MOL
REMARK 927      BINDING AFFINITY PREDICTED BY RF-SCORE:    0.00 PKD
ROOT
HETATM    1  O   UNL     1      -6.457   7.502  71.809  1.00  0.00    -0.042 OA 
HETATM    2  C   UNL     1      -7.066   6.666  70.840  1.00  0.00    -0.069 C  
HETATM    3  H   UNL     1      -5.625   7.149  72.101  1.00  0.00     0.000 HD 
ENDROOT
BRANCH   2   4
HETATM    4  C   UNL     1      -8.404   7.235  70.372  1.00  0.00    -0.130 C  
BRANCH   4   5
HETATM    5  O   UNL     1      -9.120   6.172  69.735  1.00  0.00    -0.139 OA 
BRANCH   5   6
HETATM    6  C   UNL     1     -10.434   6.099  70.054  1.00  0.00    -0.234 C  
HETATM    7  O   UNL     1     -11.362   6.452  69.343  1.00  0.00    -0.394 OA 
BRANCH   6   8
HETATM    8  C   UNL     1     -10.603   5.220  71.243  1.00  0.00    -0.242 A  
HETATM    9  C   UNL     1      -9.901   4.003  71.212  1.00  0.00    -0.242 A  
HETATM   10  C   UNL     1      -9.851   3.184  72.340  1.00  0.00    -0.227 A  
HETATM   11  C   UNL     1     -10.504   3.570  73.508  1.00  0.00    -0.263 A  
HETATM   12  C   UNL     1     -11.228   4.763  73.543  1.00  0.00    -0.392 A  
HETATM   13  C   UNL     1     -11.285   5.582  72.413  1.00  0.00    -0.247 A  
HETATM   14  O   UNL     1     -12.016   6.736  72.474  1.00  0.00    -0.477 OA 
HETATM   15  H   UNL     1     -12.478   6.982  73.266  1.00  0.00     0.000 HD 
ENDBRANCH   6   8
ENDBRANCH   5   6
ENDBRANCH   4   5
ENDBRANCH   2   4
TORSDOF 4
ENDMDL
MODEL      249
REMARK 921   NORMALIZED FREE ENERGY PREDICTED BY IDOCK:   -2.49 KCAL/MOL
REMARK 922        TOTAL FREE ENERGY PREDICTED BY IDOCK:   -3.48 KCAL/MOL
REMARK 923 INTER-LIGAND FREE ENERGY PREDICTED BY IDOCK:   -3.00 KCAL/MOL
REMARK 924 INTRA-LIGAND FREE ENERGY PREDICTED BY IDOCK:   -0.48 KCAL/MOL
REMARK 927      BINDING AFFINITY PREDICTED BY RF-SCORE:    0.00 PKD
ROOT
HETATM    1  O   UNL     1      -5.562  10.254  67.310  1.00  0.00    -0.041 OA 
HETATM    2  C   UNL     1      -6.372  10.946  66.375  1.00  0.00    -0.132 C  
HETATM    3  H   UNL     1      -4.679  10.604  67.330  1.00  0.00     0.000 HD 
ENDROOT
BRANCH   2   4
HETATM    4  C   UNL     1      -7.792  10.383  66.342  1.00  0.00    -0.128 C  
BRANCH   4   5
HETATM    5  O   UNL     1      -8.301  10.429  67.679  1.00  0.00    -0.114 OA 
BRANCH   5   6
HETATM    6  C   UNL     1      -8.923   9.299  68.090  1.00  0.00    -0.128 C  
HETATM    7  O   UNL     1      -8.456   8.171  68.047  1.00  0.00    -0.130 OA 
BRANCH   6   8
HETATM    8  C   UNL     1     -10.110   9.662  68.911  1.00  0.00    -0.198 A  
HETATM    9  C   UNL     1     -10.070   9.266  70.259  1.00  0.00    -0.262 A  
HETATM   10  C   UNL     1     -11.046   9.700  71.155  1.00  0.00    -0.444 A  
HETATM   11  C   UNL     1     -12.072  10.532  70.714  1.00  0.00    -0.470 A  
HETATM   12  C   UNL     1     -12.140  10.910  69.372  1.00  0.00    -0.362 A  
HETATM   13  C   UNL     1     -11.167  10.471  68.470  1.00  0.00    -0.274 A  
HETATM   14  O   UNL     1     -11.270  10.845  67.159  1.00  0.00    -0.316 OA 
HETATM   15  H   UNL     1     -11.986  11.393  66.861  1.00  0.00     0.000 HD 
ENDBRANCH   6   8
ENDBRANCH   5   6
ENDBRANCH   4   5
ENDBRANCH   2   4
TORSDOF 4
ENDMDL
MODEL      250
REMARK 921   NORMALIZED FREE ENERGY PREDICTED BY IDOCK:   -2.49 KCAL/MOL
REMARK 922        TOTAL FREE ENERGY PREDICTED BY IDOCK:   -3.48 KCAL/MOL
REMARK 923 INTER-LIGAND FREE ENERGY PREDICTED BY IDOCK:   -3.41 KCAL/MOL
REMARK 924 INTRA-LIGAND FREE ENERGY PREDICTED BY IDOCK:   -0.07 KCAL/MOL
REMARK 927      BINDING AFFINITY PREDICTED BY RF-SCORE:    0.00 PKD
ROOT
HETATM    1  O   UNL     1      -9.673   7.310  66.070  1.00  0.00    -0.415 OA 
HETATM    2  C   UNL     1      -9.241   6.411  67.077  1.00  0.00    -0.129 C  
HETATM    3  H   UNL     1      -9.656   6.904  65.211  1.00  0.00     0.000 HD 
ENDROOT
BRANCH   2   4
HETATM    4  C   UNL     1      -9.269   7.063  68.458  1.00  0.00    -0.137 C  
BRANCH   4   5
HETATM    5  O   UNL     1      -9.192   8.479  68.264  1.00  0.00    -0.138 OA 
BRANCH   5   6
HETATM    6  C   UNL     1     -10.207   9.185  68.815  1.00  0.00    -0.210 C  
HETATM    7  O   UNL     1     -11.057   9.811  68.201  1.00  0.00    -0.215 OA 
BRANCH   6   8
HETATM    8  C   UNL     1     -10.344   8.811  70.249  1.00  0.00    -0.227 A  
HETATM    9  C   UNL     1     -11.535   8.155  70.603  1.00  0.00    -0.237 A  
HETATM   10  C   UNL     1     -11.693   7.611  71.878  1.00  0.00    -0.328 A  
HETATM   11  C   UNL     1     -10.665   7.719  72.811  1.00  0.00    -0.417 A  
HETATM   12  C   UNL     1      -9.488   8.393  72.482  1.00  0.00    -0.360 A  
HETATM   13  C   UNL     1      -9.329   8.945  71.208  1.00  0.00    -0.266 A  
HETATM   14  O   UNL     1      -8.172   9.613  70.921  1.00  0.00    -0.335 OA 
HETATM   15  H   UNL     1      -7.485   9.704  71.570  1.00  0.00     0.000 HD 
ENDBRANCH   6   8
ENDBRANCH   5   6
ENDBRANCH   4   5
ENDBRANCH   2   4
TORSDOF 4
ENDMDL
MODEL      251
REMARK 921   NORMALIZED FREE ENERGY PREDICTED BY IDOCK:   -2.48 KCAL/MOL
REMARK 922        TOTAL FREE ENERGY PREDICTED BY IDOCK:   -3.47 KCAL/MOL
REMARK 923 INTER-LIGAND FREE ENERGY PREDICTED BY IDOCK:   -3.17 KCAL/MOL
REMARK 924 INTRA-LIGAND FREE ENERGY PREDICTED BY IDOCK:   -0.30 KCAL/MOL
REMARK 927      BINDING AFFINITY PREDICTED BY RF-SCORE:    0.00 PKD
ROOT
HETATM    1  O   UNL     1      -5.578  14.565  71.128  1.00  0.00    -0.153 OA 
HETATM    2  C   UNL     1      -6.124  14.325  69.842  1.00  0.00    -0.141 C  
HETATM    3  H   UNL     1      -4.944  13.899  71.367  1.00  0.00     0.000 HD 
ENDROOT
BRANCH   2   4
HETATM    4  C   UNL     1      -7.143  15.396  69.457  1.00  0.00    -0.200 C  
BRANCH   4   5
HETATM    5  O   UNL     1      -8.273  14.726  68.890  1.00  0.00    -0.159 OA 
BRANCH   5   6
HETATM    6  C   UNL     1      -8.477  14.968  67.573  1.00  0.00    -0.174 C  
HETATM    7  O   UNL     1      -7.702  15.544  66.826  1.00  0.00    -0.201 OA 
BRANCH   6   8
HETATM    8  C   UNL     1      -9.615  14.139  67.091  1.00  0.00    -0.244 A  
HETATM    9  C   UNL     1      -9.271  12.968  66.394  1.00  0.00    -0.141 A  
HETATM   10  C   UNL     1     -10.249  12.036  66.049  1.00  0.00    -0.256 A  
HETATM   11  C   UNL     1     -11.578  12.265  66.393  1.00  0.00    -0.445 A  
HETATM   12  C   UNL     1     -11.938  13.437  67.060  1.00  0.00    -0.429 A  
HETATM   13  C   UNL     1     -10.961  14.376  67.402  1.00  0.00    -0.299 A  
HETATM   14  O   UNL     1     -11.347  15.521  68.040  1.00  0.00    -0.331 OA 
HETATM   15  H   UNL     1     -12.259  15.682  68.251  1.00  0.00     0.000 HD 
ENDBRANCH   6   8
ENDBRANCH   5   6
ENDBRANCH   4   5
ENDBRANCH   2   4
TORSDOF 4
ENDMDL
MODEL      252
REMARK 921   NORMALIZED FREE ENERGY PREDICTED BY IDOCK:   -2.48 KCAL/MOL
REMARK 922        TOTAL FREE ENERGY PREDICTED BY IDOCK:   -3.47 KCAL/MOL
REMARK 923 INTER-LIGAND FREE ENERGY PREDICTED BY IDOCK:   -2.99 KCAL/MOL
REMARK 924 INTRA-LIGAND FREE ENERGY PREDICTED BY IDOCK:   -0.47 KCAL/MOL
REMARK 927      BINDING AFFINITY PREDICTED BY RF-SCORE:    0.00 PKD
ROOT
HETATM    1  O   UNL     1      -7.575   9.283  66.362  1.00  0.00    -0.092 OA 
HETATM    2  C   UNL     1      -8.552   8.680  65.531  1.00  0.00    -0.175 C  
HETATM    3  H   UNL     1      -7.234  10.082  65.975  1.00  0.00     0.000 HD 
ENDROOT
BRANCH   2   4
HETATM    4  C   UNL     1      -9.100   7.397  66.154  1.00  0.00    -0.126 C  
BRANCH   4   5
HETATM    5  O   UNL     1     -10.378   7.707  66.716  1.00  0.00    -0.297 OA 
BRANCH   5   6
HETATM    6  C   UNL     1     -10.718   6.967  67.798  1.00  0.00    -0.254 C  
HETATM    7  O   UNL     1     -11.073   5.799  67.781  1.00  0.00    -0.170 OA 
BRANCH   6   8
HETATM    8  C   UNL     1     -10.272   7.668  69.033  1.00  0.00    -0.211 A  
HETATM    9  C   UNL     1      -9.427   6.936  69.885  1.00  0.00    -0.156 A  
HETATM   10  C   UNL     1      -8.815   7.552  70.977  1.00  0.00    -0.146 A  
HETATM   11  C   UNL     1      -9.043   8.902  71.230  1.00  0.00    -0.323 A  
HETATM   12  C   UNL     1      -9.902   9.633  70.408  1.00  0.00    -0.315 A  
HETATM   13  C   UNL     1     -10.522   9.018  69.317  1.00  0.00    -0.228 A  
HETATM   14  O   UNL     1     -11.370   9.757  68.541  1.00  0.00    -0.498 OA 
HETATM   15  H   UNL     1     -11.539  10.672  68.733  1.00  0.00     0.000 HD 
ENDBRANCH   6   8
ENDBRANCH   5   6
ENDBRANCH   4   5
ENDBRANCH   2   4
TORSDOF 4
ENDMDL
MODEL      253
REMARK 921   NORMALIZED FREE ENERGY PREDICTED BY IDOCK:   -2.46 KCAL/MOL
REMARK 922        TOTAL FREE ENERGY PREDICTED BY IDOCK:   -3.45 KCAL/MOL
REMARK 923 INTER-LIGAND FREE ENERGY PREDICTED BY IDOCK:   -3.23 KCAL/MOL
REMARK 924 INTRA-LIGAND FREE ENERGY PREDICTED BY IDOCK:   -0.22 KCAL/MOL
REMARK 927      BINDING AFFINITY PREDICTED BY RF-SCORE:    0.00 PKD
ROOT
HETATM    1  O   UNL     1      -9.289  17.494  68.835  1.00  0.00    -0.252 OA 
HETATM    2  C   UNL     1      -9.578  16.390  67.995  1.00  0.00    -0.226 C  
HETATM    3  H   UNL     1      -9.844  18.239  68.635  1.00  0.00     0.000 HD 
ENDROOT
BRANCH   2   4
HETATM    4  C   UNL     1      -8.686  15.192  68.317  1.00  0.00    -0.171 C  
BRANCH   4   5
HETATM    5  O   UNL     1      -8.867  14.231  67.272  1.00  0.00    -0.192 OA 
BRANCH   5   6
HETATM    6  C   UNL     1     -10.158  13.949  66.976  1.00  0.00    -0.256 C  
HETATM    7  O   UNL     1     -10.750  14.294  65.965  1.00  0.00    -0.293 OA 
BRANCH   6   8
HETATM    8  C   UNL     1     -10.647  12.877  67.886  1.00  0.00    -0.232 A  
HETATM    9  C   UNL     1      -9.797  11.770  68.045  1.00  0.00    -0.184 A  
HETATM   10  C   UNL     1     -10.076  10.793  69.000  1.00  0.00    -0.225 A  
HETATM   11  C   UNL     1     -11.208  10.911  69.803  1.00  0.00    -0.351 A  
HETATM   12  C   UNL     1     -12.076  11.990  69.635  1.00  0.00    -0.295 A  
HETATM   13  C   UNL     1     -11.802  12.968  68.675  1.00  0.00    -0.318 A  
HETATM   14  O   UNL     1     -12.680  14.005  68.524  1.00  0.00    -0.238 OA 
HETATM   15  H   UNL     1     -13.462  14.066  69.058  1.00  0.00     0.000 HD 
ENDBRANCH   6   8
ENDBRANCH   5   6
ENDBRANCH   4   5
ENDBRANCH   2   4
TORSDOF 4
ENDMDL
MODEL      254
REMARK 921   NORMALIZED FREE ENERGY PREDICTED BY IDOCK:   -2.46 KCAL/MOL
REMARK 922        TOTAL FREE ENERGY PREDICTED BY IDOCK:   -3.45 KCAL/MOL
REMARK 923 INTER-LIGAND FREE ENERGY PREDICTED BY IDOCK:   -3.06 KCAL/MOL
REMARK 924 INTRA-LIGAND FREE ENERGY PREDICTED BY IDOCK:   -0.38 KCAL/MOL
REMARK 927      BINDING AFFINITY PREDICTED BY RF-SCORE:    0.00 PKD
ROOT
HETATM    1  O   UNL     1      -7.467   9.548  66.398  1.00  0.00    -0.095 OA 
HETATM    2  C   UNL     1      -8.765   9.446  65.837  1.00  0.00    -0.154 C  
HETATM    3  H   UNL     1      -7.045  10.363  66.151  1.00  0.00     0.000 HD 
ENDROOT
BRANCH   2   4
HETATM    4  C   UNL     1      -9.444   8.136  66.234  1.00  0.00    -0.190 C  
BRANCH   4   5
HETATM    5  O   UNL     1     -10.194   8.388  67.426  1.00  0.00    -0.215 OA 
BRANCH   5   6
HETATM    6  C   UNL     1     -10.598   7.278  68.089  1.00  0.00    -0.177 C  
HETATM    7  O   UNL     1     -10.728   6.165  67.604  1.00  0.00    -0.245 OA 
BRANCH   6   8
HETATM    8  C   UNL     1     -10.531   7.530  69.554  1.00  0.00    -0.227 A  
HETATM    9  C   UNL     1     -10.364   8.870  69.941  1.00  0.00    -0.215 A  
HETATM   10  C   UNL     1     -10.459   9.239  71.283  1.00  0.00    -0.408 A  
HETATM   11  C   UNL     1     -10.719   8.272  72.251  1.00  0.00    -0.399 A  
HETATM   12  C   UNL     1     -10.859   6.933  71.884  1.00  0.00    -0.258 A  
HETATM   13  C   UNL     1     -10.758   6.560  70.541  1.00  0.00    -0.254 A  
HETATM   14  O   UNL     1     -10.883   5.238  70.215  1.00  0.00    -0.225 OA 
HETATM   15  H   UNL     1     -11.037   4.581  70.883  1.00  0.00     0.000 HD 
ENDBRANCH   6   8
ENDBRANCH   5   6
ENDBRANCH   4   5
ENDBRANCH   2   4
TORSDOF 4
ENDMDL
MODEL      255
REMARK 921   NORMALIZED FREE ENERGY PREDICTED BY IDOCK:   -2.43 KCAL/MOL
REMARK 922        TOTAL FREE ENERGY PREDICTED BY IDOCK:   -3.42 KCAL/MOL
REMARK 923 INTER-LIGAND FREE ENERGY PREDICTED BY IDOCK:   -3.26 KCAL/MOL
REMARK 924 INTRA-LIGAND FREE ENERGY PREDICTED BY IDOCK:   -0.16 KCAL/MOL
REMARK 927      BINDING AFFINITY PREDICTED BY RF-SCORE:    0.00 PKD
ROOT
HETATM    1  O   UNL     1     -11.055  13.251  66.065  1.00  0.00    -0.282 OA 
HETATM    2  C   UNL     1     -11.227  12.460  67.228  1.00  0.00    -0.303 C  
HETATM    3  H   UNL     1     -11.448  12.840  65.303  1.00  0.00     0.000 HD 
ENDROOT
BRANCH   2   4
HETATM    4  C   UNL     1     -10.595  13.120  68.452  1.00  0.00    -0.251 C  
BRANCH   4   5
HETATM    5  O   UNL     1      -9.796  14.211  67.984  1.00  0.00    -0.212 OA 
BRANCH   5   6
HETATM    6  C   UNL     1     -10.356  15.434  68.136  1.00  0.00    -0.239 C  
HETATM    7  O   UNL     1     -11.245  15.718  68.924  1.00  0.00    -0.287 OA 
BRANCH   6   8
HETATM    8  C   UNL     1      -9.508  16.451  67.456  1.00  0.00    -0.224 A  
HETATM    9  C   UNL     1     -10.188  17.554  66.913  1.00  0.00    -0.329 A  
HETATM   10  C   UNL     1      -9.480  18.644  66.407  1.00  0.00    -0.319 A  
HETATM   11  C   UNL     1      -8.088  18.641  66.436  1.00  0.00    -0.300 A  
HETATM   12  C   UNL     1      -7.400  17.540  66.947  1.00  0.00    -0.239 A  
HETATM   13  C   UNL     1      -8.107  16.443  67.449  1.00  0.00    -0.153 A  
HETATM   14  O   UNL     1      -7.404  15.373  67.927  1.00  0.00    -0.119 OA 
HETATM   15  H   UNL     1      -6.455  15.368  67.923  1.00  0.00     0.000 HD 
ENDBRANCH   6   8
ENDBRANCH   5   6
ENDBRANCH   4   5
ENDBRANCH   2   4
TORSDOF 4
ENDMDL
MODEL      256
REMARK 921   NORMALIZED FREE ENERGY PREDICTED BY IDOCK:   -2.42 KCAL/MOL
REMARK 922        TOTAL FREE ENERGY PREDICTED BY IDOCK:   -3.40 KCAL/MOL
REMARK 923 INTER-LIGAND FREE ENERGY PREDICTED BY IDOCK:   -3.00 KCAL/MOL
REMARK 924 INTRA-LIGAND FREE ENERGY PREDICTED BY IDOCK:   -0.40 KCAL/MOL
REMARK 927      BINDING AFFINITY PREDICTED BY RF-SCORE:    0.00 PKD
ROOT
HETATM    1  O   UNL     1      -7.201   9.424  65.372  1.00  0.00    -0.088 OA 
HETATM    2  C   UNL     1      -7.384  10.218  66.532  1.00  0.00    -0.113 C  
HETATM    3  H   UNL     1      -6.296   9.151  65.276  1.00  0.00     0.000 HD 
ENDROOT
BRANCH   2   4
HETATM    4  C   UNL     1      -8.839  10.656  66.686  1.00  0.00    -0.141 C  
BRANCH   4   5
HETATM    5  O   UNL     1      -9.523   9.622  67.399  1.00  0.00    -0.139 OA 
BRANCH   5   6
HETATM    6  C   UNL     1      -9.949   9.969  68.637  1.00  0.00    -0.165 C  
HETATM    7  O   UNL     1     -10.036  11.109  69.067  1.00  0.00    -0.204 OA 
BRANCH   6   8
HETATM    8  C   UNL     1     -10.615   8.801  69.274  1.00  0.00    -0.210 A  
HETATM    9  C   UNL     1     -10.370   7.553  68.677  1.00  0.00    -0.218 A  
HETATM   10  C   UNL     1     -10.803   6.376  69.289  1.00  0.00    -0.387 A  
HETATM   11  C   UNL     1     -11.488   6.436  70.500  1.00  0.00    -0.444 A  
HETATM   12  C   UNL     1     -11.763   7.671  71.089  1.00  0.00    -0.311 A  
HETATM   13  C   UNL     1     -11.336   8.851  70.475  1.00  0.00    -0.234 A  
HETATM   14  O   UNL     1     -11.635  10.046  71.069  1.00  0.00    -0.343 OA 
HETATM   15  H   UNL     1     -12.122  10.080  71.883  1.00  0.00     0.000 HD 
ENDBRANCH   6   8
ENDBRANCH   5   6
ENDBRANCH   4   5
ENDBRANCH   2   4
TORSDOF 4
ENDMDL
MODEL      257
REMARK 921   NORMALIZED FREE ENERGY PREDICTED BY IDOCK:   -2.39 KCAL/MOL
REMARK 922        TOTAL FREE ENERGY PREDICTED BY IDOCK:   -3.36 KCAL/MOL
REMARK 923 INTER-LIGAND FREE ENERGY PREDICTED BY IDOCK:   -2.95 KCAL/MOL
REMARK 924 INTRA-LIGAND FREE ENERGY PREDICTED BY IDOCK:   -0.41 KCAL/MOL
REMARK 927      BINDING AFFINITY PREDICTED BY RF-SCORE:    0.00 PKD
ROOT
HETATM    1  O   UNL     1     -11.519   4.521  65.109  1.00  0.00    -1.105 OA 
HETATM    2  C   UNL     1     -10.218   4.430  65.664  1.00  0.00    -0.238 C  
HETATM    3  H   UNL     1     -11.984   3.695  65.174  1.00  0.00     0.000 HD 
ENDROOT
BRANCH   2   4
HETATM    4  C   UNL     1      -9.471   5.759  65.560  1.00  0.00     0.174 C  
BRANCH   4   5
HETATM    5  O   UNL     1      -9.996   6.624  66.573  1.00  0.00    -0.159 OA 
BRANCH   5   6
HETATM    6  C   UNL     1      -9.332   7.795  66.721  1.00  0.00    -0.180 C  
HETATM    7  O   UNL     1      -9.069   8.583  65.826  1.00  0.00    -0.193 OA 
BRANCH   6   8
HETATM    8  C   UNL     1      -9.271   8.146  68.166  1.00  0.00    -0.136 A  
HETATM    9  C   UNL     1      -9.641   9.461  68.495  1.00  0.00    -0.154 A  
HETATM   10  C   UNL     1      -9.784   9.844  69.829  1.00  0.00    -0.266 A  
HETATM   11  C   UNL     1      -9.555   8.920  70.845  1.00  0.00    -0.298 A  
HETATM   12  C   UNL     1      -9.158   7.619  70.532  1.00  0.00    -0.151 A  
HETATM   13  C   UNL     1      -9.009   7.234  69.197  1.00  0.00    -0.135 A  
HETATM   14  O   UNL     1      -8.603   5.957  68.924  1.00  0.00    -0.110 OA 
HETATM   15  H   UNL     1      -8.426   5.339  69.622  1.00  0.00     0.000 HD 
ENDBRANCH   6   8
ENDBRANCH   5   6
ENDBRANCH   4   5
ENDBRANCH   2   4
TORSDOF 4
ENDMDL
MODEL      258
REMARK 921   NORMALIZED FREE ENERGY PREDICTED BY IDOCK:   -2.35 KCAL/MOL
REMARK 922        TOTAL FREE ENERGY PREDICTED BY IDOCK:   -3.31 KCAL/MOL
REMARK 923 INTER-LIGAND FREE ENERGY PREDICTED BY IDOCK:   -2.85 KCAL/MOL
REMARK 924 INTRA-LIGAND FREE ENERGY PREDICTED BY IDOCK:   -0.46 KCAL/MOL
REMARK 927      BINDING AFFINITY PREDICTED BY RF-SCORE:    0.00 PKD
ROOT
HETATM    1  O   UNL     1      -8.891   6.854  68.916  1.00  0.00    -0.130 OA 
HETATM    2  C   UNL     1      -9.640   7.620  67.988  1.00  0.00    -0.145 C  
HETATM    3  H   UNL     1      -8.882   5.934  68.680  1.00  0.00     0.000 HD 
ENDROOT
BRANCH   2   4
HETATM    4  C   UNL     1      -9.653   9.100  68.366  1.00  0.00    -0.151 C  
BRANCH   4   5
HETATM    5  O   UNL     1      -8.843   9.793  67.411  1.00  0.00    -0.131 OA 
BRANCH   5   6
HETATM    6  C   UNL     1      -9.525  10.606  66.570  1.00  0.00    -0.169 C  
HETATM    7  O   UNL     1     -10.212  10.244  65.628  1.00  0.00    -0.273 OA 
BRANCH   6   8
HETATM    8  C   UNL     1      -9.597  11.971  67.159  1.00  0.00    -0.195 A  
HETATM    9  C   UNL     1      -8.379  12.664  67.257  1.00  0.00    -0.189 A  
HETATM   10  C   UNL     1      -8.354  14.007  67.632  1.00  0.00    -0.191 A  
HETATM   11  C   UNL     1      -9.545  14.670  67.917  1.00  0.00    -0.212 A  
HETATM   12  C   UNL     1     -10.760  13.986  67.852  1.00  0.00    -0.246 A  
HETATM   13  C   UNL     1     -10.787  12.639  67.481  1.00  0.00    -0.239 A  
HETATM   14  O   UNL     1     -11.991  11.992  67.442  1.00  0.00    -0.583 OA 
HETATM   15  H   UNL     1     -12.797  12.444  67.661  1.00  0.00     0.000 HD 
ENDBRANCH   6   8
ENDBRANCH   5   6
ENDBRANCH   4   5
ENDBRANCH   2   4
TORSDOF 4
ENDMDL
MODEL      259
REMARK 921   NORMALIZED FREE ENERGY PREDICTED BY IDOCK:   -2.34 KCAL/MOL
REMARK 922        TOTAL FREE ENERGY PREDICTED BY IDOCK:   -3.30 KCAL/MOL
REMARK 923 INTER-LIGAND FREE ENERGY PREDICTED BY IDOCK:   -2.79 KCAL/MOL
REMARK 924 INTRA-LIGAND FREE ENERGY PREDICTED BY IDOCK:   -0.51 KCAL/MOL
REMARK 927      BINDING AFFINITY PREDICTED BY RF-SCORE:    0.00 PKD
ROOT
HETATM    1  O   UNL     1      -7.581  11.341  69.570  1.00  0.00    -0.348 OA 
HETATM    2  C   UNL     1      -8.138  11.456  68.272  1.00  0.00    -0.143 C  
HETATM    3  H   UNL     1      -6.838  11.923  69.682  1.00  0.00     0.000 HD 
ENDROOT
BRANCH   2   4
HETATM    4  C   UNL     1      -9.332  10.520  68.091  1.00  0.00    -0.148 C  
BRANCH   4   5
HETATM    5  O   UNL     1     -10.515  11.324  68.138  1.00  0.00    -0.177 OA 
BRANCH   5   6
HETATM    6  C   UNL     1     -10.951  11.622  69.385  1.00  0.00    -0.152 C  
HETATM    7  O   UNL     1     -10.796  10.931  70.379  1.00  0.00    -0.060 OA 
BRANCH   6   8
HETATM    8  C   UNL     1     -11.339  13.058  69.440  1.00  0.00    -0.269 A  
HETATM    9  C   UNL     1     -11.133  13.796  68.262  1.00  0.00    -0.279 A  
HETATM   10  C   UNL     1     -11.617  15.100  68.147  1.00  0.00    -0.358 A  
HETATM   11  C   UNL     1     -12.307  15.679  69.209  1.00  0.00    -0.063 A  
HETATM   12  C   UNL     1     -12.494  14.967  70.395  1.00  0.00    -0.407 A  
HETATM   13  C   UNL     1     -12.006  13.663  70.515  1.00  0.00    -0.280 A  
HETATM   14  O   UNL     1     -12.190  12.999  71.695  1.00  0.00    -0.107 OA 
HETATM   15  H   UNL     1     -12.642  13.408  72.422  1.00  0.00     0.000 HD 
ENDBRANCH   6   8
ENDBRANCH   5   6
ENDBRANCH   4   5
ENDBRANCH   2   4
TORSDOF 4
ENDMDL
MODEL      260
REMARK 921   NORMALIZED FREE ENERGY PREDICTED BY IDOCK:   -2.33 KCAL/MOL
REMARK 922        TOTAL FREE ENERGY PREDICTED BY IDOCK:   -3.29 KCAL/MOL
REMARK 923 INTER-LIGAND FREE ENERGY PREDICTED BY IDOCK:   -2.84 KCAL/MOL
REMARK 924 INTRA-LIGAND FREE ENERGY PREDICTED BY IDOCK:   -0.46 KCAL/MOL
REMARK 927      BINDING AFFINITY PREDICTED BY RF-SCORE:    0.00 PKD
ROOT
HETATM    1  O   UNL     1      -7.484   6.682  64.524  1.00  0.00    -0.080 OA 
HETATM    2  C   UNL     1      -8.240   7.087  65.653  1.00  0.00    -0.134 C  
HETATM    3  H   UNL     1      -6.919   7.380  64.215  1.00  0.00     0.000 HD 
ENDROOT
BRANCH   2   4
HETATM    4  C   UNL     1      -9.148   5.964  66.150  1.00  0.00    -0.150 C  
BRANCH   4   5
HETATM    5  O   UNL     1     -10.086   6.546  67.062  1.00  0.00    -0.150 OA 
BRANCH   5   6
HETATM    6  C   UNL     1      -9.947   6.152  68.350  1.00  0.00    -0.140 C  
HETATM    7  O   UNL     1      -9.117   5.359  68.767  1.00  0.00    -0.115 OA 
BRANCH   6   8
HETATM    8  C   UNL     1     -10.715   7.073  69.231  1.00  0.00    -0.245 A  
HETATM    9  C   UNL     1     -11.608   6.463  70.128  1.00  0.00    -0.449 A  
HETATM   10  C   UNL     1     -12.250   7.215  71.112  1.00  0.00    -0.405 A  
HETATM   11  C   UNL     1     -12.008   8.583  71.207  1.00  0.00    -0.334 A  
HETATM   12  C   UNL     1     -11.145   9.207  70.304  1.00  0.00    -0.272 A  
HETATM   13  C   UNL     1     -10.505   8.456  69.314  1.00  0.00    -0.215 A  
HETATM   14  O   UNL     1      -9.679   9.099  68.434  1.00  0.00    -0.147 OA 
HETATM   15  H   UNL     1      -9.537  10.036  68.491  1.00  0.00     0.000 HD 
ENDBRANCH   6   8
ENDBRANCH   5   6
ENDBRANCH   4   5
ENDBRANCH   2   4
TORSDOF 4
ENDMDL
MODEL      261
REMARK 921   NORMALIZED FREE ENERGY PREDICTED BY IDOCK:   -2.33 KCAL/MOL
REMARK 922        TOTAL FREE ENERGY PREDICTED BY IDOCK:   -3.29 KCAL/MOL
REMARK 923 INTER-LIGAND FREE ENERGY PREDICTED BY IDOCK:   -2.79 KCAL/MOL
REMARK 924 INTRA-LIGAND FREE ENERGY PREDICTED BY IDOCK:   -0.49 KCAL/MOL
REMARK 927      BINDING AFFINITY PREDICTED BY RF-SCORE:    0.00 PKD
ROOT
HETATM    1  O   UNL     1     -10.346  13.515  69.020  1.00  0.00    -0.404 OA 
HETATM    2  C   UNL     1     -10.503  13.172  67.654  1.00  0.00    -0.221 C  
HETATM    3  H   UNL     1      -9.805  14.289  69.124  1.00  0.00     0.000 HD 
ENDROOT
BRANCH   2   4
HETATM    4  C   UNL     1     -11.373  11.927  67.486  1.00  0.00    -0.314 C  
BRANCH   4   5
HETATM    5  O   UNL     1     -10.511  10.854  67.093  1.00  0.00    -0.213 OA 
BRANCH   5   6
HETATM    6  C   UNL     1     -10.164  10.009  68.092  1.00  0.00    -0.175 C  
HETATM    7  O   UNL     1     -10.254  10.242  69.288  1.00  0.00    -0.201 OA 
BRANCH   6   8
HETATM    8  C   UNL     1      -9.980   8.640  67.537  1.00  0.00    -0.256 A  
HETATM    9  C   UNL     1     -10.776   7.633  68.108  1.00  0.00    -0.127 A  
HETATM   10  C   UNL     1     -10.810   6.354  67.551  1.00  0.00    -0.438 A  
HETATM   11  C   UNL     1     -10.047   6.069  66.422  1.00  0.00    -0.142 A  
HETATM   12  C   UNL     1      -9.230   7.052  65.862  1.00  0.00     0.005 A  
HETATM   13  C   UNL     1      -9.190   8.333  66.421  1.00  0.00    -0.195 A  
HETATM   14  O   UNL     1      -8.367   9.269  65.859  1.00  0.00    -0.112 OA 
HETATM   15  H   UNL     1      -7.832   9.061  65.103  1.00  0.00     0.000 HD 
ENDBRANCH   6   8
ENDBRANCH   5   6
ENDBRANCH   4   5
ENDBRANCH   2   4
TORSDOF 4
ENDMDL
MODEL      262
REMARK 921   NORMALIZED FREE ENERGY PREDICTED BY IDOCK:   -2.32 KCAL/MOL
REMARK 922        TOTAL FREE ENERGY PREDICTED BY IDOCK:   -3.27 KCAL/MOL
REMARK 923 INTER-LIGAND FREE ENERGY PREDICTED BY IDOCK:   -2.89 KCAL/MOL
REMARK 924 INTRA-LIGAND FREE ENERGY PREDICTED BY IDOCK:   -0.38 KCAL/MOL
REMARK 927      BINDING AFFINITY PREDICTED BY RF-SCORE:    0.00 PKD
ROOT
HETATM    1  O   UNL     1      -7.447  11.772  69.143  1.00  0.00    -0.275 OA 
HETATM    2  C   UNL     1      -8.273  10.796  68.532  1.00  0.00    -0.136 C  
HETATM    3  H   UNL     1      -6.645  11.389  69.479  1.00  0.00     0.000 HD 
ENDROOT
BRANCH   2   4
HETATM    4  C   UNL     1      -9.562  11.412  67.992  1.00  0.00    -0.183 C  
BRANCH   4   5
HETATM    5  O   UNL     1      -9.213  12.651  67.366  1.00  0.00    -0.178 OA 
BRANCH   5   6
HETATM    6  C   UNL     1      -9.961  13.713  67.750  1.00  0.00    -0.235 C  
HETATM    7  O   UNL     1     -11.021  13.658  68.353  1.00  0.00    -0.244 OA 
BRANCH   6   8
HETATM    8  C   UNL     1      -9.146  14.953  67.639  1.00  0.00    -0.183 A  
HETATM    9  C   UNL     1      -9.803  16.152  67.964  1.00  0.00    -0.231 A  
HETATM   10  C   UNL     1      -9.091  17.348  68.058  1.00  0.00    -0.259 A  
HETATM   11  C   UNL     1      -7.718  17.358  67.826  1.00  0.00    -0.200 A  
HETATM   12  C   UNL     1      -7.058  16.180  67.474  1.00  0.00    -0.191 A  
HETATM   13  C   UNL     1      -7.770  14.981  67.373  1.00  0.00    -0.200 A  
HETATM   14  O   UNL     1      -7.098  13.847  67.010  1.00  0.00    -0.378 OA 
HETATM   15  H   UNL     1      -6.166  13.866  66.830  1.00  0.00     0.000 HD 
ENDBRANCH   6   8
ENDBRANCH   5   6
ENDBRANCH   4   5
ENDBRANCH   2   4
TORSDOF 4
ENDMDL
MODEL      263
REMARK 921   NORMALIZED FREE ENERGY PREDICTED BY IDOCK:   -2.31 KCAL/MOL
REMARK 922        TOTAL FREE ENERGY PREDICTED BY IDOCK:   -3.26 KCAL/MOL
REMARK 923 INTER-LIGAND FREE ENERGY PREDICTED BY IDOCK:   -2.79 KCAL/MOL
REMARK 924 INTRA-LIGAND FREE ENERGY PREDICTED BY IDOCK:   -0.47 KCAL/MOL
REMARK 927      BINDING AFFINITY PREDICTED BY RF-SCORE:    0.00 PKD
ROOT
HETATM    1  O   UNL     1      -9.294   4.601  68.819  1.00  0.00    -0.121 OA 
HETATM    2  C   UNL     1      -9.164   5.424  67.673  1.00  0.00    -0.112 C  
HETATM    3  H   UNL     1      -9.944   3.921  68.687  1.00  0.00     0.000 HD 
ENDROOT
BRANCH   2   4
HETATM    4  C   UNL     1      -8.118   6.518  67.885  1.00  0.00    -0.116 C  
BRANCH   4   5
HETATM    5  O   UNL     1      -8.798   7.661  68.414  1.00  0.00    -0.130 OA 
BRANCH   5   6
HETATM    6  C   UNL     1      -8.377   8.058  69.638  1.00  0.00    -0.126 C  
HETATM    7  O   UNL     1      -7.305   8.588  69.886  1.00  0.00    -0.054 OA 
BRANCH   6   8
HETATM    8  C   UNL     1      -9.533   8.071  70.575  1.00  0.00    -0.166 A  
HETATM    9  C   UNL     1      -9.303   7.511  71.843  1.00  0.00    -0.171 A  
HETATM   10  C   UNL     1     -10.259   7.623  72.852  1.00  0.00    -0.356 A  
HETATM   11  C   UNL     1     -11.455   8.292  72.603  1.00  0.00    -0.423 A  
HETATM   12  C   UNL     1     -11.708   8.828  71.340  1.00  0.00    -0.369 A  
HETATM   13  C   UNL     1     -10.754   8.712  70.325  1.00  0.00    -0.227 A  
HETATM   14  O   UNL     1     -11.039   9.233  69.094  1.00  0.00    -0.423 OA 
HETATM   15  H   UNL     1     -11.866   9.668  68.925  1.00  0.00     0.000 HD 
ENDBRANCH   6   8
ENDBRANCH   5   6
ENDBRANCH   4   5
ENDBRANCH   2   4
TORSDOF 4
ENDMDL
MODEL      264
REMARK 921   NORMALIZED FREE ENERGY PREDICTED BY IDOCK:   -2.29 KCAL/MOL
REMARK 922        TOTAL FREE ENERGY PREDICTED BY IDOCK:   -3.24 KCAL/MOL
REMARK 923 INTER-LIGAND FREE ENERGY PREDICTED BY IDOCK:   -2.77 KCAL/MOL
REMARK 924 INTRA-LIGAND FREE ENERGY PREDICTED BY IDOCK:   -0.46 KCAL/MOL
REMARK 927      BINDING AFFINITY PREDICTED BY RF-SCORE:    0.00 PKD
ROOT
HETATM    1  O   UNL     1      -7.194   5.414  68.378  1.00  0.00    -0.068 OA 
HETATM    2  C   UNL     1      -8.057   6.297  67.683  1.00  0.00    -0.117 C  
HETATM    3  H   UNL     1      -7.591   4.558  68.494  1.00  0.00     0.000 HD 
ENDROOT
BRANCH   2   4
HETATM    4  C   UNL     1      -7.419   7.672  67.496  1.00  0.00    -0.104 C  
BRANCH   4   5
HETATM    5  O   UNL     1      -7.944   8.529  68.515  1.00  0.00    -0.113 OA 
BRANCH   5   6
HETATM    6  C   UNL     1      -8.897   9.395  68.094  1.00  0.00    -0.124 C  
HETATM    7  O   UNL     1      -9.027   9.814  66.955  1.00  0.00    -0.136 OA 
BRANCH   6   8
HETATM    8  C   UNL     1      -9.960   9.496  69.130  1.00  0.00    -0.185 A  
HETATM    9  C   UNL     1      -9.782   8.700  70.274  1.00  0.00    -0.191 A  
HETATM   10  C   UNL     1     -10.625   8.843  71.377  1.00  0.00    -0.374 A  
HETATM   11  C   UNL     1     -11.654   9.780  71.346  1.00  0.00    -0.452 A  
HETATM   12  C   UNL     1     -11.860  10.558  70.205  1.00  0.00    -0.418 A  
HETATM   13  C   UNL     1     -11.021  10.412  69.097  1.00  0.00    -0.241 A  
HETATM   14  O   UNL     1     -11.259  11.176  67.989  1.00  0.00    -0.249 OA 
HETATM   15  H   UNL     1     -11.977  11.797  67.966  1.00  0.00     0.000 HD 
ENDBRANCH   6   8
ENDBRANCH   5   6
ENDBRANCH   4   5
ENDBRANCH   2   4
TORSDOF 4
ENDMDL
MODEL      265
REMARK 921   NORMALIZED FREE ENERGY PREDICTED BY IDOCK:   -2.26 KCAL/MOL
REMARK 922        TOTAL FREE ENERGY PREDICTED BY IDOCK:   -3.21 KCAL/MOL
REMARK 923 INTER-LIGAND FREE ENERGY PREDICTED BY IDOCK:   -2.79 KCAL/MOL
REMARK 924 INTRA-LIGAND FREE ENERGY PREDICTED BY IDOCK:   -0.41 KCAL/MOL
REMARK 927      BINDING AFFINITY PREDICTED BY RF-SCORE:    0.00 PKD
ROOT
HETATM    1  O   UNL     1      -9.101   7.297  65.624  1.00  0.00    -0.375 OA 
HETATM    2  C   UNL     1      -8.525   8.137  66.610  1.00  0.00    -0.128 C  
HETATM    3  H   UNL     1      -9.509   7.803  64.931  1.00  0.00     0.000 HD 
ENDROOT
BRANCH   2   4
HETATM    4  C   UNL     1      -7.869   7.323  67.725  1.00  0.00    -0.114 C  
BRANCH   4   5
HETATM    5  O   UNL     1      -7.797   8.163  68.881  1.00  0.00    -0.108 OA 
BRANCH   5   6
HETATM    6  C   UNL     1      -7.943   7.518  70.063  1.00  0.00    -0.112 C  
HETATM    7  O   UNL     1      -7.058   6.938  70.673  1.00  0.00    -0.065 OA 
BRANCH   6   8
HETATM    8  C   UNL     1      -9.243   7.904  70.676  1.00  0.00    -0.157 A  
HETATM    9  C   UNL     1      -9.657   9.229  70.456  1.00  0.00    -0.317 A  
HETATM   10  C   UNL     1     -10.932   9.646  70.838  1.00  0.00    -0.412 A  
HETATM   11  C   UNL     1     -11.803   8.746  71.447  1.00  0.00    -0.369 A  
HETATM   12  C   UNL     1     -11.394   7.436  71.698  1.00  0.00    -0.286 A  
HETATM   13  C   UNL     1     -10.115   7.016  71.322  1.00  0.00    -0.190 A  
HETATM   14  O   UNL     1      -9.738   5.731  71.596  1.00  0.00    -0.159 OA 
HETATM   15  H   UNL     1     -10.329   5.130  72.033  1.00  0.00     0.000 HD 
ENDBRANCH   6   8
ENDBRANCH   5   6
ENDBRANCH   4   5
ENDBRANCH   2   4
TORSDOF 4
ENDMDL
MODEL      266
REMARK 921   NORMALIZED FREE ENERGY PREDICTED BY IDOCK:   -2.26 KCAL/MOL
REMARK 922        TOTAL FREE ENERGY PREDICTED BY IDOCK:   -3.20 KCAL/MOL
REMARK 923 INTER-LIGAND FREE ENERGY PREDICTED BY IDOCK:   -2.85 KCAL/MOL
REMARK 924 INTRA-LIGAND FREE ENERGY PREDICTED BY IDOCK:   -0.35 KCAL/MOL
REMARK 927      BINDING AFFINITY PREDICTED BY RF-SCORE:    0.00 PKD
ROOT
HETATM    1  O   UNL     1      -8.904   9.694  70.022  1.00  0.00    -0.202 OA 
HETATM    2  C   UNL     1     -10.203   9.284  69.632  1.00  0.00    -0.208 C  
HETATM    3  H   UNL     1      -8.871  10.627  70.199  1.00  0.00     0.000 HD 
ENDROOT
BRANCH   2   4
HETATM    4  C   UNL     1     -10.255   7.783  69.349  1.00  0.00    -0.208 C  
BRANCH   4   5
HETATM    5  O   UNL     1     -10.321   7.113  70.611  1.00  0.00    -0.202 OA 
BRANCH   5   6
HETATM    6  C   UNL     1     -10.098   5.778  70.559  1.00  0.00    -0.208 C  
HETATM    7  O   UNL     1      -9.692   5.160  69.587  1.00  0.00    -0.151 OA 
BRANCH   6   8
HETATM    8  C   UNL     1     -10.089   5.227  71.942  1.00  0.00    -0.252 A  
HETATM    9  C   UNL     1      -9.128   4.236  72.203  1.00  0.00    -0.150 A  
HETATM   10  C   UNL     1      -8.918   3.775  73.502  1.00  0.00    -0.096 A  
HETATM   11  C   UNL     1      -9.669   4.297  74.552  1.00  0.00    -0.162 A  
HETATM   12  C   UNL     1     -10.647   5.261  74.303  1.00  0.00    -0.262 A  
HETATM   13  C   UNL     1     -10.863   5.721  73.001  1.00  0.00    -0.271 A  
HETATM   14  O   UNL     1     -11.839   6.653  72.787  1.00  0.00    -0.482 OA 
HETATM   15  H   UNL     1     -12.363   6.988  73.505  1.00  0.00     0.000 HD 
ENDBRANCH   6   8
ENDBRANCH   5   6
ENDBRANCH   4   5
ENDBRANCH   2   4
TORSDOF 4
ENDMDL
MODEL      267
REMARK 921   NORMALIZED FREE ENERGY PREDICTED BY IDOCK:   -2.25 KCAL/MOL
REMARK 922        TOTAL FREE ENERGY PREDICTED BY IDOCK:   -3.19 KCAL/MOL
REMARK 923 INTER-LIGAND FREE ENERGY PREDICTED BY IDOCK:   -2.77 KCAL/MOL
REMARK 924 INTRA-LIGAND FREE ENERGY PREDICTED BY IDOCK:   -0.42 KCAL/MOL
REMARK 927      BINDING AFFINITY PREDICTED BY RF-SCORE:    0.00 PKD
ROOT
HETATM    1  O   UNL     1      -7.498   4.934  69.024  1.00  0.00    -0.059 OA 
HETATM    2  C   UNL     1      -7.601   4.160  70.206  1.00  0.00    -0.045 C  
HETATM    3  H   UNL     1      -6.591   5.078  68.780  1.00  0.00     0.000 HD 
ENDROOT
BRANCH   2   4
HETATM    4  C   UNL     1      -9.059   3.928  70.598  1.00  0.00    -0.111 C  
BRANCH   4   5
HETATM    5  O   UNL     1      -9.747   5.172  70.436  1.00  0.00    -0.172 OA 
BRANCH   5   6
HETATM    6  C   UNL     1     -10.230   5.708  71.582  1.00  0.00    -0.208 C  
HETATM    7  O   UNL     1     -10.077   5.251  72.704  1.00  0.00    -0.166 OA 
BRANCH   6   8
HETATM    8  C   UNL     1     -10.677   7.104  71.322  1.00  0.00    -0.245 A  
HETATM    9  C   UNL     1     -12.062   7.330  71.392  1.00  0.00    -0.370 A  
HETATM   10  C   UNL     1     -12.573   8.626  71.334  1.00  0.00    -0.325 A  
HETATM   11  C   UNL     1     -11.707   9.708  71.202  1.00  0.00    -0.450 A  
HETATM   12  C   UNL     1     -10.331   9.496  71.102  1.00  0.00    -0.330 A  
HETATM   13  C   UNL     1      -9.816   8.198  71.154  1.00  0.00    -0.169 A  
HETATM   14  O   UNL     1      -8.466   8.022  71.037  1.00  0.00    -0.120 OA 
HETATM   15  H   UNL     1      -7.883   8.762  70.924  1.00  0.00     0.000 HD 
ENDBRANCH   6   8
ENDBRANCH   5   6
ENDBRANCH   4   5
ENDBRANCH   2   4
TORSDOF 4
ENDMDL
MODEL      268
REMARK 921   NORMALIZED FREE ENERGY PREDICTED BY IDOCK:   -2.22 KCAL/MOL
REMARK 922        TOTAL FREE ENERGY PREDICTED BY IDOCK:   -3.15 KCAL/MOL
REMARK 923 INTER-LIGAND FREE ENERGY PREDICTED BY IDOCK:   -2.76 KCAL/MOL
REMARK 924 INTRA-LIGAND FREE ENERGY PREDICTED BY IDOCK:   -0.39 KCAL/MOL
REMARK 927      BINDING AFFINITY PREDICTED BY RF-SCORE:    0.00 PKD
ROOT
HETATM    1  O   UNL     1      -9.908   9.658  63.605  1.00  0.00    -0.413 OA 
HETATM    2  C   UNL     1      -9.992  11.072  63.662  1.00  0.00    -0.361 C  
HETATM    3  H   UNL     1      -9.579   9.363  62.763  1.00  0.00     0.000 HD 
ENDROOT
BRANCH   2   4
HETATM    4  C   UNL     1     -10.521  11.546  65.015  1.00  0.00    -0.290 C  
BRANCH   4   5
HETATM    5  O   UNL     1      -9.549  12.443  65.562  1.00  0.00    -0.184 OA 
BRANCH   5   6
HETATM    6  C   UNL     1      -9.880  12.977  66.762  1.00  0.00    -0.243 C  
HETATM    7  O   UNL     1     -10.982  12.930  67.284  1.00  0.00    -0.251 OA 
BRANCH   6   8
HETATM    8  C   UNL     1      -8.637  13.327  67.503  1.00  0.00    -0.200 A  
HETATM    9  C   UNL     1      -7.500  12.563  67.191  1.00  0.00    -0.077 A  
HETATM   10  C   UNL     1      -6.248  12.915  67.698  1.00  0.00    -0.157 A  
HETATM   11  C   UNL     1      -6.123  14.029  68.523  1.00  0.00    -0.094 A  
HETATM   12  C   UNL     1      -7.249  14.780  68.864  1.00  0.00    -0.126 A  
HETATM   13  C   UNL     1      -8.505  14.426  68.363  1.00  0.00    -0.165 A  
HETATM   14  O   UNL     1      -9.591  15.171  68.728  1.00  0.00    -0.202 OA 
HETATM   15  H   UNL     1      -9.501  15.916  69.310  1.00  0.00     0.000 HD 
ENDBRANCH   6   8
ENDBRANCH   5   6
ENDBRANCH   4   5
ENDBRANCH   2   4
TORSDOF 4
ENDMDL
MODEL      269
REMARK 921   NORMALIZED FREE ENERGY PREDICTED BY IDOCK:   -2.22 KCAL/MOL
REMARK 922        TOTAL FREE ENERGY PREDICTED BY IDOCK:   -3.15 KCAL/MOL
REMARK 923 INTER-LIGAND FREE ENERGY PREDICTED BY IDOCK:   -2.81 KCAL/MOL
REMARK 924 INTRA-LIGAND FREE ENERGY PREDICTED BY IDOCK:   -0.34 KCAL/MOL
REMARK 927      BINDING AFFINITY PREDICTED BY RF-SCORE:    0.00 PKD
ROOT
HETATM    1  O   UNL     1      -7.377  10.929  69.590  1.00  0.00    -0.253 OA 
HETATM    2  C   UNL     1      -8.163  10.553  68.472  1.00  0.00    -0.123 C  
HETATM    3  H   UNL     1      -7.816  11.584  70.120  1.00  0.00     0.000 HD 
ENDROOT
BRANCH   2   4
HETATM    4  C   UNL     1      -7.457   9.500  67.620  1.00  0.00    -0.091 C  
BRANCH   4   5
HETATM    5  O   UNL     1      -7.496   8.267  68.346  1.00  0.00    -0.092 OA 
BRANCH   5   6
HETATM    6  C   UNL     1      -8.200   7.277  67.748  1.00  0.00    -0.119 C  
HETATM    7  O   UNL     1      -7.893   6.708  66.712  1.00  0.00    -0.104 OA 
BRANCH   6   8
HETATM    8  C   UNL     1      -9.213   6.750  68.702  1.00  0.00    -0.132 A  
HETATM    9  C   UNL     1      -8.737   6.414  69.981  1.00  0.00    -0.142 A  
HETATM   10  C   UNL     1      -9.625   6.074  71.002  1.00  0.00    -0.197 A  
HETATM   11  C   UNL     1     -10.995   6.063  70.754  1.00  0.00    -0.364 A  
HETATM   12  C   UNL     1     -11.480   6.367  69.481  1.00  0.00    -0.412 A  
HETATM   13  C   UNL     1     -10.592   6.702  68.455  1.00  0.00    -0.242 A  
HETATM   14  O   UNL     1     -11.097   6.979  67.215  1.00  0.00    -0.537 OA 
HETATM   15  H   UNL     1     -12.031   6.947  67.047  1.00  0.00     0.000 HD 
ENDBRANCH   6   8
ENDBRANCH   5   6
ENDBRANCH   4   5
ENDBRANCH   2   4
TORSDOF 4
ENDMDL
MODEL      270
REMARK 921   NORMALIZED FREE ENERGY PREDICTED BY IDOCK:   -2.19 KCAL/MOL
REMARK 922        TOTAL FREE ENERGY PREDICTED BY IDOCK:   -3.11 KCAL/MOL
REMARK 923 INTER-LIGAND FREE ENERGY PREDICTED BY IDOCK:   -3.00 KCAL/MOL
REMARK 924 INTRA-LIGAND FREE ENERGY PREDICTED BY IDOCK:   -0.11 KCAL/MOL
REMARK 927      BINDING AFFINITY PREDICTED BY RF-SCORE:    0.00 PKD
ROOT
HETATM    1  O   UNL     1      -9.350   9.776  66.185  1.00  0.00    -0.167 OA 
HETATM    2  C   UNL     1      -8.972  11.128  65.990  1.00  0.00    -0.200 C  
HETATM    3  H   UNL     1      -8.754   9.182  65.744  1.00  0.00     0.000 HD 
ENDROOT
BRANCH   2   4
HETATM    4  C   UNL     1      -9.930  12.084  66.699  1.00  0.00    -0.201 C  
BRANCH   4   5
HETATM    5  O   UNL     1      -9.717  13.388  66.150  1.00  0.00    -0.282 OA 
BRANCH   5   6
HETATM    6  C   UNL     1     -10.420  14.379  66.748  1.00  0.00    -0.273 C  
HETATM    7  O   UNL     1     -11.636  14.441  66.832  1.00  0.00    -0.357 OA 
BRANCH   6   8
HETATM    8  C   UNL     1      -9.499  15.201  67.581  1.00  0.00    -0.201 A  
HETATM    9  C   UNL     1      -8.368  14.537  68.085  1.00  0.00    -0.147 A  
HETATM   10  C   UNL     1      -7.357  15.248  68.731  1.00  0.00    -0.131 A  
HETATM   11  C   UNL     1      -7.468  16.627  68.883  1.00  0.00    -0.232 A  
HETATM   12  C   UNL     1      -8.599  17.296  68.412  1.00  0.00    -0.251 A  
HETATM   13  C   UNL     1      -9.617  16.585  67.770  1.00  0.00    -0.232 A  
HETATM   14  O   UNL     1     -10.720  17.265  67.335  1.00  0.00    -0.329 OA 
HETATM   15  H   UNL     1     -10.799  18.203  67.463  1.00  0.00     0.000 HD 
ENDBRANCH   6   8
ENDBRANCH   5   6
ENDBRANCH   4   5
ENDBRANCH   2   4
TORSDOF 4
ENDMDL
MODEL      271
REMARK 921   NORMALIZED FREE ENERGY PREDICTED BY IDOCK:   -2.18 KCAL/MOL
REMARK 922        TOTAL FREE ENERGY PREDICTED BY IDOCK:   -3.10 KCAL/MOL
REMARK 923 INTER-LIGAND FREE ENERGY PREDICTED BY IDOCK:   -2.71 KCAL/MOL
REMARK 924 INTRA-LIGAND FREE ENERGY PREDICTED BY IDOCK:   -0.40 KCAL/MOL
REMARK 927      BINDING AFFINITY PREDICTED BY RF-SCORE:    0.00 PKD
ROOT
HETATM    1  O   UNL     1      -8.120   4.179  66.047  1.00  0.00    -0.098 OA 
HETATM    2  C   UNL     1      -7.650   5.268  66.822  1.00  0.00    -0.088 C  
HETATM    3  H   UNL     1      -8.369   3.443  66.595  1.00  0.00     0.000 HD 
ENDROOT
BRANCH   2   4
HETATM    4  C   UNL     1      -7.251   6.451  65.941  1.00  0.00    -0.078 C  
BRANCH   4   5
HETATM    5  O   UNL     1      -8.449   7.157  65.605  1.00  0.00    -0.143 OA 
BRANCH   5   6
HETATM    6  C   UNL     1      -8.563   8.384  66.167  1.00  0.00    -0.141 C  
HETATM    7  O   UNL     1      -8.009   8.754  67.190  1.00  0.00    -0.096 OA 
BRANCH   6   8
HETATM    8  C   UNL     1      -9.180   9.318  65.186  1.00  0.00    -0.264 A  
HETATM    9  C   UNL     1     -10.117  10.226  65.707  1.00  0.00    -0.325 A  
HETATM   10  C   UNL     1     -10.627  11.254  64.913  1.00  0.00    -0.364 A  
HETATM   11  C   UNL     1     -10.208  11.381  63.591  1.00  0.00    -0.448 A  
HETATM   12  C   UNL     1      -9.300  10.469  63.052  1.00  0.00    -0.343 A  
HETATM   13  C   UNL     1      -8.792   9.435  63.844  1.00  0.00    -0.173 A  
HETATM   14  O   UNL     1      -7.916   8.548  63.283  1.00  0.00    -0.147 OA 
HETATM   15  H   UNL     1      -7.653   8.627  62.374  1.00  0.00     0.000 HD 
ENDBRANCH   6   8
ENDBRANCH   5   6
ENDBRANCH   4   5
ENDBRANCH   2   4
TORSDOF 4
ENDMDL
MODEL      272
REMARK 921   NORMALIZED FREE ENERGY PREDICTED BY IDOCK:   -2.17 KCAL/MOL
REMARK 922        TOTAL FREE ENERGY PREDICTED BY IDOCK:   -3.09 KCAL/MOL
REMARK 923 INTER-LIGAND FREE ENERGY PREDICTED BY IDOCK:   -2.65 KCAL/MOL
REMARK 924 INTRA-LIGAND FREE ENERGY PREDICTED BY IDOCK:   -0.44 KCAL/MOL
REMARK 927      BINDING AFFINITY PREDICTED BY RF-SCORE:    0.00 PKD
ROOT
HETATM    1  O   UNL     1      -9.764   3.024  66.936  1.00  0.00    -0.412 OA 
HETATM    2  C   UNL     1      -9.394   3.328  68.270  1.00  0.00    -0.184 C  
HETATM    3  H   UNL     1     -10.303   2.242  66.894  1.00  0.00     0.000 HD 
ENDROOT
BRANCH   2   4
HETATM    4  C   UNL     1      -8.528   4.585  68.337  1.00  0.00    -0.093 C  
BRANCH   4   5
HETATM    5  O   UNL     1      -9.275   5.651  67.743  1.00  0.00    -0.108 OA 
BRANCH   5   6
HETATM    6  C   UNL     1      -8.524   6.630  67.184  1.00  0.00    -0.113 C  
HETATM    7  O   UNL     1      -7.621   6.465  66.380  1.00  0.00    -0.087 OA 
BRANCH   6   8
HETATM    8  C   UNL     1      -9.176   7.946  67.424  1.00  0.00    -0.160 A  
HETATM    9  C   UNL     1      -9.399   8.739  66.286  1.00  0.00    -0.283 A  
HETATM   10  C   UNL     1     -10.152   9.909  66.372  1.00  0.00    -0.308 A  
HETATM   11  C   UNL     1     -10.688  10.300  67.597  1.00  0.00    -0.339 A  
HETATM   12  C   UNL     1     -10.450   9.538  68.741  1.00  0.00    -0.243 A  
HETATM   13  C   UNL     1      -9.690   8.368  68.658  1.00  0.00    -0.164 A  
HETATM   14  O   UNL     1      -9.462   7.651  69.800  1.00  0.00    -0.157 OA 
HETATM   15  H   UNL     1      -9.810   7.937  70.636  1.00  0.00     0.000 HD 
ENDBRANCH   6   8
ENDBRANCH   5   6
ENDBRANCH   4   5
ENDBRANCH   2   4
TORSDOF 4
ENDMDL
MODEL      273
REMARK 921   NORMALIZED FREE ENERGY PREDICTED BY IDOCK:   -2.16 KCAL/MOL
REMARK 922        TOTAL FREE ENERGY PREDICTED BY IDOCK:   -3.08 KCAL/MOL
REMARK 923 INTER-LIGAND FREE ENERGY PREDICTED BY IDOCK:   -3.11 KCAL/MOL
REMARK 924 INTRA-LIGAND FREE ENERGY PREDICTED BY IDOCK:    0.03 KCAL/MOL
REMARK 927      BINDING AFFINITY PREDICTED BY RF-SCORE:    0.00 PKD
ROOT
HETATM    1  O   UNL     1     -10.420  11.139  63.448  1.00  0.00    -0.417 OA 
HETATM    2  C   UNL     1      -9.992  12.341  64.064  1.00  0.00    -0.258 C  
HETATM    3  H   UNL     1     -10.757  11.297  62.573  1.00  0.00     0.000 HD 
ENDROOT
BRANCH   2   4
HETATM    4  C   UNL     1      -9.451  12.087  65.470  1.00  0.00    -0.104 C  
BRANCH   4   5
HETATM    5  O   UNL     1     -10.289  12.801  66.385  1.00  0.00    -0.251 OA 
BRANCH   5   6
HETATM    6  C   UNL     1     -11.468  12.197  66.667  1.00  0.00    -0.365 C  
HETATM    7  O   UNL     1     -12.487  12.277  66.000  1.00  0.00    -0.503 OA 
BRANCH   6   8
HETATM    8  C   UNL     1     -11.250  11.157  67.708  1.00  0.00    -0.359 A  
HETATM    9  C   UNL     1     -11.463  11.562  69.037  1.00  0.00    -0.355 A  
HETATM   10  C   UNL     1     -11.454  10.629  70.074  1.00  0.00    -0.404 A  
HETATM   11  C   UNL     1     -11.230   9.283  69.794  1.00  0.00    -0.104 A  
HETATM   12  C   UNL     1     -10.989   8.871  68.482  1.00  0.00     0.066 A  
HETATM   13  C   UNL     1     -10.991   9.805  67.442  1.00  0.00    -0.106 A  
HETATM   14  O   UNL     1     -10.736   9.373  66.171  1.00  0.00     0.047 OA 
HETATM   15  H   UNL     1     -10.560   8.457  65.990  1.00  0.00     0.000 HD 
ENDBRANCH   6   8
ENDBRANCH   5   6
ENDBRANCH   4   5
ENDBRANCH   2   4
TORSDOF 4
ENDMDL
MODEL      274
REMARK 921   NORMALIZED FREE ENERGY PREDICTED BY IDOCK:   -2.16 KCAL/MOL
REMARK 922        TOTAL FREE ENERGY PREDICTED BY IDOCK:   -3.07 KCAL/MOL
REMARK 923 INTER-LIGAND FREE ENERGY PREDICTED BY IDOCK:   -2.88 KCAL/MOL
REMARK 924 INTRA-LIGAND FREE ENERGY PREDICTED BY IDOCK:   -0.20 KCAL/MOL
REMARK 927      BINDING AFFINITY PREDICTED BY RF-SCORE:    0.00 PKD
ROOT
HETATM    1  O   UNL     1      -7.655   4.870  68.943  1.00  0.00    -0.067 OA 
HETATM    2  C   UNL     1      -8.520   5.432  67.971  1.00  0.00    -0.097 C  
HETATM    3  H   UNL     1      -6.879   4.495  68.543  1.00  0.00     0.000 HD 
ENDROOT
BRANCH   2   4
HETATM    4  C   UNL     1      -9.767   6.035  68.615  1.00  0.00    -0.127 C  
BRANCH   4   5
HETATM    5  O   UNL     1      -9.622   7.458  68.574  1.00  0.00    -0.144 OA 
BRANCH   5   6
HETATM    6  C   UNL     1     -10.485   8.141  69.363  1.00  0.00    -0.220 C  
HETATM    7  O   UNL     1     -10.733   7.891  70.533  1.00  0.00    -0.224 OA 
BRANCH   6   8
HETATM    8  C   UNL     1     -10.827   9.435  68.712  1.00  0.00    -0.147 A  
HETATM    9  C   UNL     1     -11.193  10.481  69.577  1.00  0.00    -0.329 A  
HETATM   10  C   UNL     1     -11.367  11.776  69.090  1.00  0.00    -0.340 A  
HETATM   11  C   UNL     1     -11.181  12.039  67.735  1.00  0.00    -0.331 A  
HETATM   12  C   UNL     1     -10.846  11.004  66.861  1.00  0.00    -0.324 A  
HETATM   13  C   UNL     1     -10.677   9.704  67.345  1.00  0.00    -0.241 A  
HETATM   14  O   UNL     1     -10.365   8.709  66.461  1.00  0.00    -0.282 OA 
HETATM   15  H   UNL     1     -10.263   8.891  65.534  1.00  0.00     0.000 HD 
ENDBRANCH   6   8
ENDBRANCH   5   6
ENDBRANCH   4   5
ENDBRANCH   2   4
TORSDOF 4
ENDMDL
MODEL      275
REMARK 921   NORMALIZED FREE ENERGY PREDICTED BY IDOCK:   -2.14 KCAL/MOL
REMARK 922        TOTAL FREE ENERGY PREDICTED BY IDOCK:   -3.06 KCAL/MOL
REMARK 923 INTER-LIGAND FREE ENERGY PREDICTED BY IDOCK:   -2.64 KCAL/MOL
REMARK 924 INTRA-LIGAND FREE ENERGY PREDICTED BY IDOCK:   -0.42 KCAL/MOL
REMARK 927      BINDING AFFINITY PREDICTED BY RF-SCORE:    0.00 PKD
ROOT
HETATM    1  O   UNL     1      -9.371  12.982  68.794  1.00  0.00    -0.403 OA 
HETATM    2  C   UNL     1      -9.475  14.350  68.438  1.00  0.00    -0.207 C  
HETATM    3  H   UNL     1     -10.125  12.695  69.298  1.00  0.00     0.000 HD 
ENDROOT
BRANCH   2   4
HETATM    4  C   UNL     1      -8.265  14.811  67.628  1.00  0.00    -0.175 C  
BRANCH   4   5
HETATM    5  O   UNL     1      -7.274  15.259  68.559  1.00  0.00    -0.108 OA 
BRANCH   5   6
HETATM    6  C   UNL     1      -6.075  15.566  68.009  1.00  0.00    -0.138 C  
HETATM    7  O   UNL     1      -5.344  14.790  67.414  1.00  0.00    -0.335 OA 
BRANCH   6   8
HETATM    8  C   UNL     1      -5.933  17.045  67.934  1.00  0.00    -0.143 A  
HETATM    9  C   UNL     1      -5.751  17.581  66.647  1.00  0.00    -0.225 A  
HETATM   10  C   UNL     1      -5.778  18.960  66.443  1.00  0.00    -0.178 A  
HETATM   11  C   UNL     1      -5.984  19.817  67.521  1.00  0.00    -0.203 A  
HETATM   12  C   UNL     1      -6.137  19.300  68.808  1.00  0.00    -0.259 A  
HETATM   13  C   UNL     1      -6.105  17.919  69.017  1.00  0.00    -0.216 A  
HETATM   14  O   UNL     1      -6.242  17.444  70.291  1.00  0.00    -0.050 OA 
HETATM   15  H   UNL     1      -6.358  18.035  71.025  1.00  0.00     0.000 HD 
ENDBRANCH   6   8
ENDBRANCH   5   6
ENDBRANCH   4   5
ENDBRANCH   2   4
TORSDOF 4
ENDMDL
MODEL      276
REMARK 921   NORMALIZED FREE ENERGY PREDICTED BY IDOCK:   -2.12 KCAL/MOL
REMARK 922        TOTAL FREE ENERGY PREDICTED BY IDOCK:   -3.03 KCAL/MOL
REMARK 923 INTER-LIGAND FREE ENERGY PREDICTED BY IDOCK:   -2.62 KCAL/MOL
REMARK 924 INTRA-LIGAND FREE ENERGY PREDICTED BY IDOCK:   -0.41 KCAL/MOL
REMARK 927      BINDING AFFINITY PREDICTED BY RF-SCORE:    0.00 PKD
ROOT
HETATM    1  O   UNL     1      -9.759   4.140  69.774  1.00  0.00    -0.204 OA 
HETATM    2  C   UNL     1      -9.490   5.253  68.940  1.00  0.00    -0.128 C  
HETATM    3  H   UNL     1     -10.660   3.849  69.686  1.00  0.00     0.000 HD 
ENDROOT
BRANCH   2   4
HETATM    4  C   UNL     1      -8.042   5.721  69.081  1.00  0.00    -0.101 C  
BRANCH   4   5
HETATM    5  O   UNL     1      -8.074   7.094  69.481  1.00  0.00    -0.125 OA 
BRANCH   5   6
HETATM    6  C   UNL     1      -7.801   7.312  70.790  1.00  0.00    -0.094 C  
HETATM    7  O   UNL     1      -6.690   7.479  71.268  1.00  0.00    -0.048 OA 
BRANCH   6   8
HETATM    8  C   UNL     1      -9.061   7.658  71.503  1.00  0.00    -0.150 A  
HETATM    9  C   UNL     1      -9.883   8.608  70.874  1.00  0.00    -0.256 A  
HETATM   10  C   UNL     1     -11.160   8.878  71.366  1.00  0.00    -0.376 A  
HETATM   11  C   UNL     1     -11.626   8.205  72.492  1.00  0.00    -0.468 A  
HETATM   12  C   UNL     1     -10.809   7.280  73.144  1.00  0.00    -0.401 A  
HETATM   13  C   UNL     1      -9.527   7.012  72.656  1.00  0.00    -0.142 A  
HETATM   14  O   UNL     1      -8.744   6.113  73.326  1.00  0.00    -0.124 OA 
HETATM   15  H   UNL     1      -9.060   5.675  74.107  1.00  0.00     0.000 HD 
ENDBRANCH   6   8
ENDBRANCH   5   6
ENDBRANCH   4   5
ENDBRANCH   2   4
TORSDOF 4
ENDMDL
MODEL      277
REMARK 921   NORMALIZED FREE ENERGY PREDICTED BY IDOCK:   -2.12 KCAL/MOL
REMARK 922        TOTAL FREE ENERGY PREDICTED BY IDOCK:   -3.02 KCAL/MOL
REMARK 923 INTER-LIGAND FREE ENERGY PREDICTED BY IDOCK:   -2.57 KCAL/MOL
REMARK 924 INTRA-LIGAND FREE ENERGY PREDICTED BY IDOCK:   -0.45 KCAL/MOL
REMARK 927      BINDING AFFINITY PREDICTED BY RF-SCORE:    0.00 PKD
ROOT
HETATM    1  O   UNL     1      -7.536   5.798  64.881  1.00  0.00    -0.079 OA 
HETATM    2  C   UNL     1      -8.284   5.705  66.082  1.00  0.00    -0.110 C  
HETATM    3  H   UNL     1      -6.864   6.467  64.941  1.00  0.00     0.000 HD 
ENDROOT
BRANCH   2   4
HETATM    4  C   UNL     1      -9.365   4.630  65.986  1.00  0.00    -0.156 C  
BRANCH   4   5
HETATM    5  O   UNL     1     -10.179   4.737  67.158  1.00  0.00    -0.188 OA 
BRANCH   5   6
HETATM    6  C   UNL     1      -9.769   3.982  68.205  1.00  0.00    -0.066 C  
HETATM    7  O   UNL     1      -9.058   2.992  68.136  1.00  0.00    -0.133 OA 
BRANCH   6   8
HETATM    8  C   UNL     1     -10.022   4.721  69.472  1.00  0.00    -0.287 A  
HETATM    9  C   UNL     1     -10.589   6.000  69.335  1.00  0.00    -0.365 A  
HETATM   10  C   UNL     1     -11.023   6.707  70.456  1.00  0.00    -0.337 A  
HETATM   11  C   UNL     1     -10.892   6.145  71.724  1.00  0.00    -0.303 A  
HETATM   12  C   UNL     1     -10.305   4.889  71.877  1.00  0.00    -0.259 A  
HETATM   13  C   UNL     1      -9.863   4.181  70.756  1.00  0.00    -0.178 A  
HETATM   14  O   UNL     1      -9.277   2.959  70.939  1.00  0.00    -0.110 OA 
HETATM   15  H   UNL     1      -9.169   2.593  71.809  1.00  0.00     0.000 HD 
ENDBRANCH   6   8
ENDBRANCH   5   6
ENDBRANCH   4   5
ENDBRANCH   2   4
TORSDOF 4
ENDMDL
MODEL      278
REMARK 921   NORMALIZED FREE ENERGY PREDICTED BY IDOCK:   -2.09 KCAL/MOL
REMARK 922        TOTAL FREE ENERGY PREDICTED BY IDOCK:   -2.99 KCAL/MOL
REMARK 923 INTER-LIGAND FREE ENERGY PREDICTED BY IDOCK:   -2.43 KCAL/MOL
REMARK 924 INTRA-LIGAND FREE ENERGY PREDICTED BY IDOCK:   -0.55 KCAL/MOL
REMARK 927      BINDING AFFINITY PREDICTED BY RF-SCORE:    0.00 PKD
ROOT
HETATM    1  O   UNL     1     -11.496   8.588  70.893  1.00  0.00    -0.266 OA 
HETATM    2  C   UNL     1     -10.108   8.768  71.120  1.00  0.00    -0.247 C  
HETATM    3  H   UNL     1     -12.013   9.222  71.378  1.00  0.00     0.000 HD 
ENDROOT
BRANCH   2   4
HETATM    4  C   UNL     1      -9.278   7.749  70.341  1.00  0.00    -0.156 C  
BRANCH   4   5
HETATM    5  O   UNL     1      -9.651   7.858  68.964  1.00  0.00    -0.154 OA 
BRANCH   5   6
HETATM    6  C   UNL     1     -10.202   6.741  68.434  1.00  0.00    -0.178 C  
HETATM    7  O   UNL     1     -11.183   6.155  68.866  1.00  0.00    -0.372 OA 
BRANCH   6   8
HETATM    8  C   UNL     1      -9.658   6.526  67.065  1.00  0.00    -0.174 A  
HETATM    9  C   UNL     1      -9.142   7.665  66.423  1.00  0.00    -0.214 A  
HETATM   10  C   UNL     1      -8.456   7.547  65.214  1.00  0.00    -0.075 A  
HETATM   11  C   UNL     1      -8.282   6.294  64.634  1.00  0.00    -0.080 A  
HETATM   12  C   UNL     1      -8.814   5.158  65.247  1.00  0.00    -0.152 A  
HETATM   13  C   UNL     1      -9.508   5.273  66.455  1.00  0.00    -0.153 A  
HETATM   14  O   UNL     1     -10.031   4.145  67.022  1.00  0.00    -0.213 OA 
HETATM   15  H   UNL     1      -9.929   3.296  66.608  1.00  0.00     0.000 HD 
ENDBRANCH   6   8
ENDBRANCH   5   6
ENDBRANCH   4   5
ENDBRANCH   2   4
TORSDOF 4
ENDMDL
MODEL      279
REMARK 921   NORMALIZED FREE ENERGY PREDICTED BY IDOCK:   -2.07 KCAL/MOL
REMARK 922        TOTAL FREE ENERGY PREDICTED BY IDOCK:   -2.97 KCAL/MOL
REMARK 923 INTER-LIGAND FREE ENERGY PREDICTED BY IDOCK:   -2.69 KCAL/MOL
REMARK 924 INTRA-LIGAND FREE ENERGY PREDICTED BY IDOCK:   -0.28 KCAL/MOL
REMARK 927      BINDING AFFINITY PREDICTED BY RF-SCORE:    0.00 PKD
ROOT
HETATM    1  O   UNL     1      -8.617   5.407  69.838  1.00  0.00    -0.104 OA 
HETATM    2  C   UNL     1      -9.836   5.287  70.550  1.00  0.00    -0.207 C  
HETATM    3  H   UNL     1      -7.898   5.000  70.307  1.00  0.00     0.000 HD 
ENDROOT
BRANCH   2   4
HETATM    4  C   UNL     1     -10.992   5.941  69.796  1.00  0.00    -0.382 C  
BRANCH   4   5
HETATM    5  O   UNL     1     -10.496   7.156  69.225  1.00  0.00    -0.201 OA 
BRANCH   5   6
HETATM    6  C   UNL     1     -10.714   8.266  69.970  1.00  0.00    -0.239 C  
HETATM    7  O   UNL     1     -11.058   8.282  71.141  1.00  0.00    -0.239 OA 
BRANCH   6   8
HETATM    8  C   UNL     1     -10.147   9.449  69.267  1.00  0.00    -0.200 A  
HETATM    9  C   UNL     1     -10.936   9.988  68.237  1.00  0.00    -0.278 A  
HETATM   10  C   UNL     1     -10.582  11.193  67.629  1.00  0.00    -0.250 A  
HETATM   11  C   UNL     1      -9.437  11.868  68.042  1.00  0.00    -0.197 A  
HETATM   12  C   UNL     1      -8.629  11.329  69.044  1.00  0.00     0.015 A  
HETATM   13  C   UNL     1      -8.977  10.119  69.651  1.00  0.00    -0.169 A  
HETATM   14  O   UNL     1      -8.157   9.609  70.618  1.00  0.00    -0.243 OA 
HETATM   15  H   UNL     1      -7.365  10.064  70.878  1.00  0.00     0.000 HD 
ENDBRANCH   6   8
ENDBRANCH   5   6
ENDBRANCH   4   5
ENDBRANCH   2   4
TORSDOF 4
ENDMDL
MODEL      280
REMARK 921   NORMALIZED FREE ENERGY PREDICTED BY IDOCK:   -2.06 KCAL/MOL
REMARK 922        TOTAL FREE ENERGY PREDICTED BY IDOCK:   -2.96 KCAL/MOL
REMARK 923 INTER-LIGAND FREE ENERGY PREDICTED BY IDOCK:   -2.53 KCAL/MOL
REMARK 924 INTRA-LIGAND FREE ENERGY PREDICTED BY IDOCK:   -0.43 KCAL/MOL
REMARK 927      BINDING AFFINITY PREDICTED BY RF-SCORE:    0.00 PKD
ROOT
HETATM    1  O   UNL     1      -5.624   7.275  71.844  1.00  0.00    -0.036 OA 
HETATM    2  C   UNL     1      -5.557   7.223  70.430  1.00  0.00    -0.024 C  
HETATM    3  H   UNL     1      -5.291   6.477  72.239  1.00  0.00     0.000 HD 
ENDROOT
BRANCH   2   4
HETATM    4  C   UNL     1      -6.093   8.506  69.796  1.00  0.00    -0.035 C  
BRANCH   4   5
HETATM    5  O   UNL     1      -7.476   8.290  69.500  1.00  0.00    -0.081 OA 
BRANCH   5   6
HETATM    6  C   UNL     1      -8.324   9.188  70.056  1.00  0.00    -0.150 C  
HETATM    7  O   UNL     1      -8.398  10.372  69.768  1.00  0.00    -0.132 OA 
BRANCH   6   8
HETATM    8  C   UNL     1      -9.378   8.462  70.816  1.00  0.00    -0.191 A  
HETATM    9  C   UNL     1      -9.019   8.027  72.103  1.00  0.00    -0.221 A  
HETATM   10  C   UNL     1      -9.977   7.491  72.963  1.00  0.00    -0.321 A  
HETATM   11  C   UNL     1     -11.300   7.381  72.546  1.00  0.00    -0.358 A  
HETATM   12  C   UNL     1     -11.665   7.782  71.260  1.00  0.00    -0.311 A  
HETATM   13  C   UNL     1     -10.706   8.314  70.393  1.00  0.00    -0.232 A  
HETATM   14  O   UNL     1     -11.091   8.683  69.134  1.00  0.00    -0.433 OA 
HETATM   15  H   UNL     1     -11.991   8.584  68.848  1.00  0.00     0.000 HD 
ENDBRANCH   6   8
ENDBRANCH   5   6
ENDBRANCH   4   5
ENDBRANCH   2   4
TORSDOF 4
ENDMDL
MODEL      281
REMARK 921   NORMALIZED FREE ENERGY PREDICTED BY IDOCK:   -2.05 KCAL/MOL
REMARK 922        TOTAL FREE ENERGY PREDICTED BY IDOCK:   -2.95 KCAL/MOL
REMARK 923 INTER-LIGAND FREE ENERGY PREDICTED BY IDOCK:   -2.53 KCAL/MOL
REMARK 924 INTRA-LIGAND FREE ENERGY PREDICTED BY IDOCK:   -0.42 KCAL/MOL
REMARK 927      BINDING AFFINITY PREDICTED BY RF-SCORE:    0.00 PKD
ROOT
HETATM    1  O   UNL     1     -13.220  10.106  70.717  1.00  0.00    -0.526 OA 
HETATM    2  C   UNL     1     -11.904   9.813  71.155  1.00  0.00    -0.382 C  
HETATM    3  H   UNL     1     -13.622  10.781  71.252  1.00  0.00     0.000 HD 
ENDROOT
BRANCH   2   4
HETATM    4  C   UNL     1     -11.257   8.729  70.294  1.00  0.00    -0.195 C  
BRANCH   4   5
HETATM    5  O   UNL     1     -10.581   7.829  71.179  1.00  0.00    -0.216 OA 
BRANCH   5   6
HETATM    6  C   UNL     1      -9.231   7.832  71.071  1.00  0.00    -0.151 C  
HETATM    7  O   UNL     1      -8.538   8.807  70.828  1.00  0.00    -0.150 OA 
BRANCH   6   8
HETATM    8  C   UNL     1      -8.692   6.561  71.627  1.00  0.00    -0.132 A  
HETATM    9  C   UNL     1      -7.735   6.693  72.648  1.00  0.00    -0.101 A  
HETATM   10  C   UNL     1      -7.292   5.575  73.354  1.00  0.00    -0.095 A  
HETATM   11  C   UNL     1      -7.796   4.315  73.044  1.00  0.00    -0.086 A  
HETATM   12  C   UNL     1      -8.725   4.165  72.013  1.00  0.00    -0.123 A  
HETATM   13  C   UNL     1      -9.167   5.283  71.301  1.00  0.00    -0.146 A  
HETATM   14  O   UNL     1     -10.065   5.102  70.286  1.00  0.00    -0.226 OA 
HETATM   15  H   UNL     1     -10.387   4.237  70.065  1.00  0.00     0.000 HD 
ENDBRANCH   6   8
ENDBRANCH   5   6
ENDBRANCH   4   5
ENDBRANCH   2   4
TORSDOF 4
ENDMDL
MODEL      282
REMARK 921   NORMALIZED FREE ENERGY PREDICTED BY IDOCK:   -2.05 KCAL/MOL
REMARK 922        TOTAL FREE ENERGY PREDICTED BY IDOCK:   -2.94 KCAL/MOL
REMARK 923 INTER-LIGAND FREE ENERGY PREDICTED BY IDOCK:   -2.55 KCAL/MOL
REMARK 924 INTRA-LIGAND FREE ENERGY PREDICTED BY IDOCK:   -0.39 KCAL/MOL
REMARK 927      BINDING AFFINITY PREDICTED BY RF-SCORE:    0.00 PKD
ROOT
HETATM    1  O   UNL     1      -9.559   2.222  67.091  1.00  0.00    -0.399 OA 
HETATM    2  C   UNL     1      -8.813   2.977  68.030  1.00  0.00    -0.127 C  
HETATM    3  H   UNL     1      -9.038   2.006  66.325  1.00  0.00     0.000 HD 
ENDROOT
BRANCH   2   4
HETATM    4  C   UNL     1      -9.650   3.323  69.260  1.00  0.00    -0.040 C  
BRANCH   4   5
HETATM    5  O   UNL     1      -9.991   4.709  69.168  1.00  0.00    -0.189 OA 
BRANCH   5   6
HETATM    6  C   UNL     1      -9.900   5.396  70.332  1.00  0.00    -0.205 C  
HETATM    7  O   UNL     1      -9.161   5.124  71.265  1.00  0.00    -0.139 OA 
BRANCH   6   8
HETATM    8  C   UNL     1     -10.572   6.716  70.177  1.00  0.00    -0.264 A  
HETATM    9  C   UNL     1     -11.483   7.064  71.189  1.00  0.00    -0.333 A  
HETATM   10  C   UNL     1     -12.037   8.343  71.234  1.00  0.00    -0.315 A  
HETATM   11  C   UNL     1     -11.690   9.284  70.268  1.00  0.00    -0.088 A  
HETATM   12  C   UNL     1     -10.809   8.942  69.241  1.00  0.00    -0.113 A  
HETATM   13  C   UNL     1     -10.256   7.660  69.190  1.00  0.00    -0.203 A  
HETATM   14  O   UNL     1      -9.408   7.350  68.163  1.00  0.00    -0.136 OA 
HETATM   15  H   UNL     1      -9.194   7.990  67.495  1.00  0.00     0.000 HD 
ENDBRANCH   6   8
ENDBRANCH   5   6
ENDBRANCH   4   5
ENDBRANCH   2   4
TORSDOF 4
ENDMDL
MODEL      283
REMARK 921   NORMALIZED FREE ENERGY PREDICTED BY IDOCK:   -2.03 KCAL/MOL
REMARK 922        TOTAL FREE ENERGY PREDICTED BY IDOCK:   -2.92 KCAL/MOL
REMARK 923 INTER-LIGAND FREE ENERGY PREDICTED BY IDOCK:   -2.59 KCAL/MOL
REMARK 924 INTRA-LIGAND FREE ENERGY PREDICTED BY IDOCK:   -0.34 KCAL/MOL
REMARK 927      BINDING AFFINITY PREDICTED BY RF-SCORE:    0.00 PKD
ROOT
HETATM    1  O   UNL     1      -5.961   7.235  71.570  1.00  0.00    -0.036 OA 
HETATM    2  C   UNL     1      -7.250   6.865  71.111  1.00  0.00    -0.076 C  
HETATM    3  H   UNL     1      -5.504   6.497  71.957  1.00  0.00     0.000 HD 
ENDROOT
BRANCH   2   4
HETATM    4  C   UNL     1      -7.984   8.051  70.489  1.00  0.00    -0.096 C  
BRANCH   4   5
HETATM    5  O   UNL     1      -9.385   7.835  70.681  1.00  0.00    -0.161 OA 
BRANCH   5   6
HETATM    6  C   UNL     1     -10.088   7.615  69.544  1.00  0.00    -0.192 C  
HETATM    7  O   UNL     1     -10.477   6.529  69.145  1.00  0.00    -0.187 OA 
BRANCH   6   8
HETATM    8  C   UNL     1     -10.611   8.911  69.032  1.00  0.00    -0.203 A  
HETATM    9  C   UNL     1     -11.389   9.659  69.931  1.00  0.00    -0.200 A  
HETATM   10  C   UNL     1     -11.784  10.959  69.616  1.00  0.00    -0.403 A  
HETATM   11  C   UNL     1     -11.410  11.522  68.399  1.00  0.00    -0.342 A  
HETATM   12  C   UNL     1     -10.661  10.780  67.484  1.00  0.00    -0.312 A  
HETATM   13  C   UNL     1     -10.269   9.475  67.795  1.00  0.00    -0.216 A  
HETATM   14  O   UNL     1      -9.550   8.768  66.872  1.00  0.00    -0.161 OA 
HETATM   15  H   UNL     1      -9.318   9.151  66.034  1.00  0.00     0.000 HD 
ENDBRANCH   6   8
ENDBRANCH   5   6
ENDBRANCH   4   5
ENDBRANCH   2   4
TORSDOF 4
ENDMDL
MODEL      284
REMARK 921   NORMALIZED FREE ENERGY PREDICTED BY IDOCK:   -2.02 KCAL/MOL
REMARK 922        TOTAL FREE ENERGY PREDICTED BY IDOCK:   -2.90 KCAL/MOL
REMARK 923 INTER-LIGAND FREE ENERGY PREDICTED BY IDOCK:   -2.43 KCAL/MOL
REMARK 924 INTRA-LIGAND FREE ENERGY PREDICTED BY IDOCK:   -0.47 KCAL/MOL
REMARK 927      BINDING AFFINITY PREDICTED BY RF-SCORE:    0.00 PKD
ROOT
HETATM    1  O   UNL     1      -9.483   8.276  66.021  1.00  0.00    -0.343 OA 
HETATM    2  C   UNL     1     -10.593   7.944  66.837  1.00  0.00    -0.263 C  
HETATM    3  H   UNL     1      -9.326   9.213  66.010  1.00  0.00     0.000 HD 
ENDROOT
BRANCH   2   4
HETATM    4  C   UNL     1     -10.844   6.437  66.854  1.00  0.00    -0.357 C  
BRANCH   4   5
HETATM    5  O   UNL     1     -10.492   5.961  68.157  1.00  0.00    -0.190 OA 
BRANCH   5   6
HETATM    6  C   UNL     1      -9.372   5.200  68.200  1.00  0.00    -0.122 C  
HETATM    7  O   UNL     1      -8.515   5.142  67.333  1.00  0.00    -0.107 OA 
BRANCH   6   8
HETATM    8  C   UNL     1      -9.164   4.712  69.591  1.00  0.00    -0.186 A  
HETATM    9  C   UNL     1      -9.906   5.365  70.589  1.00  0.00    -0.254 A  
HETATM   10  C   UNL     1      -9.918   4.879  71.897  1.00  0.00    -0.250 A  
HETATM   11  C   UNL     1      -9.186   3.739  72.219  1.00  0.00    -0.163 A  
HETATM   12  C   UNL     1      -8.421   3.098  71.244  1.00  0.00    -0.093 A  
HETATM   13  C   UNL     1      -8.403   3.586  69.934  1.00  0.00    -0.052 A  
HETATM   14  O   UNL     1      -7.632   2.945  69.005  1.00  0.00    -0.048 OA 
HETATM   15  H   UNL     1      -7.116   2.182  69.238  1.00  0.00     0.000 HD 
ENDBRANCH   6   8
ENDBRANCH   5   6
ENDBRANCH   4   5
ENDBRANCH   2   4
TORSDOF 4
ENDMDL
MODEL      285
REMARK 921   NORMALIZED FREE ENERGY PREDICTED BY IDOCK:   -2.01 KCAL/MOL
REMARK 922        TOTAL FREE ENERGY PREDICTED BY IDOCK:   -2.89 KCAL/MOL
REMARK 923 INTER-LIGAND FREE ENERGY PREDICTED BY IDOCK:   -2.75 KCAL/MOL
REMARK 924 INTRA-LIGAND FREE ENERGY PREDICTED BY IDOCK:   -0.14 KCAL/MOL
REMARK 927      BINDING AFFINITY PREDICTED BY RF-SCORE:    0.00 PKD
ROOT
HETATM    1  O   UNL     1      -8.517  10.229  68.056  1.00  0.00    -0.116 OA 
HETATM    2  C   UNL     1      -9.498  10.939  67.320  1.00  0.00    -0.159 C  
HETATM    3  H   UNL     1      -7.663  10.284  67.642  1.00  0.00     0.000 HD 
ENDROOT
BRANCH   2   4
HETATM    4  C   UNL     1     -10.870  10.849  67.986  1.00  0.00    -0.245 C  
BRANCH   4   5
HETATM    5  O   UNL     1     -11.019   9.514  68.479  1.00  0.00    -0.168 OA 
BRANCH   5   6
HETATM    6  C   UNL     1     -10.754   9.362  69.798  1.00  0.00    -0.234 C  
HETATM    7  O   UNL     1     -10.794  10.245  70.641  1.00  0.00    -0.291 OA 
BRANCH   6   8
HETATM    8  C   UNL     1     -10.742   7.912  70.132  1.00  0.00    -0.244 A  
HETATM    9  C   UNL     1     -11.122   7.039  69.099  1.00  0.00    -0.143 A  
HETATM   10  C   UNL     1     -10.984   5.659  69.248  1.00  0.00    -0.224 A  
HETATM   11  C   UNL     1     -10.467   5.138  70.432  1.00  0.00    -0.287 A  
HETATM   12  C   UNL     1     -10.112   5.992  71.477  1.00  0.00    -0.232 A  
HETATM   13  C   UNL     1     -10.255   7.374  71.333  1.00  0.00    -0.187 A  
HETATM   14  O   UNL     1      -9.914   8.183  72.380  1.00  0.00    -0.221 OA 
HETATM   15  H   UNL     1      -9.584   7.819  73.193  1.00  0.00     0.000 HD 
ENDBRANCH   6   8
ENDBRANCH   5   6
ENDBRANCH   4   5
ENDBRANCH   2   4
TORSDOF 4
ENDMDL
MODEL      286
REMARK 921   NORMALIZED FREE ENERGY PREDICTED BY IDOCK:   -2.01 KCAL/MOL
REMARK 922        TOTAL FREE ENERGY PREDICTED BY IDOCK:   -2.89 KCAL/MOL
REMARK 923 INTER-LIGAND FREE ENERGY PREDICTED BY IDOCK:   -2.51 KCAL/MOL
REMARK 924 INTRA-LIGAND FREE ENERGY PREDICTED BY IDOCK:   -0.38 KCAL/MOL
REMARK 927      BINDING AFFINITY PREDICTED BY RF-SCORE:    0.00 PKD
ROOT
HETATM    1  O   UNL     1      -9.057   2.654  65.863  1.00  0.00    -0.146 OA 
HETATM    2  C   UNL     1      -8.237   2.883  66.996  1.00  0.00    -0.088 C  
HETATM    3  H   UNL     1      -8.648   2.972  65.066  1.00  0.00     0.000 HD 
ENDROOT
BRANCH   2   4
HETATM    4  C   UNL     1      -8.896   2.371  68.276  1.00  0.00    -0.113 C  
BRANCH   4   5
HETATM    5  O   UNL     1      -9.270   3.514  69.050  1.00  0.00    -0.135 OA 
BRANCH   5   6
HETATM    6  C   UNL     1      -8.812   3.513  70.325  1.00  0.00    -0.089 C  
HETATM    7  O   UNL     1      -7.667   3.266  70.671  1.00  0.00    -0.043 OA 
BRANCH   6   8
HETATM    8  C   UNL     1      -9.806   4.185  71.205  1.00  0.00    -0.244 A  
HETATM    9  C   UNL     1     -10.033   3.578  72.452  1.00  0.00    -0.237 A  
HETATM   10  C   UNL     1     -10.812   4.213  73.419  1.00  0.00    -0.331 A  
HETATM   11  C   UNL     1     -11.375   5.457  73.148  1.00  0.00    -0.325 A  
HETATM   12  C   UNL     1     -11.182   6.059  71.904  1.00  0.00    -0.338 A  
HETATM   13  C   UNL     1     -10.406   5.422  70.931  1.00  0.00    -0.242 A  
HETATM   14  O   UNL     1     -10.249   6.028  69.716  1.00  0.00    -0.177 OA 
HETATM   15  H   UNL     1     -10.655   6.866  69.530  1.00  0.00     0.000 HD 
ENDBRANCH   6   8
ENDBRANCH   5   6
ENDBRANCH   4   5
ENDBRANCH   2   4
TORSDOF 4
ENDMDL
MODEL      287
REMARK 921   NORMALIZED FREE ENERGY PREDICTED BY IDOCK:   -2.00 KCAL/MOL
REMARK 922        TOTAL FREE ENERGY PREDICTED BY IDOCK:   -2.88 KCAL/MOL
REMARK 923 INTER-LIGAND FREE ENERGY PREDICTED BY IDOCK:   -2.80 KCAL/MOL
REMARK 924 INTRA-LIGAND FREE ENERGY PREDICTED BY IDOCK:   -0.08 KCAL/MOL
REMARK 927      BINDING AFFINITY PREDICTED BY RF-SCORE:    0.00 PKD
ROOT
HETATM    1  O   UNL     1      -6.482  15.660  69.827  1.00  0.00    -0.169 OA 
HETATM    2  C   UNL     1      -5.359  16.351  69.307  1.00  0.00    -0.122 C  
HETATM    3  H   UNL     1      -6.230  15.051  70.512  1.00  0.00     0.000 HD 
ENDROOT
BRANCH   2   4
HETATM    4  C   UNL     1      -5.764  17.329  68.207  1.00  0.00    -0.136 C  
BRANCH   4   5
HETATM    5  O   UNL     1      -6.115  16.555  67.055  1.00  0.00    -0.163 OA 
BRANCH   5   6
HETATM    6  C   UNL     1      -7.416  16.637  66.690  1.00  0.00    -0.276 C  
HETATM    7  O   UNL     1      -8.186  15.696  66.577  1.00  0.00    -0.264 OA 
BRANCH   6   8
HETATM    8  C   UNL     1      -7.863  18.054  66.779  1.00  0.00    -0.260 A  
HETATM    9  C   UNL     1      -7.255  18.948  65.882  1.00  0.00    -0.277 A  
HETATM   10  C   UNL     1      -7.718  20.258  65.762  1.00  0.00    -0.137 A  
HETATM   11  C   UNL     1      -8.791  20.688  66.539  1.00  0.00    -0.002 A  
HETATM   12  C   UNL     1      -9.385  19.819  67.455  1.00  0.00    -0.444 A  
HETATM   13  C   UNL     1      -8.919  18.508  67.581  1.00  0.00    -0.271 A  
HETATM   14  O   UNL     1      -9.512  17.685  68.498  1.00  0.00    -0.281 OA 
HETATM   15  H   UNL     1     -10.228  17.993  69.041  1.00  0.00     0.000 HD 
ENDBRANCH   6   8
ENDBRANCH   5   6
ENDBRANCH   4   5
ENDBRANCH   2   4
TORSDOF 4
ENDMDL
MODEL      288
REMARK 921   NORMALIZED FREE ENERGY PREDICTED BY IDOCK:   -1.99 KCAL/MOL
REMARK 922        TOTAL FREE ENERGY PREDICTED BY IDOCK:   -2.87 KCAL/MOL
REMARK 923 INTER-LIGAND FREE ENERGY PREDICTED BY IDOCK:   -2.57 KCAL/MOL
REMARK 924 INTRA-LIGAND FREE ENERGY PREDICTED BY IDOCK:   -0.30 KCAL/MOL
REMARK 927      BINDING AFFINITY PREDICTED BY RF-SCORE:    0.00 PKD
ROOT
HETATM    1  O   UNL     1      -7.468  11.121  69.733  1.00  0.00    -0.359 OA 
HETATM    2  C   UNL     1      -8.038  10.266  68.757  1.00  0.00    -0.120 C  
HETATM    3  H   UNL     1      -7.997  11.900  69.866  1.00  0.00     0.000 HD 
ENDROOT
BRANCH   2   4
HETATM    4  C   UNL     1      -7.187   9.015  68.545  1.00  0.00    -0.073 C  
BRANCH   4   5
HETATM    5  O   UNL     1      -7.428   8.142  69.653  1.00  0.00    -0.081 OA 
BRANCH   5   6
HETATM    6  C   UNL     1      -8.602   7.469  69.603  1.00  0.00    -0.136 C  
HETATM    7  O   UNL     1      -8.938   6.685  68.729  1.00  0.00    -0.126 OA 
BRANCH   6   8
HETATM    8  C   UNL     1      -9.274   7.555  70.927  1.00  0.00    -0.153 A  
HETATM    9  C   UNL     1     -10.229   8.577  71.067  1.00  0.00    -0.255 A  
HETATM   10  C   UNL     1     -11.038   8.643  72.201  1.00  0.00    -0.434 A  
HETATM   11  C   UNL     1     -10.899   7.691  73.208  1.00  0.00    -0.379 A  
HETATM   12  C   UNL     1      -9.935   6.688  73.096  1.00  0.00    -0.201 A  
HETATM   13  C   UNL     1      -9.119   6.623  71.963  1.00  0.00    -0.139 A  
HETATM   14  O   UNL     1      -8.174   5.639  71.889  1.00  0.00    -0.116 OA 
HETATM   15  H   UNL     1      -8.068   5.007  72.591  1.00  0.00     0.000 HD 
ENDBRANCH   6   8
ENDBRANCH   5   6
ENDBRANCH   4   5
ENDBRANCH   2   4
TORSDOF 4
ENDMDL
MODEL      289
REMARK 921   NORMALIZED FREE ENERGY PREDICTED BY IDOCK:   -1.99 KCAL/MOL
REMARK 922        TOTAL FREE ENERGY PREDICTED BY IDOCK:   -2.87 KCAL/MOL
REMARK 923 INTER-LIGAND FREE ENERGY PREDICTED BY IDOCK:   -2.41 KCAL/MOL
REMARK 924 INTRA-LIGAND FREE ENERGY PREDICTED BY IDOCK:   -0.46 KCAL/MOL
REMARK 927      BINDING AFFINITY PREDICTED BY RF-SCORE:    0.00 PKD
ROOT
HETATM    1  O   UNL     1      -7.476   2.383  65.828  1.00  0.00    -0.065 OA 
HETATM    2  C   UNL     1      -7.635   2.190  67.223  1.00  0.00    -0.061 C  
HETATM    3  H   UNL     1      -6.558   2.434  65.586  1.00  0.00     0.000 HD 
ENDROOT
BRANCH   2   4
HETATM    4  C   UNL     1      -9.110   2.108  67.612  1.00  0.00    -0.168 C  
BRANCH   4   5
HETATM    5  O   UNL     1      -9.525   3.423  67.994  1.00  0.00    -0.187 OA 
BRANCH   5   6
HETATM    6  C   UNL     1      -9.878   4.230  66.966  1.00  0.00    -0.179 C  
HETATM    7  O   UNL     1     -10.160   3.864  65.836  1.00  0.00    -0.133 OA 
BRANCH   6   8
HETATM    8  C   UNL     1     -10.204   5.583  67.493  1.00  0.00    -0.245 A  
HETATM    9  C   UNL     1     -10.593   5.641  68.842  1.00  0.00    -0.303 A  
HETATM   10  C   UNL     1     -10.755   6.869  69.482  1.00  0.00    -0.276 A  
HETATM   11  C   UNL     1     -10.535   8.051  68.780  1.00  0.00    -0.196 A  
HETATM   12  C   UNL     1     -10.176   8.009  67.432  1.00  0.00    -0.330 A  
HETATM   13  C   UNL     1     -10.019   6.780  66.787  1.00  0.00    -0.178 A  
HETATM   14  O   UNL     1      -9.683   6.772  65.462  1.00  0.00    -0.088 OA 
HETATM   15  H   UNL     1      -9.557   7.582  64.983  1.00  0.00     0.000 HD 
ENDBRANCH   6   8
ENDBRANCH   5   6
ENDBRANCH   4   5
ENDBRANCH   2   4
TORSDOF 4
ENDMDL
MODEL      290
REMARK 921   NORMALIZED FREE ENERGY PREDICTED BY IDOCK:   -1.99 KCAL/MOL
REMARK 922        TOTAL FREE ENERGY PREDICTED BY IDOCK:   -2.87 KCAL/MOL
REMARK 923 INTER-LIGAND FREE ENERGY PREDICTED BY IDOCK:   -2.46 KCAL/MOL
REMARK 924 INTRA-LIGAND FREE ENERGY PREDICTED BY IDOCK:   -0.41 KCAL/MOL
REMARK 927      BINDING AFFINITY PREDICTED BY RF-SCORE:    0.00 PKD
ROOT
HETATM    1  O   UNL     1      -6.829   7.921  65.223  1.00  0.00    -0.054 OA 
HETATM    2  C   UNL     1      -7.723   7.267  64.339  1.00  0.00    -0.120 C  
HETATM    3  H   UNL     1      -6.586   8.780  64.899  1.00  0.00     0.000 HD 
ENDROOT
BRANCH   2   4
HETATM    4  C   UNL     1      -8.114   5.885  64.860  1.00  0.00    -0.132 C  
BRANCH   4   5
HETATM    5  O   UNL     1      -9.202   6.064  65.771  1.00  0.00    -0.120 OA 
BRANCH   5   6
HETATM    6  C   UNL     1      -9.925   4.946  66.021  1.00  0.00    -0.223 C  
HETATM    7  O   UNL     1     -10.462   4.242  65.181  1.00  0.00    -0.250 OA 
BRANCH   6   8
HETATM    8  C   UNL     1      -9.687   4.510  67.424  1.00  0.00    -0.218 A  
HETATM    9  C   UNL     1     -10.022   5.441  68.423  1.00  0.00    -0.217 A  
HETATM   10  C   UNL     1     -10.000   5.075  69.769  1.00  0.00    -0.319 A  
HETATM   11  C   UNL     1      -9.640   3.780  70.130  1.00  0.00    -0.258 A  
HETATM   12  C   UNL     1      -9.277   2.854  69.150  1.00  0.00    -0.220 A  
HETATM   13  C   UNL     1      -9.293   3.219  67.801  1.00  0.00    -0.197 A  
HETATM   14  O   UNL     1      -8.916   2.295  66.867  1.00  0.00    -0.129 OA 
HETATM   15  H   UNL     1      -8.650   1.420  67.122  1.00  0.00     0.000 HD 
ENDBRANCH   6   8
ENDBRANCH   5   6
ENDBRANCH   4   5
ENDBRANCH   2   4
TORSDOF 4
ENDMDL
MODEL      291
REMARK 921   NORMALIZED FREE ENERGY PREDICTED BY IDOCK:   -1.98 KCAL/MOL
REMARK 922        TOTAL FREE ENERGY PREDICTED BY IDOCK:   -2.85 KCAL/MOL
REMARK 923 INTER-LIGAND FREE ENERGY PREDICTED BY IDOCK:   -2.51 KCAL/MOL
REMARK 924 INTRA-LIGAND FREE ENERGY PREDICTED BY IDOCK:   -0.35 KCAL/MOL
REMARK 927      BINDING AFFINITY PREDICTED BY RF-SCORE:    0.00 PKD
ROOT
HETATM    1  O   UNL     1     -10.471  12.178  69.056  1.00  0.00    -0.386 OA 
HETATM    2  C   UNL     1     -10.707  10.818  69.380  1.00  0.00    -0.233 C  
HETATM    3  H   UNL     1     -10.775  12.758  69.745  1.00  0.00     0.000 HD 
ENDROOT
BRANCH   2   4
HETATM    4  C   UNL     1     -10.218   9.887  68.272  1.00  0.00    -0.176 C  
BRANCH   4   5
HETATM    5  O   UNL     1     -10.221   8.557  68.801  1.00  0.00    -0.193 OA 
BRANCH   5   6
HETATM    6  C   UNL     1      -8.994   8.010  68.974  1.00  0.00    -0.145 C  
HETATM    7  O   UNL     1      -7.929   8.563  68.748  1.00  0.00    -0.114 OA 
BRANCH   6   8
HETATM    8  C   UNL     1      -9.118   6.776  69.796  1.00  0.00    -0.143 A  
HETATM    9  C   UNL     1      -8.663   6.872  71.122  1.00  0.00    -0.135 A  
HETATM   10  C   UNL     1      -8.887   5.834  72.026  1.00  0.00    -0.138 A  
HETATM   11  C   UNL     1      -9.564   4.689  71.614  1.00  0.00    -0.221 A  
HETATM   12  C   UNL     1      -9.995   4.568  70.292  1.00  0.00    -0.288 A  
HETATM   13  C   UNL     1      -9.767   5.604  69.382  1.00  0.00    -0.157 A  
HETATM   14  O   UNL     1     -10.187   5.449  68.091  1.00  0.00    -0.176 OA 
HETATM   15  H   UNL     1     -10.627   4.656  67.811  1.00  0.00     0.000 HD 
ENDBRANCH   6   8
ENDBRANCH   5   6
ENDBRANCH   4   5
ENDBRANCH   2   4
TORSDOF 4
ENDMDL
MODEL      292
REMARK 921   NORMALIZED FREE ENERGY PREDICTED BY IDOCK:   -1.98 KCAL/MOL
REMARK 922        TOTAL FREE ENERGY PREDICTED BY IDOCK:   -2.85 KCAL/MOL
REMARK 923 INTER-LIGAND FREE ENERGY PREDICTED BY IDOCK:   -2.39 KCAL/MOL
REMARK 924 INTRA-LIGAND FREE ENERGY PREDICTED BY IDOCK:   -0.46 KCAL/MOL
REMARK 927      BINDING AFFINITY PREDICTED BY RF-SCORE:    0.00 PKD
ROOT
HETATM    1  O   UNL     1      -9.849   8.265  65.941  1.00  0.00    -0.466 OA 
HETATM    2  C   UNL     1     -10.652   7.867  67.039  1.00  0.00    -0.311 C  
HETATM    3  H   UNL     1      -9.776   9.211  65.887  1.00  0.00     0.000 HD 
ENDROOT
BRANCH   2   4
HETATM    4  C   UNL     1     -10.768   6.346  67.125  1.00  0.00    -0.361 C  
BRANCH   4   5
HETATM    5  O   UNL     1      -9.687   5.880  67.938  1.00  0.00    -0.113 OA 
BRANCH   5   6
HETATM    6  C   UNL     1      -9.922   5.915  69.271  1.00  0.00    -0.174 C  
HETATM    7  O   UNL     1     -10.969   5.611  69.819  1.00  0.00    -0.345 OA 
BRANCH   6   8
HETATM    8  C   UNL     1      -8.627   6.045  69.994  1.00  0.00    -0.131 A  
HETATM    9  C   UNL     1      -8.468   5.223  71.123  1.00  0.00    -0.123 A  
HETATM   10  C   UNL     1      -7.236   5.139  71.771  1.00  0.00    -0.079 A  
HETATM   11  C   UNL     1      -6.153   5.878  71.301  1.00  0.00    -0.034 A  
HETATM   12  C   UNL     1      -6.305   6.721  70.199  1.00  0.00    -0.039 A  
HETATM   13  C   UNL     1      -7.540   6.811  69.551  1.00  0.00    -0.099 A  
HETATM   14  O   UNL     1      -7.662   7.658  68.485  1.00  0.00    -0.113 OA 
HETATM   15  H   UNL     1      -6.925   8.176  68.184  1.00  0.00     0.000 HD 
ENDBRANCH   6   8
ENDBRANCH   5   6
ENDBRANCH   4   5
ENDBRANCH   2   4
TORSDOF 4
ENDMDL
MODEL      293
REMARK 921   NORMALIZED FREE ENERGY PREDICTED BY IDOCK:   -1.97 KCAL/MOL
REMARK 922        TOTAL FREE ENERGY PREDICTED BY IDOCK:   -2.85 KCAL/MOL
REMARK 923 INTER-LIGAND FREE ENERGY PREDICTED BY IDOCK:   -2.35 KCAL/MOL
REMARK 924 INTRA-LIGAND FREE ENERGY PREDICTED BY IDOCK:   -0.50 KCAL/MOL
REMARK 927      BINDING AFFINITY PREDICTED BY RF-SCORE:    0.00 PKD
ROOT
HETATM    1  O   UNL     1      -8.363   8.423  70.494  1.00  0.00    -0.115 OA 
HETATM    2  C   UNL     1      -9.549   9.138  70.797  1.00  0.00    -0.275 C  
HETATM    3  H   UNL     1      -7.605   8.996  70.480  1.00  0.00     0.000 HD 
ENDROOT
BRANCH   2   4
HETATM    4  C   UNL     1     -10.767   8.217  70.820  1.00  0.00    -0.222 C  
BRANCH   4   5
HETATM    5  O   UNL     1     -10.956   7.791  72.173  1.00  0.00    -0.235 OA 
BRANCH   5   6
HETATM    6  C   UNL     1     -11.257   6.479  72.320  1.00  0.00    -0.273 C  
HETATM    7  O   UNL     1     -12.381   6.002  72.339  1.00  0.00    -0.221 OA 
BRANCH   6   8
HETATM    8  C   UNL     1     -10.027   5.667  72.112  1.00  0.00    -0.214 A  
HETATM    9  C   UNL     1     -10.147   4.585  71.224  1.00  0.00    -0.225 A  
HETATM   10  C   UNL     1      -9.020   3.865  70.826  1.00  0.00    -0.153 A  
HETATM   11  C   UNL     1      -7.765   4.216  71.315  1.00  0.00    -0.070 A  
HETATM   12  C   UNL     1      -7.635   5.270  72.220  1.00  0.00    -0.096 A  
HETATM   13  C   UNL     1      -8.763   5.990  72.625  1.00  0.00    -0.121 A  
HETATM   14  O   UNL     1      -8.605   7.006  73.525  1.00  0.00    -0.125 OA 
HETATM   15  H   UNL     1      -7.749   7.225  73.872  1.00  0.00     0.000 HD 
ENDBRANCH   6   8
ENDBRANCH   5   6
ENDBRANCH   4   5
ENDBRANCH   2   4
TORSDOF 4
ENDMDL
MODEL      294
REMARK 921   NORMALIZED FREE ENERGY PREDICTED BY IDOCK:   -1.95 KCAL/MOL
REMARK 922        TOTAL FREE ENERGY PREDICTED BY IDOCK:   -2.82 KCAL/MOL
REMARK 923 INTER-LIGAND FREE ENERGY PREDICTED BY IDOCK:   -2.39 KCAL/MOL
REMARK 924 INTRA-LIGAND FREE ENERGY PREDICTED BY IDOCK:   -0.42 KCAL/MOL
REMARK 927      BINDING AFFINITY PREDICTED BY RF-SCORE:    0.00 PKD
ROOT
HETATM    1  O   UNL     1      -9.484   8.623  65.220  1.00  0.00    -0.435 OA 
HETATM    2  C   UNL     1     -10.128   8.854  66.462  1.00  0.00    -0.286 C  
HETATM    3  H   UNL     1      -9.178   9.434  64.831  1.00  0.00     0.000 HD 
ENDROOT
BRANCH   2   4
HETATM    4  C   UNL     1     -10.620   7.550  67.088  1.00  0.00    -0.345 C  
BRANCH   4   5
HETATM    5  O   UNL     1      -9.744   7.243  68.177  1.00  0.00    -0.142 OA 
BRANCH   5   6
HETATM    6  C   UNL     1      -9.767   8.137  69.194  1.00  0.00    -0.163 C  
HETATM    7  O   UNL     1     -10.769   8.565  69.745  1.00  0.00    -0.229 OA 
BRANCH   6   8
HETATM    8  C   UNL     1      -8.400   8.260  69.770  1.00  0.00    -0.123 A  
HETATM    9  C   UNL     1      -7.336   8.125  68.862  1.00  0.00    -0.090 A  
HETATM   10  C   UNL     1      -6.026   8.391  69.260  1.00  0.00    -0.038 A  
HETATM   11  C   UNL     1      -5.766   8.791  70.568  1.00  0.00    -0.027 A  
HETATM   12  C   UNL     1      -6.810   8.902  71.488  1.00  0.00    -0.082 A  
HETATM   13  C   UNL     1      -8.123   8.630  71.094  1.00  0.00    -0.146 A  
HETATM   14  O   UNL     1      -9.122   8.732  72.021  1.00  0.00    -0.287 OA 
HETATM   15  H   UNL     1      -8.934   8.983  72.918  1.00  0.00     0.000 HD 
ENDBRANCH   6   8
ENDBRANCH   5   6
ENDBRANCH   4   5
ENDBRANCH   2   4
TORSDOF 4
ENDMDL
MODEL      295
REMARK 921   NORMALIZED FREE ENERGY PREDICTED BY IDOCK:   -1.95 KCAL/MOL
REMARK 922        TOTAL FREE ENERGY PREDICTED BY IDOCK:   -2.82 KCAL/MOL
REMARK 923 INTER-LIGAND FREE ENERGY PREDICTED BY IDOCK:   -2.30 KCAL/MOL
REMARK 924 INTRA-LIGAND FREE ENERGY PREDICTED BY IDOCK:   -0.51 KCAL/MOL
REMARK 927      BINDING AFFINITY PREDICTED BY RF-SCORE:    0.00 PKD
ROOT
HETATM    1  O   UNL     1      -5.922   7.806  71.457  1.00  0.00    -0.035 OA 
HETATM    2  C   UNL     1      -6.524   7.031  70.434  1.00  0.00    -0.043 C  
HETATM    3  H   UNL     1      -5.121   7.404  71.772  1.00  0.00     0.000 HD 
ENDROOT
BRANCH   2   4
HETATM    4  C   UNL     1      -7.813   7.678  69.928  1.00  0.00    -0.102 C  
BRANCH   4   5
HETATM    5  O   UNL     1      -8.565   6.662  69.258  1.00  0.00    -0.130 OA 
BRANCH   5   6
HETATM    6  C   UNL     1      -9.892   6.665  69.528  1.00  0.00    -0.152 C  
HETATM    7  O   UNL     1     -10.780   6.948  68.740  1.00  0.00    -0.217 OA 
BRANCH   6   8
HETATM    8  C   UNL     1     -10.134   5.950  70.811  1.00  0.00    -0.253 A  
HETATM    9  C   UNL     1     -11.004   6.583  71.714  1.00  0.00    -0.287 A  
HETATM   10  C   UNL     1     -11.433   5.925  72.867  1.00  0.00    -0.223 A  
HETATM   11  C   UNL     1     -10.994   4.631  73.130  1.00  0.00    -0.364 A  
HETATM   12  C   UNL     1     -10.107   4.000  72.256  1.00  0.00    -0.240 A  
HETATM   13  C   UNL     1      -9.671   4.659  71.103  1.00  0.00    -0.181 A  
HETATM   14  O   UNL     1      -8.789   4.022  70.276  1.00  0.00    -0.078 OA 
HETATM   15  H   UNL     1      -8.476   3.148  70.474  1.00  0.00     0.000 HD 
ENDBRANCH   6   8
ENDBRANCH   5   6
ENDBRANCH   4   5
ENDBRANCH   2   4
TORSDOF 4
ENDMDL
MODEL      296
REMARK 921   NORMALIZED FREE ENERGY PREDICTED BY IDOCK:   -1.94 KCAL/MOL
REMARK 922        TOTAL FREE ENERGY PREDICTED BY IDOCK:   -2.80 KCAL/MOL
REMARK 923 INTER-LIGAND FREE ENERGY PREDICTED BY IDOCK:   -2.36 KCAL/MOL
REMARK 924 INTRA-LIGAND FREE ENERGY PREDICTED BY IDOCK:   -0.44 KCAL/MOL
REMARK 927      BINDING AFFINITY PREDICTED BY RF-SCORE:    0.00 PKD
ROOT
HETATM    1  O   UNL     1      -7.425   5.007  70.061  1.00  0.00    -0.057 OA 
HETATM    2  C   UNL     1      -8.412   4.652  71.014  1.00  0.00    -0.106 C  
HETATM    3  H   UNL     1      -6.547   4.877  70.403  1.00  0.00     0.000 HD 
ENDROOT
BRANCH   2   4
HETATM    4  C   UNL     1      -9.821   4.861  70.464  1.00  0.00    -0.227 C  
BRANCH   4   5
HETATM    5  O   UNL     1      -9.742   5.877  69.460  1.00  0.00    -0.141 OA 
BRANCH   5   6
HETATM    6  C   UNL     1     -10.618   6.899  69.614  1.00  0.00    -0.231 C  
HETATM    7  O   UNL     1     -11.559   6.920  70.391  1.00  0.00    -0.325 OA 
BRANCH   6   8
HETATM    8  C   UNL     1     -10.072   8.117  68.956  1.00  0.00    -0.211 A  
HETATM    9  C   UNL     1      -9.150   7.895  67.919  1.00  0.00    -0.133 A  
HETATM   10  C   UNL     1      -8.708   8.952  67.124  1.00  0.00    -0.126 A  
HETATM   11  C   UNL     1      -9.179  10.241  67.360  1.00  0.00    -0.155 A  
HETATM   12  C   UNL     1     -10.073  10.481  68.405  1.00  0.00    -0.181 A  
HETATM   13  C   UNL     1     -10.513   9.424  69.206  1.00  0.00    -0.218 A  
HETATM   14  O   UNL     1     -11.375   9.693  70.232  1.00  0.00    -0.249 OA 
HETATM   15  H   UNL     1     -11.675  10.578  70.402  1.00  0.00     0.000 HD 
ENDBRANCH   6   8
ENDBRANCH   5   6
ENDBRANCH   4   5
ENDBRANCH   2   4
TORSDOF 4
ENDMDL
MODEL      297
REMARK 921   NORMALIZED FREE ENERGY PREDICTED BY IDOCK:   -1.93 KCAL/MOL
REMARK 922        TOTAL FREE ENERGY PREDICTED BY IDOCK:   -2.80 KCAL/MOL
REMARK 923 INTER-LIGAND FREE ENERGY PREDICTED BY IDOCK:   -2.38 KCAL/MOL
REMARK 924 INTRA-LIGAND FREE ENERGY PREDICTED BY IDOCK:   -0.42 KCAL/MOL
REMARK 927      BINDING AFFINITY PREDICTED BY RF-SCORE:    0.00 PKD
ROOT
HETATM    1  O   UNL     1      -9.744   2.862  66.787  1.00  0.00    -0.407 OA 
HETATM    2  C   UNL     1      -9.286   2.989  68.123  1.00  0.00    -0.196 C  
HETATM    3  H   UNL     1     -10.292   2.093  66.679  1.00  0.00     0.000 HD 
ENDROOT
BRANCH   2   4
HETATM    4  C   UNL     1      -8.404   4.225  68.296  1.00  0.00    -0.092 C  
BRANCH   4   5
HETATM    5  O   UNL     1      -9.099   5.127  69.163  1.00  0.00    -0.098 OA 
BRANCH   5   6
HETATM    6  C   UNL     1      -8.799   6.435  68.981  1.00  0.00    -0.129 C  
HETATM    7  O   UNL     1      -8.788   7.022  67.911  1.00  0.00    -0.125 OA 
BRANCH   6   8
HETATM    8  C   UNL     1      -8.820   7.131  70.297  1.00  0.00    -0.148 A  
HETATM    9  C   UNL     1      -9.684   8.235  70.394  1.00  0.00    -0.175 A  
HETATM   10  C   UNL     1      -9.910   8.853  71.624  1.00  0.00    -0.387 A  
HETATM   11  C   UNL     1      -9.273   8.377  72.767  1.00  0.00    -0.311 A  
HETATM   12  C   UNL     1      -8.390   7.299  72.679  1.00  0.00    -0.125 A  
HETATM   13  C   UNL     1      -8.158   6.682  71.447  1.00  0.00    -0.111 A  
HETATM   14  O   UNL     1      -7.276   5.639  71.391  1.00  0.00    -0.073 OA 
HETATM   15  H   UNL     1      -6.827   5.334  72.171  1.00  0.00     0.000 HD 
ENDBRANCH   6   8
ENDBRANCH   5   6
ENDBRANCH   4   5
ENDBRANCH   2   4
TORSDOF 4
ENDMDL
MODEL      298
REMARK 921   NORMALIZED FREE ENERGY PREDICTED BY IDOCK:   -1.89 KCAL/MOL
REMARK 922        TOTAL FREE ENERGY PREDICTED BY IDOCK:   -2.74 KCAL/MOL
REMARK 923 INTER-LIGAND FREE ENERGY PREDICTED BY IDOCK:   -2.24 KCAL/MOL
REMARK 924 INTRA-LIGAND FREE ENERGY PREDICTED BY IDOCK:   -0.50 KCAL/MOL
REMARK 927      BINDING AFFINITY PREDICTED BY RF-SCORE:    0.00 PKD
ROOT
HETATM    1  O   UNL     1      -6.488   5.097  70.918  1.00  0.00    -0.025 OA 
HETATM    2  C   UNL     1      -7.541   4.285  71.408  1.00  0.00    -0.064 C  
HETATM    3  H   UNL     1      -5.901   5.365  71.617  1.00  0.00     0.000 HD 
ENDROOT
BRANCH   2   4
HETATM    4  C   UNL     1      -8.484   3.855  70.285  1.00  0.00    -0.060 C  
BRANCH   4   5
HETATM    5  O   UNL     1      -8.254   4.729  69.176  1.00  0.00    -0.080 OA 
BRANCH   5   6
HETATM    6  C   UNL     1      -9.358   5.357  68.708  1.00  0.00    -0.128 C  
HETATM    7  O   UNL     1     -10.265   4.832  68.080  1.00  0.00    -0.092 OA 
BRANCH   6   8
HETATM    8  C   UNL     1      -9.477   6.691  69.357  1.00  0.00    -0.146 A  
HETATM    9  C   UNL     1      -8.314   7.479  69.360  1.00  0.00    -0.132 A  
HETATM   10  C   UNL     1      -8.358   8.807  69.786  1.00  0.00    -0.127 A  
HETATM   11  C   UNL     1      -9.562   9.357  70.217  1.00  0.00    -0.294 A  
HETATM   12  C   UNL     1     -10.719   8.577  70.246  1.00  0.00    -0.242 A  
HETATM   13  C   UNL     1     -10.677   7.245  69.825  1.00  0.00    -0.239 A  
HETATM   14  O   UNL     1     -11.823   6.503  69.881  1.00  0.00    -0.609 OA 
HETATM   15  H   UNL     1     -12.635   6.878  70.198  1.00  0.00     0.000 HD 
ENDBRANCH   6   8
ENDBRANCH   5   6
ENDBRANCH   4   5
ENDBRANCH   2   4
TORSDOF 4
ENDMDL
MODEL      299
REMARK 921   NORMALIZED FREE ENERGY PREDICTED BY IDOCK:   -1.88 KCAL/MOL
REMARK 922        TOTAL FREE ENERGY PREDICTED BY IDOCK:   -2.73 KCAL/MOL
REMARK 923 INTER-LIGAND FREE ENERGY PREDICTED BY IDOCK:   -2.40 KCAL/MOL
REMARK 924 INTRA-LIGAND FREE ENERGY PREDICTED BY IDOCK:   -0.34 KCAL/MOL
REMARK 927      BINDING AFFINITY PREDICTED BY RF-SCORE:    0.00 PKD
ROOT
HETATM    1  O   UNL     1     -10.123  13.740  69.023  1.00  0.00    -0.414 OA 
HETATM    2  C   UNL     1      -9.389  13.824  67.814  1.00  0.00    -0.213 C  
HETATM    3  H   UNL     1      -9.917  14.461  69.607  1.00  0.00     0.000 HD 
ENDROOT
BRANCH   2   4
HETATM    4  C   UNL     1      -9.720  12.665  66.876  1.00  0.00    -0.234 C  
BRANCH   4   5
HETATM    5  O   UNL     1      -8.525  11.897  66.707  1.00  0.00    -0.179 OA 
BRANCH   5   6
HETATM    6  C   UNL     1      -8.263  11.025  67.710  1.00  0.00    -0.117 C  
HETATM    7  O   UNL     1      -7.921  11.322  68.844  1.00  0.00    -0.141 OA 
BRANCH   6   8
HETATM    8  C   UNL     1      -8.778   9.679  67.337  1.00  0.00    -0.130 A  
HETATM    9  C   UNL     1      -8.488   9.249  66.031  1.00  0.00    -0.144 A  
HETATM   10  C   UNL     1      -8.773   7.943  65.634  1.00  0.00    -0.145 A  
HETATM   11  C   UNL     1      -9.354   7.055  66.536  1.00  0.00    -0.201 A  
HETATM   12  C   UNL     1      -9.674   7.477  67.828  1.00  0.00    -0.176 A  
HETATM   13  C   UNL     1      -9.395   8.788  68.226  1.00  0.00    -0.137 A  
HETATM   14  O   UNL     1      -9.736   9.176  69.492  1.00  0.00    -0.164 OA 
HETATM   15  H   UNL     1     -10.153   8.572  70.094  1.00  0.00     0.000 HD 
ENDBRANCH   6   8
ENDBRANCH   5   6
ENDBRANCH   4   5
ENDBRANCH   2   4
TORSDOF 4
ENDMDL
MODEL      300
REMARK 921   NORMALIZED FREE ENERGY PREDICTED BY IDOCK:   -1.87 KCAL/MOL
REMARK 922        TOTAL FREE ENERGY PREDICTED BY IDOCK:   -2.72 KCAL/MOL
REMARK 923 INTER-LIGAND FREE ENERGY PREDICTED BY IDOCK:   -2.67 KCAL/MOL
REMARK 924 INTRA-LIGAND FREE ENERGY PREDICTED BY IDOCK:   -0.05 KCAL/MOL
REMARK 927      BINDING AFFINITY PREDICTED BY RF-SCORE:    0.00 PKD
ROOT
HETATM    1  O   UNL     1      -8.848  11.222  64.548  1.00  0.00    -0.380 OA 
HETATM    2  C   UNL     1      -9.430   9.931  64.505  1.00  0.00    -0.264 C  
HETATM    3  H   UNL     1      -9.389  11.864  64.103  1.00  0.00     0.000 HD 
ENDROOT
BRANCH   2   4
HETATM    4  C   UNL     1      -8.560   8.900  65.221  1.00  0.00    -0.184 C  
BRANCH   4   5
HETATM    5  O   UNL     1      -9.429   8.077  66.005  1.00  0.00    -0.155 OA 
BRANCH   5   6
HETATM    6  C   UNL     1      -9.895   8.658  67.136  1.00  0.00    -0.207 C  
HETATM    7  O   UNL     1     -10.669   9.601  67.188  1.00  0.00    -0.250 OA 
BRANCH   6   8
HETATM    8  C   UNL     1      -9.603   7.773  68.297  1.00  0.00    -0.162 A  
HETATM    9  C   UNL     1      -8.661   6.755  68.074  1.00  0.00    -0.118 A  
HETATM   10  C   UNL     1      -8.188   5.980  69.133  1.00  0.00    -0.111 A  
HETATM   11  C   UNL     1      -8.654   6.213  70.424  1.00  0.00    -0.134 A  
HETATM   12  C   UNL     1      -9.611   7.203  70.656  1.00  0.00    -0.165 A  
HETATM   13  C   UNL     1     -10.091   7.976  69.596  1.00  0.00    -0.198 A  
HETATM   14  O   UNL     1     -11.040   8.926  69.853  1.00  0.00    -0.344 OA 
HETATM   15  H   UNL     1     -11.370   9.064  70.732  1.00  0.00     0.000 HD 
ENDBRANCH   6   8
ENDBRANCH   5   6
ENDBRANCH   4   5
ENDBRANCH   2   4
TORSDOF 4
ENDMDL
MODEL      301
REMARK 921   NORMALIZED FREE ENERGY PREDICTED BY IDOCK:   -1.87 KCAL/MOL
REMARK 922        TOTAL FREE ENERGY PREDICTED BY IDOCK:   -2.72 KCAL/MOL
REMARK 923 INTER-LIGAND FREE ENERGY PREDICTED BY IDOCK:   -2.41 KCAL/MOL
REMARK 924 INTRA-LIGAND FREE ENERGY PREDICTED BY IDOCK:   -0.31 KCAL/MOL
REMARK 927      BINDING AFFINITY PREDICTED BY RF-SCORE:    0.00 PKD
ROOT
HETATM    1  O   UNL     1      -9.629   3.012  67.150  1.00  0.00    -0.381 OA 
HETATM    2  C   UNL     1      -9.241   2.821  68.500  1.00  0.00    -0.183 C  
HETATM    3  H   UNL     1     -10.115   2.266  66.818  1.00  0.00     0.000 HD 
ENDROOT
BRANCH   2   4
HETATM    4  C   UNL     1      -8.460   4.021  69.033  1.00  0.00    -0.077 C  
BRANCH   4   5
HETATM    5  O   UNL     1      -9.216   4.576  70.114  1.00  0.00    -0.109 OA 
BRANCH   5   6
HETATM    6  C   UNL     1      -8.990   5.891  70.349  1.00  0.00    -0.147 C  
HETATM    7  O   UNL     1      -9.034   6.782  69.516  1.00  0.00    -0.139 OA 
BRANCH   6   8
HETATM    8  C   UNL     1      -9.019   6.139  71.817  1.00  0.00    -0.141 A  
HETATM    9  C   UNL     1      -7.777   6.389  72.423  1.00  0.00    -0.101 A  
HETATM   10  C   UNL     1      -7.707   6.801  73.754  1.00  0.00    -0.089 A  
HETATM   11  C   UNL     1      -8.876   6.962  74.492  1.00  0.00    -0.221 A  
HETATM   12  C   UNL     1     -10.115   6.689  73.911  1.00  0.00    -0.349 A  
HETATM   13  C   UNL     1     -10.188   6.271  72.579  1.00  0.00    -0.184 A  
HETATM   14  O   UNL     1     -11.415   5.996  72.043  1.00  0.00    -0.288 OA 
HETATM   15  H   UNL     1     -12.207   6.086  72.560  1.00  0.00     0.000 HD 
ENDBRANCH   6   8
ENDBRANCH   5   6
ENDBRANCH   4   5
ENDBRANCH   2   4
TORSDOF 4
ENDMDL
MODEL      302
REMARK 921   NORMALIZED FREE ENERGY PREDICTED BY IDOCK:   -1.86 KCAL/MOL
REMARK 922        TOTAL FREE ENERGY PREDICTED BY IDOCK:   -2.71 KCAL/MOL
REMARK 923 INTER-LIGAND FREE ENERGY PREDICTED BY IDOCK:   -2.61 KCAL/MOL
REMARK 924 INTRA-LIGAND FREE ENERGY PREDICTED BY IDOCK:   -0.10 KCAL/MOL
REMARK 927      BINDING AFFINITY PREDICTED BY RF-SCORE:    0.00 PKD
ROOT
HETATM    1  O   UNL     1      -7.425  11.771  69.172  1.00  0.00    -0.275 OA 
HETATM    2  C   UNL     1      -8.362  10.838  68.662  1.00  0.00    -0.141 C  
HETATM    3  H   UNL     1      -6.589  11.359  69.359  1.00  0.00     0.000 HD 
ENDROOT
BRANCH   2   4
HETATM    4  C   UNL     1      -9.705  11.501  68.361  1.00  0.00    -0.202 C  
BRANCH   4   5
HETATM    5  O   UNL     1     -10.532  11.334  69.517  1.00  0.00    -0.124 OA 
BRANCH   5   6
HETATM    6  C   UNL     1     -11.796  10.924  69.257  1.00  0.00    -0.324 C  
HETATM    7  O   UNL     1     -12.364  11.001  68.179  1.00  0.00    -0.402 OA 
BRANCH   6   8
HETATM    8  C   UNL     1     -12.270  10.059  70.371  1.00  0.00    -0.249 A  
HETATM    9  C   UNL     1     -13.627   9.695  70.333  1.00  0.00     0.508 A  
HETATM   10  C   UNL     1     -14.135   8.753  71.228  1.00  0.00    -0.215 A  
HETATM   11  C   UNL     1     -13.294   8.169  72.171  1.00  0.00    -0.249 A  
HETATM   12  C   UNL     1     -11.951   8.543  72.240  1.00  0.00    -0.454 A  
HETATM   13  C   UNL     1     -11.440   9.490  71.348  1.00  0.00    -0.392 A  
HETATM   14  O   UNL     1     -10.125   9.847  71.450  1.00  0.00    -0.094 OA 
HETATM   15  H   UNL     1      -9.563   9.462  72.111  1.00  0.00     0.000 HD 
ENDBRANCH   6   8
ENDBRANCH   5   6
ENDBRANCH   4   5
ENDBRANCH   2   4
TORSDOF 4
ENDMDL
MODEL      303
REMARK 921   NORMALIZED FREE ENERGY PREDICTED BY IDOCK:   -1.81 KCAL/MOL
REMARK 922        TOTAL FREE ENERGY PREDICTED BY IDOCK:   -2.65 KCAL/MOL
REMARK 923 INTER-LIGAND FREE ENERGY PREDICTED BY IDOCK:   -2.58 KCAL/MOL
REMARK 924 INTRA-LIGAND FREE ENERGY PREDICTED BY IDOCK:   -0.07 KCAL/MOL
REMARK 927      BINDING AFFINITY PREDICTED BY RF-SCORE:    0.00 PKD
ROOT
HETATM    1  O   UNL     1      -7.718  10.876  70.059  1.00  0.00    -0.366 OA 
HETATM    2  C   UNL     1      -8.550  10.181  69.147  1.00  0.00    -0.165 C  
HETATM    3  H   UNL     1      -8.176  11.604  70.464  1.00  0.00     0.000 HD 
ENDROOT
BRANCH   2   4
HETATM    4  C   UNL     1      -7.814   9.011  68.497  1.00  0.00    -0.102 C  
BRANCH   4   5
HETATM    5  O   UNL     1      -8.235   7.817  69.165  1.00  0.00    -0.126 OA 
BRANCH   5   6
HETATM    6  C   UNL     1      -9.494   7.857  69.661  1.00  0.00    -0.160 C  
HETATM    7  O   UNL     1     -10.517   7.961  69.002  1.00  0.00    -0.214 OA 
BRANCH   6   8
HETATM    8  C   UNL     1      -9.478   7.414  71.081  1.00  0.00    -0.157 A  
HETATM    9  C   UNL     1      -8.309   6.762  71.509  1.00  0.00    -0.115 A  
HETATM   10  C   UNL     1      -8.118   6.459  72.857  1.00  0.00    -0.106 A  
HETATM   11  C   UNL     1      -9.093   6.801  73.789  1.00  0.00    -0.178 A  
HETATM   12  C   UNL     1     -10.271   7.424  73.375  1.00  0.00    -0.402 A  
HETATM   13  C   UNL     1     -10.468   7.723  72.024  1.00  0.00    -0.224 A  
HETATM   14  O   UNL     1     -11.640   8.319  71.647  1.00  0.00    -0.260 OA 
HETATM   15  H   UNL     1     -12.310   8.528  72.286  1.00  0.00     0.000 HD 
ENDBRANCH   6   8
ENDBRANCH   5   6
ENDBRANCH   4   5
ENDBRANCH   2   4
TORSDOF 4
ENDMDL
MODEL      304
REMARK 921   NORMALIZED FREE ENERGY PREDICTED BY IDOCK:   -1.76 KCAL/MOL
REMARK 922        TOTAL FREE ENERGY PREDICTED BY IDOCK:   -2.59 KCAL/MOL
REMARK 923 INTER-LIGAND FREE ENERGY PREDICTED BY IDOCK:   -2.23 KCAL/MOL
REMARK 924 INTRA-LIGAND FREE ENERGY PREDICTED BY IDOCK:   -0.36 KCAL/MOL
REMARK 927      BINDING AFFINITY PREDICTED BY RF-SCORE:    0.00 PKD
ROOT
HETATM    1  O   UNL     1      -9.175   6.889  65.676  1.00  0.00    -0.380 OA 
HETATM    2  C   UNL     1      -8.100   7.509  64.990  1.00  0.00    -0.127 C  
HETATM    3  H   UNL     1      -8.905   6.070  66.076  1.00  0.00     0.000 HD 
ENDROOT
BRANCH   2   4
HETATM    4  C   UNL     1      -8.533   8.825  64.347  1.00  0.00    -0.129 C  
BRANCH   4   5
HETATM    5  O   UNL     1      -8.194   9.877  65.257  1.00  0.00    -0.132 OA 
BRANCH   5   6
HETATM    6  C   UNL     1      -9.108  10.102  66.231  1.00  0.00    -0.154 C  
HETATM    7  O   UNL     1     -10.265   9.712  66.228  1.00  0.00    -0.260 OA 
BRANCH   6   8
HETATM    8  C   UNL     1      -8.413  10.595  67.452  1.00  0.00    -0.122 A  
HETATM    9  C   UNL     1      -8.049   9.614  68.390  1.00  0.00    -0.104 A  
HETATM   10  C   UNL     1      -7.247   9.941  69.483  1.00  0.00    -0.095 A  
HETATM   11  C   UNL     1      -6.804  11.250  69.651  1.00  0.00    -0.095 A  
HETATM   12  C   UNL     1      -7.181  12.240  68.743  1.00  0.00    -0.098 A  
HETATM   13  C   UNL     1      -7.990  11.917  67.650  1.00  0.00    -0.146 A  
HETATM   14  O   UNL     1      -8.356  12.911  66.786  1.00  0.00    -0.387 OA 
HETATM   15  H   UNL     1      -8.069  13.806  66.920  1.00  0.00     0.000 HD 
ENDBRANCH   6   8
ENDBRANCH   5   6
ENDBRANCH   4   5
ENDBRANCH   2   4
TORSDOF 4
ENDMDL
MODEL      305
REMARK 921   NORMALIZED FREE ENERGY PREDICTED BY IDOCK:   -1.76 KCAL/MOL
REMARK 922        TOTAL FREE ENERGY PREDICTED BY IDOCK:   -2.58 KCAL/MOL
REMARK 923 INTER-LIGAND FREE ENERGY PREDICTED BY IDOCK:   -2.13 KCAL/MOL
REMARK 924 INTRA-LIGAND FREE ENERGY PREDICTED BY IDOCK:   -0.45 KCAL/MOL
REMARK 927      BINDING AFFINITY PREDICTED BY RF-SCORE:    0.00 PKD
ROOT
HETATM    1  O   UNL     1     -10.025  11.173  68.149  1.00  0.00    -0.168 OA 
HETATM    2  C   UNL     1      -8.679  10.749  68.280  1.00  0.00    -0.136 C  
HETATM    3  H   UNL     1     -10.471  11.180  68.988  1.00  0.00     0.000 HD 
ENDROOT
BRANCH   2   4
HETATM    4  C   UNL     1      -7.962  10.739  66.931  1.00  0.00    -0.133 C  
BRANCH   4   5
HETATM    5  O   UNL     1      -8.418   9.588  66.214  1.00  0.00    -0.114 OA 
BRANCH   5   6
HETATM    6  C   UNL     1      -7.746   8.444  66.488  1.00  0.00    -0.089 C  
HETATM    7  O   UNL     1      -6.616   8.372  66.944  1.00  0.00    -0.056 OA 
BRANCH   6   8
HETATM    8  C   UNL     1      -8.700   7.301  66.479  1.00  0.00    -0.141 A  
HETATM    9  C   UNL     1      -9.972   7.557  67.019  1.00  0.00    -0.304 A  
HETATM   10  C   UNL     1     -10.993   6.613  66.906  1.00  0.00    -0.396 A  
HETATM   11  C   UNL     1     -10.752   5.405  66.257  1.00  0.00    -0.234 A  
HETATM   12  C   UNL     1      -9.486   5.126  65.742  1.00  0.00    -0.153 A  
HETATM   13  C   UNL     1      -8.459   6.067  65.859  1.00  0.00    -0.143 A  
HETATM   14  O   UNL     1      -7.225   5.758  65.358  1.00  0.00    -0.067 OA 
HETATM   15  H   UNL     1      -7.062   4.923  64.938  1.00  0.00     0.000 HD 
ENDBRANCH   6   8
ENDBRANCH   5   6
ENDBRANCH   4   5
ENDBRANCH   2   4
TORSDOF 4
ENDMDL
MODEL      306
REMARK 921   NORMALIZED FREE ENERGY PREDICTED BY IDOCK:   -1.73 KCAL/MOL
REMARK 922        TOTAL FREE ENERGY PREDICTED BY IDOCK:   -2.55 KCAL/MOL
REMARK 923 INTER-LIGAND FREE ENERGY PREDICTED BY IDOCK:   -2.12 KCAL/MOL
REMARK 924 INTRA-LIGAND FREE ENERGY PREDICTED BY IDOCK:   -0.43 KCAL/MOL
REMARK 927      BINDING AFFINITY PREDICTED BY RF-SCORE:    0.00 PKD
ROOT
HETATM    1  O   UNL     1     -11.994   8.637  71.201  1.00  0.00    -0.290 OA 
HETATM    2  C   UNL     1     -10.741   8.878  71.819  1.00  0.00    -0.362 C  
HETATM    3  H   UNL     1     -12.604   9.348  71.361  1.00  0.00     0.000 HD 
ENDROOT
BRANCH   2   4
HETATM    4  C   UNL     1      -9.761   7.735  71.561  1.00  0.00    -0.162 C  
BRANCH   4   5
HETATM    5  O   UNL     1      -9.665   7.567  70.143  1.00  0.00    -0.172 OA 
BRANCH   5   6
HETATM    6  C   UNL     1      -9.726   6.283  69.717  1.00  0.00    -0.160 C  
HETATM    7  O   UNL     1     -10.670   5.524  69.872  1.00  0.00    -0.319 OA 
BRANCH   6   8
HETATM    8  C   UNL     1      -8.630   6.036  68.741  1.00  0.00    -0.112 A  
HETATM    9  C   UNL     1      -7.410   6.679  69.012  1.00  0.00    -0.094 A  
HETATM   10  C   UNL     1      -6.271   6.384  68.262  1.00  0.00    -0.036 A  
HETATM   11  C   UNL     1      -6.341   5.448  67.233  1.00  0.00    -0.039 A  
HETATM   12  C   UNL     1      -7.553   4.824  66.935  1.00  0.00    -0.087 A  
HETATM   13  C   UNL     1      -8.697   5.122  67.681  1.00  0.00    -0.103 A  
HETATM   14  O   UNL     1      -9.873   4.506  67.354  1.00  0.00    -0.182 OA 
HETATM   15  H   UNL     1      -9.919   3.886  66.636  1.00  0.00     0.000 HD 
ENDBRANCH   6   8
ENDBRANCH   5   6
ENDBRANCH   4   5
ENDBRANCH   2   4
TORSDOF 4
ENDMDL
MODEL      307
REMARK 921   NORMALIZED FREE ENERGY PREDICTED BY IDOCK:   -1.70 KCAL/MOL
REMARK 922        TOTAL FREE ENERGY PREDICTED BY IDOCK:   -2.51 KCAL/MOL
REMARK 923 INTER-LIGAND FREE ENERGY PREDICTED BY IDOCK:   -2.16 KCAL/MOL
REMARK 924 INTRA-LIGAND FREE ENERGY PREDICTED BY IDOCK:   -0.35 KCAL/MOL
REMARK 927      BINDING AFFINITY PREDICTED BY RF-SCORE:    0.00 PKD
ROOT
HETATM    1  O   UNL     1      -8.695  11.233  63.968  1.00  0.00    -0.384 OA 
HETATM    2  C   UNL     1      -9.630  10.388  64.616  1.00  0.00    -0.300 C  
HETATM    3  H   UNL     1      -9.070  11.638  63.193  1.00  0.00     0.000 HD 
ENDROOT
BRANCH   2   4
HETATM    4  C   UNL     1      -9.028   9.739  65.861  1.00  0.00    -0.156 C  
BRANCH   4   5
HETATM    5  O   UNL     1      -8.470   8.483  65.460  1.00  0.00    -0.148 OA 
BRANCH   5   6
HETATM    6  C   UNL     1      -7.711   7.872  66.400  1.00  0.00    -0.096 C  
HETATM    7  O   UNL     1      -6.651   8.287  66.842  1.00  0.00    -0.056 OA 
BRANCH   6   8
HETATM    8  C   UNL     1      -8.513   6.807  67.062  1.00  0.00    -0.114 A  
HETATM    9  C   UNL     1      -9.517   6.215  66.277  1.00  0.00    -0.144 A  
HETATM   10  C   UNL     1     -10.211   5.096  66.738  1.00  0.00    -0.289 A  
HETATM   11  C   UNL     1      -9.911   4.561  67.988  1.00  0.00    -0.154 A  
HETATM   12  C   UNL     1      -8.936   5.156  68.790  1.00  0.00    -0.120 A  
HETATM   13  C   UNL     1      -8.244   6.281  68.333  1.00  0.00    -0.116 A  
HETATM   14  O   UNL     1      -7.306   6.851  69.149  1.00  0.00    -0.088 OA 
HETATM   15  H   UNL     1      -7.124   6.494  70.010  1.00  0.00     0.000 HD 
ENDBRANCH   6   8
ENDBRANCH   5   6
ENDBRANCH   4   5
ENDBRANCH   2   4
TORSDOF 4
ENDMDL
MODEL      308
REMARK 921   NORMALIZED FREE ENERGY PREDICTED BY IDOCK:   -1.70 KCAL/MOL
REMARK 922        TOTAL FREE ENERGY PREDICTED BY IDOCK:   -2.51 KCAL/MOL
REMARK 923 INTER-LIGAND FREE ENERGY PREDICTED BY IDOCK:   -2.10 KCAL/MOL
REMARK 924 INTRA-LIGAND FREE ENERGY PREDICTED BY IDOCK:   -0.41 KCAL/MOL
REMARK 927      BINDING AFFINITY PREDICTED BY RF-SCORE:    0.00 PKD
ROOT
HETATM    1  O   UNL     1     -10.767   9.119  70.175  1.00  0.00    -0.216 OA 
HETATM    2  C   UNL     1      -9.455   9.183  70.707  1.00  0.00    -0.272 C  
HETATM    3  H   UNL     1     -11.394   9.551  70.742  1.00  0.00     0.000 HD 
ENDROOT
BRANCH   2   4
HETATM    4  C   UNL     1      -8.446   8.487  69.794  1.00  0.00    -0.129 C  
BRANCH   4   5
HETATM    5  O   UNL     1      -8.429   9.201  68.554  1.00  0.00    -0.125 OA 
BRANCH   5   6
HETATM    6  C   UNL     1      -9.098   8.599  67.542  1.00  0.00    -0.134 C  
HETATM    7  O   UNL     1     -10.249   8.196  67.587  1.00  0.00    -0.201 OA 
BRANCH   6   8
HETATM    8  C   UNL     1      -8.352   8.805  66.270  1.00  0.00    -0.120 A  
HETATM    9  C   UNL     1      -7.060   8.255  66.218  1.00  0.00    -0.070 A  
HETATM   10  C   UNL     1      -6.343   8.240  65.022  1.00  0.00    -0.049 A  
HETATM   11  C   UNL     1      -6.907   8.778  63.868  1.00  0.00    -0.087 A  
HETATM   12  C   UNL     1      -8.178   9.354  63.912  1.00  0.00    -0.165 A  
HETATM   13  C   UNL     1      -8.897   9.375  65.111  1.00  0.00    -0.195 A  
HETATM   14  O   UNL     1     -10.132   9.960  65.125  1.00  0.00    -0.334 OA 
HETATM   15  H   UNL     1     -10.501  10.346  64.340  1.00  0.00     0.000 HD 
ENDBRANCH   6   8
ENDBRANCH   5   6
ENDBRANCH   4   5
ENDBRANCH   2   4
TORSDOF 4
ENDMDL
MODEL      309
REMARK 921   NORMALIZED FREE ENERGY PREDICTED BY IDOCK:   -1.69 KCAL/MOL
REMARK 922        TOTAL FREE ENERGY PREDICTED BY IDOCK:   -2.50 KCAL/MOL
REMARK 923 INTER-LIGAND FREE ENERGY PREDICTED BY IDOCK:   -2.10 KCAL/MOL
REMARK 924 INTRA-LIGAND FREE ENERGY PREDICTED BY IDOCK:   -0.40 KCAL/MOL
REMARK 927      BINDING AFFINITY PREDICTED BY RF-SCORE:    0.00 PKD
ROOT
HETATM    1  O   UNL     1      -7.036   2.218  65.610  1.00  0.00    -0.045 OA 
HETATM    2  C   UNL     1      -7.252   2.698  66.926  1.00  0.00    -0.057 C  
HETATM    3  H   UNL     1      -6.174   1.828  65.519  1.00  0.00     0.000 HD 
ENDROOT
BRANCH   2   4
HETATM    4  C   UNL     1      -8.638   3.324  67.073  1.00  0.00    -0.111 C  
BRANCH   4   5
HETATM    5  O   UNL     1      -8.464   4.607  67.682  1.00  0.00    -0.103 OA 
BRANCH   5   6
HETATM    6  C   UNL     1      -9.425   4.950  68.572  1.00  0.00    -0.143 C  
HETATM    7  O   UNL     1      -9.951   4.199  69.379  1.00  0.00    -0.158 OA 
BRANCH   6   8
HETATM    8  C   UNL     1      -9.506   6.433  68.662  1.00  0.00    -0.122 A  
HETATM    9  C   UNL     1      -8.423   7.142  68.115  1.00  0.00    -0.123 A  
HETATM   10  C   UNL     1      -8.473   8.530  67.992  1.00  0.00    -0.131 A  
HETATM   11  C   UNL     1      -9.603   9.224  68.418  1.00  0.00    -0.158 A  
HETATM   12  C   UNL     1     -10.673   8.535  68.990  1.00  0.00    -0.113 A  
HETATM   13  C   UNL     1     -10.623   7.144  69.120  1.00  0.00    -0.214 A  
HETATM   14  O   UNL     1     -11.681   6.500  69.699  1.00  0.00    -0.621 OA 
HETATM   15  H   UNL     1     -12.438   6.982  70.009  1.00  0.00     0.000 HD 
ENDBRANCH   6   8
ENDBRANCH   5   6
ENDBRANCH   4   5
ENDBRANCH   2   4
TORSDOF 4
ENDMDL
MODEL      310
REMARK 921   NORMALIZED FREE ENERGY PREDICTED BY IDOCK:   -1.69 KCAL/MOL
REMARK 922        TOTAL FREE ENERGY PREDICTED BY IDOCK:   -2.50 KCAL/MOL
REMARK 923 INTER-LIGAND FREE ENERGY PREDICTED BY IDOCK:   -2.20 KCAL/MOL
REMARK 924 INTRA-LIGAND FREE ENERGY PREDICTED BY IDOCK:   -0.30 KCAL/MOL
REMARK 927      BINDING AFFINITY PREDICTED BY RF-SCORE:    0.00 PKD
ROOT
HETATM    1  O   UNL     1      -7.889   3.174  65.412  1.00  0.00    -0.080 OA 
HETATM    2  C   UNL     1      -7.539   4.203  66.323  1.00  0.00    -0.089 C  
HETATM    3  H   UNL     1      -7.719   2.314  65.778  1.00  0.00     0.000 HD 
ENDROOT
BRANCH   2   4
HETATM    4  C   UNL     1      -7.813   5.587  65.735  1.00  0.00    -0.104 C  
BRANCH   4   5
HETATM    5  O   UNL     1      -9.151   5.946  66.095  1.00  0.00    -0.148 OA 
BRANCH   5   6
HETATM    6  C   UNL     1      -9.299   7.218  66.536  1.00  0.00    -0.170 C  
HETATM    7  O   UNL     1      -9.604   8.180  65.848  1.00  0.00    -0.103 OA 
BRANCH   6   8
HETATM    8  C   UNL     1      -9.374   7.217  68.022  1.00  0.00    -0.130 A  
HETATM    9  C   UNL     1      -8.214   7.633  68.697  1.00  0.00    -0.128 A  
HETATM   10  C   UNL     1      -8.229   7.833  70.077  1.00  0.00    -0.121 A  
HETATM   11  C   UNL     1      -9.401   7.616  70.796  1.00  0.00    -0.162 A  
HETATM   12  C   UNL     1     -10.553   7.175  70.143  1.00  0.00    -0.247 A  
HETATM   13  C   UNL     1     -10.539   6.968  68.761  1.00  0.00    -0.212 A  
HETATM   14  O   UNL     1     -11.678   6.521  68.152  1.00  0.00    -0.504 OA 
HETATM   15  H   UNL     1     -12.467   6.352  68.653  1.00  0.00     0.000 HD 
ENDBRANCH   6   8
ENDBRANCH   5   6
ENDBRANCH   4   5
ENDBRANCH   2   4
TORSDOF 4
ENDMDL
MODEL      311
REMARK 921   NORMALIZED FREE ENERGY PREDICTED BY IDOCK:   -1.69 KCAL/MOL
REMARK 922        TOTAL FREE ENERGY PREDICTED BY IDOCK:   -2.49 KCAL/MOL
REMARK 923 INTER-LIGAND FREE ENERGY PREDICTED BY IDOCK:   -2.83 KCAL/MOL
REMARK 924 INTRA-LIGAND FREE ENERGY PREDICTED BY IDOCK:    0.33 KCAL/MOL
REMARK 927      BINDING AFFINITY PREDICTED BY RF-SCORE:    0.00 PKD
ROOT
HETATM    1  O   UNL     1     -10.137   6.938  66.123  1.00  0.00    -0.426 OA 
HETATM    2  C   UNL     1     -10.652   7.329  67.384  1.00  0.00    -0.300 C  
HETATM    3  H   UNL     1     -10.569   6.156  65.798  1.00  0.00     0.000 HD 
ENDROOT
BRANCH   2   4
HETATM    4  C   UNL     1      -9.958   8.586  67.906  1.00  0.00    -0.181 C  
BRANCH   4   5
HETATM    5  O   UNL     1     -10.897   9.662  67.810  1.00  0.00    -0.270 OA 
BRANCH   5   6
HETATM    6  C   UNL     1     -10.494  10.701  67.039  1.00  0.00    -0.243 C  
HETATM    7  O   UNL     1     -11.227  11.452  66.415  1.00  0.00    -0.283 OA 
BRANCH   6   8
HETATM    8  C   UNL     1      -9.067  11.006  67.333  1.00  0.00    -0.143 A  
HETATM    9  C   UNL     1      -8.730  11.122  68.692  1.00  0.00    -0.153 A  
HETATM   10  C   UNL     1      -7.397  11.236  69.085  1.00  0.00    -0.104 A  
HETATM   11  C   UNL     1      -6.389  11.240  68.125  1.00  0.00    -0.052 A  
HETATM   12  C   UNL     1      -6.711  11.155  66.770  1.00  0.00    -0.135 A  
HETATM   13  C   UNL     1      -8.047  11.046  66.373  1.00  0.00    -0.166 A  
HETATM   14  O   UNL     1      -8.332  10.981  65.037  1.00  0.00    -0.370 OA 
HETATM   15  H   UNL     1      -7.640  11.007  64.387  1.00  0.00     0.000 HD 
ENDBRANCH   6   8
ENDBRANCH   5   6
ENDBRANCH   4   5
ENDBRANCH   2   4
TORSDOF 4
ENDMDL
MODEL      312
REMARK 921   NORMALIZED FREE ENERGY PREDICTED BY IDOCK:   -1.67 KCAL/MOL
REMARK 922        TOTAL FREE ENERGY PREDICTED BY IDOCK:   -2.47 KCAL/MOL
REMARK 923 INTER-LIGAND FREE ENERGY PREDICTED BY IDOCK:   -2.09 KCAL/MOL
REMARK 924 INTRA-LIGAND FREE ENERGY PREDICTED BY IDOCK:   -0.37 KCAL/MOL
REMARK 927      BINDING AFFINITY PREDICTED BY RF-SCORE:    0.00 PKD
ROOT
HETATM    1  O   UNL     1     -10.380  13.463  69.205  1.00  0.00    -0.432 OA 
HETATM    2  C   UNL     1     -10.338  12.706  68.008  1.00  0.00    -0.228 C  
HETATM    3  H   UNL     1      -9.939  14.299  69.104  1.00  0.00     0.000 HD 
ENDROOT
BRANCH   2   4
HETATM    4  C   UNL     1     -11.048  11.363  68.171  1.00  0.00    -0.248 C  
BRANCH   4   5
HETATM    5  O   UNL     1     -10.114  10.456  68.764  1.00  0.00    -0.170 OA 
BRANCH   5   6
HETATM    6  C   UNL     1      -9.672   9.475  67.942  1.00  0.00    -0.147 C  
HETATM    7  O   UNL     1     -10.053   9.278  66.798  1.00  0.00    -0.225 OA 
BRANCH   6   8
HETATM    8  C   UNL     1      -8.423   8.891  68.501  1.00  0.00    -0.129 A  
HETATM    9  C   UNL     1      -7.422   8.572  67.568  1.00  0.00    -0.093 A  
HETATM   10  C   UNL     1      -6.153   8.180  67.995  1.00  0.00    -0.047 A  
HETATM   11  C   UNL     1      -5.873   8.101  69.357  1.00  0.00    -0.030 A  
HETATM   12  C   UNL     1      -6.867   8.387  70.294  1.00  0.00    -0.036 A  
HETATM   13  C   UNL     1      -8.141   8.774  69.869  1.00  0.00    -0.109 A  
HETATM   14  O   UNL     1      -9.097   9.031  70.811  1.00  0.00    -0.202 OA 
HETATM   15  H   UNL     1      -8.906   8.952  71.738  1.00  0.00     0.000 HD 
ENDBRANCH   6   8
ENDBRANCH   5   6
ENDBRANCH   4   5
ENDBRANCH   2   4
TORSDOF 4
ENDMDL
MODEL      313
REMARK 921   NORMALIZED FREE ENERGY PREDICTED BY IDOCK:   -1.65 KCAL/MOL
REMARK 922        TOTAL FREE ENERGY PREDICTED BY IDOCK:   -2.45 KCAL/MOL
REMARK 923 INTER-LIGAND FREE ENERGY PREDICTED BY IDOCK:   -2.06 KCAL/MOL
REMARK 924 INTRA-LIGAND FREE ENERGY PREDICTED BY IDOCK:   -0.39 KCAL/MOL
REMARK 927      BINDING AFFINITY PREDICTED BY RF-SCORE:    0.00 PKD
ROOT
HETATM    1  O   UNL     1      -8.776   5.317  69.801  1.00  0.00    -0.102 OA 
HETATM    2  C   UNL     1      -9.732   5.477  70.835  1.00  0.00    -0.176 C  
HETATM    3  H   UNL     1      -8.028   4.809  70.094  1.00  0.00     0.000 HD 
ENDROOT
BRANCH   2   4
HETATM    4  C   UNL     1     -10.934   6.294  70.364  1.00  0.00    -0.322 C  
BRANCH   4   5
HETATM    5  O   UNL     1     -10.491   7.122  69.285  1.00  0.00    -0.201 OA 
BRANCH   5   6
HETATM    6  C   UNL     1     -10.110   8.371  69.646  1.00  0.00    -0.199 C  
HETATM    7  O   UNL     1     -10.736   9.125  70.374  1.00  0.00    -0.212 OA 
BRANCH   6   8
HETATM    8  C   UNL     1      -8.672   8.561  69.311  1.00  0.00    -0.133 A  
HETATM    9  C   UNL     1      -8.324   8.367  67.964  1.00  0.00    -0.128 A  
HETATM   10  C   UNL     1      -7.044   8.684  67.509  1.00  0.00    -0.080 A  
HETATM   11  C   UNL     1      -6.100   9.195  68.396  1.00  0.00    -0.045 A  
HETATM   12  C   UNL     1      -6.424   9.366  69.743  1.00  0.00    -0.041 A  
HETATM   13  C   UNL     1      -7.704   9.043  70.202  1.00  0.00    -0.089 A  
HETATM   14  O   UNL     1      -7.986   9.206  71.530  1.00  0.00    -0.335 OA 
HETATM   15  H   UNL     1      -7.329   9.533  72.134  1.00  0.00     0.000 HD 
ENDBRANCH   6   8
ENDBRANCH   5   6
ENDBRANCH   4   5
ENDBRANCH   2   4
TORSDOF 4
ENDMDL
MODEL      314
REMARK 921   NORMALIZED FREE ENERGY PREDICTED BY IDOCK:   -1.52 KCAL/MOL
REMARK 922        TOTAL FREE ENERGY PREDICTED BY IDOCK:   -2.29 KCAL/MOL
REMARK 923 INTER-LIGAND FREE ENERGY PREDICTED BY IDOCK:   -1.87 KCAL/MOL
REMARK 924 INTRA-LIGAND FREE ENERGY PREDICTED BY IDOCK:   -0.42 KCAL/MOL
REMARK 927      BINDING AFFINITY PREDICTED BY RF-SCORE:    0.00 PKD
ROOT
HETATM    1  O   UNL     1     -10.810   6.971  66.570  1.00  0.00    -0.505 OA 
HETATM    2  C   UNL     1      -9.794   5.991  66.437  1.00  0.00    -0.110 C  
HETATM    3  H   UNL     1     -10.537   7.806  66.207  1.00  0.00     0.000 HD 
ENDROOT
BRANCH   2   4
HETATM    4  C   UNL     1     -10.232   4.649  67.020  1.00  0.00    -0.126 C  
BRANCH   4   5
HETATM    5  O   UNL     1      -9.100   4.084  67.690  1.00  0.00    -0.124 OA 
BRANCH   5   6
HETATM    6  C   UNL     1      -9.333   3.686  68.963  1.00  0.00    -0.169 C  
HETATM    7  O   UNL     1      -9.772   2.598  69.301  1.00  0.00    -0.044 OA 
BRANCH   6   8
HETATM    8  C   UNL     1      -8.662   4.625  69.902  1.00  0.00    -0.116 A  
HETATM    9  C   UNL     1      -7.554   5.321  69.389  1.00  0.00    -0.069 A  
HETATM   10  C   UNL     1      -6.958   6.347  70.123  1.00  0.00    -0.063 A  
HETATM   11  C   UNL     1      -7.461   6.684  71.377  1.00  0.00    -0.088 A  
HETATM   12  C   UNL     1      -8.543   5.983  71.910  1.00  0.00    -0.137 A  
HETATM   13  C   UNL     1      -9.138   4.950  71.180  1.00  0.00    -0.141 A  
HETATM   14  O   UNL     1     -10.185   4.271  71.736  1.00  0.00    -0.179 OA 
HETATM   15  H   UNL     1     -10.508   4.492  72.602  1.00  0.00     0.000 HD 
ENDBRANCH   6   8
ENDBRANCH   5   6
ENDBRANCH   4   5
ENDBRANCH   2   4
TORSDOF 4
ENDMDL
MODEL      315
REMARK 921   NORMALIZED FREE ENERGY PREDICTED BY IDOCK:   -1.48 KCAL/MOL
REMARK 922        TOTAL FREE ENERGY PREDICTED BY IDOCK:   -2.24 KCAL/MOL
REMARK 923 INTER-LIGAND FREE ENERGY PREDICTED BY IDOCK:   -1.95 KCAL/MOL
REMARK 924 INTRA-LIGAND FREE ENERGY PREDICTED BY IDOCK:   -0.29 KCAL/MOL
REMARK 927      BINDING AFFINITY PREDICTED BY RF-SCORE:    0.00 PKD
ROOT
HETATM    1  O   UNL     1      -7.979   3.700  65.489  1.00  0.00    -0.091 OA 
HETATM    2  C   UNL     1      -7.644   4.987  65.979  1.00  0.00    -0.087 C  
HETATM    3  H   UNL     1      -7.314   3.059  65.712  1.00  0.00     0.000 HD 
ENDROOT
BRANCH   2   4
HETATM    4  C   UNL     1      -8.713   6.018  65.620  1.00  0.00    -0.137 C  
BRANCH   4   5
HETATM    5  O   UNL     1      -9.149   6.624  66.841  1.00  0.00    -0.127 OA 
BRANCH   5   6
HETATM    6  C   UNL     1      -9.742   7.833  66.696  1.00  0.00    -0.222 C  
HETATM    7  O   UNL     1     -10.895   8.102  66.992  1.00  0.00    -0.265 OA 
BRANCH   6   8
HETATM    8  C   UNL     1      -8.698   8.865  66.448  1.00  0.00    -0.148 A  
HETATM    9  C   UNL     1      -7.556   8.792  67.263  1.00  0.00    -0.089 A  
HETATM   10  C   UNL     1      -6.448   9.599  67.005  1.00  0.00    -0.066 A  
HETATM   11  C   UNL     1      -6.471  10.488  65.934  1.00  0.00    -0.127 A  
HETATM   12  C   UNL     1      -7.610  10.591  65.134  1.00  0.00    -0.046 A  
HETATM   13  C   UNL     1      -8.724   9.788  65.394  1.00  0.00    -0.154 A  
HETATM   14  O   UNL     1      -9.831   9.924  64.602  1.00  0.00    -0.389 OA 
HETATM   15  H   UNL     1      -9.848  10.549  63.887  1.00  0.00     0.000 HD 
ENDBRANCH   6   8
ENDBRANCH   5   6
ENDBRANCH   4   5
ENDBRANCH   2   4
TORSDOF 4
ENDMDL
MODEL      316
REMARK 921   NORMALIZED FREE ENERGY PREDICTED BY IDOCK:   -1.47 KCAL/MOL
REMARK 922        TOTAL FREE ENERGY PREDICTED BY IDOCK:   -2.23 KCAL/MOL
REMARK 923 INTER-LIGAND FREE ENERGY PREDICTED BY IDOCK:   -1.80 KCAL/MOL
REMARK 924 INTRA-LIGAND FREE ENERGY PREDICTED BY IDOCK:   -0.43 KCAL/MOL
REMARK 927      BINDING AFFINITY PREDICTED BY RF-SCORE:    0.00 PKD
ROOT
HETATM    1  O   UNL     1      -7.214   2.281  65.828  1.00  0.00    -0.061 OA 
HETATM    2  C   UNL     1      -6.882   1.907  67.154  1.00  0.00    -0.039 C  
HETATM    3  H   UNL     1      -6.593   1.929  65.201  1.00  0.00     0.000 HD 
ENDROOT
BRANCH   2   4
HETATM    4  C   UNL     1      -7.881   2.473  68.162  1.00  0.00    -0.058 C  
BRANCH   4   5
HETATM    5  O   UNL     1      -8.174   3.816  67.764  1.00  0.00    -0.088 OA 
BRANCH   5   6
HETATM    6  C   UNL     1      -7.594   4.774  68.525  1.00  0.00    -0.073 C  
HETATM    7  O   UNL     1      -6.453   5.190  68.402  1.00  0.00    -0.037 OA 
BRANCH   6   8
HETATM    8  C   UNL     1      -8.645   5.487  69.303  1.00  0.00    -0.104 A  
HETATM    9  C   UNL     1      -9.820   5.805  68.601  1.00  0.00    -0.178 A  
HETATM   10  C   UNL     1     -10.931   6.317  69.272  1.00  0.00    -0.435 A  
HETATM   11  C   UNL     1     -10.877   6.518  70.649  1.00  0.00    -0.317 A  
HETATM   12  C   UNL     1      -9.706   6.233  71.354  1.00  0.00    -0.191 A  
HETATM   13  C   UNL     1      -8.590   5.726  70.683  1.00  0.00    -0.132 A  
HETATM   14  O   UNL     1      -7.453   5.472  71.398  1.00  0.00    -0.091 OA 
HETATM   15  H   UNL     1      -7.416   5.634  72.333  1.00  0.00     0.000 HD 
ENDBRANCH   6   8
ENDBRANCH   5   6
ENDBRANCH   4   5
ENDBRANCH   2   4
TORSDOF 4
ENDMDL
MODEL      317
REMARK 921   NORMALIZED FREE ENERGY PREDICTED BY IDOCK:   -1.43 KCAL/MOL
REMARK 922        TOTAL FREE ENERGY PREDICTED BY IDOCK:   -2.17 KCAL/MOL
REMARK 923 INTER-LIGAND FREE ENERGY PREDICTED BY IDOCK:   -1.86 KCAL/MOL
REMARK 924 INTRA-LIGAND FREE ENERGY PREDICTED BY IDOCK:   -0.31 KCAL/MOL
REMARK 927      BINDING AFFINITY PREDICTED BY RF-SCORE:    0.00 PKD
ROOT
HETATM    1  O   UNL     1     -10.437   7.659  66.778  1.00  0.00    -0.398 OA 
HETATM    2  C   UNL     1      -9.425   6.764  66.352  1.00  0.00    -0.119 C  
HETATM    3  H   UNL     1     -11.080   7.809  66.095  1.00  0.00     0.000 HD 
ENDROOT
BRANCH   2   4
HETATM    4  C   UNL     1      -8.392   6.523  67.451  1.00  0.00    -0.120 C  
BRANCH   4   5
HETATM    5  O   UNL     1      -8.531   7.580  68.406  1.00  0.00    -0.124 OA 
BRANCH   5   6
HETATM    6  C   UNL     1      -9.052   7.204  69.598  1.00  0.00    -0.140 C  
HETATM    7  O   UNL     1     -10.043   6.508  69.756  1.00  0.00    -0.173 OA 
BRANCH   6   8
HETATM    8  C   UNL     1      -8.059   7.471  70.675  1.00  0.00    -0.109 A  
HETATM    9  C   UNL     1      -7.312   6.363  71.110  1.00  0.00    -0.080 A  
HETATM   10  C   UNL     1      -6.241   6.531  71.988  1.00  0.00    -0.042 A  
HETATM   11  C   UNL     1      -5.909   7.804  72.442  1.00  0.00    -0.040 A  
HETATM   12  C   UNL     1      -6.661   8.909  72.040  1.00  0.00    -0.014 A  
HETATM   13  C   UNL     1      -7.738   8.744  71.165  1.00  0.00    -0.123 A  
HETATM   14  O   UNL     1      -8.465   9.843  70.803  1.00  0.00    -0.379 OA 
HETATM   15  H   UNL     1      -8.247  10.706  71.135  1.00  0.00     0.000 HD 
ENDBRANCH   6   8
ENDBRANCH   5   6
ENDBRANCH   4   5
ENDBRANCH   2   4
TORSDOF 4
ENDMDL
MODEL      318
REMARK 921   NORMALIZED FREE ENERGY PREDICTED BY IDOCK:   -1.42 KCAL/MOL
REMARK 922        TOTAL FREE ENERGY PREDICTED BY IDOCK:   -2.16 KCAL/MOL
REMARK 923 INTER-LIGAND FREE ENERGY PREDICTED BY IDOCK:   -1.82 KCAL/MOL
REMARK 924 INTRA-LIGAND FREE ENERGY PREDICTED BY IDOCK:   -0.34 KCAL/MOL
REMARK 927      BINDING AFFINITY PREDICTED BY RF-SCORE:    0.00 PKD
ROOT
HETATM    1  O   UNL     1      -8.695  11.233  63.968  1.00  0.00    -0.384 OA 
HETATM    2  C   UNL     1      -9.630  10.388  64.616  1.00  0.00    -0.300 C  
HETATM    3  H   UNL     1      -9.070  11.638  63.193  1.00  0.00     0.000 HD 
ENDROOT
BRANCH   2   4
HETATM    4  C   UNL     1      -9.028   9.739  65.861  1.00  0.00    -0.156 C  
BRANCH   4   5
HETATM    5  O   UNL     1      -9.293  10.608  66.966  1.00  0.00    -0.154 OA 
BRANCH   5   6
HETATM    6  C   UNL     1      -9.010  10.084  68.182  1.00  0.00    -0.122 C  
HETATM    7  O   UNL     1      -9.576   9.133  68.698  1.00  0.00    -0.149 OA 
BRANCH   6   8
HETATM    8  C   UNL     1      -7.698  10.607  68.650  1.00  0.00    -0.110 A  
HETATM    9  C   UNL     1      -7.343  11.883  68.182  1.00  0.00    -0.092 A  
HETATM   10  C   UNL     1      -6.220  12.538  68.689  1.00  0.00    -0.069 A  
HETATM   11  C   UNL     1      -5.441  11.923  69.666  1.00  0.00    -0.077 A  
HETATM   12  C   UNL     1      -5.766  10.644  70.119  1.00  0.00    -0.076 A  
HETATM   13  C   UNL     1      -6.887   9.983  69.608  1.00  0.00    -0.078 A  
HETATM   14  O   UNL     1      -7.169   8.724  70.060  1.00  0.00    -0.048 OA 
HETATM   15  H   UNL     1      -6.620   8.302  70.709  1.00  0.00     0.000 HD 
ENDBRANCH   6   8
ENDBRANCH   5   6
ENDBRANCH   4   5
ENDBRANCH   2   4
TORSDOF 4
ENDMDL
MODEL      319
REMARK 921   NORMALIZED FREE ENERGY PREDICTED BY IDOCK:   -1.41 KCAL/MOL
REMARK 922        TOTAL FREE ENERGY PREDICTED BY IDOCK:   -2.15 KCAL/MOL
REMARK 923 INTER-LIGAND FREE ENERGY PREDICTED BY IDOCK:   -1.83 KCAL/MOL
REMARK 924 INTRA-LIGAND FREE ENERGY PREDICTED BY IDOCK:   -0.32 KCAL/MOL
REMARK 927      BINDING AFFINITY PREDICTED BY RF-SCORE:    0.00 PKD
ROOT
HETATM    1  O   UNL     1     -10.848   6.991  66.542  1.00  0.00    -0.505 OA 
HETATM    2  C   UNL     1      -9.744   6.128  66.757  1.00  0.00    -0.158 C  
HETATM    3  H   UNL     1     -10.576   7.813  66.150  1.00  0.00     0.000 HD 
ENDROOT
BRANCH   2   4
HETATM    4  C   UNL     1     -10.181   4.807  67.386  1.00  0.00    -0.078 C  
BRANCH   4   5
HETATM    5  O   UNL     1      -9.368   4.596  68.544  1.00  0.00    -0.122 OA 
BRANCH   5   6
HETATM    6  C   UNL     1      -9.432   3.347  69.064  1.00  0.00    -0.132 C  
HETATM    7  O   UNL     1      -9.118   2.317  68.487  1.00  0.00    -0.119 OA 
BRANCH   6   8
HETATM    8  C   UNL     1      -9.609   3.437  70.539  1.00  0.00    -0.231 A  
HETATM    9  C   UNL     1      -8.805   2.580  71.309  1.00  0.00    -0.130 A  
HETATM   10  C   UNL     1      -8.766   2.701  72.698  1.00  0.00    -0.085 A  
HETATM   11  C   UNL     1      -9.532   3.676  73.331  1.00  0.00    -0.126 A  
HETATM   12  C   UNL     1     -10.356   4.516  72.581  1.00  0.00    -0.252 A  
HETATM   13  C   UNL     1     -10.402   4.393  71.189  1.00  0.00     0.040 A  
HETATM   14  O   UNL     1     -11.232   5.219  70.484  1.00  0.00     0.064 OA 
HETATM   15  H   UNL     1     -11.768   5.867  70.924  1.00  0.00     0.000 HD 
ENDBRANCH   6   8
ENDBRANCH   5   6
ENDBRANCH   4   5
ENDBRANCH   2   4
TORSDOF 4
ENDMDL
MODEL      320
REMARK 921   NORMALIZED FREE ENERGY PREDICTED BY IDOCK:   -1.39 KCAL/MOL
REMARK 922        TOTAL FREE ENERGY PREDICTED BY IDOCK:   -2.13 KCAL/MOL
REMARK 923 INTER-LIGAND FREE ENERGY PREDICTED BY IDOCK:   -1.62 KCAL/MOL
REMARK 924 INTRA-LIGAND FREE ENERGY PREDICTED BY IDOCK:   -0.50 KCAL/MOL
REMARK 927      BINDING AFFINITY PREDICTED BY RF-SCORE:    0.00 PKD
ROOT
HETATM    1  O   UNL     1      -8.423   3.740  65.397  1.00  0.00    -0.107 OA 
HETATM    2  C   UNL     1      -7.905   3.759  66.716  1.00  0.00    -0.088 C  
HETATM    3  H   UNL     1      -7.754   3.508  64.763  1.00  0.00     0.000 HD 
ENDROOT
BRANCH   2   4
HETATM    4  C   UNL     1      -8.982   4.131  67.734  1.00  0.00    -0.121 C  
BRANCH   4   5
HETATM    5  O   UNL     1      -8.755   5.492  68.116  1.00  0.00    -0.104 OA 
BRANCH   5   6
HETATM    6  C   UNL     1      -9.329   6.413  67.306  1.00  0.00    -0.119 C  
HETATM    7  O   UNL     1     -10.224   6.198  66.503  1.00  0.00    -0.173 OA 
BRANCH   6   8
HETATM    8  C   UNL     1      -8.959   7.777  67.774  1.00  0.00    -0.128 A  
HETATM    9  C   UNL     1      -8.658   7.898  69.141  1.00  0.00    -0.138 A  
HETATM   10  C   UNL     1      -8.136   9.087  69.650  1.00  0.00    -0.103 A  
HETATM   11  C   UNL     1      -7.914  10.167  68.800  1.00  0.00    -0.104 A  
HETATM   12  C   UNL     1      -8.236  10.070  67.445  1.00  0.00    -0.118 A  
HETATM   13  C   UNL     1      -8.764   8.882  66.933  1.00  0.00    -0.119 A  
HETATM   14  O   UNL     1      -9.085   8.824  65.606  1.00  0.00    -0.203 OA 
HETATM   15  H   UNL     1      -8.952   9.572  65.036  1.00  0.00     0.000 HD 
ENDBRANCH   6   8
ENDBRANCH   5   6
ENDBRANCH   4   5
ENDBRANCH   2   4
TORSDOF 4
ENDMDL
MODEL      321
REMARK 921   NORMALIZED FREE ENERGY PREDICTED BY IDOCK:   -1.38 KCAL/MOL
REMARK 922        TOTAL FREE ENERGY PREDICTED BY IDOCK:   -2.12 KCAL/MOL
REMARK 923 INTER-LIGAND FREE ENERGY PREDICTED BY IDOCK:   -1.64 KCAL/MOL
REMARK 924 INTRA-LIGAND FREE ENERGY PREDICTED BY IDOCK:   -0.48 KCAL/MOL
REMARK 927      BINDING AFFINITY PREDICTED BY RF-SCORE:    0.00 PKD
ROOT
HETATM    1  O   UNL     1      -7.892   2.705  65.824  1.00  0.00    -0.079 OA 
HETATM    2  C   UNL     1      -7.999   2.325  67.185  1.00  0.00    -0.070 C  
HETATM    3  H   UNL     1      -7.012   2.570  65.492  1.00  0.00     0.000 HD 
ENDROOT
BRANCH   2   4
HETATM    4  C   UNL     1      -9.414   2.542  67.718  1.00  0.00    -0.107 C  
BRANCH   4   5
HETATM    5  O   UNL     1      -9.363   3.647  68.626  1.00  0.00    -0.149 OA 
BRANCH   5   6
HETATM    6  C   UNL     1      -9.329   4.866  68.038  1.00  0.00    -0.129 C  
HETATM    7  O   UNL     1      -9.700   5.121  66.903  1.00  0.00    -0.136 OA 
BRANCH   6   8
HETATM    8  C   UNL     1      -9.098   5.906  69.077  1.00  0.00    -0.123 A  
HETATM    9  C   UNL     1      -9.539   5.590  70.373  1.00  0.00    -0.224 A  
HETATM   10  C   UNL     1      -9.222   6.416  71.451  1.00  0.00    -0.150 A  
HETATM   11  C   UNL     1      -8.464   7.565  71.245  1.00  0.00    -0.116 A  
HETATM   12  C   UNL     1      -8.044   7.907  69.959  1.00  0.00    -0.117 A  
HETATM   13  C   UNL     1      -8.365   7.085  68.875  1.00  0.00    -0.125 A  
HETATM   14  O   UNL     1      -7.953   7.454  67.625  1.00  0.00    -0.111 OA 
HETATM   15  H   UNL     1      -7.457   8.252  67.489  1.00  0.00     0.000 HD 
ENDBRANCH   6   8
ENDBRANCH   5   6
ENDBRANCH   4   5
ENDBRANCH   2   4
TORSDOF 4
ENDMDL
MODEL      322
REMARK 921   NORMALIZED FREE ENERGY PREDICTED BY IDOCK:   -1.36 KCAL/MOL
REMARK 922        TOTAL FREE ENERGY PREDICTED BY IDOCK:   -2.10 KCAL/MOL
REMARK 923 INTER-LIGAND FREE ENERGY PREDICTED BY IDOCK:   -1.78 KCAL/MOL
REMARK 924 INTRA-LIGAND FREE ENERGY PREDICTED BY IDOCK:   -0.32 KCAL/MOL
REMARK 927      BINDING AFFINITY PREDICTED BY RF-SCORE:    0.00 PKD
ROOT
HETATM    1  O   UNL     1      -7.690  11.240  63.097  1.00  0.00    -0.181 OA 
HETATM    2  C   UNL     1      -8.496  10.290  63.773  1.00  0.00    -0.179 C  
HETATM    3  H   UNL     1      -8.155  11.634  62.367  1.00  0.00     0.000 HD 
ENDROOT
BRANCH   2   4
HETATM    4  C   UNL     1      -7.749   9.658  64.947  1.00  0.00    -0.120 C  
BRANCH   4   5
HETATM    5  O   UNL     1      -8.406   8.425  65.256  1.00  0.00    -0.145 OA 
BRANCH   5   6
HETATM    6  C   UNL     1      -7.745   7.633  66.134  1.00  0.00    -0.089 C  
HETATM    7  O   UNL     1      -6.677   7.078  65.929  1.00  0.00    -0.050 OA 
BRANCH   6   8
HETATM    8  C   UNL     1      -8.328   7.812  67.492  1.00  0.00    -0.120 A  
HETATM    9  C   UNL     1      -9.673   8.214  67.535  1.00  0.00    -0.207 A  
HETATM   10  C   UNL     1     -10.365   8.246  68.746  1.00  0.00    -0.223 A  
HETATM   11  C   UNL     1      -9.720   7.880  69.924  1.00  0.00    -0.176 A  
HETATM   12  C   UNL     1      -8.375   7.505  69.899  1.00  0.00    -0.133 A  
HETATM   13  C   UNL     1      -7.678   7.478  68.688  1.00  0.00    -0.119 A  
HETATM   14  O   UNL     1      -6.358   7.123  68.699  1.00  0.00    -0.033 OA 
HETATM   15  H   UNL     1      -5.917   6.897  69.509  1.00  0.00     0.000 HD 
ENDBRANCH   6   8
ENDBRANCH   5   6
ENDBRANCH   4   5
ENDBRANCH   2   4
TORSDOF 4
ENDMDL
MODEL      323
REMARK 921   NORMALIZED FREE ENERGY PREDICTED BY IDOCK:    4.90 KCAL/MOL
REMARK 922        TOTAL FREE ENERGY PREDICTED BY IDOCK:    5.64 KCAL/MOL
REMARK 923 INTER-LIGAND FREE ENERGY PREDICTED BY IDOCK:    4.96 KCAL/MOL
REMARK 924 INTRA-LIGAND FREE ENERGY PREDICTED BY IDOCK:    0.68 KCAL/MOL
REMARK 927      BINDING AFFINITY PREDICTED BY RF-SCORE:    0.00 PKD
ROOT
HETATM    1  O   UNL     1      -7.036  12.663  72.417  1.00  0.00     5.658 OA 
HETATM    2  C   UNL     1      -5.736  13.225  72.477  1.00  0.00     0.638 C  
HETATM    3  H   UNL     1      -7.056  11.790  72.792  1.00  0.00     0.000 HD 
ENDROOT
BRANCH   2   4
HETATM    4  C   UNL     1      -5.704  14.629  71.876  1.00  0.00     0.097 C  
BRANCH   4   5
HETATM    5  O   UNL     1      -5.429  14.489  70.478  1.00  0.00    -0.116 OA 
BRANCH   5   6
HETATM    6  C   UNL     1      -6.504  14.183  69.714  1.00  0.00    -0.130 C  
HETATM    7  O   UNL     1      -7.095  13.114  69.709  1.00  0.00     0.232 OA 
BRANCH   6   8
HETATM    8  C   UNL     1      -7.070  15.434  69.140  1.00  0.00    -0.161 A  
HETATM    9  C   UNL     1      -8.276  15.295  68.433  1.00  0.00    -0.146 A  
HETATM   10  C   UNL     1      -8.979  16.421  68.001  1.00  0.00    -0.185 A  
HETATM   11  C   UNL     1      -8.482  17.693  68.269  1.00  0.00    -0.271 A  
HETATM   12  C   UNL     1      -7.271  17.845  68.945  1.00  0.00    -0.258 A  
HETATM   13  C   UNL     1      -6.561  16.719  69.373  1.00  0.00    -0.228 A  
HETATM   14  O   UNL     1      -5.370  16.900  70.018  1.00  0.00    -0.170 OA 
HETATM   15  H   UNL     1      -5.025  17.771  70.177  1.00  0.00     0.000 HD 
ENDBRANCH   6   8
ENDBRANCH   5   6
ENDBRANCH   4   5
ENDBRANCH   2   4
TORSDOF 4
ENDMDL
