MODEL        1
REMARK 921   NORMALIZED FREE ENERGY PREDICTED BY IDOCK:   -6.49 KCAL/MOL
REMARK 922        TOTAL FREE ENERGY PREDICTED BY IDOCK:  -18.76 KCAL/MOL
REMARK 923 INTER-LIGAND FREE ENERGY PREDICTED BY IDOCK:  -14.08 KCAL/MOL
REMARK 924 INTRA-LIGAND FREE ENERGY PREDICTED BY IDOCK:   -4.68 KCAL/MOL
REMARK 927      BINDING AFFINITY PREDICTED BY RF-SCORE:    0.00 PKD
ROOT
HETATM    1  O   UNL     1     -13.282  11.976  64.015  1.00  0.00    -0.681 OA 
HETATM    2  C   UNL     1     -12.334  12.611  63.574  1.00  0.00    -0.496 C  
ENDROOT
BRANCH   2   3
HETATM    3  C   UNL     1     -10.970  12.023  63.302  1.00  0.00    -0.399 C  
BRANCH   3   4
HETATM    4  C   UNL     1     -10.656  10.842  64.222  1.00  0.00    -0.336 C  
BRANCH   4   5
HETATM    5  C   UNL     1      -9.152  10.685  64.472  1.00  0.00    -0.243 C  
BRANCH   5   6
HETATM    6  C   UNL     1      -8.864  10.047  65.808  1.00  0.00    -0.172 A  
HETATM    7  C   UNL     1      -7.791  10.498  66.591  1.00  0.00    -0.125 A  
HETATM    8  C   UNL     1      -8.309   8.854  68.284  1.00  0.00    -0.125 A  
HETATM    9  C   UNL     1      -7.518   9.905  67.824  1.00  0.00    -0.090 A  
HETATM   10  C   UNL     1      -9.649   8.987  66.278  1.00  0.00    -0.327 A  
HETATM   11  C   UNL     1      -9.374   8.395  67.511  1.00  0.00    -0.172 A  
ENDBRANCH   5   6
ENDBRANCH   4   5
ENDBRANCH   3   4
ENDBRANCH   2   3
BRANCH   2  12
HETATM   12  O   UNL     1     -12.352  13.936  63.261  1.00  0.00    -0.749 OA 
BRANCH  12  13
HETATM   13  C   UNL     1     -12.489  14.856  64.362  1.00  0.00    -0.207 C  
BRANCH  13  14
HETATM   14  C   UNL     1     -11.161  14.966  65.118  1.00  0.00    -0.386 C  
BRANCH  14  15
HETATM   15  O   UNL     1     -11.354  14.508  66.472  1.00  0.00    -0.337 OA 
BRANCH  15  16
HETATM   16  C   UNL     1     -10.567  13.473  66.870  1.00  0.00    -0.270 C  
HETATM   17  O   UNL     1      -9.349  13.498  66.962  1.00  0.00    -0.230 OA 
BRANCH  16  18
HETATM   18  C   UNL     1     -11.419  12.263  67.159  1.00  0.00    -0.419 C  
BRANCH  18  19
HETATM   19  C   UNL     1     -11.727  12.129  68.647  1.00  0.00    -0.382 C  
BRANCH  19  20
HETATM   20  C   UNL     1     -10.679  11.306  69.405  1.00  0.00    -0.188 C  
BRANCH  20  21
HETATM   21  C   UNL     1     -11.359  10.450  70.442  1.00  0.00    -0.417 A  
HETATM   22  C   UNL     1     -12.646   8.693  72.202  1.00  0.00    -0.451 A  
HETATM   23  C   UNL     1     -12.750  10.497  70.599  1.00  0.00    -0.441 A  
HETATM   24  C   UNL     1     -10.617   9.528  71.193  1.00  0.00    -0.388 A  
HETATM   25  C   UNL     1     -13.389   9.620  71.477  1.00  0.00    -0.468 A  
HETATM   26  C   UNL     1     -11.259   8.652  72.068  1.00  0.00    -0.434 A  
ENDBRANCH  20  21
ENDBRANCH  19  20
ENDBRANCH  18  19
ENDBRANCH  16  18
ENDBRANCH  15  16
ENDBRANCH  14  15
BRANCH  14  27
HETATM   27  C   UNL     1     -10.681  16.421  65.181  1.00  0.00    -0.291 C  
BRANCH  27  28
HETATM   28  O   UNL     1     -10.628  16.898  66.534  1.00  0.00    -0.280 OA 
BRANCH  28  29
HETATM   29  C   UNL     1      -9.391  17.292  66.950  1.00  0.00    -0.255 C  
HETATM   30  O   UNL     1      -8.522  17.751  66.224  1.00  0.00    -0.373 OA 
BRANCH  29  31
HETATM   31  C   UNL     1      -9.256  17.088  68.438  1.00  0.00    -0.259 C  
BRANCH  31  32
HETATM   32  C   UNL     1     -10.600  16.786  69.093  1.00  0.00    -0.343 C  
BRANCH  32  33
HETATM   33  C   UNL     1     -10.589  15.481  69.901  1.00  0.00    -0.322 C  
BRANCH  33  34
HETATM   34  C   UNL     1     -11.692  15.496  70.928  1.00  0.00    -0.413 A  
HETATM   35  C   UNL     1     -13.792  15.689  72.771  1.00  0.00    -0.628 A  
HETATM   36  C   UNL     1     -12.973  15.037  70.594  1.00  0.00    -0.394 A  
HETATM   37  C   UNL     1     -14.018  15.133  71.512  1.00  0.00    -0.614 A  
HETATM   38  C   UNL     1     -12.518  16.137  73.116  1.00  0.00    -0.622 A  
HETATM   39  C   UNL     1     -11.472  16.041  72.199  1.00  0.00    -0.350 A  
ENDBRANCH  33  34
ENDBRANCH  32  33
ENDBRANCH  31  32
ENDBRANCH  29  31
ENDBRANCH  28  29
ENDBRANCH  27  28
ENDBRANCH  14  27
ENDBRANCH  13  14
ENDBRANCH  12  13
ENDBRANCH   2  12
TORSDOF 20
ENDMDL
MODEL        2
REMARK 921   NORMALIZED FREE ENERGY PREDICTED BY IDOCK:   -6.39 KCAL/MOL
REMARK 922        TOTAL FREE ENERGY PREDICTED BY IDOCK:  -18.54 KCAL/MOL
REMARK 923 INTER-LIGAND FREE ENERGY PREDICTED BY IDOCK:  -13.32 KCAL/MOL
REMARK 924 INTRA-LIGAND FREE ENERGY PREDICTED BY IDOCK:   -5.21 KCAL/MOL
REMARK 927      BINDING AFFINITY PREDICTED BY RF-SCORE:    0.00 PKD
ROOT
HETATM    1  O   UNL     1      -6.588  11.663  67.087  1.00  0.00    -0.108 OA 
HETATM    2  C   UNL     1      -7.088  12.749  67.344  1.00  0.00    -0.132 C  
ENDROOT
BRANCH   2   3
HETATM    3  C   UNL     1      -6.299  13.975  67.739  1.00  0.00    -0.170 C  
BRANCH   3   4
HETATM    4  C   UNL     1      -6.939  15.265  67.223  1.00  0.00    -0.152 C  
BRANCH   4   5
HETATM    5  C   UNL     1      -6.947  16.373  68.282  1.00  0.00    -0.138 C  
BRANCH   5   6
HETATM    6  C   UNL     1      -6.855  17.746  67.665  1.00  0.00    -0.189 A  
HETATM    7  C   UNL     1      -6.873  17.898  66.271  1.00  0.00    -0.299 A  
HETATM    8  C   UNL     1      -6.665  20.294  66.510  1.00  0.00    -0.268 A  
HETATM    9  C   UNL     1      -6.782  19.167  65.698  1.00  0.00    -0.313 A  
HETATM   10  C   UNL     1      -6.734  18.885  68.472  1.00  0.00    -0.278 A  
HETATM   11  C   UNL     1      -6.642  20.152  67.896  1.00  0.00    -0.298 A  
ENDBRANCH   5   6
ENDBRANCH   4   5
ENDBRANCH   3   4
ENDBRANCH   2   3
BRANCH   2  12
HETATM   12  O   UNL     1      -8.421  13.028  67.320  1.00  0.00    -0.188 OA 
BRANCH  12  13
HETATM   13  C   UNL     1      -9.299  11.944  66.964  1.00  0.00    -0.188 C  
BRANCH  13  14
HETATM   14  C   UNL     1     -10.536  11.957  67.866  1.00  0.00    -0.201 C  
BRANCH  14  15
HETATM   15  O   UNL     1     -10.769  10.621  68.360  1.00  0.00    -0.193 OA 
BRANCH  15  16
HETATM   16  C   UNL     1     -10.138  10.294  69.519  1.00  0.00    -0.235 C  
HETATM   17  O   UNL     1      -8.928  10.271  69.689  1.00  0.00    -0.190 OA 
BRANCH  16  18
HETATM   18  C   UNL     1     -11.153   9.930  70.572  1.00  0.00    -0.398 C  
BRANCH  18  19
HETATM   19  C   UNL     1     -12.457  10.700  70.392  1.00  0.00    -0.421 C  
BRANCH  19  20
HETATM   20  C   UNL     1     -12.981  11.308  71.698  1.00  0.00    -0.537 C  
BRANCH  20  21
HETATM   21  C   UNL     1     -13.042  12.809  71.571  1.00  0.00    -0.380 A  
HETATM   22  C   UNL     1     -12.998  15.607  71.513  1.00  0.00    -0.549 A  
HETATM   23  C   UNL     1     -13.959  13.547  72.330  1.00  0.00    -0.638 A  
HETATM   24  C   UNL     1     -12.117  13.487  70.766  1.00  0.00    -0.351 A  
HETATM   25  C   UNL     1     -13.935  14.942  72.299  1.00  0.00    -0.602 A  
HETATM   26  C   UNL     1     -12.095  14.881  70.739  1.00  0.00    -0.377 A  
ENDBRANCH  20  21
ENDBRANCH  19  20
ENDBRANCH  18  19
ENDBRANCH  16  18
ENDBRANCH  15  16
ENDBRANCH  14  15
BRANCH  14  27
HETATM   27  C   UNL     1     -11.784  12.390  67.087  1.00  0.00    -0.345 C  
BRANCH  27  28
HETATM   28  O   UNL     1     -11.439  12.933  65.804  1.00  0.00    -0.311 OA 
BRANCH  28  29
HETATM   29  C   UNL     1     -12.225  13.969  65.394  1.00  0.00    -0.439 C  
HETATM   30  O   UNL     1     -13.441  14.011  65.508  1.00  0.00    -0.677 OA 
BRANCH  29  31
HETATM   31  C   UNL     1     -11.375  15.057  64.789  1.00  0.00    -0.409 C  
BRANCH  31  32
HETATM   32  C   UNL     1     -10.246  15.479  65.723  1.00  0.00    -0.390 C  
BRANCH  32  33
HETATM   33  C   UNL     1     -10.752  15.965  67.088  1.00  0.00    -0.301 C  
BRANCH  33  34
HETATM   34  C   UNL     1     -10.498  17.443  67.242  1.00  0.00    -0.321 A  
HETATM   35  C   UNL     1     -10.209  20.213  67.538  1.00  0.00    -0.520 A  
HETATM   36  C   UNL     1     -10.408  18.014  68.519  1.00  0.00    -0.359 A  
HETATM   37  C   UNL     1     -10.264  19.393  68.665  1.00  0.00    -0.462 A  
HETATM   38  C   UNL     1     -10.285  19.652  66.265  1.00  0.00    -0.598 A  
HETATM   39  C   UNL     1     -10.428  18.273  66.116  1.00  0.00    -0.403 A  
ENDBRANCH  33  34
ENDBRANCH  32  33
ENDBRANCH  31  32
ENDBRANCH  29  31
ENDBRANCH  28  29
ENDBRANCH  27  28
ENDBRANCH  14  27
ENDBRANCH  13  14
ENDBRANCH  12  13
ENDBRANCH   2  12
TORSDOF 20
ENDMDL
MODEL        3
REMARK 921   NORMALIZED FREE ENERGY PREDICTED BY IDOCK:   -6.39 KCAL/MOL
REMARK 922        TOTAL FREE ENERGY PREDICTED BY IDOCK:  -18.53 KCAL/MOL
REMARK 923 INTER-LIGAND FREE ENERGY PREDICTED BY IDOCK:  -14.55 KCAL/MOL
REMARK 924 INTRA-LIGAND FREE ENERGY PREDICTED BY IDOCK:   -3.98 KCAL/MOL
REMARK 927      BINDING AFFINITY PREDICTED BY RF-SCORE:    0.00 PKD
ROOT
HETATM    1  O   UNL     1     -12.791  12.983  63.320  1.00  0.00    -0.596 OA 
HETATM    2  C   UNL     1     -11.892  13.381  64.048  1.00  0.00    -0.445 C  
ENDROOT
BRANCH   2   3
HETATM    3  C   UNL     1     -12.058  14.464  65.087  1.00  0.00    -0.395 C  
BRANCH   3   4
HETATM    4  C   UNL     1     -11.121  15.648  64.843  1.00  0.00    -0.414 C  
BRANCH   4   5
HETATM    5  C   UNL     1     -10.055  15.781  65.936  1.00  0.00    -0.381 C  
BRANCH   5   6
HETATM    6  C   UNL     1     -10.140  17.105  66.652  1.00  0.00    -0.306 A  
HETATM    7  C   UNL     1      -9.771  17.205  68.001  1.00  0.00    -0.274 A  
HETATM    8  C   UNL     1     -10.312  19.560  67.996  1.00  0.00    -0.564 A  
HETATM    9  C   UNL     1      -9.855  18.428  68.668  1.00  0.00    -0.403 A  
HETATM   10  C   UNL     1     -10.602  18.249  65.987  1.00  0.00    -0.318 A  
HETATM   11  C   UNL     1     -10.685  19.470  66.656  1.00  0.00    -0.552 A  
ENDBRANCH   5   6
ENDBRANCH   4   5
ENDBRANCH   3   4
ENDBRANCH   2   3
BRANCH   2  12
HETATM   12  O   UNL     1     -10.610  12.921  64.040  1.00  0.00    -0.405 OA 
BRANCH  12  13
HETATM   13  C   UNL     1     -10.433  11.515  63.784  1.00  0.00    -0.405 C  
BRANCH  13  14
HETATM   14  C   UNL     1     -10.346  10.750  65.108  1.00  0.00    -0.271 C  
BRANCH  14  15
HETATM   15  O   UNL     1      -9.978  11.670  66.157  1.00  0.00    -0.209 OA 
BRANCH  15  16
HETATM   16  C   UNL     1     -10.815  11.721  67.228  1.00  0.00    -0.253 C  
HETATM   17  O   UNL     1     -11.720  10.935  67.463  1.00  0.00    -0.543 OA 
BRANCH  16  18
HETATM   18  C   UNL     1     -10.482  12.917  68.083  1.00  0.00    -0.245 C  
BRANCH  18  19
HETATM   19  C   UNL     1     -11.710  13.452  68.812  1.00  0.00    -0.377 C  
BRANCH  19  20
HETATM   20  C   UNL     1     -11.505  14.862  69.378  1.00  0.00    -0.324 C  
BRANCH  20  21
HETATM   21  C   UNL     1     -12.182  14.974  70.720  1.00  0.00    -0.386 A  
HETATM   22  C   UNL     1     -13.256  15.064  73.304  1.00  0.00    -0.537 A  
HETATM   23  C   UNL     1     -13.051  13.968  71.161  1.00  0.00    -0.373 A  
HETATM   24  C   UNL     1     -11.874  16.037  71.579  1.00  0.00    -0.554 A  
HETATM   25  C   UNL     1     -13.586  14.015  72.449  1.00  0.00    -0.658 A  
HETATM   26  C   UNL     1     -12.408  16.080  72.867  1.00  0.00    -0.609 A  
ENDBRANCH  20  21
ENDBRANCH  19  20
ENDBRANCH  18  19
ENDBRANCH  16  18
ENDBRANCH  15  16
ENDBRANCH  14  15
BRANCH  14  27
HETATM   27  C   UNL     1      -9.271   9.659  65.047  1.00  0.00    -0.250 C  
BRANCH  27  28
HETATM   28  O   UNL     1      -9.421   8.714  66.117  1.00  0.00    -0.223 OA 
BRANCH  28  29
HETATM   29  C   UNL     1      -8.412   8.725  67.033  1.00  0.00    -0.109 C  
HETATM   30  O   UNL     1      -7.412   9.425  66.963  1.00  0.00    -0.090 OA 
BRANCH  29  31
HETATM   31  C   UNL     1      -8.712   7.756  68.148  1.00  0.00    -0.126 C  
BRANCH  31  32
HETATM   32  C   UNL     1     -10.055   8.052  68.808  1.00  0.00    -0.206 C  
BRANCH  32  33
HETATM   33  C   UNL     1      -9.959   9.122  69.903  1.00  0.00    -0.213 C  
BRANCH  33  34
HETATM   34  C   UNL     1     -11.202   9.109  70.755  1.00  0.00    -0.336 A  
HETATM   35  C   UNL     1     -13.612   9.057  72.182  1.00  0.00    -0.523 A  
HETATM   36  C   UNL     1     -11.718   7.896  71.231  1.00  0.00    -0.313 A  
HETATM   37  C   UNL     1     -12.918   7.871  71.942  1.00  0.00    -0.323 A  
HETATM   38  C   UNL     1     -13.099  10.269  71.723  1.00  0.00    -0.570 A  
HETATM   39  C   UNL     1     -11.899  10.296  71.013  1.00  0.00    -0.472 A  
ENDBRANCH  33  34
ENDBRANCH  32  33
ENDBRANCH  31  32
ENDBRANCH  29  31
ENDBRANCH  28  29
ENDBRANCH  27  28
ENDBRANCH  14  27
ENDBRANCH  13  14
ENDBRANCH  12  13
ENDBRANCH   2  12
TORSDOF 20
ENDMDL
MODEL        4
REMARK 921   NORMALIZED FREE ENERGY PREDICTED BY IDOCK:   -6.31 KCAL/MOL
REMARK 922        TOTAL FREE ENERGY PREDICTED BY IDOCK:  -18.36 KCAL/MOL
REMARK 923 INTER-LIGAND FREE ENERGY PREDICTED BY IDOCK:  -13.22 KCAL/MOL
REMARK 924 INTRA-LIGAND FREE ENERGY PREDICTED BY IDOCK:   -5.14 KCAL/MOL
REMARK 927      BINDING AFFINITY PREDICTED BY RF-SCORE:    0.00 PKD
ROOT
HETATM    1  O   UNL     1     -12.575  13.659  63.435  1.00  0.00    -0.799 OA 
HETATM    2  C   UNL     1     -12.151  14.123  64.484  1.00  0.00    -0.468 C  
ENDROOT
BRANCH   2   3
HETATM    3  C   UNL     1     -11.811  15.580  64.692  1.00  0.00    -0.171 C  
BRANCH   3   4
HETATM    4  C   UNL     1     -10.476  15.765  65.416  1.00  0.00    -0.438 C  
BRANCH   4   5
HETATM    5  C   UNL     1     -10.661  16.201  66.873  1.00  0.00    -0.283 C  
BRANCH   5   6
HETATM    6  C   UNL     1     -10.391  17.672  67.063  1.00  0.00    -0.330 A  
HETATM    7  C   UNL     1     -10.231  18.202  68.351  1.00  0.00    -0.401 A  
HETATM    8  C   UNL     1      -9.906  20.410  67.425  1.00  0.00    -0.587 A  
HETATM    9  C   UNL     1      -9.987  19.564  68.530  1.00  0.00    -0.538 A  
HETATM   10  C   UNL     1     -10.311  18.532  65.960  1.00  0.00    -0.423 A  
HETATM   11  C   UNL     1     -10.068  19.894  66.141  1.00  0.00    -0.611 A  
ENDBRANCH   5   6
ENDBRANCH   4   5
ENDBRANCH   3   4
ENDBRANCH   2   3
BRANCH   2  12
HETATM   12  O   UNL     1     -11.917  13.413  65.622  1.00  0.00    -0.358 OA 
BRANCH  12  13
HETATM   13  C   UNL     1     -11.636  12.009  65.458  1.00  0.00    -0.293 C  
BRANCH  13  14
HETATM   14  C   UNL     1     -10.768  11.512  66.617  1.00  0.00    -0.268 C  
BRANCH  14  15
HETATM   15  O   UNL     1     -11.594  10.763  67.533  1.00  0.00    -0.510 OA 
BRANCH  15  16
HETATM   16  C   UNL     1     -10.953   9.835  68.293  1.00  0.00    -0.164 C  
HETATM   17  O   UNL     1      -9.930   9.243  67.984  1.00  0.00    -0.166 OA 
BRANCH  16  18
HETATM   18  C   UNL     1     -11.710   9.614  69.578  1.00  0.00     0.186 C  
BRANCH  18  19
HETATM   19  C   UNL     1     -11.505  10.762  70.561  1.00  0.00    -0.367 C  
BRANCH  19  20
HETATM   20  C   UNL     1     -12.790  11.157  71.299  1.00  0.00    -0.515 C  
BRANCH  20  21
HETATM   21  C   UNL     1     -12.899  12.659  71.358  1.00  0.00    -0.358 A  
HETATM   22  C   UNL     1     -13.279  15.432  71.310  1.00  0.00    -0.585 A  
HETATM   23  C   UNL     1     -12.168  13.458  70.471  1.00  0.00    -0.425 A  
HETATM   24  C   UNL     1     -13.807  13.266  72.236  1.00  0.00    -0.637 A  
HETATM   25  C   UNL     1     -12.358  14.841  70.449  1.00  0.00    -0.402 A  
HETATM   26  C   UNL     1     -13.997  14.647  72.211  1.00  0.00    -0.589 A  
ENDBRANCH  20  21
ENDBRANCH  19  20
ENDBRANCH  18  19
ENDBRANCH  16  18
ENDBRANCH  15  16
ENDBRANCH  14  15
BRANCH  14  27
HETATM   27  C   UNL     1     -10.156  12.684  67.393  1.00  0.00    -0.218 C  
BRANCH  27  28
HETATM   28  O   UNL     1      -8.866  13.040  66.876  1.00  0.00    -0.214 OA 
BRANCH  28  29
HETATM   29  C   UNL     1      -7.823  12.762  67.708  1.00  0.00    -0.156 C  
HETATM   30  O   UNL     1      -7.744  11.776  68.427  1.00  0.00    -0.117 OA 
BRANCH  29  31
HETATM   31  C   UNL     1      -6.776  13.843  67.607  1.00  0.00    -0.189 C  
BRANCH  31  32
HETATM   32  C   UNL     1      -7.369  15.229  67.836  1.00  0.00    -0.155 C  
BRANCH  32  33
HETATM   33  C   UNL     1      -7.017  16.221  66.720  1.00  0.00    -0.165 C  
BRANCH  33  34
HETATM   34  C   UNL     1      -6.730  17.580  67.303  1.00  0.00    -0.191 A  
HETATM   35  C   UNL     1      -6.378  20.134  68.398  1.00  0.00    -0.326 A  
HETATM   36  C   UNL     1      -6.675  17.754  68.692  1.00  0.00    -0.230 A  
HETATM   37  C   UNL     1      -6.499  19.027  69.237  1.00  0.00    -0.321 A  
HETATM   38  C   UNL     1      -6.419  19.968  67.015  1.00  0.00    -0.221 A  
HETATM   39  C   UNL     1      -6.594  18.697  66.468  1.00  0.00    -0.219 A  
ENDBRANCH  33  34
ENDBRANCH  32  33
ENDBRANCH  31  32
ENDBRANCH  29  31
ENDBRANCH  28  29
ENDBRANCH  27  28
ENDBRANCH  14  27
ENDBRANCH  13  14
ENDBRANCH  12  13
ENDBRANCH   2  12
TORSDOF 20
ENDMDL
MODEL        5
REMARK 921   NORMALIZED FREE ENERGY PREDICTED BY IDOCK:   -6.27 KCAL/MOL
REMARK 922        TOTAL FREE ENERGY PREDICTED BY IDOCK:  -18.28 KCAL/MOL
REMARK 923 INTER-LIGAND FREE ENERGY PREDICTED BY IDOCK:  -10.75 KCAL/MOL
REMARK 924 INTRA-LIGAND FREE ENERGY PREDICTED BY IDOCK:   -7.53 KCAL/MOL
REMARK 927      BINDING AFFINITY PREDICTED BY RF-SCORE:    0.00 PKD
ROOT
HETATM    1  O   UNL     1     -13.094  12.261  63.957  1.00  0.00    -0.764 OA 
HETATM    2  C   UNL     1     -12.173  12.257  64.762  1.00  0.00    -0.365 C  
ENDROOT
BRANCH   2   3
HETATM    3  C   UNL     1     -10.731  11.994  64.400  1.00  0.00    -0.369 C  
BRANCH   3   4
HETATM    4  C   UNL     1     -10.231  10.658  64.951  1.00  0.00    -0.395 C  
BRANCH   4   5
HETATM    5  C   UNL     1      -8.862  10.270  64.381  1.00  0.00    -0.229 C  
BRANCH   5   6
HETATM    6  C   UNL     1      -8.143   9.278  65.261  1.00  0.00    -0.121 A  
HETATM    7  C   UNL     1      -6.960   9.644  65.919  1.00  0.00    -0.097 A  
HETATM    8  C   UNL     1      -6.789   7.435  66.883  1.00  0.00    -0.070 A  
HETATM    9  C   UNL     1      -6.289   8.726  66.728  1.00  0.00    -0.059 A  
HETATM   10  C   UNL     1      -8.634   7.976  65.420  1.00  0.00    -0.138 A  
HETATM   11  C   UNL     1      -7.962   7.060  66.229  1.00  0.00    -0.114 A  
ENDBRANCH   5   6
ENDBRANCH   4   5
ENDBRANCH   3   4
ENDBRANCH   2   3
BRANCH   2  12
HETATM   12  O   UNL     1     -12.295  12.483  66.099  1.00  0.00    -0.596 OA 
BRANCH  12  13
HETATM   13  C   UNL     1     -12.192  13.853  66.532  1.00  0.00    -0.442 C  
BRANCH  13  14
HETATM   14  C   UNL     1     -11.354  13.935  67.811  1.00  0.00    -0.308 C  
BRANCH  14  15
HETATM   15  O   UNL     1     -10.548  12.744  67.919  1.00  0.00    -0.212 OA 
BRANCH  15  16
HETATM   16  C   UNL     1      -9.207  12.914  67.771  1.00  0.00    -0.200 C  
HETATM   17  O   UNL     1      -8.664  13.880  67.255  1.00  0.00    -0.196 OA 
BRANCH  16  18
HETATM   18  C   UNL     1      -8.474  11.714  68.314  1.00  0.00    -0.160 C  
BRANCH  18  19
HETATM   19  C   UNL     1      -9.426  10.567  68.636  1.00  0.00    -0.172 C  
BRANCH  19  20
HETATM   20  C   UNL     1      -8.899   9.643  69.741  1.00  0.00    -0.224 C  
BRANCH  20  21
HETATM   21  C   UNL     1      -9.306   8.221  69.450  1.00  0.00    -0.155 A  
HETATM   22  C   UNL     1     -10.202   5.591  69.103  1.00  0.00    -0.309 A  
HETATM   23  C   UNL     1      -8.601   7.152  70.018  1.00  0.00    -0.141 A  
HETATM   24  C   UNL     1     -10.452   7.956  68.688  1.00  0.00    -0.196 A  
HETATM   25  C   UNL     1      -9.049   5.842  69.842  1.00  0.00    -0.159 A  
HETATM   26  C   UNL     1     -10.899   6.646  68.517  1.00  0.00    -0.319 A  
ENDBRANCH  20  21
ENDBRANCH  19  20
ENDBRANCH  18  19
ENDBRANCH  16  18
ENDBRANCH  15  16
ENDBRANCH  14  15
BRANCH  14  27
HETATM   27  C   UNL     1     -12.248  14.008  69.054  1.00  0.00    -0.245 C  
BRANCH  27  28
HETATM   28  O   UNL     1     -11.657  13.320  70.166  1.00  0.00    -0.212 OA 
BRANCH  28  29
HETATM   29  C   UNL     1     -12.532  12.593  70.917  1.00  0.00    -0.278 C  
HETATM   30  O   UNL     1     -13.236  13.049  71.807  1.00  0.00    -0.415 OA 
BRANCH  29  31
HETATM   31  C   UNL     1     -12.512  11.149  70.484  1.00  0.00    -0.414 C  
BRANCH  31  32
HETATM   32  C   UNL     1     -12.277  10.208  71.661  1.00  0.00    -0.422 C  
BRANCH  32  33
HETATM   33  C   UNL     1     -12.672   8.758  71.353  1.00  0.00    -0.324 C  
BRANCH  33  34
HETATM   34  C   UNL     1     -11.814   7.805  72.144  1.00  0.00    -0.370 A  
HETATM   35  C   UNL     1     -10.113   6.013  73.464  1.00  0.00    -0.207 A  
HETATM   36  C   UNL     1     -10.670   8.271  72.807  1.00  0.00    -0.313 A  
HETATM   37  C   UNL     1      -9.824   7.378  73.464  1.00  0.00    -0.363 A  
HETATM   38  C   UNL     1     -11.255   5.544  72.818  1.00  0.00    -0.358 A  
HETATM   39  C   UNL     1     -12.103   6.435  72.161  1.00  0.00    -0.316 A  
ENDBRANCH  33  34
ENDBRANCH  32  33
ENDBRANCH  31  32
ENDBRANCH  29  31
ENDBRANCH  28  29
ENDBRANCH  27  28
ENDBRANCH  14  27
ENDBRANCH  13  14
ENDBRANCH  12  13
ENDBRANCH   2  12
TORSDOF 20
ENDMDL
MODEL        6
REMARK 921   NORMALIZED FREE ENERGY PREDICTED BY IDOCK:   -6.26 KCAL/MOL
REMARK 922        TOTAL FREE ENERGY PREDICTED BY IDOCK:  -18.26 KCAL/MOL
REMARK 923 INTER-LIGAND FREE ENERGY PREDICTED BY IDOCK:  -11.03 KCAL/MOL
REMARK 924 INTRA-LIGAND FREE ENERGY PREDICTED BY IDOCK:   -7.23 KCAL/MOL
REMARK 927      BINDING AFFINITY PREDICTED BY RF-SCORE:    0.00 PKD
ROOT
HETATM    1  O   UNL     1      -7.859  14.974  67.949  1.00  0.00    -0.121 OA 
HETATM    2  C   UNL     1      -8.369  13.882  67.744  1.00  0.00    -0.174 C  
ENDROOT
BRANCH   2   3
HETATM    3  C   UNL     1      -7.794  12.572  68.226  1.00  0.00    -0.144 C  
BRANCH   3   4
HETATM    4  C   UNL     1      -8.854  11.473  68.318  1.00  0.00    -0.166 C  
BRANCH   4   5
HETATM    5  C   UNL     1      -8.425  10.328  69.241  1.00  0.00    -0.172 C  
BRANCH   5   6
HETATM    6  C   UNL     1      -8.869   8.984  68.720  1.00  0.00    -0.137 A  
HETATM    7  C   UNL     1     -10.190   8.795  68.287  1.00  0.00    -0.240 A  
HETATM    8  C   UNL     1      -9.709   6.484  67.767  1.00  0.00    -0.131 A  
HETATM    9  C   UNL     1     -10.605   7.551  67.811  1.00  0.00    -0.274 A  
HETATM   10  C   UNL     1      -7.978   7.905  68.676  1.00  0.00    -0.124 A  
HETATM   11  C   UNL     1      -8.396   6.662  68.200  1.00  0.00    -0.117 A  
ENDBRANCH   5   6
ENDBRANCH   4   5
ENDBRANCH   3   4
ENDBRANCH   2   3
BRANCH   2  12
HETATM   12  O   UNL     1      -9.523  13.669  67.053  1.00  0.00    -0.234 OA 
BRANCH  12  13
HETATM   13  C   UNL     1     -10.503  14.724  67.096  1.00  0.00    -0.265 C  
BRANCH  13  14
HETATM   14  C   UNL     1     -11.911  14.126  67.170  1.00  0.00    -0.426 C  
BRANCH  14  15
HETATM   15  O   UNL     1     -11.831  12.811  67.759  1.00  0.00    -0.348 OA 
BRANCH  15  16
HETATM   16  C   UNL     1     -12.066  12.740  69.096  1.00  0.00    -0.158 C  
HETATM   17  O   UNL     1     -12.088  13.688  69.867  1.00  0.00    -0.319 OA 
BRANCH  16  18
HETATM   18  C   UNL     1     -12.270  11.303  69.506  1.00  0.00    -0.325 C  
BRANCH  18  19
HETATM   19  C   UNL     1     -12.221  11.134  71.020  1.00  0.00    -0.438 C  
BRANCH  19  20
HETATM   20  C   UNL     1     -13.047   9.941  71.517  1.00  0.00    -0.516 C  
BRANCH  20  21
HETATM   21  C   UNL     1     -12.174   8.715  71.592  1.00  0.00    -0.388 A  
HETATM   22  C   UNL     1     -10.493   6.478  71.504  1.00  0.00    -0.245 A  
HETATM   23  C   UNL     1     -12.682   7.460  71.230  1.00  0.00    -0.371 A  
HETATM   24  C   UNL     1     -10.819   8.832  71.930  1.00  0.00    -0.431 A  
HETATM   25  C   UNL     1     -11.842   6.347  71.189  1.00  0.00    -0.325 A  
HETATM   26  C   UNL     1      -9.982   7.718  71.884  1.00  0.00    -0.222 A  
ENDBRANCH  20  21
ENDBRANCH  19  20
ENDBRANCH  18  19
ENDBRANCH  16  18
ENDBRANCH  15  16
ENDBRANCH  14  15
BRANCH  14  27
HETATM   27  C   UNL     1     -12.521  13.975  65.772  1.00  0.00    -0.494 C  
BRANCH  27  28
HETATM   28  O   UNL     1     -12.615  12.596  65.387  1.00  0.00    -0.641 OA 
BRANCH  28  29
HETATM   29  C   UNL     1     -12.253  12.338  64.098  1.00  0.00    -0.446 C  
HETATM   30  O   UNL     1     -13.024  12.005  63.209  1.00  0.00    -0.736 OA 
BRANCH  29  31
HETATM   31  C   UNL     1     -10.768  12.531  63.928  1.00  0.00    -0.473 C  
BRANCH  31  32
HETATM   32  C   UNL     1     -10.047  11.206  63.702  1.00  0.00    -0.432 C  
BRANCH  32  33
HETATM   33  C   UNL     1      -9.992  10.334  64.963  1.00  0.00    -0.393 C  
BRANCH  33  34
HETATM   34  C   UNL     1      -8.681   9.594  65.028  1.00  0.00    -0.202 A  
HETATM   35  C   UNL     1      -6.287   8.170  65.322  1.00  0.00    -0.045 A  
HETATM   36  C   UNL     1      -8.626   8.228  64.719  1.00  0.00    -0.047 A  
HETATM   37  C   UNL     1      -7.433   7.520  64.865  1.00  0.00    -0.089 A  
HETATM   38  C   UNL     1      -6.330   9.531  65.620  1.00  0.00    -0.070 A  
HETATM   39  C   UNL     1      -7.521  10.241  65.473  1.00  0.00    -0.149 A  
ENDBRANCH  33  34
ENDBRANCH  32  33
ENDBRANCH  31  32
ENDBRANCH  29  31
ENDBRANCH  28  29
ENDBRANCH  27  28
ENDBRANCH  14  27
ENDBRANCH  13  14
ENDBRANCH  12  13
ENDBRANCH   2  12
TORSDOF 20
ENDMDL
MODEL        7
REMARK 921   NORMALIZED FREE ENERGY PREDICTED BY IDOCK:   -6.19 KCAL/MOL
REMARK 922        TOTAL FREE ENERGY PREDICTED BY IDOCK:  -18.11 KCAL/MOL
REMARK 923 INTER-LIGAND FREE ENERGY PREDICTED BY IDOCK:  -14.10 KCAL/MOL
REMARK 924 INTRA-LIGAND FREE ENERGY PREDICTED BY IDOCK:   -4.01 KCAL/MOL
REMARK 927      BINDING AFFINITY PREDICTED BY RF-SCORE:    0.00 PKD
ROOT
HETATM    1  O   UNL     1      -8.958   6.951  65.906  1.00  0.00    -0.145 OA 
HETATM    2  C   UNL     1      -8.677   7.961  66.536  1.00  0.00    -0.147 C  
ENDROOT
BRANCH   2   3
HETATM    3  C   UNL     1      -8.577   8.022  68.042  1.00  0.00    -0.129 C  
BRANCH   3   4
HETATM    4  C   UNL     1      -9.897   8.439  68.692  1.00  0.00    -0.180 C  
BRANCH   4   5
HETATM    5  C   UNL     1      -9.818   8.430  70.223  1.00  0.00    -0.188 C  
BRANCH   5   6
HETATM    6  C   UNL     1     -11.071   8.978  70.858  1.00  0.00    -0.343 A  
HETATM    7  C   UNL     1     -11.545  10.250  70.504  1.00  0.00    -0.424 A  
HETATM    8  C   UNL     1     -13.391  10.014  72.046  1.00  0.00    -0.513 A  
HETATM    9  C   UNL     1     -12.701  10.763  71.095  1.00  0.00    -0.532 A  
HETATM   10  C   UNL     1     -11.770   8.235  71.818  1.00  0.00    -0.357 A  
HETATM   11  C   UNL     1     -12.925   8.750  72.407  1.00  0.00    -0.442 A  
ENDBRANCH   5   6
ENDBRANCH   4   5
ENDBRANCH   3   4
ENDBRANCH   2   3
BRANCH   2  12
HETATM   12  O   UNL     1      -8.413   9.181  65.992  1.00  0.00    -0.122 OA 
BRANCH  12  13
HETATM   13  C   UNL     1      -9.284   9.613  64.929  1.00  0.00    -0.246 C  
BRANCH  13  14
HETATM   14  C   UNL     1      -9.732  11.057  65.175  1.00  0.00    -0.254 C  
BRANCH  14  15
HETATM   15  O   UNL     1     -10.686  11.072  66.258  1.00  0.00    -0.260 OA 
BRANCH  15  16
HETATM   16  C   UNL     1     -10.327  11.783  67.360  1.00  0.00    -0.204 C  
HETATM   17  O   UNL     1      -9.206  11.832  67.843  1.00  0.00    -0.168 OA 
BRANCH  16  18
HETATM   18  C   UNL     1     -11.531  12.491  67.929  1.00  0.00    -0.369 C  
BRANCH  18  19
HETATM   19  C   UNL     1     -11.131  13.661  68.821  1.00  0.00    -0.302 C  
BRANCH  19  20
HETATM   20  C   UNL     1     -12.262  14.677  69.019  1.00  0.00    -0.199 C  
BRANCH  20  21
HETATM   21  C   UNL     1     -12.492  14.900  70.492  1.00  0.00    -0.419 A  
HETATM   22  C   UNL     1     -13.044  15.508  73.169  1.00  0.00    -0.656 A  
HETATM   23  C   UNL     1     -11.607  15.691  71.236  1.00  0.00    -0.485 A  
HETATM   24  C   UNL     1     -13.645  14.399  71.110  1.00  0.00    -0.338 A  
HETATM   25  C   UNL     1     -11.884  15.992  72.571  1.00  0.00    -0.630 A  
HETATM   26  C   UNL     1     -13.921  14.704  72.443  1.00  0.00    -0.578 A  
ENDBRANCH  20  21
ENDBRANCH  19  20
ENDBRANCH  18  19
ENDBRANCH  16  18
ENDBRANCH  15  16
ENDBRANCH  14  15
BRANCH  14  27
HETATM   27  C   UNL     1     -10.423  11.640  63.937  1.00  0.00    -0.382 C  
BRANCH  27  28
HETATM   28  O   UNL     1     -10.638  13.052  64.073  1.00  0.00    -0.412 OA 
BRANCH  28  29
HETATM   29  C   UNL     1     -11.946  13.424  64.162  1.00  0.00    -0.450 C  
HETATM   30  O   UNL     1     -12.890  12.764  63.750  1.00  0.00    -0.695 OA 
BRANCH  29  31
HETATM   31  C   UNL     1     -12.061  14.760  64.850  1.00  0.00    -0.335 C  
BRANCH  31  32
HETATM   32  C   UNL     1     -10.730  15.503  64.869  1.00  0.00    -0.415 C  
BRANCH  32  33
HETATM   33  C   UNL     1     -10.118  15.596  66.274  1.00  0.00    -0.316 C  
BRANCH  33  34
HETATM   34  C   UNL     1     -10.241  17.002  66.804  1.00  0.00    -0.298 A  
HETATM   35  C   UNL     1     -10.289  19.635  67.758  1.00  0.00    -0.586 A  
HETATM   36  C   UNL     1     -10.453  18.071  65.923  1.00  0.00    -0.268 A  
HETATM   37  C   UNL     1     -10.477  19.382  66.399  1.00  0.00    -0.581 A  
HETATM   38  C   UNL     1     -10.090  18.576  68.642  1.00  0.00    -0.406 A  
HETATM   39  C   UNL     1     -10.067  17.265  68.168  1.00  0.00    -0.325 A  
ENDBRANCH  33  34
ENDBRANCH  32  33
ENDBRANCH  31  32
ENDBRANCH  29  31
ENDBRANCH  28  29
ENDBRANCH  27  28
ENDBRANCH  14  27
ENDBRANCH  13  14
ENDBRANCH  12  13
ENDBRANCH   2  12
TORSDOF 20
ENDMDL
MODEL        8
REMARK 921   NORMALIZED FREE ENERGY PREDICTED BY IDOCK:   -6.16 KCAL/MOL
REMARK 922        TOTAL FREE ENERGY PREDICTED BY IDOCK:  -18.05 KCAL/MOL
REMARK 923 INTER-LIGAND FREE ENERGY PREDICTED BY IDOCK:  -10.35 KCAL/MOL
REMARK 924 INTRA-LIGAND FREE ENERGY PREDICTED BY IDOCK:   -7.70 KCAL/MOL
REMARK 927      BINDING AFFINITY PREDICTED BY RF-SCORE:    0.00 PKD
ROOT
HETATM    1  O   UNL     1     -13.363  12.362  64.547  1.00  0.00    -0.800 OA 
HETATM    2  C   UNL     1     -12.156  12.545  64.478  1.00  0.00    -0.425 C  
ENDROOT
BRANCH   2   3
HETATM    3  C   UNL     1     -11.231  11.777  63.565  1.00  0.00    -0.494 C  
BRANCH   3   4
HETATM    4  C   UNL     1     -10.157  11.012  64.339  1.00  0.00    -0.393 C  
BRANCH   4   5
HETATM    5  C   UNL     1      -9.432   9.983  63.465  1.00  0.00    -0.241 C  
BRANCH   5   6
HETATM    6  C   UNL     1      -8.105   9.574  64.054  1.00  0.00    -0.152 A  
HETATM    7  C   UNL     1      -7.592   8.290  63.817  1.00  0.00    -0.134 A  
HETATM    8  C   UNL     1      -5.649   8.797  65.160  1.00  0.00    -0.047 A  
HETATM    9  C   UNL     1      -6.369   7.906  64.366  1.00  0.00    -0.056 A  
HETATM   10  C   UNL     1      -7.376  10.459  64.857  1.00  0.00    -0.059 A  
HETATM   11  C   UNL     1      -6.152  10.073  65.405  1.00  0.00    -0.093 A  
ENDBRANCH   5   6
ENDBRANCH   4   5
ENDBRANCH   3   4
ENDBRANCH   2   3
BRANCH   2  12
HETATM   12  O   UNL     1     -11.455  13.458  65.206  1.00  0.00    -0.294 OA 
BRANCH  12  13
HETATM   13  C   UNL     1     -12.186  14.166  66.226  1.00  0.00    -0.449 C  
BRANCH  13  14
HETATM   14  C   UNL     1     -11.423  14.107  67.552  1.00  0.00    -0.340 C  
BRANCH  14  15
HETATM   15  O   UNL     1     -10.017  13.935  67.275  1.00  0.00    -0.237 OA 
BRANCH  15  16
HETATM   16  C   UNL     1      -9.164  14.296  68.271  1.00  0.00    -0.197 C  
HETATM   17  O   UNL     1      -9.271  15.287  68.977  1.00  0.00    -0.197 OA 
BRANCH  16  18
HETATM   18  C   UNL     1      -8.033  13.303  68.363  1.00  0.00    -0.132 C  
BRANCH  18  19
HETATM   19  C   UNL     1      -8.428  11.941  67.801  1.00  0.00    -0.154 C  
BRANCH  19  20
HETATM   20  C   UNL     1      -8.203  10.795  68.793  1.00  0.00    -0.145 C  
BRANCH  20  21
HETATM   21  C   UNL     1      -8.636   9.492  68.171  1.00  0.00    -0.120 A  
HETATM   22  C   UNL     1      -9.334   7.144  66.815  1.00  0.00    -0.199 A  
HETATM   23  C   UNL     1      -9.859   9.402  67.494  1.00  0.00    -0.220 A  
HETATM   24  C   UNL     1      -7.776   8.385  68.180  1.00  0.00    -0.103 A  
HETATM   25  C   UNL     1     -10.205   8.230  66.820  1.00  0.00    -0.375 A  
HETATM   26  C   UNL     1      -8.124   7.217  67.503  1.00  0.00    -0.113 A  
ENDBRANCH  20  21
ENDBRANCH  19  20
ENDBRANCH  18  19
ENDBRANCH  16  18
ENDBRANCH  15  16
ENDBRANCH  14  15
BRANCH  14  27
HETATM   27  C   UNL     1     -11.880  12.915  68.400  1.00  0.00    -0.318 C  
BRANCH  27  28
HETATM   28  O   UNL     1     -12.164  13.309  69.751  1.00  0.00    -0.290 OA 
BRANCH  28  29
HETATM   29  C   UNL     1     -12.402  12.277  70.608  1.00  0.00    -0.286 C  
HETATM   30  O   UNL     1     -13.061  12.358  71.634  1.00  0.00    -0.404 OA 
BRANCH  29  31
HETATM   31  C   UNL     1     -11.741  11.020  70.103  1.00  0.00    -0.442 C  
BRANCH  31  32
HETATM   32  C   UNL     1     -11.776   9.904  71.142  1.00  0.00    -0.478 C  
BRANCH  32  33
HETATM   33  C   UNL     1     -10.385   9.336  71.454  1.00  0.00    -0.392 C  
BRANCH  33  34
HETATM   34  C   UNL     1     -10.299   7.897  71.013  1.00  0.00    -0.221 A  
HETATM   35  C   UNL     1     -10.052   5.282  70.041  1.00  0.00    -0.336 A  
HETATM   36  C   UNL     1      -9.159   7.137  71.306  1.00  0.00    -0.151 A  
HETATM   37  C   UNL     1      -9.038   5.834  70.822  1.00  0.00    -0.161 A  
HETATM   38  C   UNL     1     -11.195   6.027  69.756  1.00  0.00    -0.440 A  
HETATM   39  C   UNL     1     -11.319   7.329  70.239  1.00  0.00    -0.266 A  
ENDBRANCH  33  34
ENDBRANCH  32  33
ENDBRANCH  31  32
ENDBRANCH  29  31
ENDBRANCH  28  29
ENDBRANCH  27  28
ENDBRANCH  14  27
ENDBRANCH  13  14
ENDBRANCH  12  13
ENDBRANCH   2  12
TORSDOF 20
ENDMDL
MODEL        9
REMARK 921   NORMALIZED FREE ENERGY PREDICTED BY IDOCK:   -6.15 KCAL/MOL
REMARK 922        TOTAL FREE ENERGY PREDICTED BY IDOCK:  -18.02 KCAL/MOL
REMARK 923 INTER-LIGAND FREE ENERGY PREDICTED BY IDOCK:  -12.21 KCAL/MOL
REMARK 924 INTRA-LIGAND FREE ENERGY PREDICTED BY IDOCK:   -5.81 KCAL/MOL
REMARK 927      BINDING AFFINITY PREDICTED BY RF-SCORE:    0.00 PKD
ROOT
HETATM    1  O   UNL     1     -11.693  16.419  63.669  1.00  0.00    -0.933 OA 
HETATM    2  C   UNL     1     -11.255  15.860  64.664  1.00  0.00    -0.351 C  
ENDROOT
BRANCH   2   3
HETATM    3  C   UNL     1     -11.849  14.609  65.266  1.00  0.00    -0.324 C  
BRANCH   3   4
HETATM    4  C   UNL     1     -10.779  13.578  65.631  1.00  0.00    -0.284 C  
BRANCH   4   5
HETATM    5  C   UNL     1     -11.301  12.521  66.610  1.00  0.00    -0.389 C  
BRANCH   5   6
HETATM    6  C   UNL     1     -10.675  11.170  66.370  1.00  0.00    -0.303 A  
HETATM    7  C   UNL     1      -9.931  10.932  65.206  1.00  0.00    -0.330 A  
HETATM    8  C   UNL     1      -9.523   8.655  65.907  1.00  0.00    -0.243 A  
HETATM    9  C   UNL     1      -9.356   9.681  64.978  1.00  0.00    -0.319 A  
HETATM   10  C   UNL     1     -10.841  10.131  67.295  1.00  0.00    -0.295 A  
HETATM   11  C   UNL     1     -10.266   8.881  67.066  1.00  0.00    -0.345 A  
ENDBRANCH   5   6
ENDBRANCH   4   5
ENDBRANCH   3   4
ENDBRANCH   2   3
BRANCH   2  12
HETATM   12  O   UNL     1     -10.175  16.269  65.385  1.00  0.00    -0.518 OA 
BRANCH  12  13
HETATM   13  C   UNL     1     -10.397  17.335  66.328  1.00  0.00    -0.322 C  
BRANCH  13  14
HETATM   14  C   UNL     1      -9.944  16.899  67.725  1.00  0.00    -0.278 C  
BRANCH  14  15
HETATM   15  O   UNL     1      -8.946  15.865  67.592  1.00  0.00    -0.187 OA 
BRANCH  15  16
HETATM   16  C   UNL     1      -7.761  16.096  68.217  1.00  0.00    -0.148 C  
HETATM   17  O   UNL     1      -7.512  17.045  68.945  1.00  0.00    -0.230 OA 
BRANCH  16  18
HETATM   18  C   UNL     1      -6.773  15.015  67.857  1.00  0.00    -0.172 C  
BRANCH  18  19
HETATM   19  C   UNL     1      -6.911  13.797  68.763  1.00  0.00    -0.106 C  
BRANCH  19  20
HETATM   20  C   UNL     1      -7.994  12.819  68.292  1.00  0.00    -0.151 C  
BRANCH  20  21
HETATM   21  C   UNL     1      -7.460  11.410  68.335  1.00  0.00    -0.111 A  
HETATM   22  C   UNL     1      -6.665   8.726  68.298  1.00  0.00    -0.065 A  
HETATM   23  C   UNL     1      -7.788  10.560  69.398  1.00  0.00    -0.151 A  
HETATM   24  C   UNL     1      -6.711  10.907  67.263  1.00  0.00    -0.082 A  
HETATM   25  C   UNL     1      -7.390   9.222  69.378  1.00  0.00    -0.077 A  
HETATM   26  C   UNL     1      -6.316   9.569  67.244  1.00  0.00    -0.069 A  
ENDBRANCH  20  21
ENDBRANCH  19  20
ENDBRANCH  18  19
ENDBRANCH  16  18
ENDBRANCH  15  16
ENDBRANCH  14  15
BRANCH  14  27
HETATM   27  C   UNL     1     -11.114  16.318  68.529  1.00  0.00    -0.368 C  
BRANCH  27  28
HETATM   28  O   UNL     1     -10.846  16.344  69.938  1.00  0.00    -0.344 OA 
BRANCH  28  29
HETATM   29  C   UNL     1     -11.755  15.677  70.703  1.00  0.00    -0.369 C  
HETATM   30  O   UNL     1     -12.108  16.015  71.824  1.00  0.00    -0.447 OA 
BRANCH  29  31
HETATM   31  C   UNL     1     -12.269  14.468  69.964  1.00  0.00    -0.396 C  
BRANCH  31  32
HETATM   32  C   UNL     1     -12.211  13.210  70.824  1.00  0.00    -0.375 C  
BRANCH  32  33
HETATM   33  C   UNL     1     -11.792  11.964  70.033  1.00  0.00    -0.407 C  
BRANCH  33  34
HETATM   34  C   UNL     1     -11.936  10.732  70.888  1.00  0.00    -0.438 A  
HETATM   35  C   UNL     1     -12.261   8.350  72.325  1.00  0.00    -0.449 A  
HETATM   36  C   UNL     1     -10.887   9.806  70.972  1.00  0.00    -0.378 A  
HETATM   37  C   UNL     1     -11.050   8.620  71.689  1.00  0.00    -0.375 A  
HETATM   38  C   UNL     1     -13.305   9.271  72.255  1.00  0.00    -0.547 A  
HETATM   39  C   UNL     1     -13.144  10.457  71.541  1.00  0.00    -0.532 A  
ENDBRANCH  33  34
ENDBRANCH  32  33
ENDBRANCH  31  32
ENDBRANCH  29  31
ENDBRANCH  28  29
ENDBRANCH  27  28
ENDBRANCH  14  27
ENDBRANCH  13  14
ENDBRANCH  12  13
ENDBRANCH   2  12
TORSDOF 20
ENDMDL
MODEL       10
REMARK 921   NORMALIZED FREE ENERGY PREDICTED BY IDOCK:   -6.14 KCAL/MOL
REMARK 922        TOTAL FREE ENERGY PREDICTED BY IDOCK:  -17.99 KCAL/MOL
REMARK 923 INTER-LIGAND FREE ENERGY PREDICTED BY IDOCK:  -13.71 KCAL/MOL
REMARK 924 INTRA-LIGAND FREE ENERGY PREDICTED BY IDOCK:   -4.28 KCAL/MOL
REMARK 927      BINDING AFFINITY PREDICTED BY RF-SCORE:    0.00 PKD
ROOT
HETATM    1  O   UNL     1     -11.571  16.616  63.980  1.00  0.00    -1.197 OA 
HETATM    2  C   UNL     1     -11.077  15.840  64.787  1.00  0.00    -0.400 C  
ENDROOT
BRANCH   2   3
HETATM    3  C   UNL     1     -10.033  16.225  65.806  1.00  0.00    -0.353 C  
BRANCH   3   4
HETATM    4  C   UNL     1     -10.547  17.275  66.793  1.00  0.00    -0.192 C  
BRANCH   4   5
HETATM    5  C   UNL     1     -10.210  18.703  66.350  1.00  0.00    -0.461 C  
BRANCH   5   6
HETATM    6  C   UNL     1      -8.941  19.209  66.987  1.00  0.00    -0.327 A  
HETATM    7  C   UNL     1      -8.667  18.933  68.334  1.00  0.00    -0.380 A  
HETATM    8  C   UNL     1      -6.591  20.160  68.186  1.00  0.00    -0.327 A  
HETATM    9  C   UNL     1      -7.496  19.405  68.929  1.00  0.00    -0.399 A  
HETATM   10  C   UNL     1      -8.026  19.973  66.251  1.00  0.00    -0.323 A  
HETATM   11  C   UNL     1      -6.856  20.444  66.847  1.00  0.00    -0.307 A  
ENDBRANCH   5   6
ENDBRANCH   4   5
ENDBRANCH   3   4
ENDBRANCH   2   3
BRANCH   2  12
HETATM   12  O   UNL     1     -11.383  14.517  64.895  1.00  0.00    -0.357 OA 
BRANCH  12  13
HETATM   13  C   UNL     1     -12.313  14.154  65.933  1.00  0.00    -0.463 C  
BRANCH  13  14
HETATM   14  C   UNL     1     -11.579  13.420  67.058  1.00  0.00    -0.356 C  
BRANCH  14  15
HETATM   15  O   UNL     1     -11.954  12.026  67.030  1.00  0.00    -0.609 OA 
BRANCH  15  16
HETATM   16  C   UNL     1     -11.004  11.161  66.584  1.00  0.00    -0.228 C  
HETATM   17  O   UNL     1     -10.720  10.956  65.414  1.00  0.00    -0.219 OA 
BRANCH  16  18
HETATM   18  C   UNL     1     -10.361  10.458  67.753  1.00  0.00    -0.245 C  
BRANCH  18  19
HETATM   19  C   UNL     1      -9.726   9.135  67.339  1.00  0.00    -0.211 C  
BRANCH  19  20
HETATM   20  C   UNL     1     -10.721   7.969  67.333  1.00  0.00    -0.260 C  
BRANCH  20  21
HETATM   21  C   UNL     1     -10.288   6.927  68.333  1.00  0.00    -0.213 A  
HETATM   22  C   UNL     1      -9.441   5.169  70.341  1.00  0.00    -0.229 A  
HETATM   23  C   UNL     1      -8.944   6.540  68.415  1.00  0.00    -0.125 A  
HETATM   24  C   UNL     1     -11.206   6.406  69.253  1.00  0.00    -0.440 A  
HETATM   25  C   UNL     1      -8.524   5.663  69.417  1.00  0.00    -0.106 A  
HETATM   26  C   UNL     1     -10.784   5.532  70.254  1.00  0.00    -0.333 A  
ENDBRANCH  20  21
ENDBRANCH  19  20
ENDBRANCH  18  19
ENDBRANCH  16  18
ENDBRANCH  15  16
ENDBRANCH  14  15
BRANCH  14  27
HETATM   27  C   UNL     1     -11.970  13.979  68.431  1.00  0.00    -0.343 C  
BRANCH  27  28
HETATM   28  O   UNL     1     -11.893  12.972  69.450  1.00  0.00    -0.306 OA 
BRANCH  28  29
HETATM   29  C   UNL     1     -12.396  13.346  70.660  1.00  0.00    -0.348 C  
HETATM   30  O   UNL     1     -12.426  14.494  71.081  1.00  0.00    -0.298 OA 
BRANCH  29  31
HETATM   31  C   UNL     1     -12.918  12.140  71.400  1.00  0.00    -0.357 C  
BRANCH  31  32
HETATM   32  C   UNL     1     -12.658  10.849  70.633  1.00  0.00    -0.435 C  
BRANCH  32  33
HETATM   33  C   UNL     1     -12.811   9.596  71.505  1.00  0.00    -0.485 C  
BRANCH  33  34
HETATM   34  C   UNL     1     -11.457   9.045  71.869  1.00  0.00    -0.440 A  
HETATM   35  C   UNL     1      -8.963   7.892  72.417  1.00  0.00    -0.219 A  
HETATM   36  C   UNL     1     -10.317   9.449  71.160  1.00  0.00    -0.377 A  
HETATM   37  C   UNL     1      -9.076   8.875  71.434  1.00  0.00    -0.318 A  
HETATM   38  C   UNL     1     -10.089   7.493  73.135  1.00  0.00    -0.362 A  
HETATM   39  C   UNL     1     -11.331   8.067  72.864  1.00  0.00    -0.364 A  
ENDBRANCH  33  34
ENDBRANCH  32  33
ENDBRANCH  31  32
ENDBRANCH  29  31
ENDBRANCH  28  29
ENDBRANCH  27  28
ENDBRANCH  14  27
ENDBRANCH  13  14
ENDBRANCH  12  13
ENDBRANCH   2  12
TORSDOF 20
ENDMDL
MODEL       11
REMARK 921   NORMALIZED FREE ENERGY PREDICTED BY IDOCK:   -6.12 KCAL/MOL
REMARK 922        TOTAL FREE ENERGY PREDICTED BY IDOCK:  -17.96 KCAL/MOL
REMARK 923 INTER-LIGAND FREE ENERGY PREDICTED BY IDOCK:  -13.07 KCAL/MOL
REMARK 924 INTRA-LIGAND FREE ENERGY PREDICTED BY IDOCK:   -4.89 KCAL/MOL
REMARK 927      BINDING AFFINITY PREDICTED BY RF-SCORE:    0.00 PKD
ROOT
HETATM    1  O   UNL     1     -13.385  11.788  72.193  1.00  0.00    -0.497 OA 
HETATM    2  C   UNL     1     -13.260  10.718  71.613  1.00  0.00    -0.383 C  
ENDROOT
BRANCH   2   3
HETATM    3  C   UNL     1     -13.645   9.383  72.204  1.00  0.00    -0.528 C  
BRANCH   3   4
HETATM    4  C   UNL     1     -12.455   8.425  72.292  1.00  0.00    -0.417 C  
BRANCH   4   5
HETATM    5  C   UNL     1     -12.566   7.267  71.293  1.00  0.00    -0.402 C  
BRANCH   5   6
HETATM    6  C   UNL     1     -11.609   6.148  71.616  1.00  0.00    -0.317 A  
HETATM    7  C   UNL     1     -11.522   5.647  72.923  1.00  0.00    -0.297 A  
HETATM    8  C   UNL     1      -9.820   4.077  72.229  1.00  0.00    -0.224 A  
HETATM    9  C   UNL     1     -10.632   4.615  73.226  1.00  0.00    -0.284 A  
HETATM   10  C   UNL     1     -10.785   5.603  70.623  1.00  0.00    -0.333 A  
HETATM   11  C   UNL     1      -9.897   4.572  70.928  1.00  0.00    -0.269 A  
ENDBRANCH   5   6
ENDBRANCH   4   5
ENDBRANCH   3   4
ENDBRANCH   2   3
BRANCH   2  12
HETATM   12  O   UNL     1     -12.757  10.557  70.358  1.00  0.00    -0.331 OA 
BRANCH  12  13
HETATM   13  C   UNL     1     -11.951  11.634  69.844  1.00  0.00    -0.340 C  
BRANCH  13  14
HETATM   14  C   UNL     1     -11.696  11.427  68.348  1.00  0.00    -0.303 C  
BRANCH  14  15
HETATM   15  O   UNL     1     -10.362  10.905  68.169  1.00  0.00    -0.167 OA 
BRANCH  15  16
HETATM   16  C   UNL     1     -10.274   9.673  67.600  1.00  0.00    -0.216 C  
HETATM   17  O   UNL     1     -10.222   9.444  66.401  1.00  0.00    -0.268 OA 
BRANCH  16  18
HETATM   18  C   UNL     1     -10.280   8.612  68.671  1.00  0.00    -0.214 C  
BRANCH  18  19
HETATM   19  C   UNL     1      -9.038   8.689  69.552  1.00  0.00    -0.146 C  
BRANCH  19  20
HETATM   20  C   UNL     1      -9.351   9.090  70.998  1.00  0.00    -0.339 C  
BRANCH  20  21
HETATM   21  C   UNL     1      -8.582   8.207  71.948  1.00  0.00    -0.202 A  
HETATM   22  C   UNL     1      -7.315   6.398  73.668  1.00  0.00    -0.086 A  
HETATM   23  C   UNL     1      -8.913   8.173  73.308  1.00  0.00    -0.332 A  
HETATM   24  C   UNL     1      -7.594   7.340  71.462  1.00  0.00    -0.086 A  
HETATM   25  C   UNL     1      -8.279   7.271  74.164  1.00  0.00    -0.188 A  
HETATM   26  C   UNL     1      -6.964   6.438  72.319  1.00  0.00    -0.074 A  
ENDBRANCH  20  21
ENDBRANCH  19  20
ENDBRANCH  18  19
ENDBRANCH  16  18
ENDBRANCH  15  16
ENDBRANCH  14  15
BRANCH  14  27
HETATM   27  C   UNL     1     -11.784  12.753  67.583  1.00  0.00    -0.367 C  
BRANCH  27  28
HETATM   28  O   UNL     1     -11.817  12.539  66.165  1.00  0.00    -0.398 OA 
BRANCH  28  29
HETATM   29  C   UNL     1     -11.958  13.672  65.421  1.00  0.00    -0.378 C  
HETATM   30  O   UNL     1     -13.027  14.147  65.065  1.00  0.00    -0.721 OA 
BRANCH  29  31
HETATM   31  C   UNL     1     -10.605  14.259  65.108  1.00  0.00    -0.423 C  
BRANCH  31  32
HETATM   32  C   UNL     1     -10.575  15.766  65.336  1.00  0.00    -0.441 C  
BRANCH  32  33
HETATM   33  C   UNL     1     -10.574  16.144  66.824  1.00  0.00    -0.277 C  
BRANCH  33  34
HETATM   34  C   UNL     1     -10.402  17.633  66.983  1.00  0.00    -0.330 A  
HETATM   35  C   UNL     1      -9.902  20.377  67.245  1.00  0.00    -0.597 A  
HETATM   36  C   UNL     1     -10.439  18.471  65.860  1.00  0.00    -0.379 A  
HETATM   37  C   UNL     1     -10.190  19.837  65.991  1.00  0.00    -0.600 A  
HETATM   38  C   UNL     1      -9.875  19.552  68.368  1.00  0.00    -0.521 A  
HETATM   39  C   UNL     1     -10.125  18.186  68.239  1.00  0.00    -0.398 A  
ENDBRANCH  33  34
ENDBRANCH  32  33
ENDBRANCH  31  32
ENDBRANCH  29  31
ENDBRANCH  28  29
ENDBRANCH  27  28
ENDBRANCH  14  27
ENDBRANCH  13  14
ENDBRANCH  12  13
ENDBRANCH   2  12
TORSDOF 20
ENDMDL
MODEL       12
REMARK 921   NORMALIZED FREE ENERGY PREDICTED BY IDOCK:   -6.11 KCAL/MOL
REMARK 922        TOTAL FREE ENERGY PREDICTED BY IDOCK:  -17.94 KCAL/MOL
REMARK 923 INTER-LIGAND FREE ENERGY PREDICTED BY IDOCK:  -14.24 KCAL/MOL
REMARK 924 INTRA-LIGAND FREE ENERGY PREDICTED BY IDOCK:   -3.70 KCAL/MOL
REMARK 927      BINDING AFFINITY PREDICTED BY RF-SCORE:    0.00 PKD
ROOT
HETATM    1  O   UNL     1     -13.234  12.608  64.742  1.00  0.00    -0.846 OA 
HETATM    2  C   UNL     1     -12.253  13.330  64.858  1.00  0.00    -0.420 C  
ENDROOT
BRANCH   2   3
HETATM    3  C   UNL     1     -10.930  13.082  64.174  1.00  0.00    -0.438 C  
BRANCH   3   4
HETATM    4  C   UNL     1     -10.715  11.603  63.851  1.00  0.00    -0.459 C  
BRANCH   4   5
HETATM    5  C   UNL     1      -9.472  11.032  64.544  1.00  0.00    -0.269 C  
BRANCH   5   6
HETATM    6  C   UNL     1      -9.831  10.085  65.661  1.00  0.00    -0.363 A  
HETATM    7  C   UNL     1     -10.641  10.517  66.721  1.00  0.00    -0.284 A  
HETATM    8  C   UNL     1     -10.489   8.337  67.752  1.00  0.00    -0.280 A  
HETATM    9  C   UNL     1     -10.969   9.645  67.760  1.00  0.00    -0.203 A  
HETATM   10  C   UNL     1      -9.350   8.770  65.666  1.00  0.00    -0.219 A  
HETATM   11  C   UNL     1      -9.679   7.900  66.705  1.00  0.00    -0.303 A  
ENDBRANCH   5   6
ENDBRANCH   4   5
ENDBRANCH   3   4
ENDBRANCH   2   3
BRANCH   2  12
HETATM   12  O   UNL     1     -12.194  14.461  65.615  1.00  0.00    -0.384 OA 
BRANCH  12  13
HETATM   13  C   UNL     1     -12.243  14.282  67.044  1.00  0.00    -0.303 C  
BRANCH  13  14
HETATM   14  C   UNL     1     -11.128  15.094  67.710  1.00  0.00    -0.313 C  
BRANCH  14  15
HETATM   15  O   UNL     1     -10.204  14.187  68.346  1.00  0.00    -0.234 OA 
BRANCH  15  16
HETATM   16  C   UNL     1      -9.089  13.874  67.634  1.00  0.00    -0.197 C  
HETATM   17  O   UNL     1      -8.415  12.864  67.773  1.00  0.00    -0.159 OA 
BRANCH  16  18
HETATM   18  C   UNL     1      -8.778  14.977  66.655  1.00  0.00    -0.289 C  
BRANCH  18  19
HETATM   19  C   UNL     1      -7.585  15.814  67.104  1.00  0.00    -0.259 C  
BRANCH  19  20
HETATM   20  C   UNL     1      -7.500  17.168  66.392  1.00  0.00    -0.341 C  
BRANCH  20  21
HETATM   21  C   UNL     1      -8.509  18.118  66.985  1.00  0.00    -0.254 A  
HETATM   22  C   UNL     1     -10.509  19.691  68.154  1.00  0.00    -0.503 A  
HETATM   23  C   UNL     1      -9.597  18.563  66.223  1.00  0.00    -0.279 A  
HETATM   24  C   UNL     1      -8.423  18.487  68.334  1.00  0.00    -0.352 A  
HETATM   25  C   UNL     1     -10.592  19.348  66.808  1.00  0.00    -0.574 A  
HETATM   26  C   UNL     1      -9.420  19.269  68.916  1.00  0.00    -0.437 A  
ENDBRANCH  20  21
ENDBRANCH  19  20
ENDBRANCH  18  19
ENDBRANCH  16  18
ENDBRANCH  15  16
ENDBRANCH  14  15
BRANCH  14  27
HETATM   27  C   UNL     1     -11.692  16.022  68.793  1.00  0.00    -0.299 C  
BRANCH  27  28
HETATM   28  O   UNL     1     -11.086  15.768  70.069  1.00  0.00    -0.282 OA 
BRANCH  28  29
HETATM   29  C   UNL     1     -11.963  15.680  71.108  1.00  0.00    -0.409 C  
HETATM   30  O   UNL     1     -11.854  16.281  72.167  1.00  0.00    -0.507 OA 
BRANCH  29  31
HETATM   31  C   UNL     1     -13.091  14.743  70.759  1.00  0.00    -0.389 C  
BRANCH  31  32
HETATM   32  C   UNL     1     -12.885  13.359  71.364  1.00  0.00    -0.420 C  
BRANCH  32  33
HETATM   33  C   UNL     1     -12.284  12.356  70.371  1.00  0.00    -0.370 C  
BRANCH  33  34
HETATM   34  C   UNL     1     -12.247  10.978  70.979  1.00  0.00    -0.456 A  
HETATM   35  C   UNL     1     -12.121   8.494  72.269  1.00  0.00    -0.455 A  
HETATM   36  C   UNL     1     -13.353  10.490  71.688  1.00  0.00    -0.423 A  
HETATM   37  C   UNL     1     -13.290   9.253  72.329  1.00  0.00    -0.547 A  
HETATM   38  C   UNL     1     -11.021   8.967  71.556  1.00  0.00    -0.398 A  
HETATM   39  C   UNL     1     -11.082  10.202  70.913  1.00  0.00    -0.326 A  
ENDBRANCH  33  34
ENDBRANCH  32  33
ENDBRANCH  31  32
ENDBRANCH  29  31
ENDBRANCH  28  29
ENDBRANCH  27  28
ENDBRANCH  14  27
ENDBRANCH  13  14
ENDBRANCH  12  13
ENDBRANCH   2  12
TORSDOF 20
ENDMDL
MODEL       13
REMARK 921   NORMALIZED FREE ENERGY PREDICTED BY IDOCK:   -6.11 KCAL/MOL
REMARK 922        TOTAL FREE ENERGY PREDICTED BY IDOCK:  -17.93 KCAL/MOL
REMARK 923 INTER-LIGAND FREE ENERGY PREDICTED BY IDOCK:  -13.58 KCAL/MOL
REMARK 924 INTRA-LIGAND FREE ENERGY PREDICTED BY IDOCK:   -4.34 KCAL/MOL
REMARK 927      BINDING AFFINITY PREDICTED BY RF-SCORE:    0.00 PKD
ROOT
HETATM    1  O   UNL     1     -12.737  14.210  70.919  1.00  0.00    -0.330 OA 
HETATM    2  C   UNL     1     -12.388  13.114  70.504  1.00  0.00    -0.304 C  
ENDROOT
BRANCH   2   3
HETATM    3  C   UNL     1     -12.665  11.810  71.212  1.00  0.00    -0.420 C  
BRANCH   3   4
HETATM    4  C   UNL     1     -12.284  10.597  70.361  1.00  0.00    -0.432 C  
BRANCH   4   5
HETATM    5  C   UNL     1     -12.532   9.273  71.093  1.00  0.00    -0.341 C  
BRANCH   5   6
HETATM    6  C   UNL     1     -11.283   8.749  71.753  1.00  0.00    -0.410 A  
HETATM    7  C   UNL     1     -10.020   9.173  71.316  1.00  0.00    -0.373 A  
HETATM    8  C   UNL     1      -8.953   7.765  72.964  1.00  0.00    -0.256 A  
HETATM    9  C   UNL     1      -8.861   8.684  71.921  1.00  0.00    -0.275 A  
HETATM   10  C   UNL     1     -11.363   7.821  72.800  1.00  0.00    -0.446 A  
HETATM   11  C   UNL     1     -10.203   7.333  73.403  1.00  0.00    -0.394 A  
ENDBRANCH   5   6
ENDBRANCH   4   5
ENDBRANCH   3   4
ENDBRANCH   2   3
BRANCH   2  12
HETATM   12  O   UNL     1     -11.699  12.892  69.350  1.00  0.00    -0.292 OA 
BRANCH  12  13
HETATM   13  C   UNL     1     -11.875  13.861  68.299  1.00  0.00    -0.376 C  
BRANCH  13  14
HETATM   14  C   UNL     1     -11.931  13.153  66.942  1.00  0.00    -0.362 C  
BRANCH  14  15
HETATM   15  O   UNL     1     -10.624  12.626  66.634  1.00  0.00    -0.245 OA 
BRANCH  15  16
HETATM   16  C   UNL     1     -10.581  11.324  66.244  1.00  0.00    -0.263 C  
HETATM   17  O   UNL     1     -10.658  10.923  65.092  1.00  0.00    -0.269 OA 
BRANCH  16  18
HETATM   18  C   UNL     1     -10.453  10.431  67.451  1.00  0.00    -0.299 C  
BRANCH  18  19
HETATM   19  C   UNL     1      -9.730   9.130  67.119  1.00  0.00    -0.236 C  
BRANCH  19  20
HETATM   20  C   UNL     1     -10.652   7.905  67.154  1.00  0.00    -0.383 C  
BRANCH  20  21
HETATM   21  C   UNL     1     -10.181   6.945  68.216  1.00  0.00    -0.201 A  
HETATM   22  C   UNL     1      -9.309   5.345  70.342  1.00  0.00    -0.203 A  
HETATM   23  C   UNL     1      -8.812   6.763  68.450  1.00  0.00    -0.122 A  
HETATM   24  C   UNL     1     -11.109   6.300  69.046  1.00  0.00    -0.446 A  
HETATM   25  C   UNL     1      -8.380   5.964  69.510  1.00  0.00    -0.114 A  
HETATM   26  C   UNL     1     -10.673   5.504  70.105  1.00  0.00    -0.348 A  
ENDBRANCH  20  21
ENDBRANCH  19  20
ENDBRANCH  18  19
ENDBRANCH  16  18
ENDBRANCH  15  16
ENDBRANCH  14  15
BRANCH  14  27
HETATM   27  C   UNL     1     -12.315  14.130  65.824  1.00  0.00    -0.461 C  
BRANCH  27  28
HETATM   28  O   UNL     1     -11.160  14.584  65.104  1.00  0.00    -0.330 OA 
BRANCH  28  29
HETATM   29  C   UNL     1     -11.135  15.923  64.852  1.00  0.00    -0.389 C  
HETATM   30  O   UNL     1     -11.597  16.455  63.853  1.00  0.00    -1.100 OA 
BRANCH  29  31
HETATM   31  C   UNL     1     -10.462  16.652  65.987  1.00  0.00    -0.306 C  
BRANCH  31  32
HETATM   32  C   UNL     1     -10.555  18.165  65.823  1.00  0.00    -0.186 C  
BRANCH  32  33
HETATM   33  C   UNL     1     -10.604  18.909  67.164  1.00  0.00    -0.531 C  
BRANCH  33  34
HETATM   34  C   UNL     1      -9.232  19.416  67.528  1.00  0.00    -0.375 A  
HETATM   35  C   UNL     1      -6.612  20.206  68.125  1.00  0.00    -0.327 A  
HETATM   36  C   UNL     1      -8.492  20.171  66.608  1.00  0.00    -0.343 A  
HETATM   37  C   UNL     1      -7.188  20.565  66.907  1.00  0.00    -0.344 A  
HETATM   38  C   UNL     1      -7.345  19.464  69.050  1.00  0.00    -0.395 A  
HETATM   39  C   UNL     1      -8.650  19.071  68.755  1.00  0.00    -0.356 A  
ENDBRANCH  33  34
ENDBRANCH  32  33
ENDBRANCH  31  32
ENDBRANCH  29  31
ENDBRANCH  28  29
ENDBRANCH  27  28
ENDBRANCH  14  27
ENDBRANCH  13  14
ENDBRANCH  12  13
ENDBRANCH   2  12
TORSDOF 20
ENDMDL
MODEL       14
REMARK 921   NORMALIZED FREE ENERGY PREDICTED BY IDOCK:   -6.09 KCAL/MOL
REMARK 922        TOTAL FREE ENERGY PREDICTED BY IDOCK:  -17.90 KCAL/MOL
REMARK 923 INTER-LIGAND FREE ENERGY PREDICTED BY IDOCK:  -14.25 KCAL/MOL
REMARK 924 INTRA-LIGAND FREE ENERGY PREDICTED BY IDOCK:   -3.65 KCAL/MOL
REMARK 927      BINDING AFFINITY PREDICTED BY RF-SCORE:    0.00 PKD
ROOT
HETATM    1  O   UNL     1      -9.447  12.686  68.469  1.00  0.00    -0.185 OA 
HETATM    2  C   UNL     1     -10.502  12.759  67.854  1.00  0.00    -0.220 C  
ENDROOT
BRANCH   2   3
HETATM    3  C   UNL     1     -11.805  12.163  68.330  1.00  0.00    -0.360 C  
BRANCH   3   4
HETATM    4  C   UNL     1     -11.804  11.898  69.837  1.00  0.00    -0.418 C  
BRANCH   4   5
HETATM    5  C   UNL     1     -12.604  10.644  70.207  1.00  0.00    -0.333 C  
BRANCH   5   6
HETATM    6  C   UNL     1     -11.800   9.689  71.053  1.00  0.00    -0.428 A  
HETATM    7  C   UNL     1     -10.401   9.674  70.967  1.00  0.00    -0.292 A  
HETATM    8  C   UNL     1     -10.299   7.905  72.610  1.00  0.00    -0.372 A  
HETATM    9  C   UNL     1      -9.655   8.787  71.744  1.00  0.00    -0.371 A  
HETATM   10  C   UNL     1     -12.437   8.796  71.924  1.00  0.00    -0.434 A  
HETATM   11  C   UNL     1     -11.690   7.910  72.699  1.00  0.00    -0.398 A  
ENDBRANCH   5   6
ENDBRANCH   4   5
ENDBRANCH   3   4
ENDBRANCH   2   3
BRANCH   2  12
HETATM   12  O   UNL     1     -10.673  13.380  66.655  1.00  0.00    -0.279 OA 
BRANCH  12  13
HETATM   13  C   UNL     1     -12.031  13.571  66.216  1.00  0.00    -0.413 C  
BRANCH  13  14
HETATM   14  C   UNL     1     -12.086  14.671  65.152  1.00  0.00    -0.308 C  
BRANCH  14  15
HETATM   15  O   UNL     1     -12.345  14.067  63.867  1.00  0.00    -0.659 OA 
BRANCH  15  16
HETATM   16  C   UNL     1     -12.323  12.708  63.831  1.00  0.00    -0.459 C  
HETATM   17  O   UNL     1     -13.264  11.973  64.087  1.00  0.00    -0.712 OA 
BRANCH  16  18
HETATM   18  C   UNL     1     -10.944  12.227  63.454  1.00  0.00    -0.467 C  
BRANCH  18  19
HETATM   19  C   UNL     1     -10.597  10.910  64.138  1.00  0.00    -0.327 C  
BRANCH  19  20
HETATM   20  C   UNL     1      -9.229  10.936  64.831  1.00  0.00    -0.230 C  
BRANCH  20  21
HETATM   21  C   UNL     1      -9.219   9.951  65.972  1.00  0.00    -0.215 A  
HETATM   22  C   UNL     1      -9.167   7.950  67.929  1.00  0.00    -0.139 A  
HETATM   23  C   UNL     1     -10.407   9.333  66.385  1.00  0.00    -0.238 A  
HETATM   24  C   UNL     1      -8.008   9.570  66.565  1.00  0.00    -0.112 A  
HETATM   25  C   UNL     1     -10.378   8.336  67.362  1.00  0.00    -0.350 A  
HETATM   26  C   UNL     1      -7.983   8.572  67.539  1.00  0.00    -0.106 A  
ENDBRANCH  20  21
ENDBRANCH  19  20
ENDBRANCH  18  19
ENDBRANCH  16  18
ENDBRANCH  15  16
ENDBRANCH  14  15
BRANCH  14  27
HETATM   27  C   UNL     1     -10.749  15.415  65.056  1.00  0.00    -0.438 C  
BRANCH  27  28
HETATM   28  O   UNL     1     -10.772  16.635  65.812  1.00  0.00    -0.301 OA 
BRANCH  28  29
HETATM   29  C   UNL     1      -9.827  16.717  66.790  1.00  0.00    -0.276 C  
HETATM   30  O   UNL     1      -8.685  16.290  66.696  1.00  0.00    -0.206 OA 
BRANCH  29  31
HETATM   31  C   UNL     1     -10.391  17.419  67.999  1.00  0.00    -0.362 C  
BRANCH  31  32
HETATM   32  C   UNL     1     -10.484  16.488  69.203  1.00  0.00    -0.317 C  
BRANCH  32  33
HETATM   33  C   UNL     1     -11.793  15.688  69.239  1.00  0.00    -0.378 C  
BRANCH  33  34
HETATM   34  C   UNL     1     -12.289  15.566  70.657  1.00  0.00    -0.462 A  
HETATM   35  C   UNL     1     -13.099  15.194  73.312  1.00  0.00    -0.622 A  
HETATM   36  C   UNL     1     -11.590  16.181  71.704  1.00  0.00    -0.503 A  
HETATM   37  C   UNL     1     -11.994  15.995  73.026  1.00  0.00    -0.597 A  
HETATM   38  C   UNL     1     -13.807  14.589  72.275  1.00  0.00    -0.587 A  
HETATM   39  C   UNL     1     -13.406  14.774  70.953  1.00  0.00    -0.372 A  
ENDBRANCH  33  34
ENDBRANCH  32  33
ENDBRANCH  31  32
ENDBRANCH  29  31
ENDBRANCH  28  29
ENDBRANCH  27  28
ENDBRANCH  14  27
ENDBRANCH  13  14
ENDBRANCH  12  13
ENDBRANCH   2  12
TORSDOF 20
ENDMDL
MODEL       15
REMARK 921   NORMALIZED FREE ENERGY PREDICTED BY IDOCK:   -6.09 KCAL/MOL
REMARK 922        TOTAL FREE ENERGY PREDICTED BY IDOCK:  -17.89 KCAL/MOL
REMARK 923 INTER-LIGAND FREE ENERGY PREDICTED BY IDOCK:  -13.61 KCAL/MOL
REMARK 924 INTRA-LIGAND FREE ENERGY PREDICTED BY IDOCK:   -4.28 KCAL/MOL
REMARK 927      BINDING AFFINITY PREDICTED BY RF-SCORE:    0.00 PKD
ROOT
HETATM    1  O   UNL     1      -7.934   9.030  66.877  1.00  0.00    -0.103 OA 
HETATM    2  C   UNL     1      -9.132   8.796  66.804  1.00  0.00    -0.146 C  
ENDROOT
BRANCH   2   3
HETATM    3  C   UNL     1      -9.970   8.285  67.952  1.00  0.00    -0.227 C  
BRANCH   3   4
HETATM    4  C   UNL     1      -9.255   8.427  69.297  1.00  0.00    -0.154 C  
BRANCH   4   5
HETATM    5  C   UNL     1      -9.550   9.770  69.974  1.00  0.00    -0.282 C  
BRANCH   5   6
HETATM    6  C   UNL     1     -10.869   9.758  70.704  1.00  0.00    -0.396 A  
HETATM    7  C   UNL     1     -11.773  10.819  70.550  1.00  0.00    -0.449 A  
HETATM    8  C   UNL     1     -13.317   9.753  72.072  1.00  0.00    -0.547 A  
HETATM    9  C   UNL     1     -12.992  10.814  71.229  1.00  0.00    -0.502 A  
HETATM   10  C   UNL     1     -11.204   8.699  71.557  1.00  0.00    -0.360 A  
HETATM   11  C   UNL     1     -12.423   8.696  72.236  1.00  0.00    -0.460 A  
ENDBRANCH   5   6
ENDBRANCH   4   5
ENDBRANCH   3   4
ENDBRANCH   2   3
BRANCH   2  12
HETATM   12  O   UNL     1      -9.898   8.952  65.689  1.00  0.00    -0.173 OA 
BRANCH  12  13
HETATM   13  C   UNL     1      -9.755  10.197  64.979  1.00  0.00    -0.318 C  
BRANCH  13  14
HETATM   14  C   UNL     1     -10.897  11.146  65.355  1.00  0.00    -0.142 C  
BRANCH  14  15
HETATM   15  O   UNL     1     -10.913  12.250  64.426  1.00  0.00    -0.293 OA 
BRANCH  15  16
HETATM   16  C   UNL     1     -12.140  12.708  64.062  1.00  0.00    -0.462 C  
HETATM   17  O   UNL     1     -12.962  12.092  63.400  1.00  0.00    -0.776 OA 
BRANCH  16  18
HETATM   18  C   UNL     1     -12.337  14.113  64.572  1.00  0.00    -0.419 C  
BRANCH  18  19
HETATM   19  C   UNL     1     -11.009  14.791  64.890  1.00  0.00    -0.425 C  
BRANCH  19  20
HETATM   20  C   UNL     1     -11.111  16.320  64.931  1.00  0.00    -0.301 C  
BRANCH  20  21
HETATM   21  C   UNL     1     -10.168  16.864  65.975  1.00  0.00    -0.350 A  
HETATM   22  C   UNL     1      -8.330  18.017  67.744  1.00  0.00    -0.249 A  
HETATM   23  C   UNL     1      -8.901  16.294  66.150  1.00  0.00    -0.362 A  
HETATM   24  C   UNL     1     -10.513  18.005  66.711  1.00  0.00    -0.335 A  
HETATM   25  C   UNL     1      -7.987  16.870  67.034  1.00  0.00    -0.228 A  
HETATM   26  C   UNL     1      -9.596  18.580  67.591  1.00  0.00    -0.304 A  
ENDBRANCH  20  21
ENDBRANCH  19  20
ENDBRANCH  18  19
ENDBRANCH  16  18
ENDBRANCH  15  16
ENDBRANCH  14  15
BRANCH  14  27
HETATM   27  C   UNL     1     -10.697  11.723  66.761  1.00  0.00    -0.253 C  
BRANCH  27  28
HETATM   28  O   UNL     1      -9.344  12.158  66.963  1.00  0.00    -0.190 OA 
BRANCH  28  29
HETATM   29  C   UNL     1      -9.170  13.012  68.010  1.00  0.00    -0.212 C  
HETATM   30  O   UNL     1      -8.087  13.404  68.420  1.00  0.00    -0.144 OA 
BRANCH  29  31
HETATM   31  C   UNL     1     -10.507  13.412  68.582  1.00  0.00    -0.237 C  
BRANCH  31  32
HETATM   32  C   UNL     1     -10.510  14.860  69.059  1.00  0.00    -0.247 C  
BRANCH  32  33
HETATM   33  C   UNL     1     -11.913  15.479  69.080  1.00  0.00    -0.323 C  
BRANCH  33  34
HETATM   34  C   UNL     1     -12.431  15.550  70.493  1.00  0.00    -0.472 A  
HETATM   35  C   UNL     1     -13.303  15.523  73.155  1.00  0.00    -0.632 A  
HETATM   36  C   UNL     1     -11.648  16.129  71.502  1.00  0.00    -0.502 A  
HETATM   37  C   UNL     1     -12.084  16.115  72.827  1.00  0.00    -0.653 A  
HETATM   38  C   UNL     1     -14.093  14.956  72.156  1.00  0.00    -0.616 A  
HETATM   39  C   UNL     1     -13.660  14.969  70.831  1.00  0.00    -0.363 A  
ENDBRANCH  33  34
ENDBRANCH  32  33
ENDBRANCH  31  32
ENDBRANCH  29  31
ENDBRANCH  28  29
ENDBRANCH  27  28
ENDBRANCH  14  27
ENDBRANCH  13  14
ENDBRANCH  12  13
ENDBRANCH   2  12
TORSDOF 20
ENDMDL
MODEL       16
REMARK 921   NORMALIZED FREE ENERGY PREDICTED BY IDOCK:   -6.05 KCAL/MOL
REMARK 922        TOTAL FREE ENERGY PREDICTED BY IDOCK:  -17.81 KCAL/MOL
REMARK 923 INTER-LIGAND FREE ENERGY PREDICTED BY IDOCK:  -13.57 KCAL/MOL
REMARK 924 INTRA-LIGAND FREE ENERGY PREDICTED BY IDOCK:   -4.25 KCAL/MOL
REMARK 927      BINDING AFFINITY PREDICTED BY RF-SCORE:    0.00 PKD
ROOT
HETATM    1  O   UNL     1     -13.046  12.466  64.804  1.00  0.00    -0.806 OA 
HETATM    2  C   UNL     1     -12.044  13.075  65.150  1.00  0.00    -0.433 C  
ENDROOT
BRANCH   2   3
HETATM    3  C   UNL     1     -10.633  12.597  64.903  1.00  0.00    -0.332 C  
BRANCH   3   4
HETATM    4  C   UNL     1     -10.398  11.184  65.438  1.00  0.00    -0.331 C  
BRANCH   4   5
HETATM    5  C   UNL     1     -10.494  11.118  66.966  1.00  0.00    -0.277 C  
BRANCH   5   6
HETATM    6  C   UNL     1      -9.999   9.801  67.508  1.00  0.00    -0.230 A  
HETATM    7  C   UNL     1      -8.739   9.717  68.118  1.00  0.00    -0.119 A  
HETATM    8  C   UNL     1      -9.060   7.353  68.503  1.00  0.00    -0.136 A  
HETATM    9  C   UNL     1      -8.274   8.498  68.615  1.00  0.00    -0.122 A  
HETATM   10  C   UNL     1     -10.779   8.643  67.397  1.00  0.00    -0.212 A  
HETATM   11  C   UNL     1     -10.312   7.426  67.894  1.00  0.00    -0.258 A  
ENDBRANCH   5   6
ENDBRANCH   4   5
ENDBRANCH   3   4
ENDBRANCH   2   3
BRANCH   2  12
HETATM   12  O   UNL     1     -12.035  14.267  65.809  1.00  0.00    -0.375 OA 
BRANCH  12  13
HETATM   13  C   UNL     1     -12.036  14.207  67.248  1.00  0.00    -0.414 C  
BRANCH  13  14
HETATM   14  C   UNL     1     -10.926  15.101  67.808  1.00  0.00    -0.306 C  
BRANCH  14  15
HETATM   15  O   UNL     1      -9.866  14.266  68.319  1.00  0.00    -0.221 OA 
BRANCH  15  16
HETATM   16  C   UNL     1      -8.766  14.145  67.528  1.00  0.00    -0.204 C  
HETATM   17  O   UNL     1      -7.967  13.222  67.556  1.00  0.00    -0.161 OA 
BRANCH  16  18
HETATM   18  C   UNL     1      -8.654  15.342  66.618  1.00  0.00    -0.318 C  
BRANCH  18  19
HETATM   19  C   UNL     1      -7.365  16.119  66.861  1.00  0.00    -0.255 C  
BRANCH  19  20
HETATM   20  C   UNL     1      -7.366  17.504  66.203  1.00  0.00    -0.347 C  
BRANCH  20  21
HETATM   21  C   UNL     1      -8.377  18.389  66.885  1.00  0.00    -0.261 A  
HETATM   22  C   UNL     1     -10.378  19.837  68.204  1.00  0.00    -0.561 A  
HETATM   23  C   UNL     1      -9.477  18.886  66.174  1.00  0.00    -0.235 A  
HETATM   24  C   UNL     1      -8.279  18.644  68.259  1.00  0.00    -0.349 A  
HETATM   25  C   UNL     1     -10.473  19.608  66.834  1.00  0.00    -0.606 A  
HETATM   26  C   UNL     1      -9.277  19.364  68.916  1.00  0.00    -0.391 A  
ENDBRANCH  20  21
ENDBRANCH  19  20
ENDBRANCH  18  19
ENDBRANCH  16  18
ENDBRANCH  15  16
ENDBRANCH  14  15
BRANCH  14  27
HETATM   27  C   UNL     1     -11.441  15.962  68.967  1.00  0.00    -0.380 C  
BRANCH  27  28
HETATM   28  O   UNL     1     -10.896  15.532  70.223  1.00  0.00    -0.299 OA 
BRANCH  28  29
HETATM   29  C   UNL     1     -11.801  15.450  71.239  1.00  0.00    -0.380 C  
HETATM   30  O   UNL     1     -11.694  16.016  72.318  1.00  0.00    -0.456 OA 
BRANCH  29  31
HETATM   31  C   UNL     1     -12.955  14.568  70.836  1.00  0.00    -0.424 C  
BRANCH  31  32
HETATM   32  C   UNL     1     -12.831  13.168  71.426  1.00  0.00    -0.401 C  
BRANCH  32  33
HETATM   33  C   UNL     1     -12.115  12.187  70.488  1.00  0.00    -0.383 C  
BRANCH  33  34
HETATM   34  C   UNL     1     -12.142  10.796  71.070  1.00  0.00    -0.452 A  
HETATM   35  C   UNL     1     -12.256   8.152  71.986  1.00  0.00    -0.385 A  
HETATM   36  C   UNL     1     -11.046   9.940  70.900  1.00  0.00    -0.418 A  
HETATM   37  C   UNL     1     -11.103   8.623  71.358  1.00  0.00    -0.343 A  
HETATM   38  C   UNL     1     -13.345   9.001  72.169  1.00  0.00    -0.510 A  
HETATM   39  C   UNL     1     -13.290  10.318  71.714  1.00  0.00    -0.476 A  
ENDBRANCH  33  34
ENDBRANCH  32  33
ENDBRANCH  31  32
ENDBRANCH  29  31
ENDBRANCH  28  29
ENDBRANCH  27  28
ENDBRANCH  14  27
ENDBRANCH  13  14
ENDBRANCH  12  13
ENDBRANCH   2  12
TORSDOF 20
ENDMDL
MODEL       17
REMARK 921   NORMALIZED FREE ENERGY PREDICTED BY IDOCK:   -6.04 KCAL/MOL
REMARK 922        TOTAL FREE ENERGY PREDICTED BY IDOCK:  -17.77 KCAL/MOL
REMARK 923 INTER-LIGAND FREE ENERGY PREDICTED BY IDOCK:  -14.21 KCAL/MOL
REMARK 924 INTRA-LIGAND FREE ENERGY PREDICTED BY IDOCK:   -3.57 KCAL/MOL
REMARK 927      BINDING AFFINITY PREDICTED BY RF-SCORE:    0.00 PKD
ROOT
HETATM    1  O   UNL     1     -13.970  15.424  71.225  1.00  0.00    -0.497 OA 
HETATM    2  C   UNL     1     -12.905  15.206  70.665  1.00  0.00    -0.388 C  
ENDROOT
BRANCH   2   3
HETATM    3  C   UNL     1     -11.971  14.077  71.029  1.00  0.00    -0.313 C  
BRANCH   3   4
HETATM    4  C   UNL     1     -12.675  12.719  71.026  1.00  0.00    -0.331 C  
BRANCH   4   5
HETATM    5  C   UNL     1     -11.900  11.664  70.229  1.00  0.00    -0.414 C  
BRANCH   5   6
HETATM    6  C   UNL     1     -11.841  10.341  70.950  1.00  0.00    -0.473 A  
HETATM    7  C   UNL     1     -13.017   9.737  71.418  1.00  0.00    -0.490 A  
HETATM    8  C   UNL     1     -11.738   7.889  72.308  1.00  0.00    -0.408 A  
HETATM    9  C   UNL     1     -12.964   8.516  72.091  1.00  0.00    -0.403 A  
HETATM   10  C   UNL     1     -10.614   9.705  71.177  1.00  0.00    -0.327 A  
HETATM   11  C   UNL     1     -10.563   8.484  71.850  1.00  0.00    -0.392 A  
ENDBRANCH   5   6
ENDBRANCH   4   5
ENDBRANCH   3   4
ENDBRANCH   2   3
BRANCH   2  12
HETATM   12  O   UNL     1     -12.392  15.936  69.637  1.00  0.00    -0.252 OA 
BRANCH  12  13
HETATM   13  C   UNL     1     -11.280  15.357  68.928  1.00  0.00    -0.292 C  
BRANCH  13  14
HETATM   14  C   UNL     1     -11.613  15.242  67.438  1.00  0.00    -0.188 C  
BRANCH  14  15
HETATM   15  O   UNL     1     -12.178  13.939  67.184  1.00  0.00    -0.406 OA 
BRANCH  15  16
HETATM   16  C   UNL     1     -12.447  13.648  65.883  1.00  0.00    -0.452 C  
HETATM   17  O   UNL     1     -13.200  14.276  65.153  1.00  0.00    -0.686 OA 
BRANCH  16  18
HETATM   18  C   UNL     1     -11.699  12.406  65.469  1.00  0.00    -0.459 C  
BRANCH  18  19
HETATM   19  C   UNL     1     -11.406  11.499  66.660  1.00  0.00    -0.285 C  
BRANCH  19  20
HETATM   20  C   UNL     1      -9.906  11.308  66.913  1.00  0.00    -0.220 C  
BRANCH  20  21
HETATM   21  C   UNL     1      -9.664   9.958  67.538  1.00  0.00    -0.193 A  
HETATM   22  C   UNL     1      -9.129   7.380  68.489  1.00  0.00    -0.136 A  
HETATM   23  C   UNL     1     -10.645   8.960  67.470  1.00  0.00    -0.307 A  
HETATM   24  C   UNL     1      -8.420   9.656  68.107  1.00  0.00    -0.118 A  
HETATM   25  C   UNL     1     -10.376   7.676  67.946  1.00  0.00    -0.270 A  
HETATM   26  C   UNL     1      -8.153   8.371  68.579  1.00  0.00    -0.123 A  
ENDBRANCH  20  21
ENDBRANCH  19  20
ENDBRANCH  18  19
ENDBRANCH  16  18
ENDBRANCH  15  16
ENDBRANCH  14  15
BRANCH  14  27
HETATM   27  C   UNL     1     -10.352  15.380  66.577  1.00  0.00    -0.289 C  
BRANCH  27  28
HETATM   28  O   UNL     1      -9.790  16.697  66.676  1.00  0.00    -0.250 OA 
BRANCH  28  29
HETATM   29  C   UNL     1     -10.532  17.679  66.089  1.00  0.00    -0.295 C  
HETATM   30  O   UNL     1     -10.939  17.653  64.937  1.00  0.00    -0.886 OA 
BRANCH  29  31
HETATM   31  C   UNL     1     -10.783  18.795  67.071  1.00  0.00    -0.435 C  
BRANCH  31  32
HETATM   32  C   UNL     1     -10.027  20.063  66.692  1.00  0.00    -0.598 C  
BRANCH  32  33
HETATM   33  C   UNL     1      -8.589  19.786  66.233  1.00  0.00    -0.397 C  
BRANCH  33  34
HETATM   34  C   UNL     1      -7.621  20.072  67.352  1.00  0.00    -0.316 A  
HETATM   35  C   UNL     1      -5.713  20.470  69.364  1.00  0.00    -0.388 A  
HETATM   36  C   UNL     1      -6.549  20.953  67.149  1.00  0.00    -0.399 A  
HETATM   37  C   UNL     1      -5.600  21.150  68.152  1.00  0.00    -0.377 A  
HETATM   38  C   UNL     1      -6.782  19.602  69.578  1.00  0.00    -0.379 A  
HETATM   39  C   UNL     1      -7.733  19.404  68.577  1.00  0.00    -0.380 A  
ENDBRANCH  33  34
ENDBRANCH  32  33
ENDBRANCH  31  32
ENDBRANCH  29  31
ENDBRANCH  28  29
ENDBRANCH  27  28
ENDBRANCH  14  27
ENDBRANCH  13  14
ENDBRANCH  12  13
ENDBRANCH   2  12
TORSDOF 20
ENDMDL
MODEL       18
REMARK 921   NORMALIZED FREE ENERGY PREDICTED BY IDOCK:   -6.03 KCAL/MOL
REMARK 922        TOTAL FREE ENERGY PREDICTED BY IDOCK:  -17.77 KCAL/MOL
REMARK 923 INTER-LIGAND FREE ENERGY PREDICTED BY IDOCK:  -11.15 KCAL/MOL
REMARK 924 INTRA-LIGAND FREE ENERGY PREDICTED BY IDOCK:   -6.62 KCAL/MOL
REMARK 927      BINDING AFFINITY PREDICTED BY RF-SCORE:    0.00 PKD
ROOT
HETATM    1  O   UNL     1     -13.397  12.259  64.354  1.00  0.00    -0.786 OA 
HETATM    2  C   UNL     1     -12.449  12.931  64.735  1.00  0.00    -0.455 C  
ENDROOT
BRANCH   2   3
HETATM    3  C   UNL     1     -11.011  12.655  64.367  1.00  0.00    -0.386 C  
BRANCH   3   4
HETATM    4  C   UNL     1     -10.659  11.171  64.479  1.00  0.00    -0.397 C  
BRANCH   4   5
HETATM    5  C   UNL     1      -9.553  10.760  63.500  1.00  0.00    -0.359 C  
BRANCH   5   6
HETATM    6  C   UNL     1      -8.516   9.882  64.154  1.00  0.00    -0.179 A  
HETATM    7  C   UNL     1      -8.721   8.498  64.253  1.00  0.00     0.085 A  
HETATM    8  C   UNL     1      -6.601   8.244  65.384  1.00  0.00    -0.052 A  
HETATM    9  C   UNL     1      -7.766   7.684  64.863  1.00  0.00    -0.107 A  
HETATM   10  C   UNL     1      -7.343  10.435  64.684  1.00  0.00    -0.026 A  
HETATM   11  C   UNL     1      -6.390   9.619  65.294  1.00  0.00    -0.081 A  
ENDBRANCH   5   6
ENDBRANCH   4   5
ENDBRANCH   3   4
ENDBRANCH   2   3
BRANCH   2  12
HETATM   12  O   UNL     1     -12.532  14.022  65.545  1.00  0.00    -0.458 OA 
BRANCH  12  13
HETATM   13  C   UNL     1     -12.210  13.819  66.934  1.00  0.00    -0.366 C  
BRANCH  13  14
HETATM   14  C   UNL     1     -11.210  14.881  67.400  1.00  0.00    -0.338 C  
BRANCH  14  15
HETATM   15  O   UNL     1     -10.022  14.223  67.888  1.00  0.00    -0.222 OA 
BRANCH  15  16
HETATM   16  C   UNL     1      -8.921  14.313  67.094  1.00  0.00    -0.225 C  
HETATM   17  O   UNL     1      -8.668  15.229  66.327  1.00  0.00    -0.283 OA 
BRANCH  16  18
HETATM   18  C   UNL     1      -8.057  13.090  67.276  1.00  0.00    -0.164 C  
BRANCH  18  19
HETATM   19  C   UNL     1      -8.890  11.846  67.564  1.00  0.00    -0.169 C  
BRANCH  19  20
HETATM   20  C   UNL     1      -8.116  10.772  68.338  1.00  0.00    -0.127 C  
BRANCH  20  21
HETATM   21  C   UNL     1      -8.764   9.428  68.128  1.00  0.00    -0.124 A  
HETATM   22  C   UNL     1     -10.095   6.972  67.933  1.00  0.00    -0.204 A  
HETATM   23  C   UNL     1      -8.223   8.280  68.720  1.00  0.00    -0.117 A  
HETATM   24  C   UNL     1      -9.968   9.328  67.418  1.00  0.00    -0.253 A  
HETATM   25  C   UNL     1      -8.888   7.057  68.621  1.00  0.00    -0.128 A  
HETATM   26  C   UNL     1     -10.631   8.105  67.323  1.00  0.00    -0.344 A  
ENDBRANCH  20  21
ENDBRANCH  19  20
ENDBRANCH  18  19
ENDBRANCH  16  18
ENDBRANCH  15  16
ENDBRANCH  14  15
BRANCH  14  27
HETATM   27  C   UNL     1     -11.785  15.717  68.549  1.00  0.00    -0.327 C  
BRANCH  27  28
HETATM   28  O   UNL     1     -11.026  15.545  69.754  1.00  0.00    -0.247 OA 
BRANCH  28  29
HETATM   29  C   UNL     1     -11.772  15.467  70.892  1.00  0.00    -0.354 C  
HETATM   30  O   UNL     1     -11.543  16.082  71.922  1.00  0.00    -0.445 OA 
BRANCH  29  31
HETATM   31  C   UNL     1     -12.926  14.517  70.690  1.00  0.00    -0.358 C  
BRANCH  31  32
HETATM   32  C   UNL     1     -12.653  13.153  71.314  1.00  0.00    -0.382 C  
BRANCH  32  33
HETATM   33  C   UNL     1     -11.935  12.193  70.356  1.00  0.00    -0.360 C  
BRANCH  33  34
HETATM   34  C   UNL     1     -12.037  10.777  70.864  1.00  0.00    -0.475 A  
HETATM   35  C   UNL     1     -12.265   8.094  71.634  1.00  0.00    -0.343 A  
HETATM   36  C   UNL     1     -10.923   9.928  70.814  1.00  0.00    -0.407 A  
HETATM   37  C   UNL     1     -11.038   8.592  71.198  1.00  0.00    -0.324 A  
HETATM   38  C   UNL     1     -13.375   8.935  71.698  1.00  0.00    -0.414 A  
HETATM   39  C   UNL     1     -13.262  10.271  71.316  1.00  0.00    -0.447 A  
ENDBRANCH  33  34
ENDBRANCH  32  33
ENDBRANCH  31  32
ENDBRANCH  29  31
ENDBRANCH  28  29
ENDBRANCH  27  28
ENDBRANCH  14  27
ENDBRANCH  13  14
ENDBRANCH  12  13
ENDBRANCH   2  12
TORSDOF 20
ENDMDL
MODEL       19
REMARK 921   NORMALIZED FREE ENERGY PREDICTED BY IDOCK:   -6.03 KCAL/MOL
REMARK 922        TOTAL FREE ENERGY PREDICTED BY IDOCK:  -17.76 KCAL/MOL
REMARK 923 INTER-LIGAND FREE ENERGY PREDICTED BY IDOCK:  -12.93 KCAL/MOL
REMARK 924 INTRA-LIGAND FREE ENERGY PREDICTED BY IDOCK:   -4.83 KCAL/MOL
REMARK 927      BINDING AFFINITY PREDICTED BY RF-SCORE:    0.00 PKD
ROOT
HETATM    1  O   UNL     1     -12.989  12.392  63.836  1.00  0.00    -0.754 OA 
HETATM    2  C   UNL     1     -11.775  12.512  63.920  1.00  0.00    -0.452 C  
ENDROOT
BRANCH   2   3
HETATM    3  C   UNL     1     -10.797  11.373  63.763  1.00  0.00    -0.468 C  
BRANCH   3   4
HETATM    4  C   UNL     1     -10.531  10.652  65.086  1.00  0.00    -0.271 C  
BRANCH   4   5
HETATM    5  C   UNL     1      -9.330   9.704  65.000  1.00  0.00    -0.319 C  
BRANCH   5   6
HETATM    6  C   UNL     1      -9.286   8.739  66.158  1.00  0.00    -0.273 A  
HETATM    7  C   UNL     1      -8.056   8.268  66.639  1.00  0.00    -0.102 A  
HETATM    8  C   UNL     1      -9.194   6.931  68.299  1.00  0.00    -0.123 A  
HETATM    9  C   UNL     1      -8.012   7.370  67.707  1.00  0.00    -0.118 A  
HETATM   10  C   UNL     1     -10.468   8.288  66.758  1.00  0.00    -0.313 A  
HETATM   11  C   UNL     1     -10.422   7.390  67.825  1.00  0.00    -0.298 A  
ENDBRANCH   5   6
ENDBRANCH   4   5
ENDBRANCH   3   4
ENDBRANCH   2   3
BRANCH   2  12
HETATM   12  O   UNL     1     -11.115  13.677  64.168  1.00  0.00    -0.354 OA 
BRANCH  12  13
HETATM   13  C   UNL     1     -11.002  14.072  65.549  1.00  0.00    -0.309 C  
BRANCH  13  14
HETATM   14  C   UNL     1      -9.592  14.599  65.828  1.00  0.00    -0.231 C  
BRANCH  14  15
HETATM   15  O   UNL     1      -9.205  14.215  67.164  1.00  0.00    -0.211 OA 
BRANCH  15  16
HETATM   16  C   UNL     1      -7.982  13.632  67.288  1.00  0.00    -0.114 C  
HETATM   17  O   UNL     1      -6.908  14.211  67.226  1.00  0.00    -0.226 OA 
BRANCH  16  18
HETATM   18  C   UNL     1      -8.140  12.146  67.486  1.00  0.00    -0.163 C  
BRANCH  18  19
HETATM   19  C   UNL     1      -9.327  11.817  68.385  1.00  0.00    -0.185 C  
BRANCH  19  20
HETATM   20  C   UNL     1      -9.091  10.583  69.263  1.00  0.00    -0.161 C  
BRANCH  20  21
HETATM   21  C   UNL     1     -10.362  10.226  69.990  1.00  0.00    -0.255 A  
HETATM   22  C   UNL     1     -12.679   9.745  71.486  1.00  0.00    -0.504 A  
HETATM   23  C   UNL     1     -10.332   9.344  71.078  1.00  0.00    -0.382 A  
HETATM   24  C   UNL     1     -11.570  10.847  69.646  1.00  0.00    -0.394 A  
HETATM   25  C   UNL     1     -11.489   9.106  71.822  1.00  0.00    -0.452 A  
HETATM   26  C   UNL     1     -12.723  10.608  70.393  1.00  0.00    -0.340 A  
ENDBRANCH  20  21
ENDBRANCH  19  20
ENDBRANCH  18  19
ENDBRANCH  16  18
ENDBRANCH  15  16
ENDBRANCH  14  15
BRANCH  14  27
HETATM   27  C   UNL     1      -9.548  16.129  65.752  1.00  0.00    -0.257 C  
BRANCH  27  28
HETATM   28  O   UNL     1      -9.404  16.716  67.053  1.00  0.00    -0.216 OA 
BRANCH  28  29
HETATM   29  C   UNL     1     -10.223  17.779  67.293  1.00  0.00    -0.350 C  
HETATM   30  O   UNL     1     -10.434  18.690  66.505  1.00  0.00    -0.399 OA 
BRANCH  29  31
HETATM   31  C   UNL     1     -10.836  17.663  68.665  1.00  0.00     0.002 C  
BRANCH  31  32
HETATM   32  C   UNL     1     -10.505  16.327  69.322  1.00  0.00    -0.285 C  
BRANCH  32  33
HETATM   33  C   UNL     1     -11.705  15.372  69.372  1.00  0.00    -0.369 C  
BRANCH  33  34
HETATM   34  C   UNL     1     -12.209  15.242  70.786  1.00  0.00    -0.411 A  
HETATM   35  C   UNL     1     -12.995  14.900  73.452  1.00  0.00    -0.597 A  
HETATM   36  C   UNL     1     -11.787  16.145  71.771  1.00  0.00    -0.581 A  
HETATM   37  C   UNL     1     -12.179  15.974  73.098  1.00  0.00    -0.636 A  
HETATM   38  C   UNL     1     -13.429  14.004  72.477  1.00  0.00    -0.661 A  
HETATM   39  C   UNL     1     -13.039  14.174  71.149  1.00  0.00    -0.398 A  
ENDBRANCH  33  34
ENDBRANCH  32  33
ENDBRANCH  31  32
ENDBRANCH  29  31
ENDBRANCH  28  29
ENDBRANCH  27  28
ENDBRANCH  14  27
ENDBRANCH  13  14
ENDBRANCH  12  13
ENDBRANCH   2  12
TORSDOF 20
ENDMDL
MODEL       20
REMARK 921   NORMALIZED FREE ENERGY PREDICTED BY IDOCK:   -6.01 KCAL/MOL
REMARK 922        TOTAL FREE ENERGY PREDICTED BY IDOCK:  -17.73 KCAL/MOL
REMARK 923 INTER-LIGAND FREE ENERGY PREDICTED BY IDOCK:  -13.11 KCAL/MOL
REMARK 924 INTRA-LIGAND FREE ENERGY PREDICTED BY IDOCK:   -4.61 KCAL/MOL
REMARK 927      BINDING AFFINITY PREDICTED BY RF-SCORE:    0.00 PKD
ROOT
HETATM    1  O   UNL     1      -9.561  11.985  62.894  1.00  0.00    -0.332 OA 
HETATM    2  C   UNL     1     -10.579  11.785  63.541  1.00  0.00    -0.440 C  
ENDROOT
BRANCH   2   3
HETATM    3  C   UNL     1     -11.816  12.648  63.466  1.00  0.00    -0.619 C  
BRANCH   3   4
HETATM    4  C   UNL     1     -12.108  13.356  64.790  1.00  0.00    -0.448 C  
BRANCH   4   5
HETATM    5  C   UNL     1     -11.593  14.800  64.803  1.00  0.00    -0.418 C  
BRANCH   5   6
HETATM    6  C   UNL     1     -10.643  15.052  65.946  1.00  0.00    -0.338 A  
HETATM    7  C   UNL     1     -10.766  16.211  66.726  1.00  0.00    -0.235 A  
HETATM    8  C   UNL     1      -8.869  15.539  68.062  1.00  0.00    -0.165 A  
HETATM    9  C   UNL     1      -9.884  16.450  67.780  1.00  0.00    -0.239 A  
HETATM   10  C   UNL     1      -9.616  14.144  66.235  1.00  0.00    -0.295 A  
HETATM   11  C   UNL     1      -8.735  14.386  67.290  1.00  0.00    -0.228 A  
ENDBRANCH   5   6
ENDBRANCH   4   5
ENDBRANCH   3   4
ENDBRANCH   2   3
BRANCH   2  12
HETATM   12  O   UNL     1     -10.763  10.766  64.425  1.00  0.00    -0.301 OA 
BRANCH  12  13
HETATM   13  C   UNL     1      -9.618   9.935  64.696  1.00  0.00    -0.252 C  
BRANCH  13  14
HETATM   14  C   UNL     1      -9.566   9.590  66.188  1.00  0.00    -0.239 C  
BRANCH  14  15
HETATM   15  O   UNL     1      -9.326  10.798  66.939  1.00  0.00    -0.158 OA 
BRANCH  15  16
HETATM   16  C   UNL     1      -9.961  10.892  68.138  1.00  0.00    -0.174 C  
HETATM   17  O   UNL     1      -9.478  10.611  69.225  1.00  0.00    -0.197 OA 
BRANCH  16  18
HETATM   18  C   UNL     1     -11.377  11.370  67.933  1.00  0.00    -0.371 C  
BRANCH  18  19
HETATM   19  C   UNL     1     -11.937  12.035  69.186  1.00  0.00    -0.326 C  
BRANCH  19  20
HETATM   20  C   UNL     1     -11.905  13.566  69.117  1.00  0.00    -0.386 C  
BRANCH  20  21
HETATM   21  C   UNL     1     -12.274  14.142  70.461  1.00  0.00    -0.431 A  
HETATM   22  C   UNL     1     -12.762  15.114  73.040  1.00  0.00    -0.556 A  
HETATM   23  C   UNL     1     -13.035  13.393  71.367  1.00  0.00    -0.412 A  
HETATM   24  C   UNL     1     -11.779  15.393  70.853  1.00  0.00    -0.395 A  
HETATM   25  C   UNL     1     -13.278  13.881  72.653  1.00  0.00    -0.592 A  
HETATM   26  C   UNL     1     -12.021  15.876  72.138  1.00  0.00    -0.612 A  
ENDBRANCH  20  21
ENDBRANCH  19  20
ENDBRANCH  18  19
ENDBRANCH  16  18
ENDBRANCH  15  16
ENDBRANCH  14  15
BRANCH  14  27
HETATM   27  C   UNL     1      -8.420   8.618  66.490  1.00  0.00    -0.113 C  
BRANCH  27  28
HETATM   28  O   UNL     1      -8.804   7.641  67.469  1.00  0.00    -0.124 OA 
BRANCH  28  29
HETATM   29  C   UNL     1      -9.358   6.507  66.955  1.00  0.00    -0.146 C  
HETATM   30  O   UNL     1      -9.128   6.059  65.841  1.00  0.00    -0.155 OA 
BRANCH  29  31
HETATM   31  C   UNL     1     -10.289   5.882  67.962  1.00  0.00    -0.257 C  
BRANCH  31  32
HETATM   32  C   UNL     1     -10.911   6.926  68.884  1.00  0.00    -0.247 C  
BRANCH  32  33
HETATM   33  C   UNL     1     -11.497   6.317  70.165  1.00  0.00    -0.452 C  
BRANCH  33  34
HETATM   34  C   UNL     1     -12.245   7.368  70.945  1.00  0.00    -0.265 A  
HETATM   35  C   UNL     1     -13.707   9.379  72.234  1.00  0.00    -0.495 A  
HETATM   36  C   UNL     1     -13.560   7.129  71.368  1.00  0.00    -0.368 A  
HETATM   37  C   UNL     1     -14.286   8.131  72.011  1.00  0.00    -0.524 A  
HETATM   38  C   UNL     1     -12.396   9.621  71.827  1.00  0.00    -0.474 A  
HETATM   39  C   UNL     1     -11.667   8.620  71.186  1.00  0.00    -0.334 A  
ENDBRANCH  33  34
ENDBRANCH  32  33
ENDBRANCH  31  32
ENDBRANCH  29  31
ENDBRANCH  28  29
ENDBRANCH  27  28
ENDBRANCH  14  27
ENDBRANCH  13  14
ENDBRANCH  12  13
ENDBRANCH   2  12
TORSDOF 20
ENDMDL
MODEL       21
REMARK 921   NORMALIZED FREE ENERGY PREDICTED BY IDOCK:   -6.01 KCAL/MOL
REMARK 922        TOTAL FREE ENERGY PREDICTED BY IDOCK:  -17.72 KCAL/MOL
REMARK 923 INTER-LIGAND FREE ENERGY PREDICTED BY IDOCK:  -13.21 KCAL/MOL
REMARK 924 INTRA-LIGAND FREE ENERGY PREDICTED BY IDOCK:   -4.50 KCAL/MOL
REMARK 927      BINDING AFFINITY PREDICTED BY RF-SCORE:    0.00 PKD
ROOT
HETATM    1  O   UNL     1     -10.648  10.814  64.534  1.00  0.00    -0.336 OA 
HETATM    2  C   UNL     1     -10.376  10.340  65.628  1.00  0.00    -0.162 C  
ENDROOT
BRANCH   2   3
HETATM    3  C   UNL     1      -9.434   9.179  65.840  1.00  0.00    -0.326 C  
BRANCH   3   4
HETATM    4  C   UNL     1      -9.481   8.651  67.274  1.00  0.00    -0.198 C  
BRANCH   4   5
HETATM    5  C   UNL     1     -10.522   7.540  67.450  1.00  0.00    -0.367 C  
BRANCH   5   6
HETATM    6  C   UNL     1     -10.153   6.588  68.560  1.00  0.00    -0.172 A  
HETATM    7  C   UNL     1      -8.838   6.119  68.681  1.00  0.00    -0.114 A  
HETATM    8  C   UNL     1      -9.462   4.805  70.611  1.00  0.00    -0.238 A  
HETATM    9  C   UNL     1      -8.495   5.233  69.704  1.00  0.00    -0.098 A  
HETATM   10  C   UNL     1     -11.119   6.149  69.475  1.00  0.00    -0.490 A  
HETATM   11  C   UNL     1     -10.774   5.263  70.496  1.00  0.00    -0.208 A  
ENDBRANCH   5   6
ENDBRANCH   4   5
ENDBRANCH   3   4
ENDBRANCH   2   3
BRANCH   2  12
HETATM   12  O   UNL     1     -10.874  10.772  66.819  1.00  0.00    -0.249 OA 
BRANCH  12  13
HETATM   13  C   UNL     1     -10.619  12.148  67.162  1.00  0.00    -0.226 C  
BRANCH  13  14
HETATM   14  C   UNL     1     -11.921  12.828  67.595  1.00  0.00    -0.273 C  
BRANCH  14  15
HETATM   15  O   UNL     1     -12.165  13.961  66.736  1.00  0.00    -0.429 OA 
BRANCH  15  16
HETATM   16  C   UNL     1     -12.348  13.683  65.417  1.00  0.00    -0.476 C  
HETATM   17  O   UNL     1     -13.156  12.888  64.962  1.00  0.00    -0.794 OA 
BRANCH  16  18
HETATM   18  C   UNL     1     -11.377  14.483  64.585  1.00  0.00    -0.372 C  
BRANCH  18  19
HETATM   19  C   UNL     1     -10.590  15.477  65.432  1.00  0.00    -0.428 C  
BRANCH  19  20
HETATM   20  C   UNL     1     -10.826  16.934  65.020  1.00  0.00    -0.077 C  
BRANCH  20  21
HETATM   21  C   UNL     1     -10.355  17.855  66.117  1.00  0.00    -0.352 A  
HETATM   22  C   UNL     1      -9.700  19.551  68.246  1.00  0.00    -0.495 A  
HETATM   23  C   UNL     1     -10.496  19.243  65.986  1.00  0.00    -0.573 A  
HETATM   24  C   UNL     1      -9.862  17.328  67.317  1.00  0.00    -0.267 A  
HETATM   25  C   UNL     1     -10.168  20.086  67.049  1.00  0.00    -0.587 A  
HETATM   26  C   UNL     1      -9.537  18.173  68.378  1.00  0.00    -0.345 A  
ENDBRANCH  20  21
ENDBRANCH  19  20
ENDBRANCH  18  19
ENDBRANCH  16  18
ENDBRANCH  15  16
ENDBRANCH  14  15
BRANCH  14  27
HETATM   27  C   UNL     1     -11.821  13.348  69.034  1.00  0.00    -0.335 C  
BRANCH  27  28
HETATM   28  O   UNL     1     -11.980  12.287  69.987  1.00  0.00    -0.327 OA 
BRANCH  28  29
HETATM   29  C   UNL     1     -12.753  12.600  71.065  1.00  0.00    -0.226 C  
HETATM   30  O   UNL     1     -13.040  13.736  71.414  1.00  0.00    -0.342 OA 
BRANCH  29  31
HETATM   31  C   UNL     1     -13.212  11.341  71.757  1.00  0.00    -0.480 C  
BRANCH  31  32
HETATM   32  C   UNL     1     -12.802  10.090  70.988  1.00  0.00    -0.455 C  
BRANCH  32  33
HETATM   33  C   UNL     1     -12.469   8.907  71.907  1.00  0.00    -0.445 C  
BRANCH  33  34
HETATM   34  C   UNL     1     -10.977   8.717  71.993  1.00  0.00    -0.438 A  
HETATM   35  C   UNL     1      -8.220   8.221  72.037  1.00  0.00    -0.211 A  
HETATM   36  C   UNL     1     -10.136   9.299  71.034  1.00  0.00    -0.373 A  
HETATM   37  C   UNL     1      -8.763   9.052  71.058  1.00  0.00    -0.280 A  
HETATM   38  C   UNL     1      -9.048   7.648  73.001  1.00  0.00    -0.240 A  
HETATM   39  C   UNL     1     -10.420   7.895  72.981  1.00  0.00    -0.410 A  
ENDBRANCH  33  34
ENDBRANCH  32  33
ENDBRANCH  31  32
ENDBRANCH  29  31
ENDBRANCH  28  29
ENDBRANCH  27  28
ENDBRANCH  14  27
ENDBRANCH  13  14
ENDBRANCH  12  13
ENDBRANCH   2  12
TORSDOF 20
ENDMDL
MODEL       22
REMARK 921   NORMALIZED FREE ENERGY PREDICTED BY IDOCK:   -6.01 KCAL/MOL
REMARK 922        TOTAL FREE ENERGY PREDICTED BY IDOCK:  -17.71 KCAL/MOL
REMARK 923 INTER-LIGAND FREE ENERGY PREDICTED BY IDOCK:  -13.57 KCAL/MOL
REMARK 924 INTRA-LIGAND FREE ENERGY PREDICTED BY IDOCK:   -4.14 KCAL/MOL
REMARK 927      BINDING AFFINITY PREDICTED BY RF-SCORE:    0.00 PKD
ROOT
HETATM    1  O   UNL     1     -12.971  12.836  65.197  1.00  0.00    -0.768 OA 
HETATM    2  C   UNL     1     -11.962  13.320  65.689  1.00  0.00    -0.412 C  
ENDROOT
BRANCH   2   3
HETATM    3  C   UNL     1     -11.947  14.562  66.548  1.00  0.00    -0.358 C  
BRANCH   3   4
HETATM    4  C   UNL     1     -11.944  14.232  68.042  1.00  0.00    -0.353 C  
BRANCH   4   5
HETATM    5  C   UNL     1     -11.809  15.485  68.914  1.00  0.00    -0.357 C  
BRANCH   5   6
HETATM    6  C   UNL     1     -12.201  15.224  70.346  1.00  0.00    -0.404 A  
HETATM    7  C   UNL     1     -13.178  14.264  70.648  1.00  0.00    -0.172 A  
HETATM    8  C   UNL     1     -12.950  14.744  73.005  1.00  0.00    -0.609 A  
HETATM    9  C   UNL     1     -13.547  14.025  71.972  1.00  0.00    -0.552 A  
HETATM   10  C   UNL     1     -11.610  15.944  71.392  1.00  0.00    -0.529 A  
HETATM   11  C   UNL     1     -11.981  15.704  72.715  1.00  0.00    -0.590 A  
ENDBRANCH   5   6
ENDBRANCH   4   5
ENDBRANCH   3   4
ENDBRANCH   2   3
BRANCH   2  12
HETATM   12  O   UNL     1     -10.701  12.827  65.544  1.00  0.00    -0.270 OA 
BRANCH  12  13
HETATM   13  C   UNL     1     -10.577  11.396  65.436  1.00  0.00    -0.275 C  
BRANCH  13  14
HETATM   14  C   UNL     1      -9.542  10.884  66.443  1.00  0.00    -0.197 C  
BRANCH  14  15
HETATM   15  O   UNL     1      -9.997  11.188  67.778  1.00  0.00    -0.171 OA 
BRANCH  15  16
HETATM   16  C   UNL     1     -10.853  10.291  68.336  1.00  0.00    -0.245 C  
HETATM   17  O   UNL     1     -10.770   9.076  68.246  1.00  0.00    -0.191 OA 
BRANCH  16  18
HETATM   18  C   UNL     1     -11.953  11.018  69.068  1.00  0.00    -0.364 C  
BRANCH  18  19
HETATM   19  C   UNL     1     -11.861  10.813  70.576  1.00  0.00    -0.453 C  
BRANCH  19  20
HETATM   20  C   UNL     1     -12.782   9.699  71.087  1.00  0.00    -0.407 C  
BRANCH  20  21
HETATM   21  C   UNL     1     -11.953   8.551  71.602  1.00  0.00    -0.372 A  
HETATM   22  C   UNL     1     -10.500   6.466  72.776  1.00  0.00    -0.238 A  
HETATM   23  C   UNL     1     -10.654   8.773  72.079  1.00  0.00    -0.414 A  
HETATM   24  C   UNL     1     -12.507   7.268  71.701  1.00  0.00    -0.394 A  
HETATM   25  C   UNL     1      -9.932   7.731  72.663  1.00  0.00    -0.298 A  
HETATM   26  C   UNL     1     -11.784   6.230  72.287  1.00  0.00    -0.344 A  
ENDBRANCH  20  21
ENDBRANCH  19  20
ENDBRANCH  18  19
ENDBRANCH  16  18
ENDBRANCH  15  16
ENDBRANCH  14  15
BRANCH  14  27
HETATM   27  C   UNL     1      -8.188  11.575  66.243  1.00  0.00    -0.044 C  
BRANCH  27  28
HETATM   28  O   UNL     1      -7.639  12.025  67.490  1.00  0.00    -0.127 OA 
BRANCH  28  29
HETATM   29  C   UNL     1      -7.141  13.293  67.469  1.00  0.00    -0.149 C  
HETATM   30  O   UNL     1      -5.954  13.577  67.405  1.00  0.00    -0.341 OA 
BRANCH  29  31
HETATM   31  C   UNL     1      -8.267  14.294  67.526  1.00  0.00    -0.201 C  
BRANCH  31  32
HETATM   32  C   UNL     1      -7.777  15.714  67.263  1.00  0.00    -0.239 C  
BRANCH  32  33
HETATM   33  C   UNL     1      -8.250  16.715  68.326  1.00  0.00    -0.200 C  
BRANCH  33  34
HETATM   34  C   UNL     1      -8.979  17.861  67.674  1.00  0.00    -0.250 A  
HETATM   35  C   UNL     1     -10.477  19.957  66.574  1.00  0.00    -0.589 A  
HETATM   36  C   UNL     1      -8.929  19.142  68.241  1.00  0.00    -0.379 A  
HETATM   37  C   UNL     1      -9.675  20.185  67.692  1.00  0.00    -0.551 A  
HETATM   38  C   UNL     1     -10.523  18.689  65.997  1.00  0.00    -0.456 A  
HETATM   39  C   UNL     1      -9.777  17.645  66.543  1.00  0.00    -0.310 A  
ENDBRANCH  33  34
ENDBRANCH  32  33
ENDBRANCH  31  32
ENDBRANCH  29  31
ENDBRANCH  28  29
ENDBRANCH  27  28
ENDBRANCH  14  27
ENDBRANCH  13  14
ENDBRANCH  12  13
ENDBRANCH   2  12
TORSDOF 20
ENDMDL
MODEL       23
REMARK 921   NORMALIZED FREE ENERGY PREDICTED BY IDOCK:   -6.00 KCAL/MOL
REMARK 922        TOTAL FREE ENERGY PREDICTED BY IDOCK:  -17.69 KCAL/MOL
REMARK 923 INTER-LIGAND FREE ENERGY PREDICTED BY IDOCK:  -12.08 KCAL/MOL
REMARK 924 INTRA-LIGAND FREE ENERGY PREDICTED BY IDOCK:   -5.61 KCAL/MOL
REMARK 927      BINDING AFFINITY PREDICTED BY RF-SCORE:    0.00 PKD
ROOT
HETATM    1  O   UNL     1     -14.157  13.219  72.635  1.00  0.00    -0.744 OA 
HETATM    2  C   UNL     1     -13.153  13.267  71.938  1.00  0.00    -0.388 C  
ENDROOT
BRANCH   2   3
HETATM    3  C   UNL     1     -12.337  14.518  71.710  1.00  0.00    -0.408 C  
BRANCH   3   4
HETATM    4  C   UNL     1     -12.489  15.055  70.285  1.00  0.00    -0.385 C  
BRANCH   4   5
HETATM    5  C   UNL     1     -11.510  16.196  69.987  1.00  0.00    -0.294 C  
BRANCH   5   6
HETATM    6  C   UNL     1     -10.581  15.861  68.848  1.00  0.00    -0.244 A  
HETATM    7  C   UNL     1      -9.585  14.888  69.009  1.00  0.00    -0.204 A  
HETATM    8  C   UNL     1      -8.838  15.246  66.739  1.00  0.00    -0.302 A  
HETATM    9  C   UNL     1      -8.720  14.581  67.958  1.00  0.00    -0.167 A  
HETATM   10  C   UNL     1     -10.688  16.526  67.620  1.00  0.00    -0.311 A  
HETATM   11  C   UNL     1      -9.822  16.218  66.570  1.00  0.00    -0.287 A  
ENDBRANCH   5   6
ENDBRANCH   4   5
ENDBRANCH   3   4
ENDBRANCH   2   3
BRANCH   2  12
HETATM   12  O   UNL     1     -12.613  12.217  71.261  1.00  0.00    -0.342 OA 
BRANCH  12  13
HETATM   13  C   UNL     1     -13.153  10.914  71.556  1.00  0.00    -0.399 C  
BRANCH  13  14
HETATM   14  C   UNL     1     -12.017   9.899  71.705  1.00  0.00    -0.346 C  
BRANCH  14  15
HETATM   15  O   UNL     1     -11.507   9.572  70.395  1.00  0.00    -0.254 OA 
BRANCH  15  16
HETATM   16  C   UNL     1     -10.187   9.822  70.188  1.00  0.00    -0.275 C  
HETATM   17  O   UNL     1      -9.264   9.366  70.847  1.00  0.00    -0.244 OA 
BRANCH  16  18
HETATM   18  C   UNL     1     -10.020  10.777  69.034  1.00  0.00    -0.214 C  
BRANCH  18  19
HETATM   19  C   UNL     1     -11.262  10.821  68.151  1.00  0.00    -0.365 C  
BRANCH  19  20
HETATM   20  C   UNL     1     -11.873  12.223  68.044  1.00  0.00    -0.368 C  
BRANCH  20  21
HETATM   21  C   UNL     1     -11.683  12.755  66.646  1.00  0.00    -0.459 A  
HETATM   22  C   UNL     1     -11.487  13.576  63.977  1.00  0.00    -0.357 A  
HETATM   23  C   UNL     1     -10.701  12.211  65.809  1.00  0.00    -0.303 A  
HETATM   24  C   UNL     1     -12.552  13.730  66.139  1.00  0.00    -0.423 A  
HETATM   25  C   UNL     1     -10.605  12.623  64.479  1.00  0.00    -0.369 A  
HETATM   26  C   UNL     1     -12.454  14.137  64.808  1.00  0.00    -0.395 A  
ENDBRANCH  20  21
ENDBRANCH  19  20
ENDBRANCH  18  19
ENDBRANCH  16  18
ENDBRANCH  15  16
ENDBRANCH  14  15
BRANCH  14  27
HETATM   27  C   UNL     1     -12.517   8.600  72.348  1.00  0.00    -0.362 C  
BRANCH  27  28
HETATM   28  O   UNL     1     -12.412   7.491  71.443  1.00  0.00    -0.329 OA 
BRANCH  28  29
HETATM   29  C   UNL     1     -11.881   6.360  71.986  1.00  0.00    -0.333 C  
HETATM   30  O   UNL     1     -12.498   5.557  72.671  1.00  0.00    -0.023 OA 
BRANCH  29  31
HETATM   31  C   UNL     1     -10.426   6.238  71.611  1.00  0.00    -0.258 C  
BRANCH  31  32
HETATM   32  C   UNL     1     -10.229   5.361  70.379  1.00  0.00    -0.332 C  
BRANCH  32  33
HETATM   33  C   UNL     1     -10.972   5.890  69.145  1.00  0.00    -0.382 C  
BRANCH  33  34
HETATM   34  C   UNL     1     -10.047   6.727  68.300  1.00  0.00    -0.173 A  
HETATM   35  C   UNL     1      -8.305   8.136  66.618  1.00  0.00    -0.111 A  
HETATM   36  C   UNL     1     -10.540   7.407  67.177  1.00  0.00    -0.413 A  
HETATM   37  C   UNL     1      -9.671   8.108  66.341  1.00  0.00    -0.275 A  
HETATM   38  C   UNL     1      -7.809   7.472  67.740  1.00  0.00    -0.117 A  
HETATM   39  C   UNL     1      -8.675   6.772  68.578  1.00  0.00    -0.124 A  
ENDBRANCH  33  34
ENDBRANCH  32  33
ENDBRANCH  31  32
ENDBRANCH  29  31
ENDBRANCH  28  29
ENDBRANCH  27  28
ENDBRANCH  14  27
ENDBRANCH  13  14
ENDBRANCH  12  13
ENDBRANCH   2  12
TORSDOF 20
ENDMDL
MODEL       24
REMARK 921   NORMALIZED FREE ENERGY PREDICTED BY IDOCK:   -6.00 KCAL/MOL
REMARK 922        TOTAL FREE ENERGY PREDICTED BY IDOCK:  -17.69 KCAL/MOL
REMARK 923 INTER-LIGAND FREE ENERGY PREDICTED BY IDOCK:  -14.41 KCAL/MOL
REMARK 924 INTRA-LIGAND FREE ENERGY PREDICTED BY IDOCK:   -3.28 KCAL/MOL
REMARK 927      BINDING AFFINITY PREDICTED BY RF-SCORE:    0.00 PKD
ROOT
HETATM    1  O   UNL     1     -10.957  19.784  65.186  1.00  0.00    -0.352 OA 
HETATM    2  C   UNL     1     -10.572  19.353  66.264  1.00  0.00    -0.475 C  
ENDROOT
BRANCH   2   3
HETATM    3  C   UNL     1     -10.069  20.218  67.395  1.00  0.00    -0.534 C  
BRANCH   3   4
HETATM    4  C   UNL     1      -9.417  19.395  68.507  1.00  0.00    -0.451 C  
BRANCH   4   5
HETATM    5  C   UNL     1      -7.914  19.669  68.627  1.00  0.00    -0.335 C  
BRANCH   5   6
HETATM    6  C   UNL     1      -7.218  19.606  67.291  1.00  0.00    -0.248 A  
HETATM    7  C   UNL     1      -6.750  20.779  66.681  1.00  0.00    -0.339 A  
HETATM    8  C   UNL     1      -5.939  19.501  64.798  1.00  0.00    -0.300 A  
HETATM    9  C   UNL     1      -6.111  20.724  65.442  1.00  0.00    -0.282 A  
HETATM   10  C   UNL     1      -7.043  18.382  66.633  1.00  0.00    -0.237 A  
HETATM   11  C   UNL     1      -6.405  18.330  65.394  1.00  0.00    -0.233 A  
ENDBRANCH   5   6
ENDBRANCH   4   5
ENDBRANCH   3   4
ENDBRANCH   2   3
BRANCH   2  12
HETATM   12  O   UNL     1     -10.534  18.038  66.617  1.00  0.00    -0.357 OA 
BRANCH  12  13
HETATM   13  C   UNL     1     -10.504  17.083  65.540  1.00  0.00    -0.166 C  
BRANCH  13  14
HETATM   14  C   UNL     1     -10.374  15.664  66.103  1.00  0.00    -0.316 C  
BRANCH  14  15
HETATM   15  O   UNL     1      -8.999  15.433  66.474  1.00  0.00    -0.264 OA 
BRANCH  15  16
HETATM   16  C   UNL     1      -8.800  14.741  67.628  1.00  0.00    -0.179 C  
HETATM   17  O   UNL     1      -8.602  13.539  67.713  1.00  0.00    -0.158 OA 
BRANCH  16  18
HETATM   18  C   UNL     1      -8.889  15.676  68.808  1.00  0.00    -0.208 C  
BRANCH  18  19
HETATM   19  C   UNL     1     -10.334  15.914  69.234  1.00  0.00    -0.249 C  
BRANCH  19  20
HETATM   20  C   UNL     1     -11.091  14.616  69.539  1.00  0.00    -0.294 C  
BRANCH  20  21
HETATM   21  C   UNL     1     -11.793  14.738  70.867  1.00  0.00    -0.379 A  
HETATM   22  C   UNL     1     -13.274  15.072  73.219  1.00  0.00    -0.537 A  
HETATM   23  C   UNL     1     -11.609  15.875  71.664  1.00  0.00    -0.541 A  
HETATM   24  C   UNL     1     -12.710  13.759  71.273  1.00  0.00    -0.450 A  
HETATM   25  C   UNL     1     -12.348  16.039  72.837  1.00  0.00    -0.609 A  
HETATM   26  C   UNL     1     -13.448  13.927  72.444  1.00  0.00    -0.661 A  
ENDBRANCH  20  21
ENDBRANCH  19  20
ENDBRANCH  18  19
ENDBRANCH  16  18
ENDBRANCH  15  16
ENDBRANCH  14  15
BRANCH  14  27
HETATM   27  C   UNL     1     -10.757  14.615  65.052  1.00  0.00    -0.430 C  
BRANCH  27  28
HETATM   28  O   UNL     1     -12.111  14.172  65.222  1.00  0.00    -0.370 OA 
BRANCH  28  29
HETATM   29  C   UNL     1     -12.284  12.823  65.133  1.00  0.00    -0.477 C  
HETATM   30  O   UNL     1     -13.181  12.273  64.511  1.00  0.00    -0.799 OA 
BRANCH  29  31
HETATM   31  C   UNL     1     -11.204  12.109  65.907  1.00  0.00    -0.384 C  
BRANCH  31  32
HETATM   32  C   UNL     1     -11.655  11.764  67.322  1.00  0.00    -0.344 C  
BRANCH  32  33
HETATM   33  C   UNL     1     -10.605  10.965  68.105  1.00  0.00    -0.233 C  
BRANCH  33  34
HETATM   34  C   UNL     1     -11.181  10.488  69.413  1.00  0.00    -0.327 A  
HETATM   35  C   UNL     1     -12.297   9.443  71.760  1.00  0.00    -0.471 A  
HETATM   36  C   UNL     1     -10.399   9.728  70.292  1.00  0.00    -0.348 A  
HETATM   37  C   UNL     1     -10.956   9.208  71.461  1.00  0.00    -0.434 A  
HETATM   38  C   UNL     1     -13.079  10.209  70.896  1.00  0.00    -0.412 A  
HETATM   39  C   UNL     1     -12.524  10.730  69.728  1.00  0.00    -0.231 A  
ENDBRANCH  33  34
ENDBRANCH  32  33
ENDBRANCH  31  32
ENDBRANCH  29  31
ENDBRANCH  28  29
ENDBRANCH  27  28
ENDBRANCH  14  27
ENDBRANCH  13  14
ENDBRANCH  12  13
ENDBRANCH   2  12
TORSDOF 20
ENDMDL
MODEL       25
REMARK 921   NORMALIZED FREE ENERGY PREDICTED BY IDOCK:   -5.98 KCAL/MOL
REMARK 922        TOTAL FREE ENERGY PREDICTED BY IDOCK:  -17.65 KCAL/MOL
REMARK 923 INTER-LIGAND FREE ENERGY PREDICTED BY IDOCK:  -12.70 KCAL/MOL
REMARK 924 INTRA-LIGAND FREE ENERGY PREDICTED BY IDOCK:   -4.96 KCAL/MOL
REMARK 927      BINDING AFFINITY PREDICTED BY RF-SCORE:    0.00 PKD
ROOT
HETATM    1  O   UNL     1     -13.093  14.073  64.761  1.00  0.00    -0.632 OA 
HETATM    2  C   UNL     1     -12.175  13.638  65.441  1.00  0.00    -0.444 C  
ENDROOT
BRANCH   2   3
HETATM    3  C   UNL     1     -10.738  14.082  65.312  1.00  0.00    -0.367 C  
BRANCH   3   4
HETATM    4  C   UNL     1     -10.591  15.601  65.410  1.00  0.00    -0.436 C  
BRANCH   4   5
HETATM    5  C   UNL     1      -9.500  16.016  66.404  1.00  0.00    -0.322 C  
BRANCH   5   6
HETATM    6  C   UNL     1      -9.615  17.468  66.797  1.00  0.00    -0.286 A  
HETATM    7  C   UNL     1      -8.934  17.951  67.924  1.00  0.00    -0.264 A  
HETATM    8  C   UNL     1      -9.836  20.161  67.546  1.00  0.00    -0.574 A  
HETATM    9  C   UNL     1      -9.043  19.292  68.293  1.00  0.00    -0.394 A  
HETATM   10  C   UNL     1     -10.412  18.348  66.055  1.00  0.00    -0.400 A  
HETATM   11  C   UNL     1     -10.521  19.688  66.427  1.00  0.00    -0.618 A  
ENDBRANCH   5   6
ENDBRANCH   4   5
ENDBRANCH   3   4
ENDBRANCH   2   3
BRANCH   2  12
HETATM   12  O   UNL     1     -12.295  12.692  66.413  1.00  0.00    -0.521 OA 
BRANCH  12  13
HETATM   13  C   UNL     1     -12.060  13.126  67.766  1.00  0.00    -0.215 C  
BRANCH  13  14
HETATM   14  C   UNL     1     -11.363  12.015  68.557  1.00  0.00    -0.272 C  
BRANCH  14  15
HETATM   15  O   UNL     1     -11.726  10.739  67.991  1.00  0.00    -0.528 OA 
BRANCH  15  16
HETATM   16  C   UNL     1     -10.715  10.027  67.425  1.00  0.00    -0.274 C  
HETATM   17  O   UNL     1     -10.088  10.349  66.428  1.00  0.00    -0.212 OA 
BRANCH  16  18
HETATM   18  C   UNL     1     -10.494   8.749  68.195  1.00  0.00    -0.243 C  
BRANCH  18  19
HETATM   19  C   UNL     1      -9.121   8.719  68.858  1.00  0.00    -0.141 C  
BRANCH  19  20
HETATM   20  C   UNL     1      -9.132   9.283  70.284  1.00  0.00    -0.271 C  
BRANCH  20  21
HETATM   21  C   UNL     1      -8.392   8.347  71.206  1.00  0.00    -0.174 A  
HETATM   22  C   UNL     1      -6.842   6.769  72.922  1.00  0.00    -0.071 A  
HETATM   23  C   UNL     1      -7.513   7.388  70.686  1.00  0.00    -0.078 A  
HETATM   24  C   UNL     1      -8.501   8.493  72.595  1.00  0.00    -0.169 A  
HETATM   25  C   UNL     1      -6.742   6.602  71.544  1.00  0.00    -0.061 A  
HETATM   26  C   UNL     1      -7.728   7.707  73.449  1.00  0.00    -0.142 A  
ENDBRANCH  20  21
ENDBRANCH  19  20
ENDBRANCH  18  19
ENDBRANCH  16  18
ENDBRANCH  15  16
ENDBRANCH  14  15
BRANCH  14  27
HETATM   27  C   UNL     1     -11.808  12.018  70.024  1.00  0.00    -0.314 C  
BRANCH  27  28
HETATM   28  O   UNL     1     -12.512  10.814  70.362  1.00  0.00    -0.324 OA 
BRANCH  28  29
HETATM   29  C   UNL     1     -13.136  10.839  71.573  1.00  0.00    -0.414 C  
HETATM   30  O   UNL     1     -13.407  11.853  72.199  1.00  0.00    -0.503 OA 
BRANCH  29  31
HETATM   31  C   UNL     1     -13.451   9.435  72.023  1.00  0.00    -0.522 C  
BRANCH  31  32
HETATM   32  C   UNL     1     -12.220   8.536  71.982  1.00  0.00    -0.429 C  
BRANCH  32  33
HETATM   33  C   UNL     1     -12.362   7.375  70.989  1.00  0.00    -0.303 C  
BRANCH  33  34
HETATM   34  C   UNL     1     -11.332   6.313  71.278  1.00  0.00    -0.356 A  
HETATM   35  C   UNL     1      -9.553   4.215  71.805  1.00  0.00    -0.223 A  
HETATM   36  C   UNL     1     -10.704   5.635  70.225  1.00  0.00    -0.364 A  
HETATM   37  C   UNL     1      -9.817   4.591  70.489  1.00  0.00    -0.297 A  
HETATM   38  C   UNL     1     -10.165   4.892  72.859  1.00  0.00    -0.217 A  
HETATM   39  C   UNL     1     -11.050   5.938  72.598  1.00  0.00    -0.322 A  
ENDBRANCH  33  34
ENDBRANCH  32  33
ENDBRANCH  31  32
ENDBRANCH  29  31
ENDBRANCH  28  29
ENDBRANCH  27  28
ENDBRANCH  14  27
ENDBRANCH  13  14
ENDBRANCH  12  13
ENDBRANCH   2  12
TORSDOF 20
ENDMDL
MODEL       26
REMARK 921   NORMALIZED FREE ENERGY PREDICTED BY IDOCK:   -5.98 KCAL/MOL
REMARK 922        TOTAL FREE ENERGY PREDICTED BY IDOCK:  -17.64 KCAL/MOL
REMARK 923 INTER-LIGAND FREE ENERGY PREDICTED BY IDOCK:  -11.09 KCAL/MOL
REMARK 924 INTRA-LIGAND FREE ENERGY PREDICTED BY IDOCK:   -6.55 KCAL/MOL
REMARK 927      BINDING AFFINITY PREDICTED BY RF-SCORE:    0.00 PKD
ROOT
HETATM    1  O   UNL     1     -12.343  13.336  63.232  1.00  0.00    -0.721 OA 
HETATM    2  C   UNL     1     -11.801  12.711  64.133  1.00  0.00    -0.410 C  
ENDROOT
BRANCH   2   3
HETATM    3  C   UNL     1     -10.633  11.775  63.935  1.00  0.00    -0.445 C  
BRANCH   3   4
HETATM    4  C   UNL     1     -10.402  10.873  65.148  1.00  0.00    -0.344 C  
BRANCH   4   5
HETATM    5  C   UNL     1      -9.402   9.749  64.855  1.00  0.00    -0.327 C  
BRANCH   5   6
HETATM    6  C   UNL     1      -9.477   8.643  65.878  1.00  0.00    -0.243 A  
HETATM    7  C   UNL     1      -8.637   7.525  65.773  1.00  0.00    -0.158 A  
HETATM    8  C   UNL     1      -9.620   6.574  67.765  1.00  0.00    -0.125 A  
HETATM    9  C   UNL     1      -8.708   6.498  66.714  1.00  0.00    -0.123 A  
HETATM   10  C   UNL     1     -10.392   8.709  66.936  1.00  0.00    -0.355 A  
HETATM   11  C   UNL     1     -10.462   7.680  67.875  1.00  0.00    -0.270 A  
ENDBRANCH   5   6
ENDBRANCH   4   5
ENDBRANCH   3   4
ENDBRANCH   2   3
BRANCH   2  12
HETATM   12  O   UNL     1     -12.159  12.754  65.447  1.00  0.00    -0.413 OA 
BRANCH  12  13
HETATM   13  C   UNL     1     -12.451  14.055  65.992  1.00  0.00    -0.455 C  
BRANCH  13  14
HETATM   14  C   UNL     1     -11.446  14.396  67.096  1.00  0.00    -0.362 C  
BRANCH  14  15
HETATM   15  O   UNL     1     -10.242  13.629  66.887  1.00  0.00    -0.254 OA 
BRANCH  15  16
HETATM   16  C   UNL     1      -9.071  14.311  67.009  1.00  0.00    -0.233 C  
HETATM   17  O   UNL     1      -8.833  15.410  66.531  1.00  0.00    -0.274 OA 
BRANCH  16  18
HETATM   18  C   UNL     1      -8.083  13.494  67.803  1.00  0.00    -0.177 C  
BRANCH  18  19
HETATM   19  C   UNL     1      -8.426  12.009  67.778  1.00  0.00    -0.157 C  
BRANCH  19  20
HETATM   20  C   UNL     1      -7.191  11.111  67.638  1.00  0.00    -0.094 C  
BRANCH  20  21
HETATM   21  C   UNL     1      -7.214  10.045  68.704  1.00  0.00    -0.080 A  
HETATM   22  C   UNL     1      -7.414   7.950  70.549  1.00  0.00    -0.073 A  
HETATM   23  C   UNL     1      -8.146  10.108  69.748  1.00  0.00    -0.167 A  
HETATM   24  C   UNL     1      -6.369   8.932  68.607  1.00  0.00    -0.053 A  
HETATM   25  C   UNL     1      -8.243   9.063  70.667  1.00  0.00    -0.207 A  
HETATM   26  C   UNL     1      -6.470   7.888  69.526  1.00  0.00    -0.035 A  
ENDBRANCH  20  21
ENDBRANCH  19  20
ENDBRANCH  18  19
ENDBRANCH  16  18
ENDBRANCH  15  16
ENDBRANCH  14  15
BRANCH  14  27
HETATM   27  C   UNL     1     -11.998  14.027  68.478  1.00  0.00    -0.348 C  
BRANCH  27  28
HETATM   28  O   UNL     1     -11.805  12.635  68.767  1.00  0.00    -0.302 OA 
BRANCH  28  29
HETATM   29  C   UNL     1     -11.966  12.296  70.077  1.00  0.00    -0.304 C  
HETATM   30  O   UNL     1     -12.312  13.067  70.961  1.00  0.00    -0.355 OA 
BRANCH  29  31
HETATM   31  C   UNL     1     -11.664  10.833  70.276  1.00  0.00    -0.442 C  
BRANCH  31  32
HETATM   32  C   UNL     1     -12.884  10.064  70.770  1.00  0.00    -0.341 C  
BRANCH  32  33
HETATM   33  C   UNL     1     -12.692   9.482  72.177  1.00  0.00    -0.442 C  
BRANCH  33  34
HETATM   34  C   UNL     1     -11.910   8.196  72.107  1.00  0.00    -0.417 A  
HETATM   35  C   UNL     1     -10.331   5.895  71.871  1.00  0.00    -0.255 A  
HETATM   36  C   UNL     1     -10.876   7.949  73.020  1.00  0.00    -0.408 A  
HETATM   37  C   UNL     1     -10.090   6.803  72.901  1.00  0.00    -0.201 A  
HETATM   38  C   UNL     1     -11.365   6.127  70.966  1.00  0.00    -0.348 A  
HETATM   39  C   UNL     1     -12.153   7.272  71.083  1.00  0.00    -0.376 A  
ENDBRANCH  33  34
ENDBRANCH  32  33
ENDBRANCH  31  32
ENDBRANCH  29  31
ENDBRANCH  28  29
ENDBRANCH  27  28
ENDBRANCH  14  27
ENDBRANCH  13  14
ENDBRANCH  12  13
ENDBRANCH   2  12
TORSDOF 20
ENDMDL
MODEL       27
REMARK 921   NORMALIZED FREE ENERGY PREDICTED BY IDOCK:   -5.97 KCAL/MOL
REMARK 922        TOTAL FREE ENERGY PREDICTED BY IDOCK:  -17.63 KCAL/MOL
REMARK 923 INTER-LIGAND FREE ENERGY PREDICTED BY IDOCK:  -12.78 KCAL/MOL
REMARK 924 INTRA-LIGAND FREE ENERGY PREDICTED BY IDOCK:   -4.85 KCAL/MOL
REMARK 927      BINDING AFFINITY PREDICTED BY RF-SCORE:    0.00 PKD
ROOT
HETATM    1  O   UNL     1     -12.920  12.565  64.243  1.00  0.00    -0.748 OA 
HETATM    2  C   UNL     1     -11.984  13.348  64.326  1.00  0.00    -0.430 C  
ENDROOT
BRANCH   2   3
HETATM    3  C   UNL     1     -12.138  14.839  64.505  1.00  0.00    -0.460 C  
BRANCH   3   4
HETATM    4  C   UNL     1     -10.856  15.496  65.018  1.00  0.00    -0.468 C  
BRANCH   4   5
HETATM    5  C   UNL     1     -10.903  15.763  66.526  1.00  0.00    -0.230 C  
BRANCH   5   6
HETATM    6  C   UNL     1     -10.624  17.207  66.855  1.00  0.00    -0.209 A  
HETATM    7  C   UNL     1     -10.477  17.614  68.189  1.00  0.00    -0.386 A  
HETATM    8  C   UNL     1     -10.122  19.895  67.477  1.00  0.00    -0.566 A  
HETATM    9  C   UNL     1     -10.225  18.951  68.497  1.00  0.00    -0.407 A  
HETATM   10  C   UNL     1     -10.522  18.165  65.838  1.00  0.00    -0.292 A  
HETATM   11  C   UNL     1     -10.270  19.502  66.148  1.00  0.00    -0.588 A  
ENDBRANCH   5   6
ENDBRANCH   4   5
ENDBRANCH   3   4
ENDBRANCH   2   3
BRANCH   2  12
HETATM   12  O   UNL     1     -10.666  13.009  64.271  1.00  0.00    -0.367 OA 
BRANCH  12  13
HETATM   13  C   UNL     1     -10.305  11.735  64.838  1.00  0.00    -0.289 C  
BRANCH  13  14
HETATM   14  C   UNL     1     -10.054  11.885  66.341  1.00  0.00    -0.214 C  
BRANCH  14  15
HETATM   15  O   UNL     1      -8.803  11.248  66.673  1.00  0.00    -0.163 OA 
BRANCH  15  16
HETATM   16  C   UNL     1      -7.841  12.055  67.193  1.00  0.00    -0.168 C  
HETATM   17  O   UNL     1      -6.655  11.779  67.291  1.00  0.00    -0.104 OA 
BRANCH  16  18
HETATM   18  C   UNL     1      -8.456  13.348  67.665  1.00  0.00    -0.187 C  
BRANCH  18  19
HETATM   19  C   UNL     1      -7.626  14.557  67.247  1.00  0.00    -0.150 C  
BRANCH  19  20
HETATM   20  C   UNL     1      -7.164  15.407  68.437  1.00  0.00    -0.114 C  
BRANCH  20  21
HETATM   21  C   UNL     1      -6.998  16.841  68.002  1.00  0.00    -0.156 A  
HETATM   22  C   UNL     1      -6.459  19.458  67.166  1.00  0.00    -0.201 A  
HETATM   23  C   UNL     1      -6.690  17.835  68.940  1.00  0.00    -0.237 A  
HETATM   24  C   UNL     1      -7.054  17.177  66.643  1.00  0.00    -0.283 A  
HETATM   25  C   UNL     1      -6.422  19.139  68.521  1.00  0.00    -0.273 A  
HETATM   26  C   UNL     1      -6.784  18.481  66.227  1.00  0.00    -0.259 A  
ENDBRANCH  20  21
ENDBRANCH  19  20
ENDBRANCH  18  19
ENDBRANCH  16  18
ENDBRANCH  15  16
ENDBRANCH  14  15
BRANCH  14  27
HETATM   27  C   UNL     1     -11.157  11.199  67.157  1.00  0.00    -0.287 C  
BRANCH  27  28
HETATM   28  O   UNL     1     -12.077  12.156  67.703  1.00  0.00    -0.522 OA 
BRANCH  28  29
HETATM   29  C   UNL     1     -12.027  12.284  69.059  1.00  0.00    -0.248 C  
HETATM   30  O   UNL     1     -11.941  13.346  69.658  1.00  0.00    -0.308 OA 
BRANCH  29  31
HETATM   31  C   UNL     1     -12.102  10.927  69.712  1.00  0.00    -0.409 C  
BRANCH  31  32
HETATM   32  C   UNL     1     -12.418  11.030  71.200  1.00  0.00    -0.502 C  
BRANCH  32  33
HETATM   33  C   UNL     1     -13.113   9.778  71.751  1.00  0.00    -0.528 C  
BRANCH  33  34
HETATM   34  C   UNL     1     -12.162   8.609  71.743  1.00  0.00    -0.403 A  
HETATM   35  C   UNL     1     -10.450   6.397  71.899  1.00  0.00    -0.239 A  
HETATM   36  C   UNL     1     -12.613   7.335  71.371  1.00  0.00    -0.423 A  
HETATM   37  C   UNL     1     -11.760   6.235  71.449  1.00  0.00    -0.316 A  
HETATM   38  C   UNL     1      -9.990   7.662  72.259  1.00  0.00    -0.242 A  
HETATM   39  C   UNL     1     -10.840   8.764  72.181  1.00  0.00    -0.400 A  
ENDBRANCH  33  34
ENDBRANCH  32  33
ENDBRANCH  31  32
ENDBRANCH  29  31
ENDBRANCH  28  29
ENDBRANCH  27  28
ENDBRANCH  14  27
ENDBRANCH  13  14
ENDBRANCH  12  13
ENDBRANCH   2  12
TORSDOF 20
ENDMDL
MODEL       28
REMARK 921   NORMALIZED FREE ENERGY PREDICTED BY IDOCK:   -5.96 KCAL/MOL
REMARK 922        TOTAL FREE ENERGY PREDICTED BY IDOCK:  -17.60 KCAL/MOL
REMARK 923 INTER-LIGAND FREE ENERGY PREDICTED BY IDOCK:  -12.71 KCAL/MOL
REMARK 924 INTRA-LIGAND FREE ENERGY PREDICTED BY IDOCK:   -4.89 KCAL/MOL
REMARK 927      BINDING AFFINITY PREDICTED BY RF-SCORE:    0.00 PKD
ROOT
HETATM    1  O   UNL     1      -8.931   7.198  66.146  1.00  0.00    -0.159 OA 
HETATM    2  C   UNL     1      -9.993   7.487  66.680  1.00  0.00    -0.200 C  
ENDROOT
BRANCH   2   3
HETATM    3  C   UNL     1     -10.888   6.494  67.382  1.00  0.00    -0.449 C  
BRANCH   3   4
HETATM    4  C   UNL     1     -10.321   6.059  68.734  1.00  0.00    -0.267 C  
BRANCH   4   5
HETATM    5  C   UNL     1     -11.367   6.129  69.853  1.00  0.00    -0.454 C  
BRANCH   5   6
HETATM    6  C   UNL     1     -10.879   5.485  71.126  1.00  0.00    -0.243 A  
HETATM    7  C   UNL     1      -9.981   4.409  71.075  1.00  0.00    -0.242 A  
HETATM    8  C   UNL     1      -9.980   4.269  73.487  1.00  0.00    -0.173 A  
HETATM    9  C   UNL     1      -9.533   3.806  72.251  1.00  0.00    -0.187 A  
HETATM   10  C   UNL     1     -11.325   5.939  72.373  1.00  0.00    -0.358 A  
HETATM   11  C   UNL     1     -10.876   5.335  73.548  1.00  0.00    -0.358 A  
ENDBRANCH   5   6
ENDBRANCH   4   5
ENDBRANCH   3   4
ENDBRANCH   2   3
BRANCH   2  12
HETATM   12  O   UNL     1     -10.536   8.735  66.729  1.00  0.00    -0.258 OA 
BRANCH  12  13
HETATM   13  C   UNL     1      -9.642   9.814  67.063  1.00  0.00    -0.172 C  
BRANCH  13  14
HETATM   14  C   UNL     1     -10.447  11.046  67.486  1.00  0.00    -0.209 C  
BRANCH  14  15
HETATM   15  O   UNL     1     -11.654  10.612  68.147  1.00  0.00    -0.429 OA 
BRANCH  15  16
HETATM   16  C   UNL     1     -11.702  10.809  69.492  1.00  0.00    -0.312 C  
HETATM   17  O   UNL     1     -11.777  11.893  70.052  1.00  0.00    -0.317 OA 
BRANCH  16  18
HETATM   18  C   UNL     1     -11.619   9.484  70.208  1.00  0.00    -0.219 C  
BRANCH  18  19
HETATM   19  C   UNL     1     -10.565   9.501  71.310  1.00  0.00    -0.358 C  
BRANCH  19  20
HETATM   20  C   UNL     1      -9.171   9.103  70.811  1.00  0.00    -0.321 C  
BRANCH  20  21
HETATM   21  C   UNL     1      -8.531   8.157  71.795  1.00  0.00    -0.186 A  
HETATM   22  C   UNL     1      -7.162   6.554  73.638  1.00  0.00    -0.081 A  
HETATM   23  C   UNL     1      -7.644   7.167  71.352  1.00  0.00    -0.088 A  
HETATM   24  C   UNL     1      -8.740   8.321  73.171  1.00  0.00    -0.291 A  
HETATM   25  C   UNL     1      -6.964   6.368  72.272  1.00  0.00    -0.074 A  
HETATM   26  C   UNL     1      -8.057   7.523  74.088  1.00  0.00    -0.213 A  
ENDBRANCH  20  21
ENDBRANCH  19  20
ENDBRANCH  18  19
ENDBRANCH  16  18
ENDBRANCH  15  16
ENDBRANCH  14  15
BRANCH  14  27
HETATM   27  C   UNL     1     -10.857  11.883  66.269  1.00  0.00    -0.282 C  
BRANCH  27  28
HETATM   28  O   UNL     1     -12.173  12.433  66.429  1.00  0.00    -0.604 OA 
BRANCH  28  29
HETATM   29  C   UNL     1     -12.295  13.738  66.057  1.00  0.00    -0.457 C  
HETATM   30  O   UNL     1     -12.966  14.137  65.117  1.00  0.00    -0.729 OA 
BRANCH  29  31
HETATM   31  C   UNL     1     -11.489  14.618  66.979  1.00  0.00    -0.379 C  
BRANCH  31  32
HETATM   32  C   UNL     1     -12.003  14.556  68.413  1.00  0.00    -0.309 C  
BRANCH  32  33
HETATM   33  C   UNL     1     -11.471  15.700  69.288  1.00  0.00    -0.368 C  
BRANCH  33  34
HETATM   34  C   UNL     1     -12.126  15.666  70.644  1.00  0.00    -0.443 A  
HETATM   35  C   UNL     1     -13.449  15.747  73.112  1.00  0.00    -0.652 A  
HETATM   36  C   UNL     1     -13.313  14.945  70.837  1.00  0.00    -0.393 A  
HETATM   37  C   UNL     1     -13.970  14.986  72.066  1.00  0.00    -0.605 A  
HETATM   38  C   UNL     1     -12.263  16.457  72.932  1.00  0.00    -0.534 A  
HETATM   39  C   UNL     1     -11.604  16.417  71.705  1.00  0.00    -0.335 A  
ENDBRANCH  33  34
ENDBRANCH  32  33
ENDBRANCH  31  32
ENDBRANCH  29  31
ENDBRANCH  28  29
ENDBRANCH  27  28
ENDBRANCH  14  27
ENDBRANCH  13  14
ENDBRANCH  12  13
ENDBRANCH   2  12
TORSDOF 20
ENDMDL
MODEL       29
REMARK 921   NORMALIZED FREE ENERGY PREDICTED BY IDOCK:   -5.95 KCAL/MOL
REMARK 922        TOTAL FREE ENERGY PREDICTED BY IDOCK:  -17.59 KCAL/MOL
REMARK 923 INTER-LIGAND FREE ENERGY PREDICTED BY IDOCK:  -12.63 KCAL/MOL
REMARK 924 INTRA-LIGAND FREE ENERGY PREDICTED BY IDOCK:   -4.96 KCAL/MOL
REMARK 927      BINDING AFFINITY PREDICTED BY RF-SCORE:    0.00 PKD
ROOT
HETATM    1  O   UNL     1      -9.488   8.926  65.887  1.00  0.00    -0.237 OA 
HETATM    2  C   UNL     1     -10.267   8.637  66.785  1.00  0.00    -0.291 C  
ENDROOT
BRANCH   2   3
HETATM    3  C   UNL     1     -10.671   7.226  67.138  1.00  0.00    -0.413 C  
BRANCH   3   4
HETATM    4  C   UNL     1     -10.230   6.834  68.550  1.00  0.00    -0.186 C  
BRANCH   4   5
HETATM    5  C   UNL     1     -11.401   6.346  69.409  1.00  0.00    -0.443 C  
BRANCH   5   6
HETATM    6  C   UNL     1     -10.933   5.682  70.680  1.00  0.00    -0.258 A  
HETATM    7  C   UNL     1      -9.808   4.845  70.667  1.00  0.00    -0.289 A  
HETATM    8  C   UNL     1     -10.065   4.429  73.033  1.00  0.00    -0.206 A  
HETATM    9  C   UNL     1      -9.376   4.224  71.840  1.00  0.00    -0.186 A  
HETATM   10  C   UNL     1     -11.620   5.878  71.884  1.00  0.00    -0.255 A  
HETATM   11  C   UNL     1     -11.187   5.256  73.055  1.00  0.00    -0.387 A  
ENDBRANCH   5   6
ENDBRANCH   4   5
ENDBRANCH   3   4
ENDBRANCH   2   3
BRANCH   2  12
HETATM   12  O   UNL     1     -10.891   9.530  67.602  1.00  0.00    -0.279 OA 
BRANCH  12  13
HETATM   13  C   UNL     1     -10.247  10.807  67.772  1.00  0.00    -0.182 C  
BRANCH  13  14
HETATM   14  C   UNL     1     -11.139  11.735  68.603  1.00  0.00    -0.238 C  
BRANCH  14  15
HETATM   15  O   UNL     1     -12.291  10.995  69.056  1.00  0.00    -0.481 OA 
BRANCH  15  16
HETATM   16  C   UNL     1     -12.469  10.931  70.402  1.00  0.00    -0.327 C  
HETATM   17  O   UNL     1     -12.650  11.886  71.143  1.00  0.00    -0.372 OA 
BRANCH  16  18
HETATM   18  C   UNL     1     -12.381   9.499  70.865  1.00  0.00    -0.305 C  
BRANCH  18  19
HETATM   19  C   UNL     1     -11.251   9.296  71.868  1.00  0.00    -0.331 C  
BRANCH  19  20
HETATM   20  C   UNL     1      -9.861   9.340  71.223  1.00  0.00    -0.318 C  
BRANCH  20  21
HETATM   21  C   UNL     1      -8.910   8.472  72.007  1.00  0.00    -0.286 A  
HETATM   22  C   UNL     1      -7.021   7.058  73.513  1.00  0.00    -0.073 A  
HETATM   23  C   UNL     1      -7.774   7.931  71.391  1.00  0.00    -0.085 A  
HETATM   24  C   UNL     1      -9.100   8.279  73.381  1.00  0.00    -0.244 A  
HETATM   25  C   UNL     1      -6.835   7.225  72.144  1.00  0.00    -0.059 A  
HETATM   26  C   UNL     1      -8.158   7.576  74.132  1.00  0.00    -0.213 A  
ENDBRANCH  20  21
ENDBRANCH  19  20
ENDBRANCH  18  19
ENDBRANCH  16  18
ENDBRANCH  15  16
ENDBRANCH  14  15
BRANCH  14  27
HETATM   27  C   UNL     1     -11.643  12.915  67.763  1.00  0.00    -0.343 C  
BRANCH  27  28
HETATM   28  O   UNL     1     -12.014  12.498  66.442  1.00  0.00    -0.516 OA 
BRANCH  28  29
HETATM   29  C   UNL     1     -12.286  13.516  65.578  1.00  0.00    -0.481 C  
HETATM   30  O   UNL     1     -13.402  13.963  65.353  1.00  0.00    -0.710 OA 
BRANCH  29  31
HETATM   31  C   UNL     1     -11.011  14.017  64.948  1.00  0.00    -0.398 C  
BRANCH  31  32
HETATM   32  C   UNL     1     -10.802  15.506  65.200  1.00  0.00    -0.452 C  
BRANCH  32  33
HETATM   33  C   UNL     1      -9.622  15.792  66.138  1.00  0.00    -0.364 C  
BRANCH  33  34
HETATM   34  C   UNL     1      -9.812  17.121  66.824  1.00  0.00    -0.288 A  
HETATM   35  C   UNL     1     -10.327  19.524  68.167  1.00  0.00    -0.550 A  
HETATM   36  C   UNL     1      -9.399  17.293  68.152  1.00  0.00    -0.274 A  
HETATM   37  C   UNL     1      -9.656  18.491  68.820  1.00  0.00    -0.365 A  
HETATM   38  C   UNL     1     -10.730  19.365  66.842  1.00  0.00    -0.570 A  
HETATM   39  C   UNL     1     -10.473  18.169  66.172  1.00  0.00    -0.377 A  
ENDBRANCH  33  34
ENDBRANCH  32  33
ENDBRANCH  31  32
ENDBRANCH  29  31
ENDBRANCH  28  29
ENDBRANCH  27  28
ENDBRANCH  14  27
ENDBRANCH  13  14
ENDBRANCH  12  13
ENDBRANCH   2  12
TORSDOF 20
ENDMDL
MODEL       30
REMARK 921   NORMALIZED FREE ENERGY PREDICTED BY IDOCK:   -5.91 KCAL/MOL
REMARK 922        TOTAL FREE ENERGY PREDICTED BY IDOCK:  -17.51 KCAL/MOL
REMARK 923 INTER-LIGAND FREE ENERGY PREDICTED BY IDOCK:  -13.91 KCAL/MOL
REMARK 924 INTRA-LIGAND FREE ENERGY PREDICTED BY IDOCK:   -3.60 KCAL/MOL
REMARK 927      BINDING AFFINITY PREDICTED BY RF-SCORE:    0.00 PKD
ROOT
HETATM    1  O   UNL     1     -12.614  13.650  63.169  1.00  0.00    -0.792 OA 
HETATM    2  C   UNL     1     -11.883  13.637  64.150  1.00  0.00    -0.422 C  
ENDROOT
BRANCH   2   3
HETATM    3  C   UNL     1     -12.210  14.310  65.461  1.00  0.00    -0.408 C  
BRANCH   3   4
HETATM    4  C   UNL     1     -10.992  15.003  66.075  1.00  0.00    -0.334 C  
BRANCH   4   5
HETATM    5  C   UNL     1     -10.641  16.309  65.353  1.00  0.00    -0.371 C  
BRANCH   5   6
HETATM    6  C   UNL     1     -10.494  17.464  66.310  1.00  0.00    -0.276 A  
HETATM    7  C   UNL     1     -10.549  18.784  65.840  1.00  0.00    -0.405 A  
HETATM    8  C   UNL     1     -10.205  19.619  68.081  1.00  0.00    -0.580 A  
HETATM    9  C   UNL     1     -10.407  19.855  66.723  1.00  0.00    -0.599 A  
HETATM   10  C   UNL     1     -10.287  17.237  67.677  1.00  0.00    -0.350 A  
HETATM   11  C   UNL     1     -10.145  18.310  68.558  1.00  0.00    -0.419 A  
ENDBRANCH   5   6
ENDBRANCH   4   5
ENDBRANCH   3   4
ENDBRANCH   2   3
BRANCH   2  12
HETATM   12  O   UNL     1     -10.669  13.024  64.219  1.00  0.00    -0.367 OA 
BRANCH  12  13
HETATM   13  C   UNL     1     -10.663  11.590  64.077  1.00  0.00    -0.384 C  
BRANCH  13  14
HETATM   14  C   UNL     1     -10.072  10.944  65.333  1.00  0.00    -0.277 C  
BRANCH  14  15
HETATM   15  O   UNL     1      -9.996   9.517  65.133  1.00  0.00    -0.196 OA 
BRANCH  15  16
HETATM   16  C   UNL     1      -9.405   8.805  66.130  1.00  0.00    -0.234 C  
HETATM   17  O   UNL     1      -8.286   9.000  66.579  1.00  0.00    -0.112 OA 
BRANCH  16  18
HETATM   18  C   UNL     1     -10.328   7.706  66.592  1.00  0.00    -0.258 C  
BRANCH  18  19
HETATM   19  C   UNL     1      -9.888   7.121  67.929  1.00  0.00    -0.170 C  
BRANCH  19  20
HETATM   20  C   UNL     1     -10.995   6.321  68.627  1.00  0.00    -0.423 C  
BRANCH  20  21
HETATM   21  C   UNL     1     -11.055   6.701  70.084  1.00  0.00    -0.384 A  
HETATM   22  C   UNL     1     -11.206   7.630  72.721  1.00  0.00    -0.431 A  
HETATM   23  C   UNL     1      -9.898   7.117  70.756  1.00  0.00    -0.180 A  
HETATM   24  C   UNL     1     -12.284   6.735  70.755  1.00  0.00    -0.353 A  
HETATM   25  C   UNL     1      -9.976   7.579  72.071  1.00  0.00    -0.212 A  
HETATM   26  C   UNL     1     -12.359   7.200  72.068  1.00  0.00    -0.298 A  
ENDBRANCH  20  21
ENDBRANCH  19  20
ENDBRANCH  18  19
ENDBRANCH  16  18
ENDBRANCH  15  16
ENDBRANCH  14  15
BRANCH  14  27
HETATM   27  C   UNL     1     -10.962  11.197  66.556  1.00  0.00    -0.209 C  
BRANCH  27  28
HETATM   28  O   UNL     1     -10.235  11.845  67.609  1.00  0.00    -0.196 OA 
BRANCH  28  29
HETATM   29  C   UNL     1      -9.968  11.056  68.688  1.00  0.00    -0.199 C  
HETATM   30  O   UNL     1      -8.862  10.903  69.185  1.00  0.00    -0.135 OA 
BRANCH  29  31
HETATM   31  C   UNL     1     -11.236  10.408  69.183  1.00  0.00    -0.301 C  
BRANCH  31  32
HETATM   32  C   UNL     1     -11.465  10.671  70.667  1.00  0.00    -0.374 C  
BRANCH  32  33
HETATM   33  C   UNL     1     -12.899  11.119  70.980  1.00  0.00    -0.424 C  
BRANCH  33  34
HETATM   34  C   UNL     1     -12.943  12.610  71.197  1.00  0.00    -0.239 A  
HETATM   35  C   UNL     1     -13.179  15.385  71.499  1.00  0.00    -0.572 A  
HETATM   36  C   UNL     1     -13.698  13.147  72.249  1.00  0.00    -0.647 A  
HETATM   37  C   UNL     1     -13.815  14.529  72.398  1.00  0.00    -0.587 A  
HETATM   38  C   UNL     1     -12.417  14.858  70.458  1.00  0.00    -0.419 A  
HETATM   39  C   UNL     1     -12.297  13.477  70.307  1.00  0.00    -0.370 A  
ENDBRANCH  33  34
ENDBRANCH  32  33
ENDBRANCH  31  32
ENDBRANCH  29  31
ENDBRANCH  28  29
ENDBRANCH  27  28
ENDBRANCH  14  27
ENDBRANCH  13  14
ENDBRANCH  12  13
ENDBRANCH   2  12
TORSDOF 20
ENDMDL
MODEL       31
REMARK 921   NORMALIZED FREE ENERGY PREDICTED BY IDOCK:   -5.89 KCAL/MOL
REMARK 922        TOTAL FREE ENERGY PREDICTED BY IDOCK:  -17.47 KCAL/MOL
REMARK 923 INTER-LIGAND FREE ENERGY PREDICTED BY IDOCK:  -12.84 KCAL/MOL
REMARK 924 INTRA-LIGAND FREE ENERGY PREDICTED BY IDOCK:   -4.63 KCAL/MOL
REMARK 927      BINDING AFFINITY PREDICTED BY RF-SCORE:    0.00 PKD
ROOT
HETATM    1  O   UNL     1     -13.051  12.387  71.962  1.00  0.00    -0.430 OA 
HETATM    2  C   UNL     1     -12.686  11.713  71.009  1.00  0.00    -0.298 C  
ENDROOT
BRANCH   2   3
HETATM    3  C   UNL     1     -12.954  10.235  70.862  1.00  0.00    -0.456 C  
BRANCH   3   4
HETATM    4  C   UNL     1     -12.896   9.500  72.202  1.00  0.00    -0.471 C  
BRANCH   4   5
HETATM    5  C   UNL     1     -12.416   8.052  72.051  1.00  0.00    -0.357 C  
BRANCH   5   6
HETATM    6  C   UNL     1     -11.037   7.850  72.624  1.00  0.00    -0.447 A  
HETATM    7  C   UNL     1     -10.831   6.934  73.666  1.00  0.00    -0.196 A  
HETATM    8  C   UNL     1      -8.477   7.480  73.709  1.00  0.00    -0.236 A  
HETATM    9  C   UNL     1      -9.556   6.749  74.203  1.00  0.00    -0.297 A  
HETATM   10  C   UNL     1      -9.946   8.582  72.138  1.00  0.00    -0.387 A  
HETATM   11  C   UNL     1      -8.673   8.396  72.677  1.00  0.00    -0.267 A  
ENDBRANCH   5   6
ENDBRANCH   4   5
ENDBRANCH   3   4
ENDBRANCH   2   3
BRANCH   2  12
HETATM   12  O   UNL     1     -11.983  12.178  69.939  1.00  0.00    -0.319 OA 
BRANCH  12  13
HETATM   13  C   UNL     1     -11.910  11.311  68.791  1.00  0.00    -0.329 C  
BRANCH  13  14
HETATM   14  C   UNL     1     -11.268  12.055  67.616  1.00  0.00    -0.282 C  
BRANCH  14  15
HETATM   15  O   UNL     1     -12.156  11.992  66.481  1.00  0.00    -0.617 OA 
BRANCH  15  16
HETATM   16  C   UNL     1     -12.386  13.168  65.837  1.00  0.00    -0.398 C  
HETATM   17  O   UNL     1     -12.877  13.286  64.725  1.00  0.00    -0.690 OA 
BRANCH  16  18
HETATM   18  C   UNL     1     -11.915  14.320  66.688  1.00  0.00    -0.454 C  
BRANCH  18  19
HETATM   19  C   UNL     1     -11.115  15.334  65.877  1.00  0.00    -0.287 C  
BRANCH  19  20
HETATM   20  C   UNL     1      -9.875  15.849  66.616  1.00  0.00    -0.267 C  
BRANCH  20  21
HETATM   21  C   UNL     1     -10.097  17.278  67.044  1.00  0.00    -0.303 A  
HETATM   22  C   UNL     1     -10.280  19.972  67.780  1.00  0.00    -0.549 A  
HETATM   23  C   UNL     1      -9.837  17.671  68.363  1.00  0.00    -0.334 A  
HETATM   24  C   UNL     1     -10.470  18.246  66.103  1.00  0.00    -0.403 A  
HETATM   25  C   UNL     1      -9.930  19.015  68.728  1.00  0.00    -0.475 A  
HETATM   26  C   UNL     1     -10.560  19.589  66.470  1.00  0.00    -0.579 A  
ENDBRANCH  20  21
ENDBRANCH  19  20
ENDBRANCH  18  19
ENDBRANCH  16  18
ENDBRANCH  15  16
ENDBRANCH  14  15
BRANCH  14  27
HETATM   27  C   UNL     1      -9.942  11.402  67.207  1.00  0.00    -0.194 C  
BRANCH  27  28
HETATM   28  O   UNL     1     -10.155  10.296  66.318  1.00  0.00    -0.222 OA 
BRANCH  28  29
HETATM   29  C   UNL     1      -9.490   9.155  66.658  1.00  0.00    -0.185 C  
HETATM   30  O   UNL     1      -8.274   9.033  66.673  1.00  0.00    -0.115 OA 
BRANCH  29  31
HETATM   31  C   UNL     1     -10.473   8.071  67.021  1.00  0.00    -0.410 C  
BRANCH  31  32
HETATM   32  C   UNL     1     -10.500   7.811  68.523  1.00  0.00    -0.202 C  
BRANCH  32  33
HETATM   33  C   UNL     1     -10.894   6.369  68.872  1.00  0.00    -0.382 C  
BRANCH  33  34
HETATM   34  C   UNL     1      -9.890   5.771  69.824  1.00  0.00    -0.232 A  
HETATM   35  C   UNL     1      -7.991   4.531  71.468  1.00  0.00    -0.095 A  
HETATM   36  C   UNL     1      -8.538   6.129  69.740  1.00  0.00    -0.132 A  
HETATM   37  C   UNL     1      -7.593   5.511  70.559  1.00  0.00    -0.084 A  
HETATM   38  C   UNL     1      -9.336   4.178  71.566  1.00  0.00    -0.207 A  
HETATM   39  C   UNL     1     -10.282   4.795  70.749  1.00  0.00    -0.246 A  
ENDBRANCH  33  34
ENDBRANCH  32  33
ENDBRANCH  31  32
ENDBRANCH  29  31
ENDBRANCH  28  29
ENDBRANCH  27  28
ENDBRANCH  14  27
ENDBRANCH  13  14
ENDBRANCH  12  13
ENDBRANCH   2  12
TORSDOF 20
ENDMDL
MODEL       32
REMARK 921   NORMALIZED FREE ENERGY PREDICTED BY IDOCK:   -5.89 KCAL/MOL
REMARK 922        TOTAL FREE ENERGY PREDICTED BY IDOCK:  -17.45 KCAL/MOL
REMARK 923 INTER-LIGAND FREE ENERGY PREDICTED BY IDOCK:  -13.67 KCAL/MOL
REMARK 924 INTRA-LIGAND FREE ENERGY PREDICTED BY IDOCK:   -3.78 KCAL/MOL
REMARK 927      BINDING AFFINITY PREDICTED BY RF-SCORE:    0.00 PKD
ROOT
HETATM    1  O   UNL     1     -12.812  12.181  63.237  1.00  0.00    -0.735 OA 
HETATM    2  C   UNL     1     -11.873  12.746  63.780  1.00  0.00    -0.499 C  
ENDROOT
BRANCH   2   3
HETATM    3  C   UNL     1     -10.436  12.296  63.676  1.00  0.00    -0.483 C  
BRANCH   3   4
HETATM    4  C   UNL     1     -10.174  11.010  64.462  1.00  0.00    -0.406 C  
BRANCH   4   5
HETATM    5  C   UNL     1     -10.766  11.062  65.875  1.00  0.00    -0.226 C  
BRANCH   5   6
HETATM    6  C   UNL     1     -10.086  10.094  66.809  1.00  0.00    -0.277 A  
HETATM    7  C   UNL     1     -10.581   8.790  66.960  1.00  0.00    -0.283 A  
HETATM    8  C   UNL     1      -8.838   8.291  68.558  1.00  0.00    -0.137 A  
HETATM    9  C   UNL     1      -9.957   7.894  67.829  1.00  0.00    -0.221 A  
HETATM   10  C   UNL     1      -8.963  10.484  67.550  1.00  0.00    -0.137 A  
HETATM   11  C   UNL     1      -8.341   9.586  68.419  1.00  0.00    -0.118 A  
ENDBRANCH   5   6
ENDBRANCH   4   5
ENDBRANCH   3   4
ENDBRANCH   2   3
BRANCH   2  12
HETATM   12  O   UNL     1     -11.968  13.860  64.558  1.00  0.00    -0.397 OA 
BRANCH  12  13
HETATM   13  C   UNL     1     -10.777  14.660  64.684  1.00  0.00    -0.286 C  
BRANCH  13  14
HETATM   14  C   UNL     1     -10.456  14.887  66.164  1.00  0.00    -0.306 C  
BRANCH  14  15
HETATM   15  O   UNL     1     -11.691  14.966  66.905  1.00  0.00    -0.343 OA 
BRANCH  15  16
HETATM   16  C   UNL     1     -11.588  14.838  68.255  1.00  0.00    -0.323 C  
HETATM   17  O   UNL     1     -11.974  15.653  69.080  1.00  0.00    -0.374 OA 
BRANCH  16  18
HETATM   18  C   UNL     1     -10.892  13.545  68.596  1.00  0.00    -0.281 C  
BRANCH  18  19
HETATM   19  C   UNL     1     -11.883  12.456  68.992  1.00  0.00    -0.349 C  
BRANCH  19  20
HETATM   20  C   UNL     1     -12.248  12.489  70.480  1.00  0.00    -0.382 C  
BRANCH  20  21
HETATM   21  C   UNL     1     -12.219  11.090  71.041  1.00  0.00    -0.456 A  
HETATM   22  C   UNL     1     -12.285   8.423  71.889  1.00  0.00    -0.395 A  
HETATM   23  C   UNL     1     -13.264  10.631  71.854  1.00  0.00    -0.528 A  
HETATM   24  C   UNL     1     -11.197  10.204  70.676  1.00  0.00    -0.418 A  
HETATM   25  C   UNL     1     -13.294   9.301  72.277  1.00  0.00    -0.547 A  
HETATM   26  C   UNL     1     -11.231   8.875  71.097  1.00  0.00    -0.352 A  
ENDBRANCH  20  21
ENDBRANCH  19  20
ENDBRANCH  18  19
ENDBRANCH  16  18
ENDBRANCH  15  16
ENDBRANCH  14  15
BRANCH  14  27
HETATM   27  C   UNL     1      -9.703  16.207  66.371  1.00  0.00    -0.286 C  
BRANCH  27  28
HETATM   28  O   UNL     1     -10.178  17.227  65.480  1.00  0.00    -0.602 OA 
BRANCH  28  29
HETATM   29  C   UNL     1     -10.448  18.423  66.076  1.00  0.00    -0.374 C  
HETATM   30  O   UNL     1     -10.940  19.389  65.511  1.00  0.00    -0.411 OA 
BRANCH  29  31
HETATM   31  C   UNL     1     -10.061  18.376  67.532  1.00  0.00    -0.373 C  
BRANCH  31  32
HETATM   32  C   UNL     1      -9.444  19.691  67.996  1.00  0.00    -0.446 C  
BRANCH  32  33
HETATM   33  C   UNL     1      -7.951  19.566  68.326  1.00  0.00    -0.368 C  
BRANCH  33  34
HETATM   34  C   UNL     1      -7.157  19.336  67.066  1.00  0.00    -0.216 A  
HETATM   35  C   UNL     1      -5.537  18.990  64.807  1.00  0.00    -0.280 A  
HETATM   36  C   UNL     1      -6.355  18.194  66.936  1.00  0.00    -0.200 A  
HETATM   37  C   UNL     1      -5.549  18.022  65.810  1.00  0.00    -0.233 A  
HETATM   38  C   UNL     1      -6.340  20.123  64.923  1.00  0.00    -0.329 A  
HETATM   39  C   UNL     1      -7.148  20.296  66.046  1.00  0.00    -0.293 A  
ENDBRANCH  33  34
ENDBRANCH  32  33
ENDBRANCH  31  32
ENDBRANCH  29  31
ENDBRANCH  28  29
ENDBRANCH  27  28
ENDBRANCH  14  27
ENDBRANCH  13  14
ENDBRANCH  12  13
ENDBRANCH   2  12
TORSDOF 20
ENDMDL
MODEL       33
REMARK 921   NORMALIZED FREE ENERGY PREDICTED BY IDOCK:   -5.83 KCAL/MOL
REMARK 922        TOTAL FREE ENERGY PREDICTED BY IDOCK:  -17.33 KCAL/MOL
REMARK 923 INTER-LIGAND FREE ENERGY PREDICTED BY IDOCK:  -12.73 KCAL/MOL
REMARK 924 INTRA-LIGAND FREE ENERGY PREDICTED BY IDOCK:   -4.60 KCAL/MOL
REMARK 927      BINDING AFFINITY PREDICTED BY RF-SCORE:    0.00 PKD
ROOT
HETATM    1  O   UNL     1      -7.696  11.924  68.497  1.00  0.00    -0.127 OA 
HETATM    2  C   UNL     1      -8.178  12.848  67.856  1.00  0.00    -0.165 C  
ENDROOT
BRANCH   2   3
HETATM    3  C   UNL     1      -8.000  14.306  68.204  1.00  0.00    -0.140 C  
BRANCH   3   4
HETATM    4  C   UNL     1      -7.928  15.193  66.959  1.00  0.00    -0.223 C  
BRANCH   4   5
HETATM    5  C   UNL     1      -7.354  16.580  67.267  1.00  0.00    -0.199 C  
BRANCH   5   6
HETATM    6  C   UNL     1      -8.437  17.616  67.436  1.00  0.00    -0.227 A  
HETATM    7  C   UNL     1      -8.588  18.287  68.658  1.00  0.00    -0.301 A  
HETATM    8  C   UNL     1     -10.459  19.530  67.767  1.00  0.00    -0.574 A  
HETATM    9  C   UNL     1      -9.593  19.242  68.820  1.00  0.00    -0.485 A  
HETATM   10  C   UNL     1      -9.315  17.910  66.386  1.00  0.00    -0.268 A  
HETATM   11  C   UNL     1     -10.320  18.864  66.550  1.00  0.00    -0.493 A  
ENDBRANCH   5   6
ENDBRANCH   4   5
ENDBRANCH   3   4
ENDBRANCH   2   3
BRANCH   2  12
HETATM   12  O   UNL     1      -8.945  12.714  66.739  1.00  0.00    -0.216 OA 
BRANCH  12  13
HETATM   13  C   UNL     1      -8.756  11.512  65.968  1.00  0.00    -0.095 C  
BRANCH  13  14
HETATM   14  C   UNL     1     -10.115  10.892  65.627  1.00  0.00    -0.261 C  
BRANCH  14  15
HETATM   15  O   UNL     1     -10.098   9.498  65.998  1.00  0.00    -0.295 OA 
BRANCH  15  16
HETATM   16  C   UNL     1     -10.495   9.212  67.267  1.00  0.00    -0.265 C  
HETATM   17  O   UNL     1     -11.524   9.602  67.796  1.00  0.00     0.085 OA 
BRANCH  16  18
HETATM   18  C   UNL     1      -9.457   8.357  67.949  1.00  0.00    -0.164 C  
BRANCH  18  19
HETATM   19  C   UNL     1     -10.078   7.435  68.992  1.00  0.00    -0.193 C  
BRANCH  19  20
HETATM   20  C   UNL     1      -9.870   7.929  70.429  1.00  0.00    -0.183 C  
BRANCH  20  21
HETATM   21  C   UNL     1     -11.191   8.359  71.015  1.00  0.00    -0.304 A  
HETATM   22  C   UNL     1     -13.726   9.169  71.880  1.00  0.00    -0.485 A  
HETATM   23  C   UNL     1     -11.475   9.718  71.198  1.00  0.00    -0.472 A  
HETATM   24  C   UNL     1     -12.183   7.409  71.291  1.00  0.00    -0.374 A  
HETATM   25  C   UNL     1     -12.740  10.119  71.630  1.00  0.00    -0.549 A  
HETATM   26  C   UNL     1     -13.446   7.813  71.721  1.00  0.00    -0.373 A  
ENDBRANCH  20  21
ENDBRANCH  19  20
ENDBRANCH  18  19
ENDBRANCH  16  18
ENDBRANCH  15  16
ENDBRANCH  14  15
BRANCH  14  27
HETATM   27  C   UNL     1     -10.397  10.971  64.122  1.00  0.00    -0.369 C  
BRANCH  27  28
HETATM   28  O   UNL     1     -10.733  12.307  63.721  1.00  0.00    -0.373 OA 
BRANCH  28  29
HETATM   29  C   UNL     1     -12.070  12.557  63.635  1.00  0.00    -0.554 C  
HETATM   30  O   UNL     1     -12.898  11.782  63.179  1.00  0.00    -0.571 OA 
BRANCH  29  31
HETATM   31  C   UNL     1     -12.379  13.924  64.190  1.00  0.00    -0.380 C  
BRANCH  31  32
HETATM   32  C   UNL     1     -12.533  13.898  65.707  1.00  0.00    -0.530 C  
BRANCH  32  33
HETATM   33  C   UNL     1     -11.485  14.755  66.428  1.00  0.00    -0.319 C  
BRANCH  33  34
HETATM   34  C   UNL     1     -11.702  14.699  67.919  1.00  0.00    -0.379 A  
HETATM   35  C   UNL     1     -11.923  14.571  70.708  1.00  0.00    -0.388 A  
HETATM   36  C   UNL     1     -11.574  15.859  68.694  1.00  0.00    -0.383 A  
HETATM   37  C   UNL     1     -11.685  15.794  70.083  1.00  0.00    -0.367 A  
HETATM   38  C   UNL     1     -12.064  13.414  69.943  1.00  0.00    -0.389 A  
HETATM   39  C   UNL     1     -11.955  13.477  68.555  1.00  0.00    -0.379 A  
ENDBRANCH  33  34
ENDBRANCH  32  33
ENDBRANCH  31  32
ENDBRANCH  29  31
ENDBRANCH  28  29
ENDBRANCH  27  28
ENDBRANCH  14  27
ENDBRANCH  13  14
ENDBRANCH  12  13
ENDBRANCH   2  12
TORSDOF 20
ENDMDL
MODEL       34
REMARK 921   NORMALIZED FREE ENERGY PREDICTED BY IDOCK:   -5.83 KCAL/MOL
REMARK 922        TOTAL FREE ENERGY PREDICTED BY IDOCK:  -17.33 KCAL/MOL
REMARK 923 INTER-LIGAND FREE ENERGY PREDICTED BY IDOCK:  -11.65 KCAL/MOL
REMARK 924 INTRA-LIGAND FREE ENERGY PREDICTED BY IDOCK:   -5.68 KCAL/MOL
REMARK 927      BINDING AFFINITY PREDICTED BY RF-SCORE:    0.00 PKD
ROOT
HETATM    1  O   UNL     1     -12.659  13.578  63.347  1.00  0.00    -0.740 OA 
HETATM    2  C   UNL     1     -11.712  13.184  64.013  1.00  0.00    -0.439 C  
ENDROOT
BRANCH   2   3
HETATM    3  C   UNL     1     -10.668  14.089  64.624  1.00  0.00    -0.416 C  
BRANCH   3   4
HETATM    4  C   UNL     1     -11.280  15.361  65.215  1.00  0.00    -0.313 C  
BRANCH   4   5
HETATM    5  C   UNL     1     -10.967  15.518  66.707  1.00  0.00    -0.257 C  
BRANCH   5   6
HETATM    6  C   UNL     1     -10.553  16.925  67.054  1.00  0.00    -0.230 A  
HETATM    7  C   UNL     1     -10.444  17.321  68.395  1.00  0.00    -0.381 A  
HETATM    8  C   UNL     1      -9.801  19.546  67.708  1.00  0.00    -0.474 A  
HETATM    9  C   UNL     1     -10.068  18.624  68.719  1.00  0.00    -0.398 A  
HETATM   10  C   UNL     1     -10.287  17.861  66.046  1.00  0.00    -0.318 A  
HETATM   11  C   UNL     1      -9.911  19.164  66.372  1.00  0.00    -0.458 A  
ENDBRANCH   5   6
ENDBRANCH   4   5
ENDBRANCH   3   4
ENDBRANCH   2   3
BRANCH   2  12
HETATM   12  O   UNL     1     -11.444  11.882  64.308  1.00  0.00    -0.350 OA 
BRANCH  12  13
HETATM   13  C   UNL     1     -10.074  11.460  64.171  1.00  0.00    -0.309 C  
BRANCH  13  14
HETATM   14  C   UNL     1      -9.631  10.708  65.430  1.00  0.00    -0.230 C  
BRANCH  14  15
HETATM   15  O   UNL     1      -9.886  11.537  66.583  1.00  0.00    -0.196 OA 
BRANCH  15  16
HETATM   16  C   UNL     1     -10.803  11.063  67.468  1.00  0.00    -0.263 C  
HETATM   17  O   UNL     1     -10.854   9.921  67.899  1.00  0.00    -0.260 OA 
BRANCH  16  18
HETATM   18  C   UNL     1     -11.782  12.154  67.825  1.00  0.00    -0.390 C  
BRANCH  18  19
HETATM   19  C   UNL     1     -11.395  12.861  69.119  1.00  0.00    -0.329 C  
BRANCH  19  20
HETATM   20  C   UNL     1     -12.366  12.577  70.271  1.00  0.00    -0.265 C  
BRANCH  20  21
HETATM   21  C   UNL     1     -12.463  13.788  71.163  1.00  0.00    -0.450 A  
HETATM   22  C   UNL     1     -12.795  16.129  72.663  1.00  0.00    -0.416 A  
HETATM   23  C   UNL     1     -11.604  14.878  70.974  1.00  0.00    -0.344 A  
HETATM   24  C   UNL     1     -13.476  13.875  72.127  1.00  0.00    -0.578 A  
HETATM   25  C   UNL     1     -11.771  16.044  71.724  1.00  0.00    -0.593 A  
HETATM   26  C   UNL     1     -13.642  15.042  72.873  1.00  0.00    -0.525 A  
ENDBRANCH  20  21
ENDBRANCH  19  20
ENDBRANCH  18  19
ENDBRANCH  16  18
ENDBRANCH  15  16
ENDBRANCH  14  15
BRANCH  14  27
HETATM   27  C   UNL     1      -8.128  10.408  65.394  1.00  0.00    -0.152 C  
BRANCH  27  28
HETATM   28  O   UNL     1      -7.621  10.111  66.703  1.00  0.00    -0.102 OA 
BRANCH  28  29
HETATM   29  C   UNL     1      -6.382  10.616  66.963  1.00  0.00    -0.073 C  
HETATM   30  O   UNL     1      -5.389   9.945  67.200  1.00  0.00    -0.041 OA 
BRANCH  29  31
HETATM   31  C   UNL     1      -6.414  12.123  66.906  1.00  0.00    -0.007 C  
BRANCH  31  32
HETATM   32  C   UNL     1      -6.865  12.730  68.230  1.00  0.00    -0.090 C  
BRANCH  32  33
HETATM   33  C   UNL     1      -8.057  13.683  68.075  1.00  0.00    -0.161 C  
BRANCH  33  34
HETATM   34  C   UNL     1      -7.580  15.112  68.039  1.00  0.00    -0.127 A  
HETATM   35  C   UNL     1      -6.519  17.704  67.972  1.00  0.00    -0.177 A  
HETATM   36  C   UNL     1      -7.291  15.729  66.814  1.00  0.00    -0.076 A  
HETATM   37  C   UNL     1      -6.763  17.019  66.781  1.00  0.00    -0.265 A  
HETATM   38  C   UNL     1      -6.815  17.102  69.193  1.00  0.00    -0.236 A  
HETATM   39  C   UNL     1      -7.344  15.813  69.228  1.00  0.00    -0.216 A  
ENDBRANCH  33  34
ENDBRANCH  32  33
ENDBRANCH  31  32
ENDBRANCH  29  31
ENDBRANCH  28  29
ENDBRANCH  27  28
ENDBRANCH  14  27
ENDBRANCH  13  14
ENDBRANCH  12  13
ENDBRANCH   2  12
TORSDOF 20
ENDMDL
MODEL       35
REMARK 921   NORMALIZED FREE ENERGY PREDICTED BY IDOCK:   -5.82 KCAL/MOL
REMARK 922        TOTAL FREE ENERGY PREDICTED BY IDOCK:  -17.31 KCAL/MOL
REMARK 923 INTER-LIGAND FREE ENERGY PREDICTED BY IDOCK:  -12.51 KCAL/MOL
REMARK 924 INTRA-LIGAND FREE ENERGY PREDICTED BY IDOCK:   -4.80 KCAL/MOL
REMARK 927      BINDING AFFINITY PREDICTED BY RF-SCORE:    0.00 PKD
ROOT
HETATM    1  O   UNL     1     -13.214  13.883  65.058  1.00  0.00    -0.729 OA 
HETATM    2  C   UNL     1     -12.078  13.528  65.343  1.00  0.00    -0.415 C  
ENDROOT
BRANCH   2   3
HETATM    3  C   UNL     1     -10.842  13.943  64.581  1.00  0.00    -0.420 C  
BRANCH   3   4
HETATM    4  C   UNL     1     -10.094  15.085  65.272  1.00  0.00    -0.378 C  
BRANCH   4   5
HETATM    5  C   UNL     1     -10.713  16.453  64.967  1.00  0.00    -0.279 C  
BRANCH   5   6
HETATM    6  C   UNL     1     -10.578  17.406  66.127  1.00  0.00    -0.208 A  
HETATM    7  C   UNL     1     -10.585  18.792  65.909  1.00  0.00    -0.405 A  
HETATM    8  C   UNL     1     -10.311  19.187  68.277  1.00  0.00    -0.448 A  
HETATM    9  C   UNL     1     -10.454  19.676  66.980  1.00  0.00    -0.600 A  
HETATM   10  C   UNL     1     -10.430  16.925  67.434  1.00  0.00    -0.310 A  
HETATM   11  C   UNL     1     -10.299  17.812  68.504  1.00  0.00    -0.366 A  
ENDBRANCH   5   6
ENDBRANCH   4   5
ENDBRANCH   3   4
ENDBRANCH   2   3
BRANCH   2  12
HETATM   12  O   UNL     1     -11.746  12.708  66.378  1.00  0.00    -0.368 OA 
BRANCH  12  13
HETATM   13  C   UNL     1     -12.093  13.167  67.699  1.00  0.00    -0.232 C  
BRANCH  13  14
HETATM   14  C   UNL     1     -11.559  12.188  68.749  1.00  0.00    -0.327 C  
BRANCH  14  15
HETATM   15  O   UNL     1     -11.664  12.797  70.053  1.00  0.00    -0.288 OA 
BRANCH  15  16
HETATM   16  C   UNL     1     -12.636  12.304  70.866  1.00  0.00    -0.241 C  
HETATM   17  O   UNL     1     -13.255  12.942  71.704  1.00  0.00    -0.388 OA 
BRANCH  16  18
HETATM   18  C   UNL     1     -12.826  10.831  70.604  1.00  0.00    -0.377 C  
BRANCH  18  19
HETATM   19  C   UNL     1     -13.302  10.091  71.850  1.00  0.00    -0.516 C  
BRANCH  19  20
HETATM   20  C   UNL     1     -13.572   8.604  71.598  1.00  0.00    -0.408 C  
BRANCH  20  21
HETATM   21  C   UNL     1     -12.278   7.834  71.660  1.00  0.00    -0.341 A  
HETATM   22  C   UNL     1      -9.986   6.246  71.912  1.00  0.00    -0.193 A  
HETATM   23  C   UNL     1     -11.361   8.072  72.692  1.00  0.00    -0.469 A  
HETATM   24  C   UNL     1     -12.023   6.806  70.743  1.00  0.00    -0.433 A  
HETATM   25  C   UNL     1     -10.219   7.280  72.815  1.00  0.00    -0.266 A  
HETATM   26  C   UNL     1     -10.882   6.014  70.869  1.00  0.00    -0.349 A  
ENDBRANCH  20  21
ENDBRANCH  19  20
ENDBRANCH  18  19
ENDBRANCH  16  18
ENDBRANCH  15  16
ENDBRANCH  14  15
BRANCH  14  27
HETATM   27  C   UNL     1     -10.081  11.866  68.502  1.00  0.00    -0.206 C  
BRANCH  27  28
HETATM   28  O   UNL     1      -9.297  13.061  68.374  1.00  0.00    -0.206 OA 
BRANCH  28  29
HETATM   29  C   UNL     1      -8.196  12.939  67.580  1.00  0.00    -0.177 C  
HETATM   30  O   UNL     1      -8.108  12.190  66.618  1.00  0.00    -0.108 OA 
BRANCH  29  31
HETATM   31  C   UNL     1      -7.108  13.868  68.056  1.00  0.00    -0.145 C  
BRANCH  31  32
HETATM   32  C   UNL     1      -7.211  15.242  67.404  1.00  0.00    -0.235 C  
BRANCH  32  33
HETATM   33  C   UNL     1      -6.836  16.385  68.357  1.00  0.00    -0.142 C  
BRANCH  33  34
HETATM   34  C   UNL     1      -6.787  17.692  67.609  1.00  0.00    -0.185 A  
HETATM   35  C   UNL     1      -6.879  20.131  66.235  1.00  0.00    -0.267 A  
HETATM   36  C   UNL     1      -6.732  18.904  68.311  1.00  0.00    -0.259 A  
HETATM   37  C   UNL     1      -6.778  20.118  67.626  1.00  0.00    -0.284 A  
HETATM   38  C   UNL     1      -6.922  18.930  65.529  1.00  0.00    -0.218 A  
HETATM   39  C   UNL     1      -6.875  17.715  66.212  1.00  0.00    -0.322 A  
ENDBRANCH  33  34
ENDBRANCH  32  33
ENDBRANCH  31  32
ENDBRANCH  29  31
ENDBRANCH  28  29
ENDBRANCH  27  28
ENDBRANCH  14  27
ENDBRANCH  13  14
ENDBRANCH  12  13
ENDBRANCH   2  12
TORSDOF 20
ENDMDL
MODEL       36
REMARK 921   NORMALIZED FREE ENERGY PREDICTED BY IDOCK:   -5.81 KCAL/MOL
REMARK 922        TOTAL FREE ENERGY PREDICTED BY IDOCK:  -17.29 KCAL/MOL
REMARK 923 INTER-LIGAND FREE ENERGY PREDICTED BY IDOCK:  -11.80 KCAL/MOL
REMARK 924 INTRA-LIGAND FREE ENERGY PREDICTED BY IDOCK:   -5.49 KCAL/MOL
REMARK 927      BINDING AFFINITY PREDICTED BY RF-SCORE:    0.00 PKD
ROOT
HETATM    1  O   UNL     1      -5.683  10.883  70.150  1.00  0.00    -0.063 OA 
HETATM    2  C   UNL     1      -6.842  10.697  69.806  1.00  0.00    -0.143 C  
ENDROOT
BRANCH   2   3
HETATM    3  C   UNL     1      -7.428  11.182  68.501  1.00  0.00    -0.112 C  
BRANCH   3   4
HETATM    4  C   UNL     1      -7.230  12.685  68.302  1.00  0.00    -0.113 C  
BRANCH   4   5
HETATM    5  C   UNL     1      -8.002  13.217  67.089  1.00  0.00    -0.077 C  
BRANCH   5   6
HETATM    6  C   UNL     1      -8.634  14.558  67.364  1.00  0.00    -0.213 A  
HETATM    7  C   UNL     1      -8.890  14.962  68.682  1.00  0.00    -0.179 A  
HETATM    8  C   UNL     1      -9.825  17.043  67.885  1.00  0.00    -0.269 A  
HETATM    9  C   UNL     1      -9.481  16.200  68.940  1.00  0.00    -0.244 A  
HETATM   10  C   UNL     1      -8.988  15.411  66.311  1.00  0.00    -0.341 A  
HETATM   11  C   UNL     1      -9.578  16.648  66.571  1.00  0.00    -0.292 A  
ENDBRANCH   5   6
ENDBRANCH   4   5
ENDBRANCH   3   4
ENDBRANCH   2   3
BRANCH   2  12
HETATM   12  O   UNL     1      -7.782  10.032  70.532  1.00  0.00    -0.264 OA 
BRANCH  12  13
HETATM   13  C   UNL     1      -7.853   8.606  70.343  1.00  0.00    -0.091 C  
BRANCH  13  14
HETATM   14  C   UNL     1      -9.261   8.208  69.890  1.00  0.00    -0.151 C  
BRANCH  14  15
HETATM   15  O   UNL     1     -10.083   7.992  71.056  1.00  0.00    -0.185 OA 
BRANCH  15  16
HETATM   16  C   UNL     1     -11.316   8.566  71.033  1.00  0.00    -0.271 C  
HETATM   17  O   UNL     1     -12.379   7.976  71.157  1.00  0.00    -0.294 OA 
BRANCH  16  18
HETATM   18  C   UNL     1     -11.186  10.050  70.799  1.00  0.00    -0.428 C  
BRANCH  18  19
HETATM   19  C   UNL     1     -12.540  10.702  70.536  1.00  0.00    -0.433 C  
BRANCH  19  20
HETATM   20  C   UNL     1     -13.158  11.325  71.793  1.00  0.00    -0.527 C  
BRANCH  20  21
HETATM   21  C   UNL     1     -13.137  12.828  71.677  1.00  0.00    -0.428 A  
HETATM   22  C   UNL     1     -13.255  15.598  71.286  1.00  0.00    -0.515 A  
HETATM   23  C   UNL     1     -12.241  13.459  70.805  1.00  0.00    -0.409 A  
HETATM   24  C   UNL     1     -14.078  13.603  72.368  1.00  0.00    -0.586 A  
HETATM   25  C   UNL     1     -12.301  14.840  70.612  1.00  0.00    -0.401 A  
HETATM   26  C   UNL     1     -14.137  14.982  72.172  1.00  0.00    -0.629 A  
ENDBRANCH  20  21
ENDBRANCH  19  20
ENDBRANCH  18  19
ENDBRANCH  16  18
ENDBRANCH  15  16
ENDBRANCH  14  15
BRANCH  14  27
HETATM   27  C   UNL     1      -9.235   6.902  69.088  1.00  0.00    -0.141 C  
BRANCH  27  28
HETATM   28  O   UNL     1      -8.770   7.118  67.748  1.00  0.00    -0.125 OA 
BRANCH  28  29
HETATM   29  C   UNL     1      -9.691   7.666  66.906  1.00  0.00    -0.213 C  
HETATM   30  O   UNL     1     -10.838   7.267  66.770  1.00  0.00    -0.311 OA 
BRANCH  29  31
HETATM   31  C   UNL     1      -9.091   8.839  66.174  1.00  0.00    -0.251 C  
BRANCH  31  32
HETATM   32  C   UNL     1     -10.153   9.852  65.761  1.00  0.00    -0.317 C  
BRANCH  32  33
HETATM   33  C   UNL     1     -10.764  10.597  66.955  1.00  0.00    -0.317 C  
BRANCH  33  34
HETATM   34  C   UNL     1     -11.408  11.879  66.496  1.00  0.00    -0.403 A  
HETATM   35  C   UNL     1     -12.435  14.333  65.616  1.00  0.00    -0.432 A  
HETATM   36  C   UNL     1     -11.635  12.105  65.131  1.00  0.00    -0.372 A  
HETATM   37  C   UNL     1     -12.147  13.327  64.695  1.00  0.00    -0.458 A  
HETATM   38  C   UNL     1     -12.223  14.112  66.976  1.00  0.00    -0.374 A  
HETATM   39  C   UNL     1     -11.713  12.891  67.415  1.00  0.00    -0.428 A  
ENDBRANCH  33  34
ENDBRANCH  32  33
ENDBRANCH  31  32
ENDBRANCH  29  31
ENDBRANCH  28  29
ENDBRANCH  27  28
ENDBRANCH  14  27
ENDBRANCH  13  14
ENDBRANCH  12  13
ENDBRANCH   2  12
TORSDOF 20
ENDMDL
MODEL       37
REMARK 921   NORMALIZED FREE ENERGY PREDICTED BY IDOCK:   -5.80 KCAL/MOL
REMARK 922        TOTAL FREE ENERGY PREDICTED BY IDOCK:  -17.26 KCAL/MOL
REMARK 923 INTER-LIGAND FREE ENERGY PREDICTED BY IDOCK:  -12.74 KCAL/MOL
REMARK 924 INTRA-LIGAND FREE ENERGY PREDICTED BY IDOCK:   -4.52 KCAL/MOL
REMARK 927      BINDING AFFINITY PREDICTED BY RF-SCORE:    0.00 PKD
ROOT
HETATM    1  O   UNL     1     -12.990  14.227  64.975  1.00  0.00    -0.693 OA 
HETATM    2  C   UNL     1     -11.933  13.871  64.473  1.00  0.00    -0.437 C  
ENDROOT
BRANCH   2   3
HETATM    3  C   UNL     1     -11.779  12.655  63.591  1.00  0.00    -0.597 C  
BRANCH   3   4
HETATM    4  C   UNL     1     -10.645  11.741  64.058  1.00  0.00    -0.425 C  
BRANCH   4   5
HETATM    5  C   UNL     1     -10.942  11.095  65.416  1.00  0.00    -0.151 C  
BRANCH   5   6
HETATM    6  C   UNL     1      -9.681  10.760  66.171  1.00  0.00    -0.253 A  
HETATM    7  C   UNL     1      -8.876  11.783  66.694  1.00  0.00    -0.189 A  
HETATM    8  C   UNL     1      -7.324  10.146  67.562  1.00  0.00    -0.089 A  
HETATM    9  C   UNL     1      -7.705  11.475  67.388  1.00  0.00    -0.143 A  
HETATM   10  C   UNL     1      -9.286   9.428  66.348  1.00  0.00    -0.241 A  
HETATM   11  C   UNL     1      -8.115   9.123  67.042  1.00  0.00    -0.109 A  
ENDBRANCH   5   6
ENDBRANCH   4   5
ENDBRANCH   3   4
ENDBRANCH   2   3
BRANCH   2  12
HETATM   12  O   UNL     1     -10.737  14.502  64.626  1.00  0.00    -0.399 OA 
BRANCH  12  13
HETATM   13  C   UNL     1     -10.719  15.644  65.504  1.00  0.00    -0.389 C  
BRANCH  13  14
HETATM   14  C   UNL     1     -10.258  15.221  66.902  1.00  0.00    -0.268 C  
BRANCH  14  15
HETATM   15  O   UNL     1     -11.081  15.881  67.886  1.00  0.00    -0.331 OA 
BRANCH  15  16
HETATM   16  C   UNL     1     -11.801  15.068  68.705  1.00  0.00    -0.296 C  
HETATM   17  O   UNL     1     -12.399  15.419  69.710  1.00  0.00    -0.324 OA 
BRANCH  16  18
HETATM   18  C   UNL     1     -11.730  13.646  68.207  1.00  0.00    -0.398 C  
BRANCH  18  19
HETATM   19  C   UNL     1     -11.657  12.647  69.357  1.00  0.00    -0.369 C  
BRANCH  19  20
HETATM   20  C   UNL     1     -11.937  11.205  68.917  1.00  0.00    -0.367 C  
BRANCH  20  21
HETATM   21  C   UNL     1     -11.431  10.247  69.965  1.00  0.00    -0.367 A  
HETATM   22  C   UNL     1     -10.432   8.657  72.041  1.00  0.00    -0.422 A  
HETATM   23  C   UNL     1     -10.095   9.827  69.954  1.00  0.00    -0.288 A  
HETATM   24  C   UNL     1     -12.267   9.844  71.015  1.00  0.00    -0.446 A  
HETATM   25  C   UNL     1      -9.599   9.033  70.990  1.00  0.00    -0.348 A  
HETATM   26  C   UNL     1     -11.768   9.053  72.049  1.00  0.00    -0.417 A  
ENDBRANCH  20  21
ENDBRANCH  19  20
ENDBRANCH  18  19
ENDBRANCH  16  18
ENDBRANCH  15  16
ENDBRANCH  14  15
BRANCH  14  27
HETATM   27  C   UNL     1      -8.805  15.640  67.154  1.00  0.00    -0.208 C  
BRANCH  27  28
HETATM   28  O   UNL     1      -8.620  16.112  68.496  1.00  0.00    -0.184 OA 
BRANCH  28  29
HETATM   29  C   UNL     1      -7.377  15.894  69.011  1.00  0.00    -0.185 C  
HETATM   30  O   UNL     1      -7.111  15.063  69.868  1.00  0.00    -0.185 OA 
BRANCH  29  31
HETATM   31  C   UNL     1      -6.378  16.820  68.365  1.00  0.00    -0.139 C  
BRANCH  31  32
HETATM   32  C   UNL     1      -6.377  18.198  69.018  1.00  0.00    -0.242 C  
BRANCH  32  33
HETATM   33  C   UNL     1      -6.629  19.333  68.017  1.00  0.00    -0.259 C  
BRANCH  33  34
HETATM   34  C   UNL     1      -8.099  19.431  67.700  1.00  0.00    -0.317 A  
HETATM   35  C   UNL     1     -10.839  19.428  67.119  1.00  0.00    -0.561 A  
HETATM   36  C   UNL     1      -9.044  19.448  68.736  1.00  0.00    -0.411 A  
HETATM   37  C   UNL     1     -10.408  19.447  68.445  1.00  0.00    -0.461 A  
HETATM   38  C   UNL     1      -9.906  19.423  66.084  1.00  0.00    -0.461 A  
HETATM   39  C   UNL     1      -8.542  19.425  66.372  1.00  0.00    -0.372 A  
ENDBRANCH  33  34
ENDBRANCH  32  33
ENDBRANCH  31  32
ENDBRANCH  29  31
ENDBRANCH  28  29
ENDBRANCH  27  28
ENDBRANCH  14  27
ENDBRANCH  13  14
ENDBRANCH  12  13
ENDBRANCH   2  12
TORSDOF 20
ENDMDL
MODEL       38
REMARK 921   NORMALIZED FREE ENERGY PREDICTED BY IDOCK:   -5.78 KCAL/MOL
REMARK 922        TOTAL FREE ENERGY PREDICTED BY IDOCK:  -17.21 KCAL/MOL
REMARK 923 INTER-LIGAND FREE ENERGY PREDICTED BY IDOCK:  -12.68 KCAL/MOL
REMARK 924 INTRA-LIGAND FREE ENERGY PREDICTED BY IDOCK:   -4.53 KCAL/MOL
REMARK 927      BINDING AFFINITY PREDICTED BY RF-SCORE:    0.00 PKD
ROOT
HETATM    1  O   UNL     1      -6.864  13.258  69.222  1.00  0.00    -0.100 OA 
HETATM    2  C   UNL     1      -7.623  13.801  68.432  1.00  0.00    -0.135 C  
ENDROOT
BRANCH   2   3
HETATM    3  C   UNL     1      -7.179  14.745  67.340  1.00  0.00    -0.202 C  
BRANCH   3   4
HETATM    4  C   UNL     1      -6.127  15.742  67.829  1.00  0.00    -0.171 C  
BRANCH   4   5
HETATM    5  C   UNL     1      -6.751  16.922  68.581  1.00  0.00    -0.178 C  
BRANCH   5   6
HETATM    6  C   UNL     1      -6.773  18.178  67.747  1.00  0.00    -0.204 A  
HETATM    7  C   UNL     1      -6.716  18.099  66.348  1.00  0.00    -0.263 A  
HETATM    8  C   UNL     1      -6.794  20.508  66.188  1.00  0.00    -0.264 A  
HETATM    9  C   UNL     1      -6.730  19.259  65.573  1.00  0.00    -0.305 A  
HETATM   10  C   UNL     1      -6.833  19.439  68.354  1.00  0.00    -0.317 A  
HETATM   11  C   UNL     1      -6.846  20.598  67.578  1.00  0.00    -0.389 A  
ENDBRANCH   5   6
ENDBRANCH   4   5
ENDBRANCH   3   4
ENDBRANCH   2   3
BRANCH   2  12
HETATM   12  O   UNL     1      -8.976  13.649  68.408  1.00  0.00    -0.187 OA 
BRANCH  12  13
HETATM   13  C   UNL     1      -9.470  12.333  68.094  1.00  0.00    -0.213 C  
BRANCH  13  14
HETATM   14  C   UNL     1     -10.804  12.093  68.806  1.00  0.00    -0.228 C  
BRANCH  14  15
HETATM   15  O   UNL     1     -11.031  10.671  68.909  1.00  0.00    -0.215 OA 
BRANCH  15  16
HETATM   16  C   UNL     1     -10.836  10.123  70.138  1.00  0.00    -0.311 C  
HETATM   17  O   UNL     1      -9.828   9.538  70.505  1.00  0.00    -0.248 OA 
BRANCH  16  18
HETATM   18  C   UNL     1     -12.068  10.314  70.986  1.00  0.00    -0.487 C  
BRANCH  18  19
HETATM   19  C   UNL     1     -12.264   9.163  71.967  1.00  0.00    -0.443 C  
BRANCH  19  20
HETATM   20  C   UNL     1     -13.024   7.978  71.357  1.00  0.00    -0.277 C  
BRANCH  20  21
HETATM   21  C   UNL     1     -12.081   6.820  71.154  1.00  0.00    -0.422 A  
HETATM   22  C   UNL     1     -10.150   4.825  70.797  1.00  0.00    -0.286 A  
HETATM   23  C   UNL     1     -11.636   6.486  69.868  1.00  0.00    -0.433 A  
HETATM   24  C   UNL     1     -11.563   6.129  72.257  1.00  0.00    -0.362 A  
HETATM   25  C   UNL     1     -10.674   5.491  69.693  1.00  0.00    -0.349 A  
HETATM   26  C   UNL     1     -10.600   5.136  72.079  1.00  0.00    -0.266 A  
ENDBRANCH  20  21
ENDBRANCH  19  20
ENDBRANCH  18  19
ENDBRANCH  16  18
ENDBRANCH  15  16
ENDBRANCH  14  15
BRANCH  14  27
HETATM   27  C   UNL     1     -11.970  12.694  68.013  1.00  0.00    -0.245 C  
BRANCH  27  28
HETATM   28  O   UNL     1     -12.074  12.110  66.706  1.00  0.00    -0.609 OA 
BRANCH  28  29
HETATM   29  C   UNL     1     -12.319  12.998  65.702  1.00  0.00    -0.446 C  
HETATM   30  O   UNL     1     -12.672  12.695  64.572  1.00  0.00    -0.650 OA 
BRANCH  29  31
HETATM   31  C   UNL     1     -12.102  14.407  66.192  1.00  0.00    -0.373 C  
BRANCH  31  32
HETATM   32  C   UNL     1     -11.345  15.251  65.171  1.00  0.00    -0.321 C  
BRANCH  32  33
HETATM   33  C   UNL     1     -10.000  15.765  65.702  1.00  0.00    -0.378 C  
BRANCH  33  34
HETATM   34  C   UNL     1     -10.197  17.056  66.455  1.00  0.00    -0.330 A  
HETATM   35  C   UNL     1     -10.380  19.481  67.845  1.00  0.00    -0.567 A  
HETATM   36  C   UNL     1     -10.335  18.264  65.758  1.00  0.00    -0.193 A  
HETATM   37  C   UNL     1     -10.426  19.471  66.451  1.00  0.00    -0.597 A  
HETATM   38  C   UNL     1     -10.255  18.283  68.546  1.00  0.00    -0.402 A  
HETATM   39  C   UNL     1     -10.165  17.075  67.855  1.00  0.00    -0.317 A  
ENDBRANCH  33  34
ENDBRANCH  32  33
ENDBRANCH  31  32
ENDBRANCH  29  31
ENDBRANCH  28  29
ENDBRANCH  27  28
ENDBRANCH  14  27
ENDBRANCH  13  14
ENDBRANCH  12  13
ENDBRANCH   2  12
TORSDOF 20
ENDMDL
MODEL       39
REMARK 921   NORMALIZED FREE ENERGY PREDICTED BY IDOCK:   -5.77 KCAL/MOL
REMARK 922        TOTAL FREE ENERGY PREDICTED BY IDOCK:  -17.20 KCAL/MOL
REMARK 923 INTER-LIGAND FREE ENERGY PREDICTED BY IDOCK:  -11.61 KCAL/MOL
REMARK 924 INTRA-LIGAND FREE ENERGY PREDICTED BY IDOCK:   -5.58 KCAL/MOL
REMARK 927      BINDING AFFINITY PREDICTED BY RF-SCORE:    0.00 PKD
ROOT
HETATM    1  O   UNL     1     -12.470   6.600  71.901  1.00  0.00    -0.344 OA 
HETATM    2  C   UNL     1     -11.941   7.604  72.357  1.00  0.00    -0.253 C  
ENDROOT
BRANCH   2   3
HETATM    3  C   UNL     1     -10.507   7.671  72.824  1.00  0.00    -0.368 C  
BRANCH   3   4
HETATM    4  C   UNL     1      -9.542   8.003  71.684  1.00  0.00    -0.218 C  
BRANCH   4   5
HETATM    5  C   UNL     1      -9.212   6.777  70.826  1.00  0.00    -0.158 C  
BRANCH   5   6
HETATM    6  C   UNL     1      -9.375   7.055  69.353  1.00  0.00    -0.146 A  
HETATM    7  C   UNL     1     -10.650   7.050  68.769  1.00  0.00    -0.235 A  
HETATM    8  C   UNL     1      -9.686   7.555  66.612  1.00  0.00    -0.273 A  
HETATM    9  C   UNL     1     -10.803   7.301  67.405  1.00  0.00    -0.317 A  
HETATM   10  C   UNL     1      -8.258   7.307  68.546  1.00  0.00    -0.125 A  
HETATM   11  C   UNL     1      -8.414   7.558  67.182  1.00  0.00    -0.121 A  
ENDBRANCH   5   6
ENDBRANCH   4   5
ENDBRANCH   3   4
ENDBRANCH   2   3
BRANCH   2  12
HETATM   12  O   UNL     1     -12.551   8.811  72.518  1.00  0.00    -0.391 OA 
BRANCH  12  13
HETATM   13  C   UNL     1     -13.472   9.210  71.485  1.00  0.00    -0.356 C  
BRANCH  13  14
HETATM   14  C   UNL     1     -13.067  10.577  70.925  1.00  0.00    -0.306 C  
BRANCH  14  15
HETATM   15  O   UNL     1     -11.671  10.539  70.562  1.00  0.00    -0.298 OA 
BRANCH  15  16
HETATM   16  C   UNL     1     -11.384  10.825  69.264  1.00  0.00    -0.286 C  
HETATM   17  O   UNL     1     -12.203  11.032  68.381  1.00  0.00    -0.586 OA 
BRANCH  16  18
HETATM   18  C   UNL     1      -9.890  10.821  69.056  1.00  0.00    -0.208 C  
BRANCH  18  19
HETATM   19  C   UNL     1      -9.468  11.796  67.961  1.00  0.00    -0.188 C  
BRANCH  19  20
HETATM   20  C   UNL     1      -8.214  11.342  67.205  1.00  0.00    -0.150 C  
BRANCH  20  21
HETATM   21  C   UNL     1      -8.594  10.884  65.820  1.00  0.00    -0.176 A  
HETATM   22  C   UNL     1      -9.253  10.255  63.173  1.00  0.00    -0.311 A  
HETATM   23  C   UNL     1      -9.916  11.003  65.372  1.00  0.00    -0.313 A  
HETATM   24  C   UNL     1      -7.610  10.427  64.934  1.00  0.00    -0.074 A  
HETATM   25  C   UNL     1     -10.242  10.688  64.052  1.00  0.00    -0.334 A  
HETATM   26  C   UNL     1      -7.939  10.115  63.615  1.00  0.00    -0.160 A  
ENDBRANCH  20  21
ENDBRANCH  19  20
ENDBRANCH  18  19
ENDBRANCH  16  18
ENDBRANCH  15  16
ENDBRANCH  14  15
BRANCH  14  27
HETATM   27  C   UNL     1     -13.246  11.679  71.975  1.00  0.00    -0.338 C  
BRANCH  27  28
HETATM   28  O   UNL     1     -13.528  12.946  71.363  1.00  0.00    -0.178 OA 
BRANCH  28  29
HETATM   29  C   UNL     1     -13.067  14.027  72.053  1.00  0.00    -0.401 C  
HETATM   30  O   UNL     1     -13.470  14.379  73.152  1.00  0.00    -0.625 OA 
BRANCH  29  31
HETATM   31  C   UNL     1     -11.982  14.720  71.268  1.00  0.00    -0.404 C  
BRANCH  31  32
HETATM   32  C   UNL     1     -12.060  14.389  69.781  1.00  0.00    -0.386 C  
BRANCH  32  33
HETATM   33  C   UNL     1     -11.303  15.396  68.905  1.00  0.00    -0.322 C  
BRANCH  33  34
HETATM   34  C   UNL     1     -11.230  14.899  67.484  1.00  0.00    -0.334 A  
HETATM   35  C   UNL     1     -11.175  14.134  64.790  1.00  0.00    -0.379 A  
HETATM   36  C   UNL     1     -10.140  15.241  66.673  1.00  0.00    -0.268 A  
HETATM   37  C   UNL     1     -10.113  14.860  65.331  1.00  0.00    -0.400 A  
HETATM   38  C   UNL     1     -12.257  13.780  65.594  1.00  0.00    -0.484 A  
HETATM   39  C   UNL     1     -12.285  14.159  66.935  1.00  0.00    -0.400 A  
ENDBRANCH  33  34
ENDBRANCH  32  33
ENDBRANCH  31  32
ENDBRANCH  29  31
ENDBRANCH  28  29
ENDBRANCH  27  28
ENDBRANCH  14  27
ENDBRANCH  13  14
ENDBRANCH  12  13
ENDBRANCH   2  12
TORSDOF 20
ENDMDL
MODEL       40
REMARK 921   NORMALIZED FREE ENERGY PREDICTED BY IDOCK:   -5.75 KCAL/MOL
REMARK 922        TOTAL FREE ENERGY PREDICTED BY IDOCK:  -17.16 KCAL/MOL
REMARK 923 INTER-LIGAND FREE ENERGY PREDICTED BY IDOCK:  -11.50 KCAL/MOL
REMARK 924 INTRA-LIGAND FREE ENERGY PREDICTED BY IDOCK:   -5.66 KCAL/MOL
REMARK 927      BINDING AFFINITY PREDICTED BY RF-SCORE:    0.00 PKD
ROOT
HETATM    1  O   UNL     1      -5.337  11.458  65.748  1.00  0.00    -0.267 OA 
HETATM    2  C   UNL     1      -6.364  11.160  66.341  1.00  0.00    -0.116 C  
ENDROOT
BRANCH   2   3
HETATM    3  C   UNL     1      -6.822  11.808  67.626  1.00  0.00    -0.099 C  
BRANCH   3   4
HETATM    4  C   UNL     1      -7.448  13.183  67.390  1.00  0.00    -0.131 C  
BRANCH   4   5
HETATM    5  C   UNL     1      -7.555  14.002  68.680  1.00  0.00    -0.130 C  
BRANCH   5   6
HETATM    6  C   UNL     1      -7.195  15.450  68.464  1.00  0.00    -0.114 A  
HETATM    7  C   UNL     1      -7.080  16.322  69.556  1.00  0.00    -0.141 A  
HETATM    8  C   UNL     1      -6.542  18.149  68.069  1.00  0.00    -0.194 A  
HETATM    9  C   UNL     1      -6.752  17.664  69.359  1.00  0.00    -0.176 A  
HETATM   10  C   UNL     1      -6.985  15.949  67.172  1.00  0.00    -0.227 A  
HETATM   11  C   UNL     1      -6.659  17.291  66.976  1.00  0.00    -0.212 A  
ENDBRANCH   5   6
ENDBRANCH   4   5
ENDBRANCH   3   4
ENDBRANCH   2   3
BRANCH   2  12
HETATM   12  O   UNL     1      -7.252  10.206  65.947  1.00  0.00    -0.108 OA 
BRANCH  12  13
HETATM   13  C   UNL     1      -8.024  10.495  64.765  1.00  0.00    -0.046 C  
BRANCH  13  14
HETATM   14  C   UNL     1      -9.491  10.723  65.143  1.00  0.00    -0.226 C  
BRANCH  14  15
HETATM   15  O   UNL     1      -9.998   9.537  65.788  1.00  0.00    -0.300 OA 
BRANCH  15  16
HETATM   16  C   UNL     1     -10.437   9.693  67.066  1.00  0.00    -0.232 C  
HETATM   17  O   UNL     1     -10.582   8.797  67.884  1.00  0.00    -0.229 OA 
BRANCH  16  18
HETATM   18  C   UNL     1     -10.754  11.144  67.326  1.00  0.00    -0.304 C  
BRANCH  18  19
HETATM   19  C   UNL     1     -10.450  11.541  68.766  1.00  0.00    -0.227 C  
BRANCH  19  20
HETATM   20  C   UNL     1     -11.713  11.774  69.603  1.00  0.00    -0.413 C  
BRANCH  20  21
HETATM   21  C   UNL     1     -11.885  10.645  70.588  1.00  0.00    -0.463 A  
HETATM   22  C   UNL     1     -12.206   8.402  72.231  1.00  0.00    -0.449 A  
HETATM   23  C   UNL     1     -13.166  10.213  70.954  1.00  0.00    -0.360 A  
HETATM   24  C   UNL     1     -10.766   9.955  71.072  1.00  0.00    -0.241 A  
HETATM   25  C   UNL     1     -13.323   9.095  71.774  1.00  0.00    -0.469 A  
HETATM   26  C   UNL     1     -10.926   8.837  71.890  1.00  0.00    -0.435 A  
ENDBRANCH  20  21
ENDBRANCH  19  20
ENDBRANCH  18  19
ENDBRANCH  16  18
ENDBRANCH  15  16
ENDBRANCH  14  15
BRANCH  14  27
HETATM   27  C   UNL     1     -10.349  10.979  63.898  1.00  0.00    -0.372 C  
BRANCH  27  28
HETATM   28  O   UNL     1     -10.557  12.383  63.684  1.00  0.00    -0.424 OA 
BRANCH  28  29
HETATM   29  C   UNL     1     -11.863  12.774  63.695  1.00  0.00    -0.532 C  
HETATM   30  O   UNL     1     -12.808  12.063  63.386  1.00  0.00    -0.760 OA 
BRANCH  29  31
HETATM   31  C   UNL     1     -11.972  14.206  64.153  1.00  0.00    -0.421 C  
BRANCH  31  32
HETATM   32  C   UNL     1     -10.735  14.649  64.928  1.00  0.00    -0.447 C  
BRANCH  32  33
HETATM   33  C   UNL     1     -10.935  14.601  66.449  1.00  0.00    -0.325 C  
BRANCH  33  34
HETATM   34  C   UNL     1     -10.628  15.945  67.057  1.00  0.00    -0.306 A  
HETATM   35  C   UNL     1     -10.238  18.484  68.174  1.00  0.00    -0.412 A  
HETATM   36  C   UNL     1     -10.756  16.139  68.439  1.00  0.00    -0.298 A  
HETATM   37  C   UNL     1     -10.562  17.404  68.994  1.00  0.00    -0.207 A  
HETATM   38  C   UNL     1     -10.097  18.297  66.800  1.00  0.00    -0.375 A  
HETATM   39  C   UNL     1     -10.291  17.033  66.243  1.00  0.00    -0.309 A  
ENDBRANCH  33  34
ENDBRANCH  32  33
ENDBRANCH  31  32
ENDBRANCH  29  31
ENDBRANCH  28  29
ENDBRANCH  27  28
ENDBRANCH  14  27
ENDBRANCH  13  14
ENDBRANCH  12  13
ENDBRANCH   2  12
TORSDOF 20
ENDMDL
MODEL       41
REMARK 921   NORMALIZED FREE ENERGY PREDICTED BY IDOCK:   -5.74 KCAL/MOL
REMARK 922        TOTAL FREE ENERGY PREDICTED BY IDOCK:  -17.14 KCAL/MOL
REMARK 923 INTER-LIGAND FREE ENERGY PREDICTED BY IDOCK:  -12.70 KCAL/MOL
REMARK 924 INTRA-LIGAND FREE ENERGY PREDICTED BY IDOCK:   -4.44 KCAL/MOL
REMARK 927      BINDING AFFINITY PREDICTED BY RF-SCORE:    0.00 PKD
ROOT
HETATM    1  O   UNL     1     -13.110  12.203  72.052  1.00  0.00    -0.448 OA 
HETATM    2  C   UNL     1     -12.754  11.612  71.042  1.00  0.00    -0.298 C  
ENDROOT
BRANCH   2   3
HETATM    3  C   UNL     1     -13.088  10.171  70.739  1.00  0.00    -0.351 C  
BRANCH   3   4
HETATM    4  C   UNL     1     -13.248   9.335  72.010  1.00  0.00    -0.519 C  
BRANCH   4   5
HETATM    5  C   UNL     1     -12.594   7.955  71.884  1.00  0.00    -0.348 C  
BRANCH   5   6
HETATM    6  C   UNL     1     -11.146   7.973  72.302  1.00  0.00    -0.393 A  
HETATM    7  C   UNL     1     -10.189   8.623  71.509  1.00  0.00    -0.345 A  
HETATM    8  C   UNL     1      -8.447   7.998  73.063  1.00  0.00    -0.252 A  
HETATM    9  C   UNL     1      -8.847   8.637  71.891  1.00  0.00    -0.275 A  
HETATM   10  C   UNL     1     -10.733   7.331  73.476  1.00  0.00    -0.367 A  
HETATM   11  C   UNL     1      -9.390   7.345  73.855  1.00  0.00    -0.318 A  
ENDBRANCH   5   6
ENDBRANCH   4   5
ENDBRANCH   3   4
ENDBRANCH   2   3
BRANCH   2  12
HETATM   12  O   UNL     1     -12.006  12.148  70.039  1.00  0.00    -0.329 OA 
BRANCH  12  13
HETATM   13  C   UNL     1     -11.831  11.336  68.862  1.00  0.00    -0.345 C  
BRANCH  13  14
HETATM   14  C   UNL     1     -11.207  12.171  67.740  1.00  0.00    -0.275 C  
BRANCH  14  15
HETATM   15  O   UNL     1     -12.206  12.415  66.728  1.00  0.00    -0.551 OA 
BRANCH  15  16
HETATM   16  C   UNL     1     -12.325  13.702  66.304  1.00  0.00    -0.412 C  
HETATM   17  O   UNL     1     -13.027  14.086  65.381  1.00  0.00    -0.726 OA 
BRANCH  16  18
HETATM   18  C   UNL     1     -11.433  14.598  67.125  1.00  0.00    -0.380 C  
BRANCH  18  19
HETATM   19  C   UNL     1     -12.195  15.267  68.263  1.00  0.00     0.146 C  
BRANCH  19  20
HETATM   20  C   UNL     1     -11.307  15.597  69.468  1.00  0.00    -0.329 C  
BRANCH  20  21
HETATM   21  C   UNL     1     -12.158  15.724  70.707  1.00  0.00    -0.448 A  
HETATM   22  C   UNL     1     -13.686  15.733  73.052  1.00  0.00    -0.583 A  
HETATM   23  C   UNL     1     -13.523  15.412  70.663  1.00  0.00    -0.213 A  
HETATM   24  C   UNL     1     -11.572  16.061  71.934  1.00  0.00    -0.524 A  
HETATM   25  C   UNL     1     -14.283  15.418  71.834  1.00  0.00    -0.640 A  
HETATM   26  C   UNL     1     -12.333  16.064  73.102  1.00  0.00    -0.637 A  
ENDBRANCH  20  21
ENDBRANCH  19  20
ENDBRANCH  18  19
ENDBRANCH  16  18
ENDBRANCH  15  16
ENDBRANCH  14  15
BRANCH  14  27
HETATM   27  C   UNL     1     -10.044  11.425  67.076  1.00  0.00    -0.208 C  
BRANCH  27  28
HETATM   28  O   UNL     1     -10.512  10.501  66.083  1.00  0.00    -0.230 OA 
BRANCH  28  29
HETATM   29  C   UNL     1      -9.869   9.300  66.073  1.00  0.00    -0.293 C  
HETATM   30  O   UNL     1      -9.009   8.973  65.268  1.00  0.00    -0.196 OA 
BRANCH  29  31
HETATM   31  C   UNL     1     -10.365   8.437  67.206  1.00  0.00    -0.369 C  
BRANCH  31  32
HETATM   32  C   UNL     1      -9.242   8.060  68.165  1.00  0.00    -0.134 C  
BRANCH  32  33
HETATM   33  C   UNL     1      -8.715   6.637  67.936  1.00  0.00    -0.116 C  
BRANCH  33  34
HETATM   34  C   UNL     1      -8.863   5.818  69.193  1.00  0.00    -0.112 A  
HETATM   35  C   UNL     1      -9.170   4.454  71.620  1.00  0.00    -0.186 A  
HETATM   36  C   UNL     1     -10.132   5.396  69.614  1.00  0.00    -0.319 A  
HETATM   37  C   UNL     1     -10.283   4.717  70.823  1.00  0.00    -0.214 A  
HETATM   38  C   UNL     1      -7.903   4.860  71.203  1.00  0.00    -0.088 A  
HETATM   39  C   UNL     1      -7.749   5.538  69.994  1.00  0.00    -0.078 A  
ENDBRANCH  33  34
ENDBRANCH  32  33
ENDBRANCH  31  32
ENDBRANCH  29  31
ENDBRANCH  28  29
ENDBRANCH  27  28
ENDBRANCH  14  27
ENDBRANCH  13  14
ENDBRANCH  12  13
ENDBRANCH   2  12
TORSDOF 20
ENDMDL
MODEL       42
REMARK 921   NORMALIZED FREE ENERGY PREDICTED BY IDOCK:   -5.74 KCAL/MOL
REMARK 922        TOTAL FREE ENERGY PREDICTED BY IDOCK:  -17.14 KCAL/MOL
REMARK 923 INTER-LIGAND FREE ENERGY PREDICTED BY IDOCK:  -13.10 KCAL/MOL
REMARK 924 INTRA-LIGAND FREE ENERGY PREDICTED BY IDOCK:   -4.04 KCAL/MOL
REMARK 927      BINDING AFFINITY PREDICTED BY RF-SCORE:    0.00 PKD
ROOT
HETATM    1  O   UNL     1     -10.848   7.231  67.824  1.00  0.00    -0.205 OA 
HETATM    2  C   UNL     1     -10.381   8.357  67.734  1.00  0.00    -0.235 C  
ENDROOT
BRANCH   2   3
HETATM    3  C   UNL     1      -9.417   8.959  68.729  1.00  0.00    -0.144 C  
BRANCH   3   4
HETATM    4  C   UNL     1     -10.103   9.946  69.675  1.00  0.00    -0.254 C  
BRANCH   4   5
HETATM    5  C   UNL     1     -10.235   9.391  71.097  1.00  0.00    -0.361 C  
BRANCH   5   6
HETATM    6  C   UNL     1     -11.638   8.927  71.395  1.00  0.00    -0.382 A  
HETATM    7  C   UNL     1     -11.967   7.566  71.310  1.00  0.00    -0.333 A  
HETATM    8  C   UNL     1     -14.250   8.057  71.931  1.00  0.00    -0.514 A  
HETATM    9  C   UNL     1     -13.266   7.135  71.580  1.00  0.00    -0.419 A  
HETATM   10  C   UNL     1     -12.636   9.846  71.745  1.00  0.00    -0.506 A  
HETATM   11  C   UNL     1     -13.935   9.412  72.013  1.00  0.00    -0.334 A  
ENDBRANCH   5   6
ENDBRANCH   4   5
ENDBRANCH   3   4
ENDBRANCH   2   3
BRANCH   2  12
HETATM   12  O   UNL     1     -10.651   9.244  66.737  1.00  0.00    -0.221 OA 
BRANCH  12  13
HETATM   13  C   UNL     1      -9.566   9.557  65.842  1.00  0.00    -0.261 C  
BRANCH  13  14
HETATM   14  C   UNL     1      -9.576  11.052  65.512  1.00  0.00    -0.222 C  
BRANCH  14  15
HETATM   15  O   UNL     1      -9.730  11.801  66.735  1.00  0.00    -0.192 OA 
BRANCH  15  16
HETATM   16  C   UNL     1      -8.590  12.318  67.267  1.00  0.00    -0.183 C  
HETATM   17  O   UNL     1      -7.452  11.984  66.973  1.00  0.00    -0.148 OA 
BRANCH  16  18
HETATM   18  C   UNL     1      -8.932  13.355  68.306  1.00  0.00    -0.176 C  
BRANCH  18  19
HETATM   19  C   UNL     1     -10.379  13.234  68.772  1.00  0.00    -0.154 C  
BRANCH  19  20
HETATM   20  C   UNL     1     -11.041  14.593  69.031  1.00  0.00    -0.273 C  
BRANCH  20  21
HETATM   21  C   UNL     1     -11.810  14.544  70.326  1.00  0.00    -0.373 A  
HETATM   22  C   UNL     1     -13.420  14.555  72.617  1.00  0.00    -0.590 A  
HETATM   23  C   UNL     1     -11.772  15.627  71.214  1.00  0.00    -0.478 A  
HETATM   24  C   UNL     1     -12.648  13.457  70.610  1.00  0.00    -0.325 A  
HETATM   25  C   UNL     1     -12.574  15.629  72.356  1.00  0.00    -0.510 A  
HETATM   26  C   UNL     1     -13.451  13.464  71.750  1.00  0.00    -0.452 A  
ENDBRANCH  20  21
ENDBRANCH  19  20
ENDBRANCH  18  19
ENDBRANCH  16  18
ENDBRANCH  15  16
ENDBRANCH  14  15
BRANCH  14  27
HETATM   27  C   UNL     1     -10.754  11.408  64.596  1.00  0.00    -0.314 C  
BRANCH  27  28
HETATM   28  O   UNL     1     -10.605  12.720  64.035  1.00  0.00    -0.392 OA 
BRANCH  28  29
HETATM   29  C   UNL     1     -11.705  13.516  64.147  1.00  0.00    -0.411 C  
HETATM   30  O   UNL     1     -12.578  13.626  63.298  1.00  0.00    -0.816 OA 
BRANCH  29  31
HETATM   31  C   UNL     1     -11.693  14.234  65.473  1.00  0.00    -0.353 C  
BRANCH  31  32
HETATM   32  C   UNL     1     -11.048  15.611  65.365  1.00  0.00    -0.271 C  
BRANCH  32  33
HETATM   33  C   UNL     1      -9.579  15.618  65.809  1.00  0.00    -0.361 C  
BRANCH  33  34
HETATM   34  C   UNL     1      -9.229  16.945  66.432  1.00  0.00    -0.308 A  
HETATM   35  C   UNL     1      -8.645  19.493  67.438  1.00  0.00    -0.346 A  
HETATM   36  C   UNL     1     -10.192  17.658  67.160  1.00  0.00    -0.342 A  
HETATM   37  C   UNL     1      -9.900  18.926  67.660  1.00  0.00    -0.383 A  
HETATM   38  C   UNL     1      -7.679  18.786  66.726  1.00  0.00    -0.252 A  
HETATM   39  C   UNL     1      -7.968  17.517  66.225  1.00  0.00    -0.303 A  
ENDBRANCH  33  34
ENDBRANCH  32  33
ENDBRANCH  31  32
ENDBRANCH  29  31
ENDBRANCH  28  29
ENDBRANCH  27  28
ENDBRANCH  14  27
ENDBRANCH  13  14
ENDBRANCH  12  13
ENDBRANCH   2  12
TORSDOF 20
ENDMDL
MODEL       43
REMARK 921   NORMALIZED FREE ENERGY PREDICTED BY IDOCK:   -5.73 KCAL/MOL
REMARK 922        TOTAL FREE ENERGY PREDICTED BY IDOCK:  -17.12 KCAL/MOL
REMARK 923 INTER-LIGAND FREE ENERGY PREDICTED BY IDOCK:  -11.46 KCAL/MOL
REMARK 924 INTRA-LIGAND FREE ENERGY PREDICTED BY IDOCK:   -5.66 KCAL/MOL
REMARK 927      BINDING AFFINITY PREDICTED BY RF-SCORE:    0.00 PKD
ROOT
HETATM    1  O   UNL     1     -14.136  14.360  72.546  1.00  0.00    -0.517 OA 
HETATM    2  C   UNL     1     -13.365  14.317  71.598  1.00  0.00    -0.365 C  
ENDROOT
BRANCH   2   3
HETATM    3  C   UNL     1     -13.082  15.482  70.680  1.00  0.00    -0.361 C  
BRANCH   3   4
HETATM    4  C   UNL     1     -11.859  15.236  69.793  1.00  0.00    -0.357 C  
BRANCH   4   5
HETATM    5  C   UNL     1     -10.749  16.263  70.037  1.00  0.00    -0.290 C  
BRANCH   5   6
HETATM    6  C   UNL     1     -10.561  17.185  68.858  1.00  0.00    -0.314 A  
HETATM    7  C   UNL     1     -10.832  16.734  67.558  1.00  0.00    -0.216 A  
HETATM    8  C   UNL     1     -10.198  18.885  66.658  1.00  0.00    -0.462 A  
HETATM    9  C   UNL     1     -10.653  17.582  66.465  1.00  0.00    -0.191 A  
HETATM   10  C   UNL     1     -10.101  18.495  69.041  1.00  0.00    -0.276 A  
HETATM   11  C   UNL     1      -9.922  19.341  67.946  1.00  0.00    -0.462 A  
ENDBRANCH   5   6
ENDBRANCH   4   5
ENDBRANCH   3   4
ENDBRANCH   2   3
BRANCH   2  12
HETATM   12  O   UNL     1     -12.644  13.226  71.218  1.00  0.00    -0.358 OA 
BRANCH  12  13
HETATM   13  C   UNL     1     -12.982  11.978  71.855  1.00  0.00    -0.323 C  
BRANCH  13  14
HETATM   14  C   UNL     1     -12.597  10.807  70.946  1.00  0.00    -0.401 C  
BRANCH  14  15
HETATM   15  O   UNL     1     -11.927   9.803  71.736  1.00  0.00    -0.392 OA 
BRANCH  15  16
HETATM   16  C   UNL     1     -12.654   8.692  72.030  1.00  0.00    -0.378 C  
HETATM   17  O   UNL     1     -13.860   8.568  71.878  1.00  0.00    -0.383 OA 
BRANCH  16  18
HETATM   18  C   UNL     1     -11.754   7.628  72.607  1.00  0.00    -0.323 C  
BRANCH  18  19
HETATM   19  C   UNL     1     -10.285   8.032  72.543  1.00  0.00    -0.361 C  
BRANCH  19  20
HETATM   20  C   UNL     1      -9.500   7.270  71.470  1.00  0.00    -0.160 C  
BRANCH  20  21
HETATM   21  C   UNL     1      -9.167   8.198  70.329  1.00  0.00    -0.151 A  
HETATM   22  C   UNL     1      -8.369   9.775  68.158  1.00  0.00    -0.110 A  
HETATM   23  C   UNL     1      -8.258   9.248  70.512  1.00  0.00    -0.219 A  
HETATM   24  C   UNL     1      -9.688   7.960  69.051  1.00  0.00    -0.162 A  
HETATM   25  C   UNL     1      -7.863  10.033  69.428  1.00  0.00    -0.141 A  
HETATM   26  C   UNL     1      -9.290   8.745  67.969  1.00  0.00    -0.153 A  
ENDBRANCH  20  21
ENDBRANCH  19  20
ENDBRANCH  18  19
ENDBRANCH  16  18
ENDBRANCH  15  16
ENDBRANCH  14  15
BRANCH  14  27
HETATM   27  C   UNL     1     -11.628  11.257  69.846  1.00  0.00    -0.334 C  
BRANCH  27  28
HETATM   28  O   UNL     1     -12.284  11.345  68.573  1.00  0.00    -0.557 OA 
BRANCH  28  29
HETATM   29  C   UNL     1     -11.649  12.129  67.657  1.00  0.00    -0.343 C  
HETATM   30  O   UNL     1     -12.054  12.351  66.525  1.00  0.00    -0.599 OA 
BRANCH  29  31
HETATM   31  C   UNL     1     -10.379  12.690  68.245  1.00  0.00    -0.246 C  
BRANCH  31  32
HETATM   32  C   UNL     1      -9.547  13.425  67.200  1.00  0.00    -0.241 C  
BRANCH  32  33
HETATM   33  C   UNL     1      -8.055  13.481  67.557  1.00  0.00    -0.190 C  
BRANCH  33  34
HETATM   34  C   UNL     1      -7.634  14.906  67.810  1.00  0.00    -0.171 A  
HETATM   35  C   UNL     1      -6.674  17.498  68.259  1.00  0.00    -0.197 A  
HETATM   36  C   UNL     1      -7.414  15.777  66.734  1.00  0.00    -0.135 A  
HETATM   37  C   UNL     1      -6.937  17.068  66.959  1.00  0.00    -0.228 A  
HETATM   38  C   UNL     1      -6.901  16.642  69.335  1.00  0.00    -0.218 A  
HETATM   39  C   UNL     1      -7.379  15.351  69.113  1.00  0.00    -0.175 A  
ENDBRANCH  33  34
ENDBRANCH  32  33
ENDBRANCH  31  32
ENDBRANCH  29  31
ENDBRANCH  28  29
ENDBRANCH  27  28
ENDBRANCH  14  27
ENDBRANCH  13  14
ENDBRANCH  12  13
ENDBRANCH   2  12
TORSDOF 20
ENDMDL
MODEL       44
REMARK 921   NORMALIZED FREE ENERGY PREDICTED BY IDOCK:   -5.72 KCAL/MOL
REMARK 922        TOTAL FREE ENERGY PREDICTED BY IDOCK:  -17.09 KCAL/MOL
REMARK 923 INTER-LIGAND FREE ENERGY PREDICTED BY IDOCK:  -11.30 KCAL/MOL
REMARK 924 INTRA-LIGAND FREE ENERGY PREDICTED BY IDOCK:   -5.78 KCAL/MOL
REMARK 927      BINDING AFFINITY PREDICTED BY RF-SCORE:    0.00 PKD
ROOT
HETATM    1  O   UNL     1     -10.418   8.168  66.393  1.00  0.00    -0.154 OA 
HETATM    2  C   UNL     1      -9.610   9.079  66.279  1.00  0.00    -0.260 C  
ENDROOT
BRANCH   2   3
HETATM    3  C   UNL     1      -8.758   9.311  65.054  1.00  0.00    -0.221 C  
BRANCH   3   4
HETATM    4  C   UNL     1      -9.031  10.670  64.408  1.00  0.00    -0.212 C  
BRANCH   4   5
HETATM    5  C   UNL     1     -10.506  10.846  64.028  1.00  0.00    -0.379 C  
BRANCH   5   6
HETATM    6  C   UNL     1     -11.032  12.204  64.418  1.00  0.00    -0.375 A  
HETATM    7  C   UNL     1     -12.378  12.364  64.778  1.00  0.00    -0.497 A  
HETATM    8  C   UNL     1     -12.025  14.729  65.128  1.00  0.00    -0.278 A  
HETATM    9  C   UNL     1     -12.870  13.621  65.134  1.00  0.00    -0.382 A  
HETATM   10  C   UNL     1     -10.193  13.325  64.411  1.00  0.00    -0.300 A  
HETATM   11  C   UNL     1     -10.687  14.581  64.766  1.00  0.00    -0.414 A  
ENDBRANCH   5   6
ENDBRANCH   4   5
ENDBRANCH   3   4
ENDBRANCH   2   3
BRANCH   2  12
HETATM   12  O   UNL     1      -9.347  10.021  67.227  1.00  0.00    -0.146 OA 
BRANCH  12  13
HETATM   13  C   UNL     1     -10.437  10.380  68.097  1.00  0.00    -0.188 C  
BRANCH  13  14
HETATM   14  C   UNL     1     -10.289  11.837  68.546  1.00  0.00    -0.217 C  
BRANCH  14  15
HETATM   15  O   UNL     1     -11.549  12.514  68.357  1.00  0.00    -0.279 OA 
BRANCH  15  16
HETATM   16  C   UNL     1     -11.836  13.500  69.248  1.00  0.00    -0.341 C  
HETATM   17  O   UNL     1     -11.933  13.361  70.458  1.00  0.00    -0.326 OA 
BRANCH  16  18
HETATM   18  C   UNL     1     -12.051  14.804  68.520  1.00  0.00    -0.210 C  
BRANCH  18  19
HETATM   19  C   UNL     1     -11.613  15.999  69.359  1.00  0.00    -0.320 C  
BRANCH  19  20
HETATM   20  C   UNL     1     -10.153  16.400  69.117  1.00  0.00    -0.278 C  
BRANCH  20  21
HETATM   21  C   UNL     1     -10.102  17.630  68.247  1.00  0.00    -0.362 A  
HETATM   22  C   UNL     1     -10.240  19.939  66.670  1.00  0.00    -0.609 A  
HETATM   23  C   UNL     1     -10.333  17.533  66.869  1.00  0.00    -0.315 A  
HETATM   24  C   UNL     1      -9.920  18.895  68.823  1.00  0.00    -0.466 A  
HETATM   25  C   UNL     1     -10.401  18.686  66.085  1.00  0.00    -0.481 A  
HETATM   26  C   UNL     1      -9.990  20.044  68.037  1.00  0.00    -0.550 A  
ENDBRANCH  20  21
ENDBRANCH  19  20
ENDBRANCH  18  19
ENDBRANCH  16  18
ENDBRANCH  15  16
ENDBRANCH  14  15
BRANCH  14  27
HETATM   27  C   UNL     1      -9.236  12.569  67.706  1.00  0.00    -0.198 C  
BRANCH  27  28
HETATM   28  O   UNL     1      -7.974  12.633  68.388  1.00  0.00    -0.142 OA 
BRANCH  28  29
HETATM   29  C   UNL     1      -6.999  13.310  67.718  1.00  0.00    -0.153 C  
HETATM   30  O   UNL     1      -5.836  12.947  67.623  1.00  0.00    -0.125 OA 
BRANCH  29  31
HETATM   31  C   UNL     1      -7.565  14.566  67.106  1.00  0.00    -0.045 C  
BRANCH  31  32
HETATM   32  C   UNL     1      -6.913  15.819  67.677  1.00  0.00    -0.194 C  
BRANCH  32  33
HETATM   33  C   UNL     1      -6.693  16.912  66.622  1.00  0.00    -0.264 C  
BRANCH  33  34
HETATM   34  C   UNL     1      -6.605  18.264  67.283  1.00  0.00    -0.199 A  
HETATM   35  C   UNL     1      -6.256  20.763  68.498  1.00  0.00    -0.337 A  
HETATM   36  C   UNL     1      -6.515  19.425  66.503  1.00  0.00    -0.195 A  
HETATM   37  C   UNL     1      -6.342  20.669  67.109  1.00  0.00    -0.308 A  
HETATM   38  C   UNL     1      -6.357  19.615  69.281  1.00  0.00    -0.348 A  
HETATM   39  C   UNL     1      -6.532  18.370  68.677  1.00  0.00    -0.237 A  
ENDBRANCH  33  34
ENDBRANCH  32  33
ENDBRANCH  31  32
ENDBRANCH  29  31
ENDBRANCH  28  29
ENDBRANCH  27  28
ENDBRANCH  14  27
ENDBRANCH  13  14
ENDBRANCH  12  13
ENDBRANCH   2  12
TORSDOF 20
ENDMDL
MODEL       45
REMARK 921   NORMALIZED FREE ENERGY PREDICTED BY IDOCK:   -5.70 KCAL/MOL
REMARK 922        TOTAL FREE ENERGY PREDICTED BY IDOCK:  -17.05 KCAL/MOL
REMARK 923 INTER-LIGAND FREE ENERGY PREDICTED BY IDOCK:  -11.69 KCAL/MOL
REMARK 924 INTRA-LIGAND FREE ENERGY PREDICTED BY IDOCK:   -5.36 KCAL/MOL
REMARK 927      BINDING AFFINITY PREDICTED BY RF-SCORE:    0.00 PKD
ROOT
HETATM    1  O   UNL     1     -12.496  14.682  64.158  1.00  0.00    -0.736 OA 
HETATM    2  C   UNL     1     -12.066  14.065  65.123  1.00  0.00    -0.410 C  
ENDROOT
BRANCH   2   3
HETATM    3  C   UNL     1     -11.495  14.715  66.360  1.00  0.00    -0.348 C  
BRANCH   3   4
HETATM    4  C   UNL     1     -12.238  14.294  67.630  1.00  0.00    -0.215 C  
BRANCH   4   5
HETATM    5  C   UNL     1     -11.672  14.968  68.885  1.00  0.00    -0.354 C  
BRANCH   5   6
HETATM    6  C   UNL     1     -12.341  14.475  70.143  1.00  0.00    -0.398 A  
HETATM    7  C   UNL     1     -13.031  15.369  70.974  1.00  0.00    -0.556 A  
HETATM    8  C   UNL     1     -13.573  13.571  72.494  1.00  0.00    -0.674 A  
HETATM    9  C   UNL     1     -13.646  14.917  72.142  1.00  0.00    -0.522 A  
HETATM   10  C   UNL     1     -12.270  13.125  70.508  1.00  0.00    -0.405 A  
HETATM   11  C   UNL     1     -12.885  12.675  71.677  1.00  0.00    -0.367 A  
ENDBRANCH   5   6
ENDBRANCH   4   5
ENDBRANCH   3   4
ENDBRANCH   2   3
BRANCH   2  12
HETATM   12  O   UNL     1     -12.028  12.709  65.237  1.00  0.00    -0.391 OA 
BRANCH  12  13
HETATM   13  C   UNL     1     -10.838  12.055  64.758  1.00  0.00    -0.306 C  
BRANCH  13  14
HETATM   14  C   UNL     1     -10.268  11.143  65.849  1.00  0.00    -0.251 C  
BRANCH  14  15
HETATM   15  O   UNL     1      -9.069  11.744  66.382  1.00  0.00    -0.208 OA 
BRANCH  15  16
HETATM   16  C   UNL     1      -9.135  12.166  67.673  1.00  0.00    -0.181 C  
HETATM   17  O   UNL     1      -8.603  13.170  68.122  1.00  0.00    -0.169 OA 
BRANCH  16  18
HETATM   18  C   UNL     1      -9.943  11.191  68.491  1.00  0.00    -0.204 C  
BRANCH  18  19
HETATM   19  C   UNL     1      -9.052  10.245  69.289  1.00  0.00    -0.206 C  
BRANCH  19  20
HETATM   20  C   UNL     1      -9.823   9.440  70.341  1.00  0.00    -0.313 C  
BRANCH  20  21
HETATM   21  C   UNL     1      -8.859   8.619  71.158  1.00  0.00    -0.249 A  
HETATM   22  C   UNL     1      -7.213   6.907  72.642  1.00  0.00    -0.078 A  
HETATM   23  C   UNL     1      -9.027   8.499  72.544  1.00  0.00    -0.270 A  
HETATM   24  C   UNL     1      -7.843   7.888  70.528  1.00  0.00    -0.095 A  
HETATM   25  C   UNL     1      -8.205   7.646  73.281  1.00  0.00    -0.183 A  
HETATM   26  C   UNL     1      -7.025   7.035  71.267  1.00  0.00    -0.061 A  
ENDBRANCH  20  21
ENDBRANCH  19  20
ENDBRANCH  18  19
ENDBRANCH  16  18
ENDBRANCH  15  16
ENDBRANCH  14  15
BRANCH  14  27
HETATM   27  C   UNL     1      -9.889   9.771  65.281  1.00  0.00    -0.265 C  
BRANCH  27  28
HETATM   28  O   UNL     1      -8.523   9.442  65.570  1.00  0.00    -0.130 OA 
BRANCH  28  29
HETATM   29  C   UNL     1      -8.346   8.253  66.214  1.00  0.00    -0.124 C  
HETATM   30  O   UNL     1      -7.263   7.784  66.531  1.00  0.00    -0.082 OA 
BRANCH  29  31
HETATM   31  C   UNL     1      -9.681   7.607  66.484  1.00  0.00    -0.251 C  
BRANCH  31  32
HETATM   32  C   UNL     1      -9.638   6.713  67.718  1.00  0.00    -0.129 C  
BRANCH  32  33
HETATM   33  C   UNL     1     -11.032   6.284  68.194  1.00  0.00    -0.412 C  
BRANCH  33  34
HETATM   34  C   UNL     1     -11.000   5.941  69.661  1.00  0.00    -0.447 A  
HETATM   35  C   UNL     1     -10.814   5.439  72.411  1.00  0.00    -0.297 A  
HETATM   36  C   UNL     1     -11.815   6.636  70.566  1.00  0.00    -0.430 A  
HETATM   37  C   UNL     1     -11.722   6.385  71.934  1.00  0.00    -0.378 A  
HETATM   38  C   UNL     1     -10.008   4.736  71.517  1.00  0.00    -0.263 A  
HETATM   39  C   UNL     1     -10.101   4.984  70.148  1.00  0.00    -0.338 A  
ENDBRANCH  33  34
ENDBRANCH  32  33
ENDBRANCH  31  32
ENDBRANCH  29  31
ENDBRANCH  28  29
ENDBRANCH  27  28
ENDBRANCH  14  27
ENDBRANCH  13  14
ENDBRANCH  12  13
ENDBRANCH   2  12
TORSDOF 20
ENDMDL
MODEL       46
REMARK 921   NORMALIZED FREE ENERGY PREDICTED BY IDOCK:   -5.70 KCAL/MOL
REMARK 922        TOTAL FREE ENERGY PREDICTED BY IDOCK:  -17.05 KCAL/MOL
REMARK 923 INTER-LIGAND FREE ENERGY PREDICTED BY IDOCK:  -12.49 KCAL/MOL
REMARK 924 INTRA-LIGAND FREE ENERGY PREDICTED BY IDOCK:   -4.56 KCAL/MOL
REMARK 927      BINDING AFFINITY PREDICTED BY RF-SCORE:    0.00 PKD
ROOT
HETATM    1  O   UNL     1     -11.546  16.978  64.145  1.00  0.00    -1.022 OA 
HETATM    2  C   UNL     1     -11.014  16.101  64.811  1.00  0.00    -0.313 C  
ENDROOT
BRANCH   2   3
HETATM    3  C   UNL     1     -10.358  16.333  66.151  1.00  0.00    -0.352 C  
BRANCH   3   4
HETATM    4  C   UNL     1      -8.845  16.115  66.100  1.00  0.00    -0.367 C  
BRANCH   4   5
HETATM    5  C   UNL     1      -8.137  16.660  67.346  1.00  0.00    -0.187 C  
BRANCH   5   6
HETATM    6  C   UNL     1      -7.673  18.082  67.156  1.00  0.00    -0.233 A  
HETATM    7  C   UNL     1      -8.512  19.152  67.502  1.00  0.00    -0.317 A  
HETATM    8  C   UNL     1      -6.826  20.730  66.791  1.00  0.00    -0.352 A  
HETATM    9  C   UNL     1      -8.088  20.469  67.322  1.00  0.00    -0.362 A  
HETATM   10  C   UNL     1      -6.409  18.356  66.620  1.00  0.00    -0.207 A  
HETATM   11  C   UNL     1      -5.987  19.674  66.440  1.00  0.00    -0.170 A  
ENDBRANCH   5   6
ENDBRANCH   4   5
ENDBRANCH   3   4
ENDBRANCH   2   3
BRANCH   2  12
HETATM   12  O   UNL     1     -10.923  14.789  64.457  1.00  0.00    -0.327 OA 
BRANCH  12  13
HETATM   13  C   UNL     1     -12.140  14.021  64.517  1.00  0.00    -0.459 C  
BRANCH  13  14
HETATM   14  C   UNL     1     -11.887  12.700  65.251  1.00  0.00    -0.408 C  
BRANCH  14  15
HETATM   15  O   UNL     1     -10.827  12.893  66.211  1.00  0.00    -0.271 OA 
BRANCH  15  16
HETATM   16  C   UNL     1     -11.206  12.951  67.515  1.00  0.00    -0.290 C  
HETATM   17  O   UNL     1     -12.003  13.745  67.992  1.00  0.00    -0.361 OA 
BRANCH  16  18
HETATM   18  C   UNL     1     -10.472  11.900  68.310  1.00  0.00    -0.221 C  
BRANCH  18  19
HETATM   19  C   UNL     1     -11.353  10.690  68.599  1.00  0.00    -0.345 C  
BRANCH  19  20
HETATM   20  C   UNL     1     -12.010  10.744  69.983  1.00  0.00    -0.427 C  
BRANCH  20  21
HETATM   21  C   UNL     1     -11.399   9.694  70.876  1.00  0.00    -0.431 A  
HETATM   22  C   UNL     1     -10.257   7.910  72.706  1.00  0.00    -0.380 A  
HETATM   23  C   UNL     1     -10.008   9.550  70.950  1.00  0.00    -0.308 A  
HETATM   24  C   UNL     1     -12.213   8.919  71.713  1.00  0.00    -0.429 A  
HETATM   25  C   UNL     1      -9.441   8.659  71.863  1.00  0.00    -0.369 A  
HETATM   26  C   UNL     1     -11.643   8.032  72.626  1.00  0.00    -0.448 A  
ENDBRANCH  20  21
ENDBRANCH  19  20
ENDBRANCH  18  19
ENDBRANCH  16  18
ENDBRANCH  15  16
ENDBRANCH  14  15
BRANCH  14  27
HETATM   27  C   UNL     1     -11.439  11.604  64.277  1.00  0.00    -0.250 C  
BRANCH  27  28
HETATM   28  O   UNL     1     -10.600  10.637  64.924  1.00  0.00    -0.279 OA 
BRANCH  28  29
HETATM   29  C   UNL     1      -9.579  10.163  64.156  1.00  0.00    -0.272 C  
HETATM   30  O   UNL     1      -9.342  10.519  63.011  1.00  0.00    -0.260 OA 
BRANCH  29  31
HETATM   31  C   UNL     1      -8.779   9.143  64.928  1.00  0.00    -0.215 C  
BRANCH  31  32
HETATM   32  C   UNL     1      -9.508   8.687  66.187  1.00  0.00    -0.308 C  
BRANCH  32  33
HETATM   33  C   UNL     1      -8.551   8.274  67.313  1.00  0.00    -0.124 C  
BRANCH  33  34
HETATM   34  C   UNL     1      -9.201   7.239  68.195  1.00  0.00    -0.132 A  
HETATM   35  C   UNL     1     -10.427   5.446  69.964  1.00  0.00    -0.373 A  
HETATM   36  C   UNL     1     -10.596   7.105  68.215  1.00  0.00    -0.230 A  
HETATM   37  C   UNL     1     -11.205   6.212  69.096  1.00  0.00    -0.409 A  
HETATM   38  C   UNL     1      -9.039   5.564  69.941  1.00  0.00    -0.159 A  
HETATM   39  C   UNL     1      -8.427   6.456  69.061  1.00  0.00    -0.124 A  
ENDBRANCH  33  34
ENDBRANCH  32  33
ENDBRANCH  31  32
ENDBRANCH  29  31
ENDBRANCH  28  29
ENDBRANCH  27  28
ENDBRANCH  14  27
ENDBRANCH  13  14
ENDBRANCH  12  13
ENDBRANCH   2  12
TORSDOF 20
ENDMDL
MODEL       47
REMARK 921   NORMALIZED FREE ENERGY PREDICTED BY IDOCK:   -5.70 KCAL/MOL
REMARK 922        TOTAL FREE ENERGY PREDICTED BY IDOCK:  -17.04 KCAL/MOL
REMARK 923 INTER-LIGAND FREE ENERGY PREDICTED BY IDOCK:  -11.78 KCAL/MOL
REMARK 924 INTRA-LIGAND FREE ENERGY PREDICTED BY IDOCK:   -5.26 KCAL/MOL
REMARK 927      BINDING AFFINITY PREDICTED BY RF-SCORE:    0.00 PKD
ROOT
HETATM    1  O   UNL     1     -10.155   6.440  71.650  1.00  0.00    -0.185 OA 
HETATM    2  C   UNL     1     -11.230   6.580  71.082  1.00  0.00    -0.302 C  
ENDROOT
BRANCH   2   3
HETATM    3  C   UNL     1     -11.509   6.123  69.670  1.00  0.00    -0.332 C  
BRANCH   3   4
HETATM    4  C   UNL     1     -10.233   6.011  68.835  1.00  0.00    -0.246 C  
BRANCH   4   5
HETATM    5  C   UNL     1     -10.525   5.952  67.332  1.00  0.00    -0.311 C  
BRANCH   5   6
HETATM    6  C   UNL     1      -9.464   6.652  66.521  1.00  0.00    -0.192 A  
HETATM    7  C   UNL     1      -8.395   5.926  65.978  1.00  0.00    -0.128 A  
HETATM    8  C   UNL     1      -7.477   7.948  65.027  1.00  0.00    -0.088 A  
HETATM    9  C   UNL     1      -7.408   6.572  65.233  1.00  0.00    -0.077 A  
HETATM   10  C   UNL     1      -9.522   8.036  66.311  1.00  0.00    -0.241 A  
HETATM   11  C   UNL     1      -8.534   8.680  65.566  1.00  0.00    -0.181 A  
ENDBRANCH   5   6
ENDBRANCH   4   5
ENDBRANCH   3   4
ENDBRANCH   2   3
BRANCH   2  12
HETATM   12  O   UNL     1     -12.335   7.163  71.622  1.00  0.00    -0.325 OA 
BRANCH  12  13
HETATM   13  C   UNL     1     -12.135   8.421  72.295  1.00  0.00    -0.392 C  
BRANCH  13  14
HETATM   14  C   UNL     1     -12.257   9.574  71.294  1.00  0.00    -0.348 C  
BRANCH  14  15
HETATM   15  O   UNL     1     -10.947  10.133  71.062  1.00  0.00    -0.291 OA 
BRANCH  15  16
HETATM   16  C   UNL     1     -10.329   9.752  69.912  1.00  0.00    -0.254 C  
HETATM   17  O   UNL     1      -9.146   9.468  69.799  1.00  0.00    -0.172 OA 
BRANCH  16  18
HETATM   18  C   UNL     1     -11.317   9.757  68.773  1.00  0.00     0.016 C  
BRANCH  18  19
HETATM   19  C   UNL     1     -11.450  11.140  68.144  1.00  0.00    -0.373 C  
BRANCH  19  20
HETATM   20  C   UNL     1     -10.400  11.407  67.059  1.00  0.00    -0.258 C  
BRANCH  20  21
HETATM   21  C   UNL     1     -11.052  12.081  65.878  1.00  0.00    -0.369 A  
HETATM   22  C   UNL     1     -12.102  13.507  63.710  1.00  0.00    -0.482 A  
HETATM   23  C   UNL     1     -12.093  12.997  66.071  1.00  0.00    -0.493 A  
HETATM   24  C   UNL     1     -10.557  11.870  64.584  1.00  0.00    -0.353 A  
HETATM   25  C   UNL     1     -12.616  13.706  64.988  1.00  0.00    -0.434 A  
HETATM   26  C   UNL     1     -11.080  12.582  63.505  1.00  0.00    -0.497 A  
ENDBRANCH  20  21
ENDBRANCH  19  20
ENDBRANCH  18  19
ENDBRANCH  16  18
ENDBRANCH  15  16
ENDBRANCH  14  15
BRANCH  14  27
HETATM   27  C   UNL     1     -13.150  10.692  71.844  1.00  0.00    -0.458 C  
BRANCH  27  28
HETATM   28  O   UNL     1     -12.773  11.972  71.316  1.00  0.00    -0.375 OA 
BRANCH  28  29
HETATM   29  C   UNL     1     -13.405  13.034  71.892  1.00  0.00    -0.446 C  
HETATM   30  O   UNL     1     -14.360  12.952  72.651  1.00  0.00    -0.471 OA 
BRANCH  29  31
HETATM   31  C   UNL     1     -12.750  14.322  71.463  1.00  0.00    -0.425 C  
BRANCH  31  32
HETATM   32  C   UNL     1     -12.248  14.251  70.025  1.00  0.00    -0.417 C  
BRANCH  32  33
HETATM   33  C   UNL     1     -11.938  15.632  69.432  1.00  0.00    -0.349 C  
BRANCH  33  34
HETATM   34  C   UNL     1     -10.815  15.530  68.432  1.00  0.00    -0.273 A  
HETATM   35  C   UNL     1      -8.819  15.199  66.495  1.00  0.00    -0.312 A  
HETATM   36  C   UNL     1     -10.905  16.193  67.201  1.00  0.00    -0.216 A  
HETATM   37  C   UNL     1      -9.910  16.028  66.237  1.00  0.00    -0.331 A  
HETATM   38  C   UNL     1      -8.716  14.546  67.722  1.00  0.00    -0.174 A  
HETATM   39  C   UNL     1      -9.709  14.710  68.687  1.00  0.00    -0.220 A  
ENDBRANCH  33  34
ENDBRANCH  32  33
ENDBRANCH  31  32
ENDBRANCH  29  31
ENDBRANCH  28  29
ENDBRANCH  27  28
ENDBRANCH  14  27
ENDBRANCH  13  14
ENDBRANCH  12  13
ENDBRANCH   2  12
TORSDOF 20
ENDMDL
MODEL       48
REMARK 921   NORMALIZED FREE ENERGY PREDICTED BY IDOCK:   -5.68 KCAL/MOL
REMARK 922        TOTAL FREE ENERGY PREDICTED BY IDOCK:  -17.00 KCAL/MOL
REMARK 923 INTER-LIGAND FREE ENERGY PREDICTED BY IDOCK:  -11.85 KCAL/MOL
REMARK 924 INTRA-LIGAND FREE ENERGY PREDICTED BY IDOCK:   -5.15 KCAL/MOL
REMARK 927      BINDING AFFINITY PREDICTED BY RF-SCORE:    0.00 PKD
ROOT
HETATM    1  O   UNL     1     -14.348  13.813  72.477  1.00  0.00    -0.696 OA 
HETATM    2  C   UNL     1     -13.477  13.929  71.625  1.00  0.00    -0.352 C  
ENDROOT
BRANCH   2   3
HETATM    3  C   UNL     1     -13.169  15.214  70.895  1.00  0.00    -0.488 C  
BRANCH   3   4
HETATM    4  C   UNL     1     -12.260  14.989  69.686  1.00  0.00    -0.293 C  
BRANCH   4   5
HETATM    5  C   UNL     1     -11.365  16.199  69.399  1.00  0.00    -0.323 C  
BRANCH   5   6
HETATM    6  C   UNL     1     -10.129  15.818  68.622  1.00  0.00    -0.211 A  
HETATM    7  C   UNL     1      -8.974  15.395  69.295  1.00  0.00    -0.261 A  
HETATM    8  C   UNL     1      -7.822  15.125  67.188  1.00  0.00    -0.240 A  
HETATM    9  C   UNL     1      -7.827  15.048  68.580  1.00  0.00    -0.137 A  
HETATM   10  C   UNL     1     -10.112  15.896  67.224  1.00  0.00    -0.260 A  
HETATM   11  C   UNL     1      -8.964  15.549  66.511  1.00  0.00    -0.348 A  
ENDBRANCH   5   6
ENDBRANCH   4   5
ENDBRANCH   3   4
ENDBRANCH   2   3
BRANCH   2  12
HETATM   12  O   UNL     1     -12.655  12.931  71.199  1.00  0.00    -0.370 OA 
BRANCH  12  13
HETATM   13  C   UNL     1     -12.978  11.598  71.641  1.00  0.00    -0.378 C  
BRANCH  13  14
HETATM   14  C   UNL     1     -12.277  10.569  70.749  1.00  0.00    -0.369 C  
BRANCH  14  15
HETATM   15  O   UNL     1     -11.355   9.805  71.553  1.00  0.00    -0.367 OA 
BRANCH  15  16
HETATM   16  C   UNL     1     -11.840   8.652  72.086  1.00  0.00    -0.377 C  
HETATM   17  O   UNL     1     -13.004   8.442  72.390  1.00  0.00    -0.322 OA 
BRANCH  16  18
HETATM   18  C   UNL     1     -10.717   7.664  72.281  1.00  0.00    -0.311 C  
BRANCH  18  19
HETATM   19  C   UNL     1     -10.953   6.377  71.497  1.00  0.00    -0.310 C  
BRANCH  19  20
HETATM   20  C   UNL     1     -11.593   6.619  70.125  1.00  0.00    -0.446 C  
BRANCH  20  21
HETATM   21  C   UNL     1     -10.821   5.874  69.066  1.00  0.00    -0.383 A  
HETATM   22  C   UNL     1      -9.569   4.337  67.089  1.00  0.00    -0.224 A  
HETATM   23  C   UNL     1      -9.962   4.826  69.422  1.00  0.00    -0.269 A  
HETATM   24  C   UNL     1     -11.029   6.157  67.710  1.00  0.00    -0.400 A  
HETATM   25  C   UNL     1      -9.338   4.062  68.434  1.00  0.00    -0.218 A  
HETATM   26  C   UNL     1     -10.407   5.390  66.725  1.00  0.00    -0.321 A  
ENDBRANCH  20  21
ENDBRANCH  19  20
ENDBRANCH  18  19
ENDBRANCH  16  18
ENDBRANCH  15  16
ENDBRANCH  14  15
BRANCH  14  27
HETATM   27  C   UNL     1     -11.472  11.255  69.640  1.00  0.00    -0.309 C  
BRANCH  27  28
HETATM   28  O   UNL     1     -12.179  11.241  68.392  1.00  0.00    -0.604 OA 
BRANCH  28  29
HETATM   29  C   UNL     1     -11.605  11.982  67.402  1.00  0.00    -0.318 C  
HETATM   30  O   UNL     1     -12.197  12.429  66.431  1.00  0.00    -0.604 OA 
BRANCH  29  31
HETATM   31  C   UNL     1     -10.137  12.178  67.686  1.00  0.00    -0.205 C  
BRANCH  31  32
HETATM   32  C   UNL     1      -9.262  11.468  66.658  1.00  0.00    -0.194 C  
BRANCH  32  33
HETATM   33  C   UNL     1      -9.710  10.025  66.389  1.00  0.00    -0.266 C  
BRANCH  33  34
HETATM   34  C   UNL     1      -8.942   9.069  67.266  1.00  0.00    -0.139 A  
HETATM   35  C   UNL     1      -7.383   7.422  68.910  1.00  0.00    -0.091 A  
HETATM   36  C   UNL     1      -9.068   9.136  68.660  1.00  0.00    -0.136 A  
HETATM   37  C   UNL     1      -8.292   8.315  69.478  1.00  0.00    -0.121 A  
HETATM   38  C   UNL     1      -7.261   7.342  67.524  1.00  0.00    -0.090 A  
HETATM   39  C   UNL     1      -8.037   8.160  66.705  1.00  0.00    -0.103 A  
ENDBRANCH  33  34
ENDBRANCH  32  33
ENDBRANCH  31  32
ENDBRANCH  29  31
ENDBRANCH  28  29
ENDBRANCH  27  28
ENDBRANCH  14  27
ENDBRANCH  13  14
ENDBRANCH  12  13
ENDBRANCH   2  12
TORSDOF 20
ENDMDL
MODEL       49
REMARK 921   NORMALIZED FREE ENERGY PREDICTED BY IDOCK:   -5.68 KCAL/MOL
REMARK 922        TOTAL FREE ENERGY PREDICTED BY IDOCK:  -16.99 KCAL/MOL
REMARK 923 INTER-LIGAND FREE ENERGY PREDICTED BY IDOCK:  -11.09 KCAL/MOL
REMARK 924 INTRA-LIGAND FREE ENERGY PREDICTED BY IDOCK:   -5.91 KCAL/MOL
REMARK 927      BINDING AFFINITY PREDICTED BY RF-SCORE:    0.00 PKD
ROOT
HETATM    1  O   UNL     1      -8.246   7.683  65.339  1.00  0.00    -0.126 OA 
HETATM    2  C   UNL     1      -9.122   7.914  66.161  1.00  0.00    -0.163 C  
ENDROOT
BRANCH   2   3
HETATM    3  C   UNL     1      -9.980   9.156  66.162  1.00  0.00    -0.338 C  
BRANCH   3   4
HETATM    4  C   UNL     1      -9.823   9.969  64.876  1.00  0.00    -0.352 C  
BRANCH   4   5
HETATM    5  C   UNL     1      -9.396  11.415  65.151  1.00  0.00    -0.172 C  
BRANCH   5   6
HETATM    6  C   UNL     1     -10.577  12.348  65.233  1.00  0.00    -0.322 A  
HETATM    7  C   UNL     1     -11.074  12.964  64.075  1.00  0.00    -0.455 A  
HETATM    8  C   UNL     1     -12.763  14.099  65.379  1.00  0.00    -0.453 A  
HETATM    9  C   UNL     1     -12.164  13.833  64.150  1.00  0.00    -0.443 A  
HETATM   10  C   UNL     1     -11.185  12.626  66.464  1.00  0.00    -0.342 A  
HETATM   11  C   UNL     1     -12.273  13.495  66.536  1.00  0.00    -0.433 A  
ENDBRANCH   5   6
ENDBRANCH   4   5
ENDBRANCH   3   4
ENDBRANCH   2   3
BRANCH   2  12
HETATM   12  O   UNL     1      -9.462   7.099  67.198  1.00  0.00    -0.136 OA 
BRANCH  12  13
HETATM   13  C   UNL     1      -8.383   6.639  68.035  1.00  0.00    -0.117 C  
BRANCH  13  14
HETATM   14  C   UNL     1      -8.497   7.269  69.426  1.00  0.00    -0.133 C  
BRANCH  14  15
HETATM   15  O   UNL     1      -9.770   7.939  69.534  1.00  0.00    -0.170 OA 
BRANCH  15  16
HETATM   16  C   UNL     1     -10.373   7.883  70.752  1.00  0.00    -0.203 C  
HETATM   17  O   UNL     1     -10.768   6.869  71.306  1.00  0.00    -0.220 OA 
BRANCH  16  18
HETATM   18  C   UNL     1     -10.514   9.274  71.318  1.00  0.00    -0.408 C  
BRANCH  18  19
HETATM   19  C   UNL     1     -11.395  10.156  70.440  1.00  0.00    -0.401 C  
BRANCH  19  20
HETATM   20  C   UNL     1     -12.715  10.548  71.116  1.00  0.00    -0.518 C  
BRANCH  20  21
HETATM   21  C   UNL     1     -12.789  12.047  71.254  1.00  0.00    -0.364 A  
HETATM   22  C   UNL     1     -13.120  14.824  71.374  1.00  0.00    -0.424 A  
HETATM   23  C   UNL     1     -12.155  12.877  70.320  1.00  0.00    -0.377 A  
HETATM   24  C   UNL     1     -13.572  12.625  72.262  1.00  0.00    -0.508 A  
HETATM   25  C   UNL     1     -12.322  14.261  70.382  1.00  0.00    -0.419 A  
HETATM   26  C   UNL     1     -13.738  14.008  72.320  1.00  0.00    -0.646 A  
ENDBRANCH  20  21
ENDBRANCH  19  20
ENDBRANCH  18  19
ENDBRANCH  16  18
ENDBRANCH  15  16
ENDBRANCH  14  15
BRANCH  14  27
HETATM   27  C   UNL     1      -7.399   8.316  69.651  1.00  0.00    -0.073 C  
BRANCH  27  28
HETATM   28  O   UNL     1      -7.496   9.389  68.703  1.00  0.00    -0.078 OA 
BRANCH  28  29
HETATM   29  C   UNL     1      -7.440  10.637  69.247  1.00  0.00    -0.130 C  
HETATM   30  O   UNL     1      -6.697  10.969  70.159  1.00  0.00    -0.164 OA 
BRANCH  29  31
HETATM   31  C   UNL     1      -8.421  11.549  68.555  1.00  0.00    -0.143 C  
BRANCH  31  32
HETATM   32  C   UNL     1      -7.735  12.779  67.970  1.00  0.00    -0.137 C  
BRANCH  32  33
HETATM   33  C   UNL     1      -7.990  14.051  68.789  1.00  0.00    -0.081 C  
BRANCH  33  34
HETATM   34  C   UNL     1      -8.789  15.040  67.980  1.00  0.00    -0.165 A  
HETATM   35  C   UNL     1     -10.396  16.743  66.443  1.00  0.00    -0.309 A  
HETATM   36  C   UNL     1      -9.836  15.756  68.576  1.00  0.00    -0.209 A  
HETATM   37  C   UNL     1     -10.635  16.604  67.810  1.00  0.00    -0.342 A  
HETATM   38  C   UNL     1      -9.349  16.044  65.845  1.00  0.00    -0.335 A  
HETATM   39  C   UNL     1      -8.548  15.196  66.609  1.00  0.00    -0.279 A  
ENDBRANCH  33  34
ENDBRANCH  32  33
ENDBRANCH  31  32
ENDBRANCH  29  31
ENDBRANCH  28  29
ENDBRANCH  27  28
ENDBRANCH  14  27
ENDBRANCH  13  14
ENDBRANCH  12  13
ENDBRANCH   2  12
TORSDOF 20
ENDMDL
MODEL       50
REMARK 921   NORMALIZED FREE ENERGY PREDICTED BY IDOCK:   -5.67 KCAL/MOL
REMARK 922        TOTAL FREE ENERGY PREDICTED BY IDOCK:  -16.99 KCAL/MOL
REMARK 923 INTER-LIGAND FREE ENERGY PREDICTED BY IDOCK:  -12.39 KCAL/MOL
REMARK 924 INTRA-LIGAND FREE ENERGY PREDICTED BY IDOCK:   -4.60 KCAL/MOL
REMARK 927      BINDING AFFINITY PREDICTED BY RF-SCORE:    0.00 PKD
ROOT
HETATM    1  O   UNL     1     -10.145   9.994  65.824  1.00  0.00    -0.273 OA 
HETATM    2  C   UNL     1     -10.261   9.424  66.899  1.00  0.00    -0.248 C  
ENDROOT
BRANCH   2   3
HETATM    3  C   UNL     1     -10.353   7.926  67.061  1.00  0.00    -0.411 C  
BRANCH   3   4
HETATM    4  C   UNL     1     -10.465   7.508  68.528  1.00  0.00    -0.211 C  
BRANCH   4   5
HETATM    5  C   UNL     1     -10.600   5.990  68.691  1.00  0.00    -0.327 C  
BRANCH   5   6
HETATM    6  C   UNL     1      -9.629   5.441  69.705  1.00  0.00    -0.225 A  
HETATM    7  C   UNL     1      -8.570   6.233  70.172  1.00  0.00    -0.134 A  
HETATM    8  C   UNL     1      -7.807   4.423  71.579  1.00  0.00    -0.082 A  
HETATM    9  C   UNL     1      -7.666   5.726  71.106  1.00  0.00    -0.109 A  
HETATM   10  C   UNL     1      -9.759   4.131  70.184  1.00  0.00    -0.278 A  
HETATM   11  C   UNL     1      -8.854   3.626  71.117  1.00  0.00    -0.134 A  
ENDBRANCH   5   6
ENDBRANCH   4   5
ENDBRANCH   3   4
ENDBRANCH   2   3
BRANCH   2  12
HETATM   12  O   UNL     1     -10.328  10.039  68.113  1.00  0.00    -0.173 OA 
BRANCH  12  13
HETATM   13  C   UNL     1     -10.054  11.453  68.134  1.00  0.00    -0.189 C  
BRANCH  13  14
HETATM   14  C   UNL     1     -11.174  12.190  68.875  1.00  0.00    -0.269 C  
BRANCH  14  15
HETATM   15  O   UNL     1     -12.072  11.219  69.451  1.00  0.00    -0.329 OA 
BRANCH  15  16
HETATM   16  C   UNL     1     -12.479  11.464  70.725  1.00  0.00    -0.365 C  
HETATM   17  O   UNL     1     -12.421  12.542  71.297  1.00  0.00    -0.305 OA 
BRANCH  16  18
HETATM   18  C   UNL     1     -12.992  10.192  71.354  1.00  0.00    -0.528 C  
BRANCH  18  19
HETATM   19  C   UNL     1     -11.891   9.146  71.495  1.00  0.00    -0.428 C  
BRANCH  19  20
HETATM   20  C   UNL     1     -12.430   7.712  71.539  1.00  0.00    -0.361 C  
BRANCH  20  21
HETATM   21  C   UNL     1     -11.540   6.862  72.411  1.00  0.00    -0.278 A  
HETATM   22  C   UNL     1     -10.029   5.342  74.211  1.00  0.00    -0.234 A  
HETATM   23  C   UNL     1     -10.448   7.433  73.077  1.00  0.00    -0.373 A  
HETATM   24  C   UNL     1     -11.854   5.516  72.640  1.00  0.00    -0.176 A  
HETATM   25  C   UNL     1      -9.695   6.672  73.974  1.00  0.00    -0.287 A  
HETATM   26  C   UNL     1     -11.101   4.759  73.538  1.00  0.00    -0.412 A  
ENDBRANCH  20  21
ENDBRANCH  19  20
ENDBRANCH  18  19
ENDBRANCH  16  18
ENDBRANCH  15  16
ENDBRANCH  14  15
BRANCH  14  27
HETATM   27  C   UNL     1     -11.988  13.067  67.916  1.00  0.00    -0.291 C  
BRANCH  27  28
HETATM   28  O   UNL     1     -12.139  12.441  66.634  1.00  0.00    -0.592 OA 
BRANCH  28  29
HETATM   29  C   UNL     1     -12.334  13.305  65.597  1.00  0.00    -0.465 C  
HETATM   30  O   UNL     1     -13.419  13.746  65.249  1.00  0.00    -0.586 OA 
BRANCH  29  31
HETATM   31  C   UNL     1     -11.015  13.644  64.950  1.00  0.00    -0.372 C  
BRANCH  31  32
HETATM   32  C   UNL     1     -10.687  15.128  65.077  1.00  0.00    -0.451 C  
BRANCH  32  33
HETATM   33  C   UNL     1      -9.487  15.398  65.994  1.00  0.00    -0.381 C  
BRANCH  33  34
HETATM   34  C   UNL     1      -9.664  16.713  66.710  1.00  0.00    -0.271 A  
HETATM   35  C   UNL     1      -9.843  19.218  67.949  1.00  0.00    -0.441 A  
HETATM   36  C   UNL     1     -10.385  17.752  66.107  1.00  0.00    -0.340 A  
HETATM   37  C   UNL     1     -10.474  18.999  66.725  1.00  0.00    -0.510 A  
HETATM   38  C   UNL     1      -9.134  18.186  68.561  1.00  0.00    -0.318 A  
HETATM   39  C   UNL     1      -9.044  16.938  67.945  1.00  0.00    -0.233 A  
ENDBRANCH  33  34
ENDBRANCH  32  33
ENDBRANCH  31  32
ENDBRANCH  29  31
ENDBRANCH  28  29
ENDBRANCH  27  28
ENDBRANCH  14  27
ENDBRANCH  13  14
ENDBRANCH  12  13
ENDBRANCH   2  12
TORSDOF 20
ENDMDL
MODEL       51
REMARK 921   NORMALIZED FREE ENERGY PREDICTED BY IDOCK:   -5.66 KCAL/MOL
REMARK 922        TOTAL FREE ENERGY PREDICTED BY IDOCK:  -16.96 KCAL/MOL
REMARK 923 INTER-LIGAND FREE ENERGY PREDICTED BY IDOCK:  -13.58 KCAL/MOL
REMARK 924 INTRA-LIGAND FREE ENERGY PREDICTED BY IDOCK:   -3.39 KCAL/MOL
REMARK 927      BINDING AFFINITY PREDICTED BY RF-SCORE:    0.00 PKD
ROOT
HETATM    1  O   UNL     1     -13.128  12.959  71.885  1.00  0.00    -0.399 OA 
HETATM    2  C   UNL     1     -12.657  12.505  70.851  1.00  0.00    -0.241 C  
ENDROOT
BRANCH   2   3
HETATM    3  C   UNL     1     -12.513  11.031  70.558  1.00  0.00    -0.432 C  
BRANCH   3   4
HETATM    4  C   UNL     1     -12.697  10.172  71.810  1.00  0.00    -0.534 C  
BRANCH   4   5
HETATM    5  C   UNL     1     -13.079   8.727  71.473  1.00  0.00    -0.358 C  
BRANCH   5   6
HETATM    6  C   UNL     1     -11.867   7.862  71.235  1.00  0.00    -0.321 A  
HETATM    7  C   UNL     1     -11.943   6.760  70.370  1.00  0.00    -0.343 A  
HETATM    8  C   UNL     1      -9.624   6.236  70.801  1.00  0.00    -0.193 A  
HETATM    9  C   UNL     1     -10.825   5.954  70.153  1.00  0.00    -0.402 A  
HETATM   10  C   UNL     1     -10.656   8.133  71.884  1.00  0.00    -0.324 A  
HETATM   11  C   UNL     1      -9.540   7.326  71.666  1.00  0.00    -0.162 A  
ENDBRANCH   5   6
ENDBRANCH   4   5
ENDBRANCH   3   4
ENDBRANCH   2   3
BRANCH   2  12
HETATM   12  O   UNL     1     -12.190  13.246  69.808  1.00  0.00    -0.290 OA 
BRANCH  12  13
HETATM   13  C   UNL     1     -11.589  12.518  68.720  1.00  0.00    -0.322 C  
BRANCH  13  14
HETATM   14  C   UNL     1     -11.860  13.239  67.396  1.00  0.00    -0.366 C  
BRANCH  14  15
HETATM   15  O   UNL     1     -12.009  12.257  66.350  1.00  0.00    -0.589 OA 
BRANCH  15  16
HETATM   16  C   UNL     1     -12.333  12.739  65.120  1.00  0.00    -0.496 C  
HETATM   17  O   UNL     1     -13.113  13.652  64.895  1.00  0.00    -0.713 OA 
BRANCH  16  18
HETATM   18  C   UNL     1     -11.606  11.957  64.055  1.00  0.00    -0.476 C  
BRANCH  18  19
HETATM   19  C   UNL     1     -10.128  11.787  64.387  1.00  0.00    -0.319 C  
BRANCH  19  20
HETATM   20  C   UNL     1      -9.728  10.324  64.611  1.00  0.00    -0.398 C  
BRANCH  20  21
HETATM   21  C   UNL     1      -9.495  10.080  66.080  1.00  0.00    -0.251 A  
HETATM   22  C   UNL     1      -9.246   9.771  68.851  1.00  0.00    -0.155 A  
HETATM   23  C   UNL     1      -8.663  10.934  66.816  1.00  0.00    -0.147 A  
HETATM   24  C   UNL     1     -10.184   9.057  66.744  1.00  0.00    -0.341 A  
HETATM   25  C   UNL     1      -8.540  10.777  68.197  1.00  0.00    -0.129 A  
HETATM   26  C   UNL     1     -10.061   8.904  68.125  1.00  0.00    -0.227 A  
ENDBRANCH  20  21
ENDBRANCH  19  20
ENDBRANCH  18  19
ENDBRANCH  16  18
ENDBRANCH  15  16
ENDBRANCH  14  15
BRANCH  14  27
HETATM   27  C   UNL     1     -10.688  14.153  67.015  1.00  0.00    -0.285 C  
BRANCH  27  28
HETATM   28  O   UNL     1     -11.098  15.525  66.933  1.00  0.00    -0.306 OA 
BRANCH  28  29
HETATM   29  C   UNL     1     -10.125  16.430  67.237  1.00  0.00    -0.270 C  
HETATM   30  O   UNL     1      -9.305  16.299  68.134  1.00  0.00    -0.205 OA 
BRANCH  29  31
HETATM   31  C   UNL     1     -10.202  17.609  66.301  1.00  0.00    -0.362 C  
BRANCH  31  32
HETATM   32  C   UNL     1     -10.364  18.923  67.058  1.00  0.00    -0.469 C  
BRANCH  32  33
HETATM   33  C   UNL     1      -9.443  20.032  66.530  1.00  0.00    -0.518 C  
BRANCH  33  34
HETATM   34  C   UNL     1      -8.250  20.193  67.437  1.00  0.00    -0.385 A  
HETATM   35  C   UNL     1      -5.954  20.349  69.033  1.00  0.00    -0.377 A  
HETATM   36  C   UNL     1      -7.152  20.961  67.026  1.00  0.00    -0.379 A  
HETATM   37  C   UNL     1      -6.009  21.038  67.822  1.00  0.00    -0.396 A  
HETATM   38  C   UNL     1      -7.047  19.593  69.454  1.00  0.00    -0.326 A  
HETATM   39  C   UNL     1      -8.191  19.515  68.661  1.00  0.00    -0.369 A  
ENDBRANCH  33  34
ENDBRANCH  32  33
ENDBRANCH  31  32
ENDBRANCH  29  31
ENDBRANCH  28  29
ENDBRANCH  27  28
ENDBRANCH  14  27
ENDBRANCH  13  14
ENDBRANCH  12  13
ENDBRANCH   2  12
TORSDOF 20
ENDMDL
MODEL       52
REMARK 921   NORMALIZED FREE ENERGY PREDICTED BY IDOCK:   -5.66 KCAL/MOL
REMARK 922        TOTAL FREE ENERGY PREDICTED BY IDOCK:  -16.96 KCAL/MOL
REMARK 923 INTER-LIGAND FREE ENERGY PREDICTED BY IDOCK:  -11.95 KCAL/MOL
REMARK 924 INTRA-LIGAND FREE ENERGY PREDICTED BY IDOCK:   -5.01 KCAL/MOL
REMARK 927      BINDING AFFINITY PREDICTED BY RF-SCORE:    0.00 PKD
ROOT
HETATM    1  O   UNL     1      -6.481  12.508  69.227  1.00  0.00    -0.098 OA 
HETATM    2  C   UNL     1      -7.596  12.404  68.736  1.00  0.00    -0.033 C  
ENDROOT
BRANCH   2   3
HETATM    3  C   UNL     1      -8.501  13.573  68.427  1.00  0.00    -0.143 C  
BRANCH   3   4
HETATM    4  C   UNL     1      -8.016  14.375  67.218  1.00  0.00    -0.204 C  
BRANCH   4   5
HETATM    5  C   UNL     1      -7.504  15.765  67.611  1.00  0.00    -0.180 C  
BRANCH   5   6
HETATM    6  C   UNL     1      -8.591  16.808  67.547  1.00  0.00    -0.203 A  
HETATM    7  C   UNL     1      -8.830  17.508  66.355  1.00  0.00    -0.269 A  
HETATM    8  C   UNL     1     -10.599  18.762  67.423  1.00  0.00    -0.505 A  
HETATM    9  C   UNL     1      -9.831  18.478  66.295  1.00  0.00    -0.352 A  
HETATM   10  C   UNL     1      -9.366  17.104  68.675  1.00  0.00    -0.269 A  
HETATM   11  C   UNL     1     -10.366  18.074  68.613  1.00  0.00    -0.328 A  
ENDBRANCH   5   6
ENDBRANCH   4   5
ENDBRANCH   3   4
ENDBRANCH   2   3
BRANCH   2  12
HETATM   12  O   UNL     1      -8.199  11.232  68.393  1.00  0.00    -0.135 OA 
BRANCH  12  13
HETATM   13  C   UNL     1      -8.108  10.157  69.348  1.00  0.00    -0.160 C  
BRANCH  13  14
HETATM   14  C   UNL     1      -8.890   8.942  68.843  1.00  0.00    -0.137 C  
BRANCH  14  15
HETATM   15  O   UNL     1      -9.886   9.386  67.898  1.00  0.00    -0.154 OA 
BRANCH  15  16
HETATM   16  C   UNL     1     -10.122   8.559  66.845  1.00  0.00    -0.294 C  
HETATM   17  O   UNL     1     -10.904   7.621  66.836  1.00  0.00    -0.328 OA 
BRANCH  16  18
HETATM   18  C   UNL     1      -9.247   8.949  65.680  1.00  0.00    -0.268 C  
BRANCH  18  19
HETATM   19  C   UNL     1      -9.280  10.452  65.425  1.00  0.00    -0.233 C  
BRANCH  19  20
HETATM   20  C   UNL     1     -10.633  10.940  64.895  1.00  0.00    -0.304 C  
BRANCH  20  21
HETATM   21  C   UNL     1     -10.890  12.346  65.376  1.00  0.00    -0.320 A  
HETATM   22  C   UNL     1     -11.573  14.947  66.153  1.00  0.00    -0.228 A  
HETATM   23  C   UNL     1     -10.502  13.443  64.596  1.00  0.00    -0.428 A  
HETATM   24  C   UNL     1     -11.605  12.567  66.560  1.00  0.00    -0.447 A  
HETATM   25  C   UNL     1     -10.843  14.739  64.986  1.00  0.00    -0.440 A  
HETATM   26  C   UNL     1     -11.946  13.863  66.946  1.00  0.00    -0.467 A  
ENDBRANCH  20  21
ENDBRANCH  19  20
ENDBRANCH  18  19
ENDBRANCH  16  18
ENDBRANCH  15  16
ENDBRANCH  14  15
BRANCH  14  27
HETATM   27  C   UNL     1      -9.619   8.237  69.992  1.00  0.00    -0.168 C  
BRANCH  27  28
HETATM   28  O   UNL     1     -10.443   9.151  70.730  1.00  0.00    -0.217 OA 
BRANCH  28  29
HETATM   29  C   UNL     1     -11.651   8.648  71.112  1.00  0.00    -0.281 C  
HETATM   30  O   UNL     1     -12.045   7.517  70.871  1.00  0.00    -0.293 OA 
BRANCH  29  31
HETATM   31  C   UNL     1     -12.425   9.688  71.883  1.00  0.00    -0.459 C  
BRANCH  31  32
HETATM   32  C   UNL     1     -12.508  11.009  71.126  1.00  0.00    -0.502 C  
BRANCH  32  33
HETATM   33  C   UNL     1     -13.522  11.985  71.738  1.00  0.00    -0.194 C  
BRANCH  33  34
HETATM   34  C   UNL     1     -12.959  13.383  71.747  1.00  0.00    -0.435 A  
HETATM   35  C   UNL     1     -12.074  16.040  71.694  1.00  0.00    -0.537 A  
HETATM   36  C   UNL     1     -13.189  14.228  72.840  1.00  0.00    -0.593 A  
HETATM   37  C   UNL     1     -12.748  15.551  72.813  1.00  0.00    -0.532 A  
HETATM   38  C   UNL     1     -11.831  15.202  70.607  1.00  0.00    -0.371 A  
HETATM   39  C   UNL     1     -12.270  13.878  70.633  1.00  0.00    -0.443 A  
ENDBRANCH  33  34
ENDBRANCH  32  33
ENDBRANCH  31  32
ENDBRANCH  29  31
ENDBRANCH  28  29
ENDBRANCH  27  28
ENDBRANCH  14  27
ENDBRANCH  13  14
ENDBRANCH  12  13
ENDBRANCH   2  12
TORSDOF 20
ENDMDL
MODEL       53
REMARK 921   NORMALIZED FREE ENERGY PREDICTED BY IDOCK:   -5.65 KCAL/MOL
REMARK 922        TOTAL FREE ENERGY PREDICTED BY IDOCK:  -16.95 KCAL/MOL
REMARK 923 INTER-LIGAND FREE ENERGY PREDICTED BY IDOCK:  -13.21 KCAL/MOL
REMARK 924 INTRA-LIGAND FREE ENERGY PREDICTED BY IDOCK:   -3.73 KCAL/MOL
REMARK 927      BINDING AFFINITY PREDICTED BY RF-SCORE:    0.00 PKD
ROOT
HETATM    1  O   UNL     1      -8.830   7.108  66.454  1.00  0.00    -0.135 OA 
HETATM    2  C   UNL     1      -9.805   7.578  67.024  1.00  0.00    -0.214 C  
ENDROOT
BRANCH   2   3
HETATM    3  C   UNL     1     -11.057   6.798  67.348  1.00  0.00    -0.366 C  
BRANCH   3   4
HETATM    4  C   UNL     1     -10.986   6.138  68.726  1.00  0.00    -0.421 C  
BRANCH   4   5
HETATM    5  C   UNL     1     -10.363   7.059  69.780  1.00  0.00    -0.225 C  
BRANCH   5   6
HETATM    6  C   UNL     1     -11.408   7.830  70.547  1.00  0.00    -0.253 A  
HETATM    7  C   UNL     1     -11.283   9.216  70.714  1.00  0.00    -0.336 A  
HETATM    8  C   UNL     1     -13.337   9.269  71.986  1.00  0.00    -0.518 A  
HETATM    9  C   UNL     1     -12.245   9.932  71.428  1.00  0.00    -0.499 A  
HETATM   10  C   UNL     1     -12.507   7.173  71.115  1.00  0.00    -0.400 A  
HETATM   11  C   UNL     1     -13.467   7.890  71.829  1.00  0.00    -0.379 A  
ENDBRANCH   5   6
ENDBRANCH   4   5
ENDBRANCH   3   4
ENDBRANCH   2   3
BRANCH   2  12
HETATM   12  O   UNL     1      -9.922   8.865  67.452  1.00  0.00    -0.178 OA 
BRANCH  12  13
HETATM   13  C   UNL     1     -10.082   9.871  66.433  1.00  0.00    -0.240 C  
BRANCH  13  14
HETATM   14  C   UNL     1     -10.206  11.254  67.079  1.00  0.00    -0.215 C  
BRANCH  14  15
HETATM   15  O   UNL     1     -10.388  12.240  66.042  1.00  0.00    -0.235 OA 
BRANCH  15  16
HETATM   16  C   UNL     1     -11.543  12.956  66.093  1.00  0.00    -0.372 C  
HETATM   17  O   UNL     1     -12.635  12.574  65.699  1.00  0.00    -0.612 OA 
BRANCH  16  18
HETATM   18  C   UNL     1     -11.278  14.317  66.685  1.00  0.00    -0.337 C  
BRANCH  18  19
HETATM   19  C   UNL     1     -12.034  14.522  67.993  1.00  0.00    -0.305 C  
BRANCH  19  20
HETATM   20  C   UNL     1     -11.252  14.039  69.220  1.00  0.00    -0.304 C  
BRANCH  20  21
HETATM   21  C   UNL     1     -11.957  14.479  70.478  1.00  0.00    -0.387 A  
HETATM   22  C   UNL     1     -13.083  15.209  72.935  1.00  0.00    -0.577 A  
HETATM   23  C   UNL     1     -12.814  13.600  71.153  1.00  0.00    -0.399 A  
HETATM   24  C   UNL     1     -11.687  15.735  71.036  1.00  0.00    -0.462 A  
HETATM   25  C   UNL     1     -13.375  13.967  72.378  1.00  0.00    -0.617 A  
HETATM   26  C   UNL     1     -12.247  16.098  72.261  1.00  0.00    -0.577 A  
ENDBRANCH  20  21
ENDBRANCH  19  20
ENDBRANCH  18  19
ENDBRANCH  16  18
ENDBRANCH  15  16
ENDBRANCH  14  15
BRANCH  14  27
HETATM   27  C   UNL     1      -8.934  11.619  67.853  1.00  0.00    -0.170 C  
BRANCH  27  28
HETATM   28  O   UNL     1      -7.878  12.018  66.968  1.00  0.00    -0.160 OA 
BRANCH  28  29
HETATM   29  C   UNL     1      -7.072  13.005  67.451  1.00  0.00    -0.117 C  
HETATM   30  O   UNL     1      -5.896  13.157  67.151  1.00  0.00    -0.332 OA 
BRANCH  29  31
HETATM   31  C   UNL     1      -7.843  13.886  68.401  1.00  0.00    -0.138 C  
BRANCH  31  32
HETATM   32  C   UNL     1      -7.809  15.349  67.971  1.00  0.00    -0.133 C  
BRANCH  32  33
HETATM   33  C   UNL     1      -8.328  16.302  69.055  1.00  0.00    -0.239 C  
BRANCH  33  34
HETATM   34  C   UNL     1      -8.819  17.583  68.431  1.00  0.00    -0.276 A  
HETATM   35  C   UNL     1      -9.701  19.888  67.106  1.00  0.00    -0.523 A  
HETATM   36  C   UNL     1     -10.162  17.711  68.050  1.00  0.00    -0.362 A  
HETATM   37  C   UNL     1     -10.600  18.860  67.390  1.00  0.00    -0.534 A  
HETATM   38  C   UNL     1      -8.367  19.773  67.493  1.00  0.00    -0.351 A  
HETATM   39  C   UNL     1      -7.927  18.626  68.154  1.00  0.00    -0.312 A  
ENDBRANCH  33  34
ENDBRANCH  32  33
ENDBRANCH  31  32
ENDBRANCH  29  31
ENDBRANCH  28  29
ENDBRANCH  27  28
ENDBRANCH  14  27
ENDBRANCH  13  14
ENDBRANCH  12  13
ENDBRANCH   2  12
TORSDOF 20
ENDMDL
MODEL       54
REMARK 921   NORMALIZED FREE ENERGY PREDICTED BY IDOCK:   -5.64 KCAL/MOL
REMARK 922        TOTAL FREE ENERGY PREDICTED BY IDOCK:  -16.92 KCAL/MOL
REMARK 923 INTER-LIGAND FREE ENERGY PREDICTED BY IDOCK:  -12.24 KCAL/MOL
REMARK 924 INTRA-LIGAND FREE ENERGY PREDICTED BY IDOCK:   -4.67 KCAL/MOL
REMARK 927      BINDING AFFINITY PREDICTED BY RF-SCORE:    0.00 PKD
ROOT
HETATM    1  O   UNL     1     -12.404  12.537  70.719  1.00  0.00    -0.377 OA 
HETATM    2  C   UNL     1     -12.534  11.430  70.215  1.00  0.00    -0.232 C  
ENDROOT
BRANCH   2   3
HETATM    3  C   UNL     1     -13.131  10.239  70.925  1.00  0.00    -0.423 C  
BRANCH   3   4
HETATM    4  C   UNL     1     -12.079   9.435  71.691  1.00  0.00    -0.462 C  
BRANCH   4   5
HETATM    5  C   UNL     1     -12.527   7.993  71.953  1.00  0.00    -0.364 C  
BRANCH   5   6
HETATM    6  C   UNL     1     -11.430   7.161  72.567  1.00  0.00    -0.297 A  
HETATM    7  C   UNL     1     -10.305   7.780  73.133  1.00  0.00    -0.403 A  
HETATM    8  C   UNL     1      -9.374   5.623  73.696  1.00  0.00    -0.137 A  
HETATM    9  C   UNL     1      -9.285   7.013  73.696  1.00  0.00    -0.211 A  
HETATM   10  C   UNL     1     -11.508   5.763  72.569  1.00  0.00    -0.349 A  
HETATM   11  C   UNL     1     -10.486   4.998  73.132  1.00  0.00    -0.255 A  
ENDBRANCH   5   6
ENDBRANCH   4   5
ENDBRANCH   3   4
ENDBRANCH   2   3
BRANCH   2  12
HETATM   12  O   UNL     1     -12.163  11.094  68.949  1.00  0.00    -0.522 OA 
BRANCH  12  13
HETATM   13  C   UNL     1     -11.677  12.163  68.115  1.00  0.00    -0.341 C  
BRANCH  13  14
HETATM   14  C   UNL     1     -11.253  11.610  66.751  1.00  0.00    -0.308 C  
BRANCH  14  15
HETATM   15  O   UNL     1      -9.836  11.822  66.580  1.00  0.00    -0.196 OA 
BRANCH  15  16
HETATM   16  C   UNL     1      -9.050  10.717  66.685  1.00  0.00    -0.159 C  
HETATM   17  O   UNL     1      -9.232   9.656  66.108  1.00  0.00    -0.154 OA 
BRANCH  16  18
HETATM   18  C   UNL     1      -7.922  10.980  67.651  1.00  0.00    -0.115 C  
BRANCH  18  19
HETATM   19  C   UNL     1      -7.773   9.854  68.668  1.00  0.00    -0.081 C  
BRANCH  19  20
HETATM   20  C   UNL     1      -9.037   9.635  69.508  1.00  0.00    -0.209 C  
BRANCH  20  21
HETATM   21  C   UNL     1      -9.390   8.169  69.522  1.00  0.00    -0.155 A  
HETATM   22  C   UNL     1      -9.937   5.430  69.335  1.00  0.00    -0.280 A  
HETATM   23  C   UNL     1     -10.587   7.723  68.947  1.00  0.00    -0.168 A  
HETATM   24  C   UNL     1      -8.479   7.228  70.021  1.00  0.00    -0.139 A  
HETATM   25  C   UNL     1     -10.858   6.357  68.856  1.00  0.00    -0.382 A  
HETATM   26  C   UNL     1      -8.752   5.864  69.927  1.00  0.00    -0.129 A  
ENDBRANCH  20  21
ENDBRANCH  19  20
ENDBRANCH  18  19
ENDBRANCH  16  18
ENDBRANCH  15  16
ENDBRANCH  14  15
BRANCH  14  27
HETATM   27  C   UNL     1     -11.974  12.338  65.611  1.00  0.00    -0.306 C  
BRANCH  27  28
HETATM   28  O   UNL     1     -11.115  13.293  64.972  1.00  0.00    -0.294 OA 
BRANCH  28  29
HETATM   29  C   UNL     1     -11.765  14.306  64.332  1.00  0.00    -0.389 C  
HETATM   30  O   UNL     1     -12.650  14.155  63.502  1.00  0.00    -0.834 OA 
BRANCH  29  31
HETATM   31  C   UNL     1     -11.239  15.639  64.802  1.00  0.00    -0.391 C  
BRANCH  31  32
HETATM   32  C   UNL     1     -10.492  15.518  66.125  1.00  0.00    -0.323 C  
BRANCH  32  33
HETATM   33  C   UNL     1      -9.132  16.229  66.110  1.00  0.00    -0.377 C  
BRANCH  33  34
HETATM   34  C   UNL     1      -9.283  17.653  66.578  1.00  0.00    -0.286 A  
HETATM   35  C   UNL     1      -9.665  20.333  67.297  1.00  0.00    -0.590 A  
HETATM   36  C   UNL     1     -10.408  18.034  67.323  1.00  0.00    -0.387 A  
HETATM   37  C   UNL     1     -10.596  19.369  67.681  1.00  0.00    -0.575 A  
HETATM   38  C   UNL     1      -8.538  19.960  66.566  1.00  0.00    -0.390 A  
HETATM   39  C   UNL     1      -8.347  18.626  66.209  1.00  0.00    -0.249 A  
ENDBRANCH  33  34
ENDBRANCH  32  33
ENDBRANCH  31  32
ENDBRANCH  29  31
ENDBRANCH  28  29
ENDBRANCH  27  28
ENDBRANCH  14  27
ENDBRANCH  13  14
ENDBRANCH  12  13
ENDBRANCH   2  12
TORSDOF 20
ENDMDL
MODEL       55
REMARK 921   NORMALIZED FREE ENERGY PREDICTED BY IDOCK:   -5.64 KCAL/MOL
REMARK 922        TOTAL FREE ENERGY PREDICTED BY IDOCK:  -16.91 KCAL/MOL
REMARK 923 INTER-LIGAND FREE ENERGY PREDICTED BY IDOCK:  -11.62 KCAL/MOL
REMARK 924 INTRA-LIGAND FREE ENERGY PREDICTED BY IDOCK:   -5.29 KCAL/MOL
REMARK 927      BINDING AFFINITY PREDICTED BY RF-SCORE:    0.00 PKD
ROOT
HETATM    1  O   UNL     1      -8.620   9.526  70.502  1.00  0.00    -0.213 OA 
HETATM    2  C   UNL     1      -9.362  10.085  69.708  1.00  0.00    -0.202 C  
ENDROOT
BRANCH   2   3
HETATM    3  C   UNL     1     -10.861  10.181  69.867  1.00  0.00    -0.347 C  
BRANCH   3   4
HETATM    4  C   UNL     1     -11.317   9.806  71.279  1.00  0.00    -0.445 C  
BRANCH   4   5
HETATM    5  C   UNL     1     -12.139   8.513  71.300  1.00  0.00    -0.323 C  
BRANCH   5   6
HETATM    6  C   UNL     1     -11.542   7.478  72.219  1.00  0.00    -0.354 A  
HETATM    7  C   UNL     1     -12.074   6.181  72.264  1.00  0.00    -0.237 A  
HETATM    8  C   UNL     1     -10.450   5.550  73.939  1.00  0.00    -0.308 A  
HETATM    9  C   UNL     1     -11.527   5.222  73.119  1.00  0.00    -0.316 A  
HETATM   10  C   UNL     1     -10.461   7.798  73.051  1.00  0.00    -0.432 A  
HETATM   11  C   UNL     1      -9.917   6.838  73.904  1.00  0.00    -0.340 A  
ENDBRANCH   5   6
ENDBRANCH   4   5
ENDBRANCH   3   4
ENDBRANCH   2   3
BRANCH   2  12
HETATM   12  O   UNL     1      -8.965  10.704  68.561  1.00  0.00    -0.141 OA 
BRANCH  12  13
HETATM   13  C   UNL     1      -9.526  12.006  68.306  1.00  0.00    -0.199 C  
BRANCH  13  14
HETATM   14  C   UNL     1      -9.986  12.099  66.848  1.00  0.00    -0.204 C  
BRANCH  14  15
HETATM   15  O   UNL     1     -11.428  12.060  66.808  1.00  0.00    -0.337 OA 
BRANCH  15  16
HETATM   16  C   UNL     1     -12.036  13.094  66.169  1.00  0.00    -0.417 C  
HETATM   17  O   UNL     1     -12.858  12.993  65.271  1.00  0.00    -0.642 OA 
BRANCH  16  18
HETATM   18  C   UNL     1     -11.524  14.405  66.710  1.00  0.00    -0.381 C  
BRANCH  18  19
HETATM   19  C   UNL     1     -12.220  14.791  68.011  1.00  0.00    -0.028 C  
BRANCH  19  20
HETATM   20  C   UNL     1     -11.242  15.018  69.170  1.00  0.00    -0.293 C  
BRANCH  20  21
HETATM   21  C   UNL     1     -11.919  14.690  70.477  1.00  0.00    -0.376 A  
HETATM   22  C   UNL     1     -13.380  14.142  72.801  1.00  0.00    -0.618 A  
HETATM   23  C   UNL     1     -12.110  15.685  71.444  1.00  0.00    -0.476 A  
HETATM   24  C   UNL     1     -12.449  13.412  70.696  1.00  0.00    -0.385 A  
HETATM   25  C   UNL     1     -12.838  15.409  72.603  1.00  0.00    -0.500 A  
HETATM   26  C   UNL     1     -13.179  13.140  71.853  1.00  0.00    -0.526 A  
ENDBRANCH  20  21
ENDBRANCH  19  20
ENDBRANCH  18  19
ENDBRANCH  16  18
ENDBRANCH  15  16
ENDBRANCH  14  15
BRANCH  14  27
HETATM   27  C   UNL     1      -9.465  10.913  66.027  1.00  0.00    -0.203 C  
BRANCH  27  28
HETATM   28  O   UNL     1     -10.397   9.822  66.032  1.00  0.00    -0.221 OA 
BRANCH  28  29
HETATM   29  C   UNL     1      -9.827   8.586  66.092  1.00  0.00    -0.157 C  
HETATM   30  O   UNL     1      -8.795   8.263  65.522  1.00  0.00    -0.169 OA 
BRANCH  29  31
HETATM   31  C   UNL     1     -10.649   7.678  66.972  1.00  0.00    -0.406 C  
BRANCH  31  32
HETATM   32  C   UNL     1      -9.793   6.986  68.028  1.00  0.00    -0.156 C  
BRANCH  32  33
HETATM   33  C   UNL     1     -10.565   5.920  68.816  1.00  0.00    -0.340 C  
BRANCH  33  34
HETATM   34  C   UNL     1      -9.671   5.290  69.853  1.00  0.00    -0.260 A  
HETATM   35  C   UNL     1      -7.901   4.061  71.642  1.00  0.00    -0.070 A  
HETATM   36  C   UNL     1      -8.566   5.993  70.353  1.00  0.00    -0.133 A  
HETATM   37  C   UNL     1      -7.686   5.380  71.244  1.00  0.00    -0.103 A  
HETATM   38  C   UNL     1      -9.004   3.359  71.160  1.00  0.00    -0.161 A  
HETATM   39  C   UNL     1      -9.887   3.970  70.270  1.00  0.00    -0.205 A  
ENDBRANCH  33  34
ENDBRANCH  32  33
ENDBRANCH  31  32
ENDBRANCH  29  31
ENDBRANCH  28  29
ENDBRANCH  27  28
ENDBRANCH  14  27
ENDBRANCH  13  14
ENDBRANCH  12  13
ENDBRANCH   2  12
TORSDOF 20
ENDMDL
MODEL       56
REMARK 921   NORMALIZED FREE ENERGY PREDICTED BY IDOCK:   -5.63 KCAL/MOL
REMARK 922        TOTAL FREE ENERGY PREDICTED BY IDOCK:  -16.90 KCAL/MOL
REMARK 923 INTER-LIGAND FREE ENERGY PREDICTED BY IDOCK:  -11.55 KCAL/MOL
REMARK 924 INTRA-LIGAND FREE ENERGY PREDICTED BY IDOCK:   -5.35 KCAL/MOL
REMARK 927      BINDING AFFINITY PREDICTED BY RF-SCORE:    0.00 PKD
ROOT
HETATM    1  O   UNL     1     -14.176  13.413  72.587  1.00  0.00    -0.747 OA 
HETATM    2  C   UNL     1     -13.228  13.294  71.824  1.00  0.00    -0.405 C  
ENDROOT
BRANCH   2   3
HETATM    3  C   UNL     1     -12.458  14.453  71.238  1.00  0.00    -0.423 C  
BRANCH   3   4
HETATM    4  C   UNL     1     -11.753  14.078  69.933  1.00  0.00    -0.368 C  
BRANCH   4   5
HETATM    5  C   UNL     1     -11.993  15.111  68.826  1.00  0.00    -0.280 C  
BRANCH   5   6
HETATM    6  C   UNL     1     -11.563  14.602  67.474  1.00  0.00    -0.396 A  
HETATM    7  C   UNL     1     -10.314  14.961  66.947  1.00  0.00    -0.264 A  
HETATM    8  C   UNL     1     -10.762  13.675  64.951  1.00  0.00    -0.400 A  
HETATM    9  C   UNL     1      -9.916  14.497  65.693  1.00  0.00    -0.376 A  
HETATM   10  C   UNL     1     -12.408  13.779  66.718  1.00  0.00    -0.365 A  
HETATM   11  C   UNL     1     -12.008  13.317  65.464  1.00  0.00    -0.445 A  
ENDBRANCH   5   6
ENDBRANCH   4   5
ENDBRANCH   3   4
ENDBRANCH   2   3
BRANCH   2  12
HETATM   12  O   UNL     1     -12.719  12.111  71.380  1.00  0.00    -0.358 OA 
BRANCH  12  13
HETATM   13  C   UNL     1     -13.402  10.916  71.805  1.00  0.00    -0.310 C  
BRANCH  13  14
HETATM   14  C   UNL     1     -12.561   9.684  71.461  1.00  0.00    -0.391 C  
BRANCH  14  15
HETATM   15  O   UNL     1     -12.306   8.939  72.671  1.00  0.00    -0.315 OA 
BRANCH  15  16
HETATM   16  C   UNL     1     -11.500   7.851  72.543  1.00  0.00    -0.398 C  
HETATM   17  O   UNL     1     -10.368   7.746  72.990  1.00  0.00    -0.295 OA 
BRANCH  16  18
HETATM   18  C   UNL     1     -12.199   6.786  71.736  1.00  0.00    -0.402 C  
BRANCH  18  19
HETATM   19  C   UNL     1     -11.395   6.390  70.503  1.00  0.00    -0.438 C  
BRANCH  19  20
HETATM   20  C   UNL     1     -10.442   5.217  70.760  1.00  0.00    -0.298 C  
BRANCH  20  21
HETATM   21  C   UNL     1      -9.075   5.544  70.215  1.00  0.00    -0.163 A  
HETATM   22  C   UNL     1      -6.458   6.151  69.429  1.00  0.00    -0.043 A  
HETATM   23  C   UNL     1      -8.670   6.877  70.073  1.00  0.00    -0.142 A  
HETATM   24  C   UNL     1      -8.161   4.518  69.939  1.00  0.00    -0.070 A  
HETATM   25  C   UNL     1      -7.364   7.178  69.679  1.00  0.00    -0.085 A  
HETATM   26  C   UNL     1      -6.857   4.822  69.548  1.00  0.00    -0.049 A  
ENDBRANCH  20  21
ENDBRANCH  19  20
ENDBRANCH  18  19
ENDBRANCH  16  18
ENDBRANCH  15  16
ENDBRANCH  14  15
BRANCH  14  27
HETATM   27  C   UNL     1     -11.207  10.087  70.867  1.00  0.00    -0.341 C  
BRANCH  27  28
HETATM   28  O   UNL     1     -11.070   9.629  69.514  1.00  0.00    -0.229 OA 
BRANCH  28  29
HETATM   29  C   UNL     1     -11.277  10.584  68.565  1.00  0.00    -0.274 C  
HETATM   30  O   UNL     1     -12.365  11.068  68.286  1.00  0.00    -0.479 OA 
BRANCH  29  31
HETATM   31  C   UNL     1      -9.970  10.964  67.916  1.00  0.00    -0.195 C  
BRANCH  31  32
HETATM   32  C   UNL     1      -9.041   9.764  67.771  1.00  0.00    -0.138 C  
BRANCH  32  33
HETATM   33  C   UNL     1      -9.069   9.155  66.363  1.00  0.00    -0.211 C  
BRANCH  33  34
HETATM   34  C   UNL     1      -9.372   7.680  66.440  1.00  0.00    -0.228 A  
HETATM   35  C   UNL     1      -9.886   4.946  66.760  1.00  0.00    -0.220 A  
HETATM   36  C   UNL     1     -10.630   7.242  66.877  1.00  0.00    -0.375 A  
HETATM   37  C   UNL     1     -10.884   5.879  67.035  1.00  0.00    -0.379 A  
HETATM   38  C   UNL     1      -8.637   5.374  66.313  1.00  0.00    -0.122 A  
HETATM   39  C   UNL     1      -8.380   6.735  66.152  1.00  0.00    -0.130 A  
ENDBRANCH  33  34
ENDBRANCH  32  33
ENDBRANCH  31  32
ENDBRANCH  29  31
ENDBRANCH  28  29
ENDBRANCH  27  28
ENDBRANCH  14  27
ENDBRANCH  13  14
ENDBRANCH  12  13
ENDBRANCH   2  12
TORSDOF 20
ENDMDL
MODEL       57
REMARK 921   NORMALIZED FREE ENERGY PREDICTED BY IDOCK:   -5.63 KCAL/MOL
REMARK 922        TOTAL FREE ENERGY PREDICTED BY IDOCK:  -16.89 KCAL/MOL
REMARK 923 INTER-LIGAND FREE ENERGY PREDICTED BY IDOCK:  -12.57 KCAL/MOL
REMARK 924 INTRA-LIGAND FREE ENERGY PREDICTED BY IDOCK:   -4.32 KCAL/MOL
REMARK 927      BINDING AFFINITY PREDICTED BY RF-SCORE:    0.00 PKD
ROOT
HETATM    1  O   UNL     1      -6.987   8.424  64.639  1.00  0.00    -0.071 OA 
HETATM    2  C   UNL     1      -7.309   9.588  64.448  1.00  0.00    -0.115 C  
ENDROOT
BRANCH   2   3
HETATM    3  C   UNL     1      -8.255  10.041  63.362  1.00  0.00    -0.164 C  
BRANCH   3   4
HETATM    4  C   UNL     1      -9.635  10.404  63.912  1.00  0.00    -0.370 C  
BRANCH   4   5
HETATM    5  C   UNL     1     -10.059  11.826  63.528  1.00  0.00    -0.463 C  
BRANCH   5   6
HETATM    6  C   UNL     1     -10.732  12.545  64.669  1.00  0.00    -0.341 A  
HETATM    7  C   UNL     1     -11.082  11.849  65.835  1.00  0.00    -0.365 A  
HETATM    8  C   UNL     1     -12.001  13.869  66.791  1.00  0.00    -0.472 A  
HETATM    9  C   UNL     1     -11.711  12.510  66.891  1.00  0.00    -0.447 A  
HETATM   10  C   UNL     1     -11.031  13.910  64.577  1.00  0.00    -0.379 A  
HETATM   11  C   UNL     1     -11.661  14.569  65.634  1.00  0.00    -0.344 A  
ENDBRANCH   5   6
ENDBRANCH   4   5
ENDBRANCH   3   4
ENDBRANCH   2   3
BRANCH   2  12
HETATM   12  O   UNL     1      -6.870  10.655  65.173  1.00  0.00    -0.067 OA 
BRANCH  12  13
HETATM   13  C   UNL     1      -6.588  10.414  66.565  1.00  0.00    -0.094 C  
BRANCH  13  14
HETATM   14  C   UNL     1      -7.714  10.986  67.432  1.00  0.00    -0.114 C  
BRANCH  14  15
HETATM   15  O   UNL     1      -7.158  11.964  68.335  1.00  0.00    -0.074 OA 
BRANCH  15  16
HETATM   16  C   UNL     1      -7.040  13.228  67.848  1.00  0.00    -0.133 C  
HETATM   17  O   UNL     1      -6.012  13.735  67.426  1.00  0.00    -0.348 OA 
BRANCH  16  18
HETATM   18  C   UNL     1      -8.368  13.936  67.929  1.00  0.00    -0.167 C  
BRANCH  18  19
HETATM   19  C   UNL     1      -8.211  15.450  67.829  1.00  0.00    -0.159 C  
BRANCH  19  20
HETATM   20  C   UNL     1      -9.201  16.215  68.714  1.00  0.00    -0.224 C  
BRANCH  20  21
HETATM   21  C   UNL     1      -9.634  17.480  68.016  1.00  0.00    -0.282 A  
HETATM   22  C   UNL     1     -10.661  19.762  66.762  1.00  0.00    -0.586 A  
HETATM   23  C   UNL     1      -9.892  17.475  66.639  1.00  0.00    -0.308 A  
HETATM   24  C   UNL     1      -9.874  18.646  68.753  1.00  0.00    -0.422 A  
HETATM   25  C   UNL     1     -10.404  18.615  66.016  1.00  0.00    -0.436 A  
HETATM   26  C   UNL     1     -10.387  19.783  68.129  1.00  0.00    -0.561 A  
ENDBRANCH  20  21
ENDBRANCH  19  20
ENDBRANCH  18  19
ENDBRANCH  16  18
ENDBRANCH  15  16
ENDBRANCH  14  15
BRANCH  14  27
HETATM   27  C   UNL     1      -8.370   9.889  68.279  1.00  0.00    -0.110 C  
BRANCH  27  28
HETATM   28  O   UNL     1      -9.098  10.444  69.385  1.00  0.00    -0.196 OA 
BRANCH  28  29
HETATM   29  C   UNL     1      -9.458   9.542  70.340  1.00  0.00    -0.262 C  
HETATM   30  O   UNL     1      -8.679   8.847  70.975  1.00  0.00    -0.187 OA 
BRANCH  29  31
HETATM   31  C   UNL     1     -10.957   9.534  70.506  1.00  0.00    -0.348 C  
BRANCH  31  32
HETATM   32  C   UNL     1     -11.560  10.916  70.279  1.00  0.00    -0.426 C  
BRANCH  32  33
HETATM   33  C   UNL     1     -12.638  11.273  71.311  1.00  0.00    -0.487 C  
BRANCH  33  34
HETATM   34  C   UNL     1     -12.842  12.766  71.356  1.00  0.00    -0.371 A  
HETATM   35  C   UNL     1     -13.359  15.518  71.318  1.00  0.00    -0.588 A  
HETATM   36  C   UNL     1     -13.780  13.323  72.236  1.00  0.00    -0.686 A  
HETATM   37  C   UNL     1     -14.036  14.694  72.216  1.00  0.00    -0.589 A  
HETATM   38  C   UNL     1     -12.416  14.973  70.449  1.00  0.00    -0.407 A  
HETATM   39  C   UNL     1     -12.157  13.603  70.467  1.00  0.00    -0.411 A  
ENDBRANCH  33  34
ENDBRANCH  32  33
ENDBRANCH  31  32
ENDBRANCH  29  31
ENDBRANCH  28  29
ENDBRANCH  27  28
ENDBRANCH  14  27
ENDBRANCH  13  14
ENDBRANCH  12  13
ENDBRANCH   2  12
TORSDOF 20
ENDMDL
MODEL       58
REMARK 921   NORMALIZED FREE ENERGY PREDICTED BY IDOCK:   -5.63 KCAL/MOL
REMARK 922        TOTAL FREE ENERGY PREDICTED BY IDOCK:  -16.88 KCAL/MOL
REMARK 923 INTER-LIGAND FREE ENERGY PREDICTED BY IDOCK:  -13.18 KCAL/MOL
REMARK 924 INTRA-LIGAND FREE ENERGY PREDICTED BY IDOCK:   -3.70 KCAL/MOL
REMARK 927      BINDING AFFINITY PREDICTED BY RF-SCORE:    0.00 PKD
ROOT
HETATM    1  O   UNL     1     -12.494  13.394  71.126  1.00  0.00    -0.362 OA 
HETATM    2  C   UNL     1     -12.100  12.998  70.038  1.00  0.00    -0.297 C  
ENDROOT
BRANCH   2   3
HETATM    3  C   UNL     1     -11.543  11.617  69.788  1.00  0.00    -0.389 C  
BRANCH   3   4
HETATM    4  C   UNL     1     -12.529  10.515  70.180  1.00  0.00    -0.297 C  
BRANCH   4   5
HETATM    5  C   UNL     1     -12.333  10.047  71.626  1.00  0.00    -0.486 C  
BRANCH   5   6
HETATM    6  C   UNL     1     -11.618   8.721  71.699  1.00  0.00    -0.390 A  
HETATM    7  C   UNL     1     -12.230   7.559  71.207  1.00  0.00    -0.357 A  
HETATM    8  C   UNL     1     -10.304   6.248  71.847  1.00  0.00    -0.234 A  
HETATM    9  C   UNL     1     -11.574   6.330  71.280  1.00  0.00    -0.336 A  
HETATM   10  C   UNL     1     -10.343   8.627  72.271  1.00  0.00    -0.376 A  
HETATM   11  C   UNL     1      -9.688   7.397  72.342  1.00  0.00    -0.194 A  
ENDBRANCH   5   6
ENDBRANCH   4   5
ENDBRANCH   3   4
ENDBRANCH   2   3
BRANCH   2  12
HETATM   12  O   UNL     1     -12.096  13.728  68.889  1.00  0.00    -0.349 OA 
BRANCH  12  13
HETATM   13  C   UNL     1     -11.988  12.989  67.657  1.00  0.00    -0.301 C  
BRANCH  13  14
HETATM   14  C   UNL     1     -11.664  13.942  66.503  1.00  0.00    -0.393 C  
BRANCH  14  15
HETATM   15  O   UNL     1     -11.562  15.285  67.020  1.00  0.00    -0.245 OA 
BRANCH  15  16
HETATM   16  C   UNL     1     -10.445  15.977  66.669  1.00  0.00    -0.304 C  
HETATM   17  O   UNL     1      -9.662  15.665  65.785  1.00  0.00    -0.328 OA 
BRANCH  16  18
HETATM   18  C   UNL     1     -10.291  17.187  67.556  1.00  0.00    -0.341 C  
BRANCH  18  19
HETATM   19  C   UNL     1      -8.827  17.473  67.874  1.00  0.00    -0.247 C  
BRANCH  19  20
HETATM   20  C   UNL     1      -8.564  18.945  68.212  1.00  0.00    -0.364 C  
BRANCH  20  21
HETATM   21  C   UNL     1      -7.534  19.507  67.265  1.00  0.00    -0.260 A  
HETATM   22  C   UNL     1      -5.794  20.685  65.415  1.00  0.00    -0.257 A  
HETATM   23  C   UNL     1      -7.327  18.916  66.012  1.00  0.00    -0.289 A  
HETATM   24  C   UNL     1      -6.843  20.682  67.590  1.00  0.00    -0.379 A  
HETATM   25  C   UNL     1      -6.458  19.505  65.092  1.00  0.00    -0.313 A  
HETATM   26  C   UNL     1      -5.978  21.269  66.667  1.00  0.00    -0.370 A  
ENDBRANCH  20  21
ENDBRANCH  19  20
ENDBRANCH  18  19
ENDBRANCH  16  18
ENDBRANCH  15  16
ENDBRANCH  14  15
BRANCH  14  27
HETATM   27  C   UNL     1     -12.777  13.932  65.448  1.00  0.00    -0.490 C  
BRANCH  27  28
HETATM   28  O   UNL     1     -12.241  13.847  64.120  1.00  0.00    -0.540 OA 
BRANCH  28  29
HETATM   29  C   UNL     1     -12.076  12.577  63.652  1.00  0.00    -0.554 C  
HETATM   30  O   UNL     1     -12.983  11.844  63.285  1.00  0.00    -0.707 OA 
BRANCH  29  31
HETATM   31  C   UNL     1     -10.613  12.213  63.644  1.00  0.00    -0.504 C  
BRANCH  31  32
HETATM   32  C   UNL     1     -10.330  10.985  64.503  1.00  0.00    -0.420 C  
BRANCH  32  33
HETATM   33  C   UNL     1      -9.302  11.254  65.609  1.00  0.00    -0.245 C  
BRANCH  33  34
HETATM   34  C   UNL     1      -9.435  10.227  66.704  1.00  0.00    -0.203 A  
HETATM   35  C   UNL     1      -9.538   8.229  68.665  1.00  0.00    -0.152 A  
HETATM   36  C   UNL     1      -8.671  10.341  67.874  1.00  0.00    -0.122 A  
HETATM   37  C   UNL     1      -8.723   9.346  68.850  1.00  0.00    -0.132 A  
HETATM   38  C   UNL     1     -10.310   8.114  67.510  1.00  0.00    -0.330 A  
HETATM   39  C   UNL     1     -10.260   9.109  66.534  1.00  0.00    -0.322 A  
ENDBRANCH  33  34
ENDBRANCH  32  33
ENDBRANCH  31  32
ENDBRANCH  29  31
ENDBRANCH  28  29
ENDBRANCH  27  28
ENDBRANCH  14  27
ENDBRANCH  13  14
ENDBRANCH  12  13
ENDBRANCH   2  12
TORSDOF 20
ENDMDL
MODEL       59
REMARK 921   NORMALIZED FREE ENERGY PREDICTED BY IDOCK:   -5.60 KCAL/MOL
REMARK 922        TOTAL FREE ENERGY PREDICTED BY IDOCK:  -16.83 KCAL/MOL
REMARK 923 INTER-LIGAND FREE ENERGY PREDICTED BY IDOCK:   -9.58 KCAL/MOL
REMARK 924 INTRA-LIGAND FREE ENERGY PREDICTED BY IDOCK:   -7.25 KCAL/MOL
REMARK 927      BINDING AFFINITY PREDICTED BY RF-SCORE:    0.00 PKD
ROOT
HETATM    1  O   UNL     1     -10.790   5.240  70.524  1.00  0.00    -0.199 OA 
HETATM    2  C   UNL     1     -11.250   6.101  69.788  1.00  0.00    -0.423 C  
ENDROOT
BRANCH   2   3
HETATM    3  C   UNL     1     -11.021   6.154  68.296  1.00  0.00    -0.397 C  
BRANCH   3   4
HETATM    4  C   UNL     1      -9.889   5.226  67.852  1.00  0.00    -0.189 C  
BRANCH   4   5
HETATM    5  C   UNL     1      -9.623   5.314  66.345  1.00  0.00    -0.171 C  
BRANCH   5   6
HETATM    6  C   UNL     1      -8.355   6.070  66.037  1.00  0.00    -0.134 A  
HETATM    7  C   UNL     1      -8.117   6.555  64.743  1.00  0.00    -0.112 A  
HETATM    8  C   UNL     1      -5.992   7.461  65.451  1.00  0.00    -0.038 A  
HETATM    9  C   UNL     1      -6.942   7.249  64.453  1.00  0.00    -0.052 A  
HETATM   10  C   UNL     1      -7.392   6.286  67.031  1.00  0.00    -0.083 A  
HETATM   11  C   UNL     1      -6.218   6.980  66.739  1.00  0.00    -0.042 A  
ENDBRANCH   5   6
ENDBRANCH   4   5
ENDBRANCH   3   4
ENDBRANCH   2   3
BRANCH   2  12
HETATM   12  O   UNL     1     -12.033   7.142  70.186  1.00  0.00    -0.140 OA 
BRANCH  12  13
HETATM   13  C   UNL     1     -12.243   7.283  71.604  1.00  0.00    -0.343 C  
BRANCH  13  14
HETATM   14  C   UNL     1     -11.463   8.492  72.129  1.00  0.00    -0.376 C  
BRANCH  14  15
HETATM   15  O   UNL     1     -11.209   9.397  71.035  1.00  0.00    -0.283 OA 
BRANCH  15  16
HETATM   16  C   UNL     1     -12.116  10.395  70.862  1.00  0.00    -0.374 C  
HETATM   17  O   UNL     1     -12.850  10.848  71.727  1.00  0.00    -0.431 OA 
BRANCH  16  18
HETATM   18  C   UNL     1     -12.111  10.850  69.424  1.00  0.00    -0.362 C  
BRANCH  18  19
HETATM   19  C   UNL     1     -11.775  12.333  69.301  1.00  0.00    -0.388 C  
BRANCH  19  20
HETATM   20  C   UNL     1     -10.454  12.590  68.566  1.00  0.00    -0.246 C  
BRANCH  20  21
HETATM   21  C   UNL     1     -10.732  12.901  67.117  1.00  0.00    -0.268 A  
HETATM   22  C   UNL     1     -11.374  13.665  64.502  1.00  0.00    -0.393 A  
HETATM   23  C   UNL     1     -11.867  12.378  66.486  1.00  0.00    -0.407 A  
HETATM   24  C   UNL     1      -9.910  13.794  66.417  1.00  0.00    -0.305 A  
HETATM   25  C   UNL     1     -12.185  12.760  65.181  1.00  0.00    -0.530 A  
HETATM   26  C   UNL     1     -10.231  14.175  65.115  1.00  0.00    -0.411 A  
ENDBRANCH  20  21
ENDBRANCH  19  20
ENDBRANCH  18  19
ENDBRANCH  16  18
ENDBRANCH  15  16
ENDBRANCH  14  15
BRANCH  14  27
HETATM   27  C   UNL     1     -10.108   8.067  72.707  1.00  0.00    -0.308 C  
BRANCH  27  28
HETATM   28  O   UNL     1      -9.052   8.926  72.255  1.00  0.00    -0.381 OA 
BRANCH  28  29
HETATM   29  C   UNL     1      -7.864   8.298  72.028  1.00  0.00    -0.130 C  
HETATM   30  O   UNL     1      -6.928   8.268  72.813  1.00  0.00    -0.095 OA 
BRANCH  29  31
HETATM   31  C   UNL     1      -7.876   7.640  70.671  1.00  0.00    -0.097 C  
BRANCH  31  32
HETATM   32  C   UNL     1      -7.762   8.662  69.545  1.00  0.00    -0.090 C  
BRANCH  32  33
HETATM   33  C   UNL     1      -9.115   8.996  68.904  1.00  0.00    -0.140 C  
BRANCH  33  34
HETATM   34  C   UNL     1      -8.918   9.472  67.488  1.00  0.00    -0.133 A  
HETATM   35  C   UNL     1      -8.635  10.514  64.903  1.00  0.00    -0.179 A  
HETATM   36  C   UNL     1      -7.801  10.251  67.155  1.00  0.00    -0.110 A  
HETATM   37  C   UNL     1      -7.661  10.769  65.868  1.00  0.00    -0.118 A  
HETATM   38  C   UNL     1      -9.743   9.730  65.222  1.00  0.00    -0.371 A  
HETATM   39  C   UNL     1      -9.884   9.210  66.508  1.00  0.00    -0.333 A  
ENDBRANCH  33  34
ENDBRANCH  32  33
ENDBRANCH  31  32
ENDBRANCH  29  31
ENDBRANCH  28  29
ENDBRANCH  27  28
ENDBRANCH  14  27
ENDBRANCH  13  14
ENDBRANCH  12  13
ENDBRANCH   2  12
TORSDOF 20
ENDMDL
MODEL       60
REMARK 921   NORMALIZED FREE ENERGY PREDICTED BY IDOCK:   -5.60 KCAL/MOL
REMARK 922        TOTAL FREE ENERGY PREDICTED BY IDOCK:  -16.83 KCAL/MOL
REMARK 923 INTER-LIGAND FREE ENERGY PREDICTED BY IDOCK:  -12.81 KCAL/MOL
REMARK 924 INTRA-LIGAND FREE ENERGY PREDICTED BY IDOCK:   -4.02 KCAL/MOL
REMARK 927      BINDING AFFINITY PREDICTED BY RF-SCORE:    0.00 PKD
ROOT
HETATM    1  O   UNL     1     -12.549  13.740  63.136  1.00  0.00    -0.793 OA 
HETATM    2  C   UNL     1     -12.157  12.850  63.878  1.00  0.00    -0.480 C  
ENDROOT
BRANCH   2   3
HETATM    3  C   UNL     1     -11.175  11.778  63.472  1.00  0.00    -0.494 C  
BRANCH   3   4
HETATM    4  C   UNL     1     -10.488  11.136  64.679  1.00  0.00    -0.400 C  
BRANCH   4   5
HETATM    5  C   UNL     1      -9.308  10.247  64.271  1.00  0.00    -0.328 C  
BRANCH   5   6
HETATM    6  C   UNL     1      -8.464   9.848  65.455  1.00  0.00    -0.148 A  
HETATM    7  C   UNL     1      -8.302  10.726  66.537  1.00  0.00    -0.146 A  
HETATM    8  C   UNL     1      -6.882   9.121  67.654  1.00  0.00    -0.077 A  
HETATM    9  C   UNL     1      -7.516  10.361  67.631  1.00  0.00    -0.089 A  
HETATM   10  C   UNL     1      -7.818   8.605  65.486  1.00  0.00    -0.099 A  
HETATM   11  C   UNL     1      -7.033   8.243  66.581  1.00  0.00    -0.069 A  
ENDBRANCH   5   6
ENDBRANCH   4   5
ENDBRANCH   3   4
ENDBRANCH   2   3
BRANCH   2  12
HETATM   12  O   UNL     1     -12.539  12.680  65.174  1.00  0.00    -0.594 OA 
BRANCH  12  13
HETATM   13  C   UNL     1     -12.528  13.854  66.008  1.00  0.00    -0.461 C  
BRANCH  13  14
HETATM   14  C   UNL     1     -11.196  13.949  66.758  1.00  0.00    -0.318 C  
BRANCH  14  15
HETATM   15  O   UNL     1     -11.452  14.367  68.115  1.00  0.00    -0.278 OA 
BRANCH  15  16
HETATM   16  C   UNL     1     -11.542  13.374  69.039  1.00  0.00    -0.312 C  
HETATM   17  O   UNL     1     -12.057  13.472  70.143  1.00  0.00    -0.330 OA 
BRANCH  16  18
HETATM   18  C   UNL     1     -10.880  12.124  68.516  1.00  0.00    -0.267 C  
BRANCH  18  19
HETATM   19  C   UNL     1     -11.593  10.863  68.993  1.00  0.00    -0.387 C  
BRANCH  19  20
HETATM   20  C   UNL     1     -10.691   9.944  69.826  1.00  0.00    -0.298 C  
BRANCH  20  21
HETATM   21  C   UNL     1     -10.639   8.576  69.194  1.00  0.00    -0.188 A  
HETATM   22  C   UNL     1     -10.780   6.037  68.023  1.00  0.00    -0.359 A  
HETATM   23  C   UNL     1     -10.635   7.426  69.994  1.00  0.00    -0.241 A  
HETATM   24  C   UNL     1     -10.692   8.440  67.801  1.00  0.00    -0.165 A  
HETATM   25  C   UNL     1     -10.704   6.162  69.408  1.00  0.00    -0.385 A  
HETATM   26  C   UNL     1     -10.764   7.175  67.218  1.00  0.00    -0.399 A  
ENDBRANCH  20  21
ENDBRANCH  19  20
ENDBRANCH  18  19
ENDBRANCH  16  18
ENDBRANCH  15  16
ENDBRANCH  14  15
BRANCH  14  27
HETATM   27  C   UNL     1     -10.272  14.991  66.116  1.00  0.00    -0.297 C  
BRANCH  27  28
HETATM   28  O   UNL     1     -10.583  16.317  66.567  1.00  0.00    -0.308 OA 
BRANCH  28  29
HETATM   29  C   UNL     1     -10.866  17.206  65.574  1.00  0.00    -0.055 C  
HETATM   30  O   UNL     1     -11.251  16.903  64.454  1.00  0.00    -1.159 OA 
BRANCH  29  31
HETATM   31  C   UNL     1     -10.643  18.615  66.060  1.00  0.00    -0.410 C  
BRANCH  31  32
HETATM   32  C   UNL     1      -9.196  18.847  66.483  1.00  0.00    -0.342 C  
BRANCH  32  33
HETATM   33  C   UNL     1      -9.071  19.361  67.923  1.00  0.00    -0.377 C  
BRANCH  33  34
HETATM   34  C   UNL     1      -7.873  18.740  68.595  1.00  0.00    -0.361 A  
HETATM   35  C   UNL     1      -5.750  17.572  69.999  1.00  0.00    -0.245 A  
HETATM   36  C   UNL     1      -7.733  17.346  68.638  1.00  0.00    -0.273 A  
HETATM   37  C   UNL     1      -6.675  16.765  69.337  1.00  0.00    -0.226 A  
HETATM   38  C   UNL     1      -5.875  18.959  69.951  1.00  0.00    -0.265 A  
HETATM   39  C   UNL     1      -6.932  19.541  69.252  1.00  0.00    -0.385 A  
ENDBRANCH  33  34
ENDBRANCH  32  33
ENDBRANCH  31  32
ENDBRANCH  29  31
ENDBRANCH  28  29
ENDBRANCH  27  28
ENDBRANCH  14  27
ENDBRANCH  13  14
ENDBRANCH  12  13
ENDBRANCH   2  12
TORSDOF 20
ENDMDL
MODEL       61
REMARK 921   NORMALIZED FREE ENERGY PREDICTED BY IDOCK:   -5.59 KCAL/MOL
REMARK 922        TOTAL FREE ENERGY PREDICTED BY IDOCK:  -16.81 KCAL/MOL
REMARK 923 INTER-LIGAND FREE ENERGY PREDICTED BY IDOCK:  -12.24 KCAL/MOL
REMARK 924 INTRA-LIGAND FREE ENERGY PREDICTED BY IDOCK:   -4.57 KCAL/MOL
REMARK 927      BINDING AFFINITY PREDICTED BY RF-SCORE:    0.00 PKD
ROOT
HETATM    1  O   UNL     1      -9.997  10.344  64.448  1.00  0.00    -0.335 OA 
HETATM    2  C   UNL     1      -9.823   9.762  65.510  1.00  0.00    -0.308 C  
ENDROOT
BRANCH   2   3
HETATM    3  C   UNL     1      -9.037   8.481  65.657  1.00  0.00    -0.189 C  
BRANCH   3   4
HETATM    4  C   UNL     1      -9.194   7.862  67.047  1.00  0.00    -0.181 C  
BRANCH   4   5
HETATM    5  C   UNL     1      -7.871   7.315  67.592  1.00  0.00    -0.113 C  
BRANCH   5   6
HETATM    6  C   UNL     1      -7.760   7.487  69.086  1.00  0.00    -0.113 A  
HETATM    7  C   UNL     1      -7.051   6.553  69.855  1.00  0.00    -0.068 A  
HETATM    8  C   UNL     1      -7.564   7.789  71.867  1.00  0.00    -0.092 A  
HETATM    9  C   UNL     1      -6.953   6.706  71.239  1.00  0.00    -0.074 A  
HETATM   10  C   UNL     1      -8.374   8.570  69.729  1.00  0.00    -0.124 A  
HETATM   11  C   UNL     1      -8.274   8.720  71.112  1.00  0.00    -0.204 A  
ENDBRANCH   5   6
ENDBRANCH   4   5
ENDBRANCH   3   4
ENDBRANCH   2   3
BRANCH   2  12
HETATM   12  O   UNL     1     -10.305  10.166  66.717  1.00  0.00    -0.223 OA 
BRANCH  12  13
HETATM   13  C   UNL     1     -10.308  11.585  66.967  1.00  0.00    -0.220 C  
BRANCH  13  14
HETATM   14  C   UNL     1     -11.723  12.049  67.326  1.00  0.00    -0.269 C  
BRANCH  14  15
HETATM   15  O   UNL     1     -11.955  13.343  66.733  1.00  0.00    -0.383 OA 
BRANCH  15  16
HETATM   16  C   UNL     1     -12.202  13.352  65.396  1.00  0.00    -0.452 C  
HETATM   17  O   UNL     1     -13.065  12.702  64.826  1.00  0.00    -0.852 OA 
BRANCH  16  18
HETATM   18  C   UNL     1     -11.227  14.269  64.700  1.00  0.00    -0.370 C  
BRANCH  18  19
HETATM   19  C   UNL     1     -10.651  15.311  65.652  1.00  0.00    -0.377 C  
BRANCH  19  20
HETATM   20  C   UNL     1     -10.735  16.739  65.101  1.00  0.00    -0.159 C  
BRANCH  20  21
HETATM   21  C   UNL     1     -10.452  17.727  66.203  1.00  0.00    -0.301 A  
HETATM   22  C   UNL     1     -10.162  19.574  68.287  1.00  0.00    -0.552 A  
HETATM   23  C   UNL     1     -10.421  19.101  65.933  1.00  0.00    -0.500 A  
HETATM   24  C   UNL     1     -10.315  17.288  67.527  1.00  0.00    -0.346 A  
HETATM   25  C   UNL     1     -10.275  20.020  66.973  1.00  0.00    -0.587 A  
HETATM   26  C   UNL     1     -10.171  18.208  68.564  1.00  0.00    -0.399 A  
ENDBRANCH  20  21
ENDBRANCH  19  20
ENDBRANCH  18  19
ENDBRANCH  16  18
ENDBRANCH  15  16
ENDBRANCH  14  15
BRANCH  14  27
HETATM   27  C   UNL     1     -11.889  12.194  68.843  1.00  0.00    -0.304 C  
BRANCH  27  28
HETATM   28  O   UNL     1     -12.333  10.969  69.443  1.00  0.00    -0.348 OA 
BRANCH  28  29
HETATM   29  C   UNL     1     -12.390  10.988  70.804  1.00  0.00    -0.398 C  
HETATM   30  O   UNL     1     -13.034  11.789  71.465  1.00  0.00    -0.419 OA 
BRANCH  29  31
HETATM   31  C   UNL     1     -11.550   9.873  71.374  1.00  0.00    -0.428 C  
BRANCH  31  32
HETATM   32  C   UNL     1     -12.290   8.539  71.352  1.00  0.00    -0.332 C  
BRANCH  32  33
HETATM   33  C   UNL     1     -11.698   7.513  72.328  1.00  0.00    -0.348 C  
BRANCH  33  34
HETATM   34  C   UNL     1     -11.086   6.364  71.568  1.00  0.00    -0.322 A  
HETATM   35  C   UNL     1      -9.792   4.328  70.146  1.00  0.00    -0.271 A  
HETATM   36  C   UNL     1     -10.352   5.382  72.247  1.00  0.00    -0.260 A  
HETATM   37  C   UNL     1      -9.709   4.368  71.537  1.00  0.00    -0.244 A  
HETATM   38  C   UNL     1     -10.530   5.294  69.465  1.00  0.00    -0.304 A  
HETATM   39  C   UNL     1     -11.175   6.308  70.172  1.00  0.00    -0.470 A  
ENDBRANCH  33  34
ENDBRANCH  32  33
ENDBRANCH  31  32
ENDBRANCH  29  31
ENDBRANCH  28  29
ENDBRANCH  27  28
ENDBRANCH  14  27
ENDBRANCH  13  14
ENDBRANCH  12  13
ENDBRANCH   2  12
TORSDOF 20
ENDMDL
MODEL       62
REMARK 921   NORMALIZED FREE ENERGY PREDICTED BY IDOCK:   -5.59 KCAL/MOL
REMARK 922        TOTAL FREE ENERGY PREDICTED BY IDOCK:  -16.80 KCAL/MOL
REMARK 923 INTER-LIGAND FREE ENERGY PREDICTED BY IDOCK:  -13.00 KCAL/MOL
REMARK 924 INTRA-LIGAND FREE ENERGY PREDICTED BY IDOCK:   -3.80 KCAL/MOL
REMARK 927      BINDING AFFINITY PREDICTED BY RF-SCORE:    0.00 PKD
ROOT
HETATM    1  O   UNL     1     -13.168  12.276  63.686  1.00  0.00    -0.758 OA 
HETATM    2  C   UNL     1     -12.328  12.728  64.451  1.00  0.00    -0.424 C  
ENDROOT
BRANCH   2   3
HETATM    3  C   UNL     1     -11.913  14.180  64.494  1.00  0.00    -0.476 C  
BRANCH   3   4
HETATM    4  C   UNL     1     -10.712  14.411  65.412  1.00  0.00    -0.359 C  
BRANCH   4   5
HETATM    5  C   UNL     1     -11.131  14.865  66.814  1.00  0.00    -0.335 C  
BRANCH   5   6
HETATM    6  C   UNL     1     -10.294  16.017  67.310  1.00  0.00    -0.295 A  
HETATM    7  C   UNL     1      -8.910  16.034  67.085  1.00  0.00    -0.224 A  
HETATM    8  C   UNL     1      -8.726  18.146  68.244  1.00  0.00    -0.294 A  
HETATM    9  C   UNL     1      -8.132  17.096  67.548  1.00  0.00    -0.196 A  
HETATM   10  C   UNL     1     -10.881  17.076  68.015  1.00  0.00    -0.330 A  
HETATM   11  C   UNL     1     -10.101  18.136  68.478  1.00  0.00    -0.413 A  
ENDBRANCH   5   6
ENDBRANCH   4   5
ENDBRANCH   3   4
ENDBRANCH   2   3
BRANCH   2  12
HETATM   12  O   UNL     1     -11.636  12.008  65.376  1.00  0.00    -0.343 OA 
BRANCH  12  13
HETATM   13  C   UNL     1     -10.650  11.088  64.870  1.00  0.00    -0.258 C  
BRANCH  13  14
HETATM   14  C   UNL     1     -10.113  10.219  66.011  1.00  0.00    -0.244 C  
BRANCH  14  15
HETATM   15  O   UNL     1      -9.177  10.993  66.789  1.00  0.00    -0.157 OA 
BRANCH  15  16
HETATM   16  C   UNL     1      -9.649  11.501  67.959  1.00  0.00    -0.180 C  
HETATM   17  O   UNL     1      -9.233  12.504  68.519  1.00  0.00    -0.168 OA 
BRANCH  16  18
HETATM   18  C   UNL     1     -10.755  10.625  68.490  1.00  0.00    -0.252 C  
BRANCH  18  19
HETATM   19  C   UNL     1     -11.936  11.446  68.995  1.00  0.00    -0.387 C  
BRANCH  19  20
HETATM   20  C   UNL     1     -12.045  11.461  70.525  1.00  0.00    -0.487 C  
BRANCH  20  21
HETATM   21  C   UNL     1     -12.533  12.810  70.986  1.00  0.00    -0.369 A  
HETATM   22  C   UNL     1     -13.622  15.291  71.693  1.00  0.00    -0.586 A  
HETATM   23  C   UNL     1     -12.142  13.974  70.311  1.00  0.00    -0.425 A  
HETATM   24  C   UNL     1     -13.459  12.906  72.033  1.00  0.00    -0.568 A  
HETATM   25  C   UNL     1     -12.685  15.209  70.666  1.00  0.00    -0.451 A  
HETATM   26  C   UNL     1     -14.002  14.142  72.384  1.00  0.00    -0.613 A  
ENDBRANCH  20  21
ENDBRANCH  19  20
ENDBRANCH  18  19
ENDBRANCH  16  18
ENDBRANCH  15  16
ENDBRANCH  14  15
BRANCH  14  27
HETATM   27  C   UNL     1      -9.368   8.994  65.468  1.00  0.00    -0.187 C  
BRANCH  27  28
HETATM   28  O   UNL     1      -9.021   8.082  66.520  1.00  0.00    -0.140 OA 
BRANCH  28  29
HETATM   29  C   UNL     1      -9.513   6.820  66.366  1.00  0.00    -0.119 C  
HETATM   30  O   UNL     1      -8.951   5.920  65.759  1.00  0.00    -0.157 OA 
BRANCH  29  31
HETATM   31  C   UNL     1     -10.845   6.694  67.061  1.00  0.00    -0.467 C  
BRANCH  31  32
HETATM   32  C   UNL     1     -10.726   5.942  68.382  1.00  0.00    -0.323 C  
BRANCH  32  33
HETATM   33  C   UNL     1      -9.859   6.679  69.411  1.00  0.00    -0.160 C  
BRANCH  33  34
HETATM   34  C   UNL     1     -10.729   7.323  70.460  1.00  0.00    -0.249 A  
HETATM   35  C   UNL     1     -12.305   8.379  72.520  1.00  0.00    -0.358 A  
HETATM   36  C   UNL     1     -10.162   8.167  71.425  1.00  0.00    -0.248 A  
HETATM   37  C   UNL     1     -10.948   8.693  72.450  1.00  0.00    -0.323 A  
HETATM   38  C   UNL     1     -12.879   7.551  71.557  1.00  0.00    -0.397 A  
HETATM   39  C   UNL     1     -12.095   7.025  70.531  1.00  0.00    -0.278 A  
ENDBRANCH  33  34
ENDBRANCH  32  33
ENDBRANCH  31  32
ENDBRANCH  29  31
ENDBRANCH  28  29
ENDBRANCH  27  28
ENDBRANCH  14  27
ENDBRANCH  13  14
ENDBRANCH  12  13
ENDBRANCH   2  12
TORSDOF 20
ENDMDL
MODEL       63
REMARK 921   NORMALIZED FREE ENERGY PREDICTED BY IDOCK:   -5.59 KCAL/MOL
REMARK 922        TOTAL FREE ENERGY PREDICTED BY IDOCK:  -16.80 KCAL/MOL
REMARK 923 INTER-LIGAND FREE ENERGY PREDICTED BY IDOCK:  -10.56 KCAL/MOL
REMARK 924 INTRA-LIGAND FREE ENERGY PREDICTED BY IDOCK:   -6.24 KCAL/MOL
REMARK 927      BINDING AFFINITY PREDICTED BY RF-SCORE:    0.00 PKD
ROOT
HETATM    1  O   UNL     1     -12.660  15.143  63.848  1.00  0.00    -0.794 OA 
HETATM    2  C   UNL     1     -12.283  14.333  64.682  1.00  0.00    -0.454 C  
ENDROOT
BRANCH   2   3
HETATM    3  C   UNL     1     -12.631  12.864  64.658  1.00  0.00    -0.459 C  
BRANCH   3   4
HETATM    4  C   UNL     1     -11.921  12.119  63.526  1.00  0.00    -0.619 C  
BRANCH   4   5
HETATM    5  C   UNL     1     -10.397  12.135  63.686  1.00  0.00    -0.482 C  
BRANCH   5   6
HETATM    6  C   UNL     1      -9.887  10.895  64.375  1.00  0.00    -0.365 A  
HETATM    7  C   UNL     1      -8.840  10.152  63.811  1.00  0.00    -0.245 A  
HETATM    8  C   UNL     1      -8.944   8.577  65.640  1.00  0.00    -0.209 A  
HETATM    9  C   UNL     1      -8.370   9.001  64.443  1.00  0.00    -0.183 A  
HETATM   10  C   UNL     1     -10.459  10.458  65.577  1.00  0.00    -0.192 A  
HETATM   11  C   UNL     1      -9.988   9.306  66.206  1.00  0.00    -0.357 A  
ENDBRANCH   5   6
ENDBRANCH   4   5
ENDBRANCH   3   4
ENDBRANCH   2   3
BRANCH   2  12
HETATM   12  O   UNL     1     -11.498  14.618  65.758  1.00  0.00    -0.342 OA 
BRANCH  12  13
HETATM   13  C   UNL     1     -11.952  14.129  67.034  1.00  0.00    -0.439 C  
BRANCH  13  14
HETATM   14  C   UNL     1     -10.866  13.262  67.678  1.00  0.00    -0.258 C  
BRANCH  14  15
HETATM   15  O   UNL     1     -10.902  13.451  69.108  1.00  0.00    -0.211 OA 
BRANCH  15  16
HETATM   16  C   UNL     1     -11.828  12.718  69.784  1.00  0.00    -0.310 C  
HETATM   17  O   UNL     1     -12.524  13.123  70.702  1.00  0.00    -0.338 OA 
BRANCH  16  18
HETATM   18  C   UNL     1     -11.853  11.307  69.252  1.00  0.00    -0.423 C  
BRANCH  18  19
HETATM   19  C   UNL     1     -11.275  10.314  70.255  1.00  0.00    -0.395 C  
BRANCH  19  20
HETATM   20  C   UNL     1     -11.498   8.853  69.848  1.00  0.00     0.104 C  
BRANCH  20  21
HETATM   21  C   UNL     1     -11.095   7.944  70.981  1.00  0.00    -0.268 A  
HETATM   22  C   UNL     1     -10.575   6.255  73.152  1.00  0.00    -0.273 A  
HETATM   23  C   UNL     1     -10.719   8.479  72.219  1.00  0.00    -0.411 A  
HETATM   24  C   UNL     1     -11.187   6.553  70.836  1.00  0.00    -0.366 A  
HETATM   25  C   UNL     1     -10.459   7.635  73.300  1.00  0.00    -0.414 A  
HETATM   26  C   UNL     1     -10.930   5.713  71.919  1.00  0.00    -0.297 A  
ENDBRANCH  20  21
ENDBRANCH  19  20
ENDBRANCH  18  19
ENDBRANCH  16  18
ENDBRANCH  15  16
ENDBRANCH  14  15
BRANCH  14  27
HETATM   27  C   UNL     1      -9.471  13.670  67.189  1.00  0.00    -0.244 C  
BRANCH  27  28
HETATM   28  O   UNL     1      -8.549  13.798  68.281  1.00  0.00    -0.166 OA 
BRANCH  28  29
HETATM   29  C   UNL     1      -7.341  13.199  68.081  1.00  0.00    -0.119 C  
HETATM   30  O   UNL     1      -6.274  13.619  68.503  1.00  0.00    -0.079 OA 
BRANCH  29  31
HETATM   31  C   UNL     1      -7.515  11.939  67.271  1.00  0.00    -0.151 C  
BRANCH  31  32
HETATM   32  C   UNL     1      -7.095  10.700  68.054  1.00  0.00    -0.085 C  
BRANCH  32  33
HETATM   33  C   UNL     1      -7.818  10.571  69.402  1.00  0.00    -0.151 C  
BRANCH  33  34
HETATM   34  C   UNL     1      -7.710   9.160  69.918  1.00  0.00    -0.087 A  
HETATM   35  C   UNL     1      -7.332   6.539  70.830  1.00  0.00    -0.083 A  
HETATM   36  C   UNL     1      -7.295   8.920  71.235  1.00  0.00    -0.115 A  
HETATM   37  C   UNL     1      -7.108   7.615  71.688  1.00  0.00    -0.063 A  
HETATM   38  C   UNL     1      -7.757   6.768  69.523  1.00  0.00    -0.104 A  
HETATM   39  C   UNL     1      -7.946   8.072  69.068  1.00  0.00    -0.114 A  
ENDBRANCH  33  34
ENDBRANCH  32  33
ENDBRANCH  31  32
ENDBRANCH  29  31
ENDBRANCH  28  29
ENDBRANCH  27  28
ENDBRANCH  14  27
ENDBRANCH  13  14
ENDBRANCH  12  13
ENDBRANCH   2  12
TORSDOF 20
ENDMDL
MODEL       64
REMARK 921   NORMALIZED FREE ENERGY PREDICTED BY IDOCK:   -5.59 KCAL/MOL
REMARK 922        TOTAL FREE ENERGY PREDICTED BY IDOCK:  -16.80 KCAL/MOL
REMARK 923 INTER-LIGAND FREE ENERGY PREDICTED BY IDOCK:  -13.63 KCAL/MOL
REMARK 924 INTRA-LIGAND FREE ENERGY PREDICTED BY IDOCK:   -3.17 KCAL/MOL
REMARK 927      BINDING AFFINITY PREDICTED BY RF-SCORE:    0.00 PKD
ROOT
HETATM    1  O   UNL     1     -10.780  19.554  65.405  1.00  0.00    -0.446 OA 
HETATM    2  C   UNL     1     -10.573  19.093  66.519  1.00  0.00    -0.435 C  
ENDROOT
BRANCH   2   3
HETATM    3  C   UNL     1     -10.238  19.926  67.733  1.00  0.00    -0.567 C  
BRANCH   3   4
HETATM    4  C   UNL     1      -9.453  19.133  68.779  1.00  0.00    -0.454 C  
BRANCH   4   5
HETATM    5  C   UNL     1      -7.992  19.586  68.876  1.00  0.00    -0.329 C  
BRANCH   5   6
HETATM    6  C   UNL     1      -7.293  19.532  67.542  1.00  0.00    -0.270 A  
HETATM    7  C   UNL     1      -7.037  18.298  66.927  1.00  0.00    -0.218 A  
HETATM    8  C   UNL     1      -5.977  19.420  65.068  1.00  0.00    -0.282 A  
HETATM    9  C   UNL     1      -6.384  18.244  65.694  1.00  0.00    -0.300 A  
HETATM   10  C   UNL     1      -6.876  20.707  66.905  1.00  0.00    -0.353 A  
HETATM   11  C   UNL     1      -6.223  20.652  65.673  1.00  0.00    -0.277 A  
ENDBRANCH   5   6
ENDBRANCH   4   5
ENDBRANCH   3   4
ENDBRANCH   2   3
BRANCH   2  12
HETATM   12  O   UNL     1     -10.607  17.771  66.843  1.00  0.00    -0.323 OA 
BRANCH  12  13
HETATM   13  C   UNL     1     -10.472  16.838  65.753  1.00  0.00    -0.292 C  
BRANCH  13  14
HETATM   14  C   UNL     1     -11.248  15.555  66.066  1.00  0.00    -0.107 C  
BRANCH  14  15
HETATM   15  O   UNL     1     -10.430  14.703  66.894  1.00  0.00    -0.265 OA 
BRANCH  15  16
HETATM   16  C   UNL     1     -10.900  14.457  68.146  1.00  0.00    -0.244 C  
HETATM   17  O   UNL     1     -11.545  15.237  68.831  1.00  0.00    -0.310 OA 
BRANCH  16  18
HETATM   18  C   UNL     1     -10.481  13.078  68.590  1.00  0.00    -0.236 C  
BRANCH  18  19
HETATM   19  C   UNL     1     -11.684  12.194  68.901  1.00  0.00    -0.381 C  
BRANCH  19  20
HETATM   20  C   UNL     1     -12.077  12.214  70.383  1.00  0.00    -0.395 C  
BRANCH  20  21
HETATM   21  C   UNL     1     -12.148  10.803  70.909  1.00  0.00    -0.475 A  
HETATM   22  C   UNL     1     -12.193   8.266  72.090  1.00  0.00    -0.418 A  
HETATM   23  C   UNL     1     -11.047   9.945  70.786  1.00  0.00    -0.417 A  
HETATM   24  C   UNL     1     -13.279  10.368  71.611  1.00  0.00    -0.502 A  
HETATM   25  C   UNL     1     -11.073   8.680  71.375  1.00  0.00    -0.343 A  
HETATM   26  C   UNL     1     -13.300   9.105  72.201  1.00  0.00    -0.525 A  
ENDBRANCH  20  21
ENDBRANCH  19  20
ENDBRANCH  18  19
ENDBRANCH  16  18
ENDBRANCH  15  16
ENDBRANCH  14  15
BRANCH  14  27
HETATM   27  C   UNL     1     -11.578  14.782  64.784  1.00  0.00    -0.418 C  
BRANCH  27  28
HETATM   28  O   UNL     1     -12.702  13.910  64.971  1.00  0.00    -0.635 OA 
BRANCH  28  29
HETATM   29  C   UNL     1     -12.526  12.644  64.497  1.00  0.00    -0.448 C  
HETATM   30  O   UNL     1     -13.115  12.169  63.536  1.00  0.00    -0.785 OA 
BRANCH  29  31
HETATM   31  C   UNL     1     -11.494  11.919  65.323  1.00  0.00    -0.313 C  
BRANCH  31  32
HETATM   32  C   UNL     1     -10.179  11.755  64.569  1.00  0.00    -0.327 C  
BRANCH  32  33
HETATM   33  C   UNL     1      -9.706  10.296  64.506  1.00  0.00    -0.395 C  
BRANCH  33  34
HETATM   34  C   UNL     1      -9.303   9.819  65.878  1.00  0.00    -0.260 A  
HETATM   35  C   UNL     1      -8.694   9.033  68.496  1.00  0.00    -0.133 A  
HETATM   36  C   UNL     1      -9.915   8.690  66.439  1.00  0.00    -0.331 A  
HETATM   37  C   UNL     1      -9.611   8.299  67.743  1.00  0.00    -0.178 A  
HETATM   38  C   UNL     1      -8.073  10.149  67.941  1.00  0.00    -0.109 A  
HETATM   39  C   UNL     1      -8.374  10.542  66.637  1.00  0.00    -0.131 A  
ENDBRANCH  33  34
ENDBRANCH  32  33
ENDBRANCH  31  32
ENDBRANCH  29  31
ENDBRANCH  28  29
ENDBRANCH  27  28
ENDBRANCH  14  27
ENDBRANCH  13  14
ENDBRANCH  12  13
ENDBRANCH   2  12
TORSDOF 20
ENDMDL
MODEL       65
REMARK 921   NORMALIZED FREE ENERGY PREDICTED BY IDOCK:   -5.58 KCAL/MOL
REMARK 922        TOTAL FREE ENERGY PREDICTED BY IDOCK:  -16.79 KCAL/MOL
REMARK 923 INTER-LIGAND FREE ENERGY PREDICTED BY IDOCK:  -10.21 KCAL/MOL
REMARK 924 INTRA-LIGAND FREE ENERGY PREDICTED BY IDOCK:   -6.58 KCAL/MOL
REMARK 927      BINDING AFFINITY PREDICTED BY RF-SCORE:    0.00 PKD
ROOT
HETATM    1  O   UNL     1     -12.771  14.837  63.886  1.00  0.00    -0.794 OA 
HETATM    2  C   UNL     1     -12.107  14.058  64.556  1.00  0.00    -0.459 C  
ENDROOT
BRANCH   2   3
HETATM    3  C   UNL     1     -11.982  12.581  64.265  1.00  0.00    -0.484 C  
BRANCH   3   4
HETATM    4  C   UNL     1     -10.537  12.167  63.987  1.00  0.00    -0.429 C  
BRANCH   4   5
HETATM    5  C   UNL     1     -10.087  10.997  64.869  1.00  0.00    -0.359 C  
BRANCH   5   6
HETATM    6  C   UNL     1      -8.984  10.195  64.227  1.00  0.00    -0.267 A  
HETATM    7  C   UNL     1      -9.195   9.562  62.993  1.00  0.00    -0.047 A  
HETATM    8  C   UNL     1      -6.943   8.686  63.034  1.00  0.00    -0.090 A  
HETATM    9  C   UNL     1      -8.178   8.814  62.400  1.00  0.00    -0.176 A  
HETATM   10  C   UNL     1      -7.741  10.056  64.858  1.00  0.00    -0.138 A  
HETATM   11  C   UNL     1      -6.726   9.307  64.263  1.00  0.00    -0.087 A  
ENDBRANCH   5   6
ENDBRANCH   4   5
ENDBRANCH   3   4
ENDBRANCH   2   3
BRANCH   2  12
HETATM   12  O   UNL     1     -11.383  14.389  65.660  1.00  0.00    -0.318 OA 
BRANCH  12  13
HETATM   13  C   UNL     1     -11.888  13.921  66.925  1.00  0.00    -0.423 C  
BRANCH  13  14
HETATM   14  C   UNL     1     -10.750  13.313  67.750  1.00  0.00    -0.244 C  
BRANCH  14  15
HETATM   15  O   UNL     1     -10.898  13.721  69.126  1.00  0.00    -0.237 OA 
BRANCH  15  16
HETATM   16  C   UNL     1     -11.979  13.223  69.783  1.00  0.00    -0.324 C  
HETATM   17  O   UNL     1     -12.825  13.883  70.367  1.00  0.00    -0.269 OA 
BRANCH  16  18
HETATM   18  C   UNL     1     -11.971  11.716  69.714  1.00  0.00    -0.402 C  
BRANCH  18  19
HETATM   19  C   UNL     1     -12.013  11.086  71.102  1.00  0.00    -0.242 C  
BRANCH  19  20
HETATM   20  C   UNL     1     -12.718   9.725  71.122  1.00  0.00    -0.433 C  
BRANCH  20  21
HETATM   21  C   UNL     1     -11.692   8.622  71.179  1.00  0.00    -0.334 A  
HETATM   22  C   UNL     1      -9.687   6.670  71.092  1.00  0.00    -0.184 A  
HETATM   23  C   UNL     1     -11.898   7.426  70.480  1.00  0.00    -0.187 A  
HETATM   24  C   UNL     1     -10.480   8.820  71.852  1.00  0.00    -0.423 A  
HETATM   25  C   UNL     1     -10.897   6.454  70.439  1.00  0.00    -0.343 A  
HETATM   26  C   UNL     1      -9.481   7.848  71.808  1.00  0.00    -0.205 A  
ENDBRANCH  20  21
ENDBRANCH  19  20
ENDBRANCH  18  19
ENDBRANCH  16  18
ENDBRANCH  15  16
ENDBRANCH  14  15
BRANCH  14  27
HETATM   27  C   UNL     1      -9.385  13.812  67.260  1.00  0.00    -0.239 C  
BRANCH  27  28
HETATM   28  O   UNL     1      -8.443  13.907  68.338  1.00  0.00    -0.159 OA 
BRANCH  28  29
HETATM   29  C   UNL     1      -7.201  13.424  68.054  1.00  0.00    -0.123 C  
HETATM   30  O   UNL     1      -6.164  14.067  68.142  1.00  0.00    -0.105 OA 
BRANCH  29  31
HETATM   31  C   UNL     1      -7.290  11.982  67.625  1.00  0.00    -0.121 C  
BRANCH  31  32
HETATM   32  C   UNL     1      -7.386  11.040  68.820  1.00  0.00    -0.111 C  
BRANCH  32  33
HETATM   33  C   UNL     1      -8.808  10.510  69.049  1.00  0.00    -0.174 C  
BRANCH  33  34
HETATM   34  C   UNL     1      -9.046   9.280  68.212  1.00  0.00    -0.128 A  
HETATM   35  C   UNL     1      -9.540   6.904  66.812  1.00  0.00    -0.215 A  
HETATM   36  C   UNL     1     -10.326   9.005  67.711  1.00  0.00    -0.304 A  
HETATM   37  C   UNL     1     -10.570   7.822  67.014  1.00  0.00    -0.396 A  
HETATM   38  C   UNL     1      -8.262   7.176  67.297  1.00  0.00    -0.119 A  
HETATM   39  C   UNL     1      -8.014   8.358  67.994  1.00  0.00    -0.119 A  
ENDBRANCH  33  34
ENDBRANCH  32  33
ENDBRANCH  31  32
ENDBRANCH  29  31
ENDBRANCH  28  29
ENDBRANCH  27  28
ENDBRANCH  14  27
ENDBRANCH  13  14
ENDBRANCH  12  13
ENDBRANCH   2  12
TORSDOF 20
ENDMDL
MODEL       66
REMARK 921   NORMALIZED FREE ENERGY PREDICTED BY IDOCK:   -5.56 KCAL/MOL
REMARK 922        TOTAL FREE ENERGY PREDICTED BY IDOCK:  -16.74 KCAL/MOL
REMARK 923 INTER-LIGAND FREE ENERGY PREDICTED BY IDOCK:  -11.88 KCAL/MOL
REMARK 924 INTRA-LIGAND FREE ENERGY PREDICTED BY IDOCK:   -4.86 KCAL/MOL
REMARK 927      BINDING AFFINITY PREDICTED BY RF-SCORE:    0.00 PKD
ROOT
HETATM    1  O   UNL     1      -7.553   9.808  68.557  1.00  0.00    -0.079 OA 
HETATM    2  C   UNL     1      -8.132  10.256  67.577  1.00  0.00    -0.110 C  
ENDROOT
BRANCH   2   3
HETATM    3  C   UNL     1      -7.588  11.358  66.699  1.00  0.00    -0.119 C  
BRANCH   3   4
HETATM    4  C   UNL     1      -7.027  12.523  67.515  1.00  0.00    -0.149 C  
BRANCH   4   5
HETATM    5  C   UNL     1      -8.112  13.532  67.910  1.00  0.00    -0.165 C  
BRANCH   5   6
HETATM    6  C   UNL     1      -7.574  14.938  67.994  1.00  0.00    -0.128 A  
HETATM    7  C   UNL     1      -7.366  15.542  69.242  1.00  0.00    -0.202 A  
HETATM    8  C   UNL     1      -6.591  17.559  68.160  1.00  0.00    -0.186 A  
HETATM    9  C   UNL     1      -6.875  16.846  69.323  1.00  0.00    -0.228 A  
HETATM   10  C   UNL     1      -7.290  15.665  66.831  1.00  0.00    -0.127 A  
HETATM   11  C   UNL     1      -6.799  16.968  66.914  1.00  0.00    -0.247 A  
ENDBRANCH   5   6
ENDBRANCH   4   5
ENDBRANCH   3   4
ENDBRANCH   2   3
BRANCH   2  12
HETATM   12  O   UNL     1      -9.346   9.841  67.122  1.00  0.00    -0.139 OA 
BRANCH  12  13
HETATM   13  C   UNL     1     -10.412   9.789  68.090  1.00  0.00    -0.216 C  
BRANCH  13  14
HETATM   14  C   UNL     1     -11.091  11.158  68.192  1.00  0.00    -0.264 C  
BRANCH  14  15
HETATM   15  O   UNL     1     -12.336  11.011  68.908  1.00  0.00    -0.516 OA 
BRANCH  15  16
HETATM   16  C   UNL     1     -12.380  11.565  70.149  1.00  0.00    -0.245 C  
HETATM   17  O   UNL     1     -12.037  12.702  70.434  1.00  0.00    -0.364 OA 
BRANCH  16  18
HETATM   18  C   UNL     1     -12.892  10.554  71.144  1.00  0.00    -0.513 C  
BRANCH  18  19
HETATM   19  C   UNL     1     -11.797   9.590  71.586  1.00  0.00    -0.468 C  
BRANCH  19  20
HETATM   20  C   UNL     1     -12.343   8.354  72.310  1.00  0.00    -0.436 C  
BRANCH  20  21
HETATM   21  C   UNL     1     -11.688   7.112  71.760  1.00  0.00    -0.324 A  
HETATM   22  C   UNL     1     -10.265   4.922  70.753  1.00  0.00    -0.276 A  
HETATM   23  C   UNL     1     -11.506   6.960  70.379  1.00  0.00    -0.387 A  
HETATM   24  C   UNL     1     -11.168   6.144  72.629  1.00  0.00    -0.312 A  
HETATM   25  C   UNL     1     -10.797   5.867  69.880  1.00  0.00    -0.439 A  
HETATM   26  C   UNL     1     -10.458   5.054  72.127  1.00  0.00    -0.274 A  
ENDBRANCH  20  21
ENDBRANCH  19  20
ENDBRANCH  18  19
ENDBRANCH  16  18
ENDBRANCH  15  16
ENDBRANCH  14  15
BRANCH  14  27
HETATM   27  C   UNL     1     -11.416  11.718  66.803  1.00  0.00    -0.281 C  
BRANCH  27  28
HETATM   28  O   UNL     1     -11.950  13.048  66.885  1.00  0.00    -0.382 OA 
BRANCH  28  29
HETATM   29  C   UNL     1     -12.368  13.569  65.697  1.00  0.00    -0.476 C  
HETATM   30  O   UNL     1     -13.508  13.939  65.458  1.00  0.00    -0.657 OA 
BRANCH  29  31
HETATM   31  C   UNL     1     -11.217  13.630  64.724  1.00  0.00    -0.367 C  
BRANCH  31  32
HETATM   32  C   UNL     1     -10.261  14.772  65.050  1.00  0.00    -0.379 C  
BRANCH  32  33
HETATM   33  C   UNL     1     -10.923  16.153  64.950  1.00  0.00    -0.364 C  
BRANCH  33  34
HETATM   34  C   UNL     1     -10.627  16.963  66.185  1.00  0.00    -0.195 A  
HETATM   35  C   UNL     1     -10.255  18.513  68.489  1.00  0.00    -0.389 A  
HETATM   36  C   UNL     1     -10.769  16.390  67.456  1.00  0.00    -0.298 A  
HETATM   37  C   UNL     1     -10.584  17.162  68.603  1.00  0.00    -0.352 A  
HETATM   38  C   UNL     1     -10.100  19.088  67.229  1.00  0.00    -0.436 A  
HETATM   39  C   UNL     1     -10.284  18.317  66.081  1.00  0.00    -0.393 A  
ENDBRANCH  33  34
ENDBRANCH  32  33
ENDBRANCH  31  32
ENDBRANCH  29  31
ENDBRANCH  28  29
ENDBRANCH  27  28
ENDBRANCH  14  27
ENDBRANCH  13  14
ENDBRANCH  12  13
ENDBRANCH   2  12
TORSDOF 20
ENDMDL
MODEL       67
REMARK 921   NORMALIZED FREE ENERGY PREDICTED BY IDOCK:   -5.55 KCAL/MOL
REMARK 922        TOTAL FREE ENERGY PREDICTED BY IDOCK:  -16.72 KCAL/MOL
REMARK 923 INTER-LIGAND FREE ENERGY PREDICTED BY IDOCK:  -11.62 KCAL/MOL
REMARK 924 INTRA-LIGAND FREE ENERGY PREDICTED BY IDOCK:   -5.10 KCAL/MOL
REMARK 927      BINDING AFFINITY PREDICTED BY RF-SCORE:    0.00 PKD
ROOT
HETATM    1  O   UNL     1     -12.201  12.314  70.485  1.00  0.00    -0.360 OA 
HETATM    2  C   UNL     1     -12.207  11.092  70.506  1.00  0.00    -0.381 C  
ENDROOT
BRANCH   2   3
HETATM    3  C   UNL     1     -12.995  10.263  71.492  1.00  0.00    -0.556 C  
BRANCH   3   4
HETATM    4  C   UNL     1     -12.202   9.058  71.999  1.00  0.00    -0.446 C  
BRANCH   4   5
HETATM    5  C   UNL     1     -12.859   7.727  71.616  1.00  0.00    -0.365 C  
BRANCH   5   6
HETATM    6  C   UNL     1     -11.840   6.669  71.278  1.00  0.00    -0.403 A  
HETATM    7  C   UNL     1     -11.383   5.785  72.266  1.00  0.00    -0.334 A  
HETATM    8  C   UNL     1      -9.931   4.709  70.663  1.00  0.00    -0.293 A  
HETATM    9  C   UNL     1     -10.435   4.809  71.958  1.00  0.00    -0.225 A  
HETATM   10  C   UNL     1     -11.323   6.562  69.980  1.00  0.00    -0.472 A  
HETATM   11  C   UNL     1     -10.375   5.586  69.674  1.00  0.00    -0.359 A  
ENDBRANCH   5   6
ENDBRANCH   4   5
ENDBRANCH   3   4
ENDBRANCH   2   3
BRANCH   2  12
HETATM   12  O   UNL     1     -11.510  10.286  69.658  1.00  0.00    -0.248 OA 
BRANCH  12  13
HETATM   13  C   UNL     1     -11.394  10.735  68.294  1.00  0.00    -0.309 C  
BRANCH  13  14
HETATM   14  C   UNL     1      -9.937  10.637  67.834  1.00  0.00    -0.166 C  
BRANCH  14  15
HETATM   15  O   UNL     1      -9.093  11.281  68.812  1.00  0.00    -0.174 OA 
BRANCH  15  16
HETATM   16  C   UNL     1      -7.908  10.668  69.075  1.00  0.00    -0.137 C  
HETATM   17  O   UNL     1      -6.933  11.194  69.590  1.00  0.00    -0.130 OA 
BRANCH  16  18
HETATM   18  C   UNL     1      -7.957   9.236  68.607  1.00  0.00    -0.100 C  
BRANCH  18  19
HETATM   19  C   UNL     1      -7.965   8.258  69.778  1.00  0.00    -0.106 C  
BRANCH  19  20
HETATM   20  C   UNL     1      -8.620   8.837  71.037  1.00  0.00    -0.236 C  
BRANCH  20  21
HETATM   21  C   UNL     1      -8.286   7.972  72.226  1.00  0.00    -0.193 A  
HETATM   22  C   UNL     1      -7.836   6.217  74.360  1.00  0.00    -0.095 A  
HETATM   23  C   UNL     1      -8.962   8.146  73.441  1.00  0.00    -0.313 A  
HETATM   24  C   UNL     1      -7.367   6.922  72.099  1.00  0.00    -0.087 A  
HETATM   25  C   UNL     1      -8.735   7.270  74.503  1.00  0.00    -0.215 A  
HETATM   26  C   UNL     1      -7.144   6.047  73.162  1.00  0.00    -0.085 A  
ENDBRANCH  20  21
ENDBRANCH  19  20
ENDBRANCH  18  19
ENDBRANCH  16  18
ENDBRANCH  15  16
ENDBRANCH  14  15
BRANCH  14  27
HETATM   27  C   UNL     1      -9.730  11.355  66.495  1.00  0.00    -0.200 C  
BRANCH  27  28
HETATM   28  O   UNL     1     -10.520  10.761  65.454  1.00  0.00    -0.260 OA 
BRANCH  28  29
HETATM   29  C   UNL     1      -9.876  10.620  64.261  1.00  0.00    -0.330 C  
HETATM   30  O   UNL     1      -9.015   9.784  64.026  1.00  0.00    -0.218 OA 
BRANCH  29  31
HETATM   31  C   UNL     1     -10.387  11.637  63.272  1.00  0.00    -0.444 C  
BRANCH  31  32
HETATM   32  C   UNL     1     -11.866  11.940  63.485  1.00  0.00    -0.560 C  
BRANCH  32  33
HETATM   33  C   UNL     1     -12.165  13.444  63.542  1.00  0.00    -0.468 C  
BRANCH  33  34
HETATM   34  C   UNL     1     -11.696  14.019  64.854  1.00  0.00    -0.385 A  
HETATM   35  C   UNL     1     -10.738  14.927  67.325  1.00  0.00    -0.294 A  
HETATM   36  C   UNL     1     -10.446  14.646  64.943  1.00  0.00    -0.415 A  
HETATM   37  C   UNL     1      -9.970  15.098  66.174  1.00  0.00    -0.317 A  
HETATM   38  C   UNL     1     -11.988  14.315  67.243  1.00  0.00    -0.439 A  
HETATM   39  C   UNL     1     -12.466  13.863  66.014  1.00  0.00    -0.501 A  
ENDBRANCH  33  34
ENDBRANCH  32  33
ENDBRANCH  31  32
ENDBRANCH  29  31
ENDBRANCH  28  29
ENDBRANCH  27  28
ENDBRANCH  14  27
ENDBRANCH  13  14
ENDBRANCH  12  13
ENDBRANCH   2  12
TORSDOF 20
ENDMDL
MODEL       68
REMARK 921   NORMALIZED FREE ENERGY PREDICTED BY IDOCK:   -5.55 KCAL/MOL
REMARK 922        TOTAL FREE ENERGY PREDICTED BY IDOCK:  -16.72 KCAL/MOL
REMARK 923 INTER-LIGAND FREE ENERGY PREDICTED BY IDOCK:  -12.67 KCAL/MOL
REMARK 924 INTRA-LIGAND FREE ENERGY PREDICTED BY IDOCK:   -4.05 KCAL/MOL
REMARK 927      BINDING AFFINITY PREDICTED BY RF-SCORE:    0.00 PKD
ROOT
HETATM    1  O   UNL     1      -8.009   9.090  64.628  1.00  0.00    -0.115 OA 
HETATM    2  C   UNL     1      -8.941   9.876  64.714  1.00  0.00    -0.217 C  
ENDROOT
BRANCH   2   3
HETATM    3  C   UNL     1      -9.462  10.704  63.563  1.00  0.00    -0.344 C  
BRANCH   3   4
HETATM    4  C   UNL     1     -10.949  11.031  63.712  1.00  0.00    -0.090 C  
BRANCH   4   5
HETATM    5  C   UNL     1     -11.261  12.491  63.363  1.00  0.00    -0.460 C  
BRANCH   5   6
HETATM    6  C   UNL     1     -11.393  13.351  64.594  1.00  0.00    -0.372 A  
HETATM    7  C   UNL     1     -10.646  14.532  64.715  1.00  0.00    -0.401 A  
HETATM    8  C   UNL     1     -11.618  14.950  66.887  1.00  0.00    -0.286 A  
HETATM    9  C   UNL     1     -10.761  15.328  65.855  1.00  0.00    -0.340 A  
HETATM   10  C   UNL     1     -12.248  12.979  65.639  1.00  0.00    -0.521 A  
HETATM   11  C   UNL     1     -12.361  13.775  66.778  1.00  0.00    -0.365 A  
ENDBRANCH   5   6
ENDBRANCH   4   5
ENDBRANCH   3   4
ENDBRANCH   2   3
BRANCH   2  12
HETATM   12  O   UNL     1      -9.653  10.134  65.846  1.00  0.00    -0.187 OA 
BRANCH  12  13
HETATM   13  C   UNL     1      -9.179   9.517  67.058  1.00  0.00    -0.139 C  
BRANCH  13  14
HETATM   14  C   UNL     1      -9.164  10.543  68.195  1.00  0.00    -0.148 C  
BRANCH  14  15
HETATM   15  O   UNL     1     -10.267  10.272  69.085  1.00  0.00    -0.193 OA 
BRANCH  15  16
HETATM   16  C   UNL     1      -9.943   9.734  70.291  1.00  0.00    -0.253 C  
HETATM   17  O   UNL     1      -8.818   9.425  70.654  1.00  0.00    -0.232 OA 
BRANCH  16  18
HETATM   18  C   UNL     1     -11.189   9.540  71.117  1.00  0.00    -0.446 C  
BRANCH  18  19
HETATM   19  C   UNL     1     -12.350  10.379  70.596  1.00  0.00    -0.438 C  
BRANCH  19  20
HETATM   20  C   UNL     1     -13.140  11.070  71.714  1.00  0.00    -0.554 C  
BRANCH  20  21
HETATM   21  C   UNL     1     -13.106  12.564  71.512  1.00  0.00    -0.373 A  
HETATM   22  C   UNL     1     -12.865  15.344  71.293  1.00  0.00    -0.519 A  
HETATM   23  C   UNL     1     -13.869  13.407  72.329  1.00  0.00    -0.671 A  
HETATM   24  C   UNL     1     -12.237  13.129  70.569  1.00  0.00    -0.405 A  
HETATM   25  C   UNL     1     -13.748  14.793  72.218  1.00  0.00    -0.560 A  
HETATM   26  C   UNL     1     -12.117  14.514  70.461  1.00  0.00    -0.395 A  
ENDBRANCH  20  21
ENDBRANCH  19  20
ENDBRANCH  18  19
ENDBRANCH  16  18
ENDBRANCH  15  16
ENDBRANCH  14  15
BRANCH  14  27
HETATM   27  C   UNL     1      -9.339  11.968  67.655  1.00  0.00    -0.185 C  
BRANCH  27  28
HETATM   28  O   UNL     1      -8.079  12.546  67.284  1.00  0.00    -0.171 OA 
BRANCH  28  29
HETATM   29  C   UNL     1      -7.569  13.430  68.187  1.00  0.00    -0.138 C  
HETATM   30  O   UNL     1      -7.046  13.121  69.248  1.00  0.00    -0.040 OA 
BRANCH  29  31
HETATM   31  C   UNL     1      -7.736  14.841  67.684  1.00  0.00    -0.199 C  
BRANCH  31  32
HETATM   32  C   UNL     1      -8.431  15.730  68.710  1.00  0.00    -0.198 C  
BRANCH  32  33
HETATM   33  C   UNL     1      -7.759  17.101  68.863  1.00  0.00    -0.230 C  
BRANCH  33  34
HETATM   34  C   UNL     1      -8.590  18.166  68.195  1.00  0.00    -0.282 A  
HETATM   35  C   UNL     1     -10.129  20.044  66.798  1.00  0.00    -0.607 A  
HETATM   36  C   UNL     1      -9.986  18.050  68.156  1.00  0.00    -0.356 A  
HETATM   37  C   UNL     1     -10.751  18.986  67.461  1.00  0.00    -0.532 A  
HETATM   38  C   UNL     1      -8.742  20.172  66.842  1.00  0.00    -0.412 A  
HETATM   39  C   UNL     1      -7.974  19.239  67.537  1.00  0.00    -0.290 A  
ENDBRANCH  33  34
ENDBRANCH  32  33
ENDBRANCH  31  32
ENDBRANCH  29  31
ENDBRANCH  28  29
ENDBRANCH  27  28
ENDBRANCH  14  27
ENDBRANCH  13  14
ENDBRANCH  12  13
ENDBRANCH   2  12
TORSDOF 20
ENDMDL
MODEL       69
REMARK 921   NORMALIZED FREE ENERGY PREDICTED BY IDOCK:   -5.54 KCAL/MOL
REMARK 922        TOTAL FREE ENERGY PREDICTED BY IDOCK:  -16.69 KCAL/MOL
REMARK 923 INTER-LIGAND FREE ENERGY PREDICTED BY IDOCK:  -12.40 KCAL/MOL
REMARK 924 INTRA-LIGAND FREE ENERGY PREDICTED BY IDOCK:   -4.29 KCAL/MOL
REMARK 927      BINDING AFFINITY PREDICTED BY RF-SCORE:    0.00 PKD
ROOT
HETATM    1  O   UNL     1     -13.854  14.288  72.890  1.00  0.00    -0.615 OA 
HETATM    2  C   UNL     1     -13.218  14.175  71.852  1.00  0.00    -0.387 C  
ENDROOT
BRANCH   2   3
HETATM    3  C   UNL     1     -12.817  15.334  70.970  1.00  0.00    -0.505 C  
BRANCH   3   4
HETATM    4  C   UNL     1     -11.766  14.934  69.933  1.00  0.00    -0.347 C  
BRANCH   4   5
HETATM    5  C   UNL     1     -11.864  15.773  68.654  1.00  0.00    -0.287 C  
BRANCH   5   6
HETATM    6  C   UNL     1     -10.527  16.330  68.238  1.00  0.00    -0.284 A  
HETATM    7  C   UNL     1     -10.338  16.819  66.937  1.00  0.00    -0.294 A  
HETATM    8  C   UNL     1      -8.037  17.353  67.450  1.00  0.00    -0.213 A  
HETATM    9  C   UNL     1      -9.099  17.330  66.547  1.00  0.00    -0.289 A  
HETATM   10  C   UNL     1      -9.452  16.355  69.136  1.00  0.00    -0.236 A  
HETATM   11  C   UNL     1      -8.214  16.866  68.744  1.00  0.00    -0.244 A  
ENDBRANCH   5   6
ENDBRANCH   4   5
ENDBRANCH   3   4
ENDBRANCH   2   3
BRANCH   2  12
HETATM   12  O   UNL     1     -12.773  13.000  71.326  1.00  0.00    -0.368 OA 
BRANCH  12  13
HETATM   13  C   UNL     1     -13.281  11.793  71.925  1.00  0.00    -0.362 C  
BRANCH  13  14
HETATM   14  C   UNL     1     -12.914  10.585  71.058  1.00  0.00    -0.383 C  
BRANCH  14  15
HETATM   15  O   UNL     1     -11.949   9.778  71.764  1.00  0.00    -0.392 OA 
BRANCH  15  16
HETATM   16  C   UNL     1     -12.343   8.517  72.083  1.00  0.00    -0.382 C  
HETATM   17  O   UNL     1     -13.478   8.076  71.975  1.00  0.00    -0.299 OA 
BRANCH  16  18
HETATM   18  C   UNL     1     -11.174   7.734  72.625  1.00  0.00    -0.438 C  
BRANCH  18  19
HETATM   19  C   UNL     1      -9.982   7.767  71.674  1.00  0.00    -0.213 C  
BRANCH  19  20
HETATM   20  C   UNL     1      -9.716   6.417  70.999  1.00  0.00    -0.192 C  
BRANCH  20  21
HETATM   21  C   UNL     1      -9.796   6.573  69.502  1.00  0.00    -0.167 A  
HETATM   22  C   UNL     1      -9.913   6.628  66.705  1.00  0.00    -0.238 A  
HETATM   23  C   UNL     1      -8.633   6.780  68.748  1.00  0.00    -0.123 A  
HETATM   24  C   UNL     1     -11.021   6.416  68.840  1.00  0.00    -0.412 A  
HETATM   25  C   UNL     1      -8.694   6.808  67.354  1.00  0.00    -0.119 A  
HETATM   26  C   UNL     1     -11.078   6.442  67.447  1.00  0.00    -0.412 A  
ENDBRANCH  20  21
ENDBRANCH  19  20
ENDBRANCH  18  19
ENDBRANCH  16  18
ENDBRANCH  15  16
ENDBRANCH  14  15
BRANCH  14  27
HETATM   27  C   UNL     1     -12.275  11.027  69.737  1.00  0.00    -0.318 C  
BRANCH  27  28
HETATM   28  O   UNL     1     -10.951  10.494  69.590  1.00  0.00    -0.245 OA 
BRANCH  28  29
HETATM   29  C   UNL     1     -10.469  10.507  68.315  1.00  0.00    -0.183 C  
HETATM   30  O   UNL     1     -10.986   9.935  67.367  1.00  0.00    -0.269 OA 
BRANCH  29  31
HETATM   31  C   UNL     1      -9.213  11.338  68.244  1.00  0.00    -0.176 C  
BRANCH  31  32
HETATM   32  C   UNL     1      -9.523  12.821  68.073  1.00  0.00    -0.213 C  
BRANCH  32  33
HETATM   33  C   UNL     1      -9.288  13.319  66.641  1.00  0.00    -0.247 C  
BRANCH  33  34
HETATM   34  C   UNL     1     -10.393  12.840  65.735  1.00  0.00    -0.297 A  
HETATM   35  C   UNL     1     -12.412  12.096  63.942  1.00  0.00    -0.581 A  
HETATM   36  C   UNL     1     -10.097  12.031  64.630  1.00  0.00    -0.291 A  
HETATM   37  C   UNL     1     -11.103  11.660  63.738  1.00  0.00    -0.499 A  
HETATM   38  C   UNL     1     -12.717  12.890  65.046  1.00  0.00    -0.474 A  
HETATM   39  C   UNL     1     -11.713  13.261  65.939  1.00  0.00    -0.403 A  
ENDBRANCH  33  34
ENDBRANCH  32  33
ENDBRANCH  31  32
ENDBRANCH  29  31
ENDBRANCH  28  29
ENDBRANCH  27  28
ENDBRANCH  14  27
ENDBRANCH  13  14
ENDBRANCH  12  13
ENDBRANCH   2  12
TORSDOF 20
ENDMDL
MODEL       70
REMARK 921   NORMALIZED FREE ENERGY PREDICTED BY IDOCK:   -5.53 KCAL/MOL
REMARK 922        TOTAL FREE ENERGY PREDICTED BY IDOCK:  -16.68 KCAL/MOL
REMARK 923 INTER-LIGAND FREE ENERGY PREDICTED BY IDOCK:  -12.95 KCAL/MOL
REMARK 924 INTRA-LIGAND FREE ENERGY PREDICTED BY IDOCK:   -3.73 KCAL/MOL
REMARK 927      BINDING AFFINITY PREDICTED BY RF-SCORE:    0.00 PKD
ROOT
HETATM    1  O   UNL     1      -6.384  14.114  67.208  1.00  0.00    -0.295 OA 
HETATM    2  C   UNL     1      -7.411  13.541  67.541  1.00  0.00    -0.167 C  
ENDROOT
BRANCH   2   3
HETATM    3  C   UNL     1      -8.784  14.169  67.502  1.00  0.00    -0.208 C  
BRANCH   3   4
HETATM    4  C   UNL     1      -8.844  15.371  66.558  1.00  0.00    -0.347 C  
BRANCH   4   5
HETATM    5  C   UNL     1     -10.237  16.009  66.518  1.00  0.00    -0.301 C  
BRANCH   5   6
HETATM    6  C   UNL     1     -10.227  17.424  67.040  1.00  0.00    -0.323 A  
HETATM    7  C   UNL     1     -10.467  18.499  66.173  1.00  0.00    -0.447 A  
HETATM    8  C   UNL     1     -10.193  20.059  67.998  1.00  0.00    -0.538 A  
HETATM    9  C   UNL     1     -10.452  19.810  66.652  1.00  0.00    -0.615 A  
HETATM   10  C   UNL     1      -9.964  17.685  68.391  1.00  0.00    -0.356 A  
HETATM   11  C   UNL     1      -9.949  18.996  68.867  1.00  0.00    -0.460 A  
ENDBRANCH   5   6
ENDBRANCH   4   5
ENDBRANCH   3   4
ENDBRANCH   2   3
BRANCH   2  12
HETATM   12  O   UNL     1      -7.486  12.260  67.997  1.00  0.00    -0.096 OA 
BRANCH  12  13
HETATM   13  C   UNL     1      -7.329  11.217  67.016  1.00  0.00    -0.136 C  
BRANCH  13  14
HETATM   14  C   UNL     1      -8.356  10.108  67.265  1.00  0.00    -0.121 C  
BRANCH  14  15
HETATM   15  O   UNL     1      -9.485  10.665  67.969  1.00  0.00    -0.153 OA 
BRANCH  15  16
HETATM   16  C   UNL     1     -10.565  10.987  67.208  1.00  0.00    -0.245 C  
HETATM   17  O   UNL     1     -10.577  11.075  65.989  1.00  0.00    -0.252 OA 
BRANCH  16  18
HETATM   18  C   UNL     1     -11.756  11.254  68.093  1.00  0.00    -0.323 C  
BRANCH  18  19
HETATM   19  C   UNL     1     -11.420  12.229  69.216  1.00  0.00    -0.352 C  
BRANCH  19  20
HETATM   20  C   UNL     1     -12.134  13.578  69.072  1.00  0.00    -0.330 C  
BRANCH  20  21
HETATM   21  C   UNL     1     -12.505  14.105  70.435  1.00  0.00    -0.424 A  
HETATM   22  C   UNL     1     -12.982  15.003  73.043  1.00  0.00    -0.590 A  
HETATM   23  C   UNL     1     -13.158  13.280  71.359  1.00  0.00    -0.361 A  
HETATM   24  C   UNL     1     -12.112  15.392  70.824  1.00  0.00    -0.413 A  
HETATM   25  C   UNL     1     -13.396  13.730  72.659  1.00  0.00    -0.618 A  
HETATM   26  C   UNL     1     -12.349  15.838  72.124  1.00  0.00    -0.539 A  
ENDBRANCH  20  21
ENDBRANCH  19  20
ENDBRANCH  18  19
ENDBRANCH  16  18
ENDBRANCH  15  16
ENDBRANCH  14  15
BRANCH  14  27
HETATM   27  C   UNL     1      -7.766   8.994  68.137  1.00  0.00    -0.096 C  
BRANCH  27  28
HETATM   28  O   UNL     1      -8.789   8.300  68.865  1.00  0.00    -0.139 OA 
BRANCH  28  29
HETATM   29  C   UNL     1      -9.181   7.118  68.310  1.00  0.00    -0.132 C  
HETATM   30  O   UNL     1      -8.431   6.313  67.778  1.00  0.00    -0.116 OA 
BRANCH  29  31
HETATM   31  C   UNL     1     -10.672   6.946  68.457  1.00  0.00    -0.252 C  
BRANCH  31  32
HETATM   32  C   UNL     1     -11.019   5.821  69.426  1.00  0.00    -0.352 C  
BRANCH  32  33
HETATM   33  C   UNL     1     -10.815   6.214  70.895  1.00  0.00    -0.342 C  
BRANCH  33  34
HETATM   34  C   UNL     1     -11.743   7.342  71.266  1.00  0.00    -0.328 A  
HETATM   35  C   UNL     1     -13.502   9.461  71.776  1.00  0.00    -0.485 A  
HETATM   36  C   UNL     1     -13.114   7.101  71.432  1.00  0.00    -0.408 A  
HETATM   37  C   UNL     1     -13.989   8.157  71.687  1.00  0.00    -0.463 A  
HETATM   38  C   UNL     1     -12.139   9.707  71.624  1.00  0.00    -0.481 A  
HETATM   39  C   UNL     1     -11.262   8.653  71.371  1.00  0.00    -0.345 A  
ENDBRANCH  33  34
ENDBRANCH  32  33
ENDBRANCH  31  32
ENDBRANCH  29  31
ENDBRANCH  28  29
ENDBRANCH  27  28
ENDBRANCH  14  27
ENDBRANCH  13  14
ENDBRANCH  12  13
ENDBRANCH   2  12
TORSDOF 20
ENDMDL
MODEL       71
REMARK 921   NORMALIZED FREE ENERGY PREDICTED BY IDOCK:   -5.53 KCAL/MOL
REMARK 922        TOTAL FREE ENERGY PREDICTED BY IDOCK:  -16.67 KCAL/MOL
REMARK 923 INTER-LIGAND FREE ENERGY PREDICTED BY IDOCK:  -11.76 KCAL/MOL
REMARK 924 INTRA-LIGAND FREE ENERGY PREDICTED BY IDOCK:   -4.91 KCAL/MOL
REMARK 927      BINDING AFFINITY PREDICTED BY RF-SCORE:    0.00 PKD
ROOT
HETATM    1  O   UNL     1     -13.301  10.679  71.719  1.00  0.00    -0.394 OA 
HETATM    2  C   UNL     1     -12.328  10.388  71.037  1.00  0.00    -0.387 C  
ENDROOT
BRANCH   2   3
HETATM    3  C   UNL     1     -11.186   9.522  71.511  1.00  0.00    -0.437 C  
BRANCH   3   4
HETATM    4  C   UNL     1     -11.675   8.237  72.181  1.00  0.00    -0.429 C  
BRANCH   4   5
HETATM    5  C   UNL     1     -11.907   7.108  71.170  1.00  0.00    -0.363 C  
BRANCH   5   6
HETATM    6  C   UNL     1     -11.081   5.886  71.486  1.00  0.00    -0.314 A  
HETATM    7  C   UNL     1     -10.952   5.443  72.810  1.00  0.00    -0.328 A  
HETATM    8  C   UNL     1      -9.532   3.627  72.086  1.00  0.00    -0.196 A  
HETATM    9  C   UNL     1     -10.183   4.317  73.107  1.00  0.00    -0.219 A  
HETATM   10  C   UNL     1     -10.420   5.188  70.468  1.00  0.00    -0.278 A  
HETATM   11  C   UNL     1      -9.651   4.062  70.767  1.00  0.00    -0.263 A  
ENDBRANCH   5   6
ENDBRANCH   4   5
ENDBRANCH   3   4
ENDBRANCH   2   3
BRANCH   2  12
HETATM   12  O   UNL     1     -12.117  10.794  69.754  1.00  0.00    -0.312 OA 
BRANCH  12  13
HETATM   13  C   UNL     1     -10.744  10.883  69.325  1.00  0.00    -0.231 C  
BRANCH  13  14
HETATM   14  C   UNL     1     -10.685  11.222  67.833  1.00  0.00    -0.207 C  
BRANCH  14  15
HETATM   15  O   UNL     1     -11.988  11.666  67.401  1.00  0.00    -0.621 OA 
BRANCH  15  16
HETATM   16  C   UNL     1     -12.004  12.644  66.457  1.00  0.00    -0.331 C  
HETATM   17  O   UNL     1     -12.530  12.565  65.357  1.00  0.00    -0.630 OA 
BRANCH  16  18
HETATM   18  C   UNL     1     -11.244  13.848  66.953  1.00  0.00    -0.324 C  
BRANCH  18  19
HETATM   19  C   UNL     1     -11.901  14.465  68.184  1.00  0.00    -0.362 C  
BRANCH  19  20
HETATM   20  C   UNL     1     -10.938  14.609  69.368  1.00  0.00    -0.279 C  
BRANCH  20  21
HETATM   21  C   UNL     1     -11.722  14.850  70.633  1.00  0.00    -0.357 A  
HETATM   22  C   UNL     1     -13.311  15.451  72.859  1.00  0.00    -0.636 A  
HETATM   23  C   UNL     1     -11.352  15.877  71.511  1.00  0.00    -0.384 A  
HETATM   24  C   UNL     1     -12.885  14.113  70.895  1.00  0.00    -0.404 A  
HETATM   25  C   UNL     1     -12.145  16.174  72.620  1.00  0.00    -0.652 A  
HETATM   26  C   UNL     1     -13.676  14.414  72.003  1.00  0.00    -0.533 A  
ENDBRANCH  20  21
ENDBRANCH  19  20
ENDBRANCH  18  19
ENDBRANCH  16  18
ENDBRANCH  15  16
ENDBRANCH  14  15
BRANCH  14  27
HETATM   27  C   UNL     1     -10.312   9.990  67.000  1.00  0.00    -0.243 C  
BRANCH  27  28
HETATM   28  O   UNL     1     -10.227   8.812  67.815  1.00  0.00    -0.202 OA 
BRANCH  28  29
HETATM   29  C   UNL     1     -10.178   7.640  67.121  1.00  0.00    -0.290 C  
HETATM   30  O   UNL     1     -11.155   7.003  66.756  1.00  0.00    -0.289 OA 
BRANCH  29  31
HETATM   31  C   UNL     1      -8.745   7.251  66.860  1.00  0.00    -0.126 C  
BRANCH  31  32
HETATM   32  C   UNL     1      -8.258   6.191  67.842  1.00  0.00    -0.117 C  
BRANCH  32  33
HETATM   33  C   UNL     1      -6.972   6.601  68.573  1.00  0.00    -0.080 C  
BRANCH  33  34
HETATM   34  C   UNL     1      -7.234   6.736  70.051  1.00  0.00    -0.076 A  
HETATM   35  C   UNL     1      -7.573   7.098  72.808  1.00  0.00    -0.088 A  
HETATM   36  C   UNL     1      -7.998   7.806  70.537  1.00  0.00    -0.098 A  
HETATM   37  C   UNL     1      -8.166   7.985  71.910  1.00  0.00    -0.159 A  
HETATM   38  C   UNL     1      -6.822   6.024  72.332  1.00  0.00    -0.074 A  
HETATM   39  C   UNL     1      -6.654   5.842  70.960  1.00  0.00    -0.045 A  
ENDBRANCH  33  34
ENDBRANCH  32  33
ENDBRANCH  31  32
ENDBRANCH  29  31
ENDBRANCH  28  29
ENDBRANCH  27  28
ENDBRANCH  14  27
ENDBRANCH  13  14
ENDBRANCH  12  13
ENDBRANCH   2  12
TORSDOF 20
ENDMDL
MODEL       72
REMARK 921   NORMALIZED FREE ENERGY PREDICTED BY IDOCK:   -5.51 KCAL/MOL
REMARK 922        TOTAL FREE ENERGY PREDICTED BY IDOCK:  -16.63 KCAL/MOL
REMARK 923 INTER-LIGAND FREE ENERGY PREDICTED BY IDOCK:  -11.55 KCAL/MOL
REMARK 924 INTRA-LIGAND FREE ENERGY PREDICTED BY IDOCK:   -5.08 KCAL/MOL
REMARK 927      BINDING AFFINITY PREDICTED BY RF-SCORE:    0.00 PKD
ROOT
HETATM    1  O   UNL     1     -11.651   9.549  71.610  1.00  0.00    -0.377 OA 
HETATM    2  C   UNL     1     -11.145   9.930  70.564  1.00  0.00    -0.332 C  
ENDROOT
BRANCH   2   3
HETATM    3  C   UNL     1      -9.711   9.667  70.168  1.00  0.00    -0.301 C  
BRANCH   3   4
HETATM    4  C   UNL     1      -9.606   8.701  68.987  1.00  0.00    -0.163 C  
BRANCH   4   5
HETATM    5  C   UNL     1      -8.272   8.837  68.243  1.00  0.00    -0.118 C  
BRANCH   5   6
HETATM    6  C   UNL     1      -8.469   9.105  66.772  1.00  0.00    -0.125 A  
HETATM    7  C   UNL     1      -7.541   8.626  65.836  1.00  0.00    -0.089 A  
HETATM    8  C   UNL     1      -8.816   9.615  64.037  1.00  0.00    -0.256 A  
HETATM    9  C   UNL     1      -7.717   8.879  64.475  1.00  0.00    -0.119 A  
HETATM   10  C   UNL     1      -9.567   9.848  66.322  1.00  0.00    -0.265 A  
HETATM   11  C   UNL     1      -9.741  10.099  64.961  1.00  0.00    -0.384 A  
ENDBRANCH   5   6
ENDBRANCH   4   5
ENDBRANCH   3   4
ENDBRANCH   2   3
BRANCH   2  12
HETATM   12  O   UNL     1     -11.781  10.647  69.597  1.00  0.00    -0.267 OA 
BRANCH  12  13
HETATM   13  C   UNL     1     -11.672  12.081  69.681  1.00  0.00    -0.335 C  
BRANCH  13  14
HETATM   14  C   UNL     1     -11.022  12.631  68.408  1.00  0.00    -0.257 C  
BRANCH  14  15
HETATM   15  O   UNL     1     -10.171  13.742  68.759  1.00  0.00    -0.226 OA 
BRANCH  15  16
HETATM   16  C   UNL     1      -8.933  13.747  68.197  1.00  0.00    -0.190 C  
HETATM   17  O   UNL     1      -8.544  12.989  67.321  1.00  0.00    -0.190 OA 
BRANCH  16  18
HETATM   18  C   UNL     1      -8.084  14.817  68.835  1.00  0.00    -0.160 C  
BRANCH  18  19
HETATM   19  C   UNL     1      -6.865  15.156  67.984  1.00  0.00    -0.152 C  
BRANCH  19  20
HETATM   20  C   UNL     1      -7.164  16.192  66.894  1.00  0.00    -0.240 C  
BRANCH  20  21
HETATM   21  C   UNL     1      -6.757  17.563  67.371  1.00  0.00    -0.181 A  
HETATM   22  C   UNL     1      -6.230  20.154  68.290  1.00  0.00    -0.316 A  
HETATM   23  C   UNL     1      -6.676  18.632  66.469  1.00  0.00    -0.227 A  
HETATM   24  C   UNL     1      -6.550  17.803  68.736  1.00  0.00    -0.227 A  
HETATM   25  C   UNL     1      -6.412  19.923  66.930  1.00  0.00    -0.214 A  
HETATM   26  C   UNL     1      -6.289  19.094  69.194  1.00  0.00    -0.308 A  
ENDBRANCH  20  21
ENDBRANCH  19  20
ENDBRANCH  18  19
ENDBRANCH  16  18
ENDBRANCH  15  16
ENDBRANCH  14  15
BRANCH  14  27
HETATM   27  C   UNL     1     -12.080  13.146  67.425  1.00  0.00    -0.263 C  
BRANCH  27  28
HETATM   28  O   UNL     1     -11.695  12.903  66.065  1.00  0.00    -0.360 OA 
BRANCH  28  29
HETATM   29  C   UNL     1     -11.855  13.967  65.228  1.00  0.00    -0.359 C  
HETATM   30  O   UNL     1     -12.914  14.304  64.721  1.00  0.00    -0.653 OA 
BRANCH  29  31
HETATM   31  C   UNL     1     -10.537  14.672  65.028  1.00  0.00    -0.461 C  
BRANCH  31  32
HETATM   32  C   UNL     1     -10.639  16.162  65.336  1.00  0.00    -0.399 C  
BRANCH  32  33
HETATM   33  C   UNL     1     -10.757  16.454  66.838  1.00  0.00    -0.202 C  
BRANCH  33  34
HETATM   34  C   UNL     1     -10.512  17.917  67.105  1.00  0.00    -0.359 A  
HETATM   35  C   UNL     1      -9.876  20.604  67.577  1.00  0.00    -0.485 A  
HETATM   36  C   UNL     1     -10.431  18.824  66.040  1.00  0.00    -0.483 A  
HETATM   37  C   UNL     1     -10.115  20.162  66.276  1.00  0.00    -0.552 A  
HETATM   38  C   UNL     1      -9.966  19.710  68.643  1.00  0.00    -0.553 A  
HETATM   39  C   UNL     1     -10.283  18.373  68.409  1.00  0.00    -0.407 A  
ENDBRANCH  33  34
ENDBRANCH  32  33
ENDBRANCH  31  32
ENDBRANCH  29  31
ENDBRANCH  28  29
ENDBRANCH  27  28
ENDBRANCH  14  27
ENDBRANCH  13  14
ENDBRANCH  12  13
ENDBRANCH   2  12
TORSDOF 20
ENDMDL
MODEL       73
REMARK 921   NORMALIZED FREE ENERGY PREDICTED BY IDOCK:   -5.50 KCAL/MOL
REMARK 922        TOTAL FREE ENERGY PREDICTED BY IDOCK:  -16.60 KCAL/MOL
REMARK 923 INTER-LIGAND FREE ENERGY PREDICTED BY IDOCK:  -13.27 KCAL/MOL
REMARK 924 INTRA-LIGAND FREE ENERGY PREDICTED BY IDOCK:   -3.34 KCAL/MOL
REMARK 927      BINDING AFFINITY PREDICTED BY RF-SCORE:    0.00 PKD
ROOT
HETATM    1  O   UNL     1     -12.327  14.491  69.439  1.00  0.00    -0.276 OA 
HETATM    2  C   UNL     1     -11.939  13.989  68.394  1.00  0.00    -0.343 C  
ENDROOT
BRANCH   2   3
HETATM    3  C   UNL     1     -11.729  12.507  68.189  1.00  0.00    -0.400 C  
BRANCH   3   4
HETATM    4  C   UNL     1     -11.712  11.738  69.511  1.00  0.00    -0.408 C  
BRANCH   4   5
HETATM    5  C   UNL     1     -10.668  10.616  69.516  1.00  0.00    -0.290 C  
BRANCH   5   6
HETATM    6  C   UNL     1     -10.872   9.658  70.663  1.00  0.00    -0.386 A  
HETATM    7  C   UNL     1     -12.161   9.410  71.157  1.00  0.00    -0.406 A  
HETATM    8  C   UNL     1     -11.259   7.892  72.807  1.00  0.00    -0.466 A  
HETATM    9  C   UNL     1     -12.352   8.529  72.222  1.00  0.00    -0.450 A  
HETATM   10  C   UNL     1      -9.780   9.016  71.261  1.00  0.00    -0.371 A  
HETATM   11  C   UNL     1      -9.973   8.136  72.326  1.00  0.00    -0.332 A  
ENDBRANCH   5   6
ENDBRANCH   4   5
ENDBRANCH   3   4
ENDBRANCH   2   3
BRANCH   2  12
HETATM   12  O   UNL     1     -11.633  14.674  67.258  1.00  0.00    -0.365 OA 
BRANCH  12  13
HETATM   13  C   UNL     1     -12.400  14.348  66.083  1.00  0.00    -0.314 C  
BRANCH  13  14
HETATM   14  C   UNL     1     -11.662  14.825  64.828  1.00  0.00    -0.422 C  
BRANCH  14  15
HETATM   15  O   UNL     1     -10.957  13.708  64.248  1.00  0.00    -0.382 OA 
BRANCH  15  16
HETATM   16  C   UNL     1     -11.711  12.836  63.526  1.00  0.00    -0.530 C  
HETATM   17  O   UNL     1     -12.733  13.113  62.916  1.00  0.00    -0.381 OA 
BRANCH  16  18
HETATM   18  C   UNL     1     -11.116  11.453  63.608  1.00  0.00    -0.411 C  
BRANCH  18  19
HETATM   19  C   UNL     1     -10.747  11.079  65.040  1.00  0.00    -0.264 C  
BRANCH  19  20
HETATM   20  C   UNL     1      -9.713   9.951  65.117  1.00  0.00    -0.376 C  
BRANCH  20  21
HETATM   21  C   UNL     1      -8.762  10.211  66.258  1.00  0.00    -0.152 A  
HETATM   22  C   UNL     1      -7.185  10.694  68.520  1.00  0.00    -0.086 A  
HETATM   23  C   UNL     1      -8.463  11.523  66.646  1.00  0.00    -0.172 A  
HETATM   24  C   UNL     1      -8.244   9.143  67.003  1.00  0.00    -0.116 A  
HETATM   25  C   UNL     1      -7.676  11.761  67.773  1.00  0.00    -0.133 A  
HETATM   26  C   UNL     1      -7.460   9.384  68.130  1.00  0.00    -0.079 A  
ENDBRANCH  20  21
ENDBRANCH  19  20
ENDBRANCH  18  19
ENDBRANCH  16  18
ENDBRANCH  15  16
ENDBRANCH  14  15
BRANCH  14  27
HETATM   27  C   UNL     1     -10.626  15.902  65.172  1.00  0.00    -0.397 C  
BRANCH  27  28
HETATM   28  O   UNL     1     -11.036  17.193  64.701  1.00  0.00    -1.036 OA 
BRANCH  28  29
HETATM   29  C   UNL     1     -10.673  18.234  65.503  1.00  0.00     0.077 C  
HETATM   30  O   UNL     1     -11.024  19.394  65.344  1.00  0.00    -0.438 OA 
BRANCH  29  31
HETATM   31  C   UNL     1      -9.785  17.745  66.618  1.00  0.00    -0.314 C  
BRANCH  31  32
HETATM   32  C   UNL     1     -10.390  18.025  67.989  1.00  0.00    -0.397 C  
BRANCH  32  33
HETATM   33  C   UNL     1      -9.991  19.396  68.549  1.00  0.00    -0.520 C  
BRANCH  33  34
HETATM   34  C   UNL     1      -8.533  19.665  68.277  1.00  0.00    -0.355 A  
HETATM   35  C   UNL     1      -5.830  20.297  67.903  1.00  0.00    -0.249 A  
HETATM   36  C   UNL     1      -7.545  19.040  69.051  1.00  0.00    -0.310 A  
HETATM   37  C   UNL     1      -6.199  19.355  68.863  1.00  0.00    -0.282 A  
HETATM   38  C   UNL     1      -6.805  20.913  67.121  1.00  0.00    -0.417 A  
HETATM   39  C   UNL     1      -8.151  20.599  67.306  1.00  0.00    -0.315 A  
ENDBRANCH  33  34
ENDBRANCH  32  33
ENDBRANCH  31  32
ENDBRANCH  29  31
ENDBRANCH  28  29
ENDBRANCH  27  28
ENDBRANCH  14  27
ENDBRANCH  13  14
ENDBRANCH  12  13
ENDBRANCH   2  12
TORSDOF 20
ENDMDL
MODEL       74
REMARK 921   NORMALIZED FREE ENERGY PREDICTED BY IDOCK:   -5.49 KCAL/MOL
REMARK 922        TOTAL FREE ENERGY PREDICTED BY IDOCK:  -16.59 KCAL/MOL
REMARK 923 INTER-LIGAND FREE ENERGY PREDICTED BY IDOCK:   -9.77 KCAL/MOL
REMARK 924 INTRA-LIGAND FREE ENERGY PREDICTED BY IDOCK:   -6.83 KCAL/MOL
REMARK 927      BINDING AFFINITY PREDICTED BY RF-SCORE:    0.00 PKD
ROOT
HETATM    1  O   UNL     1     -10.751   5.178  70.155  1.00  0.00    -0.239 OA 
HETATM    2  C   UNL     1     -11.038   6.160  69.484  1.00  0.00    -0.420 C  
ENDROOT
BRANCH   2   3
HETATM    3  C   UNL     1     -11.014   6.194  67.974  1.00  0.00    -0.399 C  
BRANCH   3   4
HETATM    4  C   UNL     1     -10.596   7.562  67.433  1.00  0.00    -0.364 C  
BRANCH   4   5
HETATM    5  C   UNL     1      -9.216   7.527  66.769  1.00  0.00    -0.192 C  
BRANCH   5   6
HETATM    6  C   UNL     1      -9.096   8.540  65.658  1.00  0.00    -0.189 A  
HETATM    7  C   UNL     1      -8.124   8.384  64.660  1.00  0.00    -0.156 A  
HETATM    8  C   UNL     1      -8.854  10.429  63.600  1.00  0.00    -0.222 A  
HETATM    9  C   UNL     1      -8.007   9.323  63.635  1.00  0.00    -0.141 A  
HETATM   10  C   UNL     1      -9.940   9.657  65.616  1.00  0.00    -0.321 A  
HETATM   11  C   UNL     1      -9.820  10.596  64.590  1.00  0.00    -0.382 A  
ENDBRANCH   5   6
ENDBRANCH   4   5
ENDBRANCH   3   4
ENDBRANCH   2   3
BRANCH   2  12
HETATM   12  O   UNL     1     -11.420   7.369  69.981  1.00  0.00    -0.189 OA 
BRANCH  12  13
HETATM   13  C   UNL     1     -12.202   7.349  71.190  1.00  0.00    -0.324 C  
BRANCH  13  14
HETATM   14  C   UNL     1     -11.703   8.431  72.152  1.00  0.00    -0.375 C  
BRANCH  14  15
HETATM   15  O   UNL     1     -11.266   9.573  71.386  1.00  0.00    -0.351 OA 
BRANCH  15  16
HETATM   16  C   UNL     1     -12.230  10.470  71.047  1.00  0.00    -0.400 C  
HETATM   17  O   UNL     1     -13.079  10.922  71.801  1.00  0.00    -0.464 OA 
BRANCH  16  18
HETATM   18  C   UNL     1     -12.122  10.811  69.583  1.00  0.00    -0.361 C  
BRANCH  18  19
HETATM   19  C   UNL     1     -11.648  12.244  69.368  1.00  0.00    -0.378 C  
BRANCH  19  20
HETATM   20  C   UNL     1     -10.406  12.338  68.475  1.00  0.00    -0.234 C  
BRANCH  20  21
HETATM   21  C   UNL     1     -10.774  12.970  67.157  1.00  0.00    -0.266 A  
HETATM   22  C   UNL     1     -11.380  13.948  64.605  1.00  0.00    -0.380 A  
HETATM   23  C   UNL     1      -9.833  13.727  66.447  1.00  0.00    -0.305 A  
HETATM   24  C   UNL     1     -12.030  12.727  66.584  1.00  0.00    -0.411 A  
HETATM   25  C   UNL     1     -10.138  14.214  65.175  1.00  0.00    -0.348 A  
HETATM   26  C   UNL     1     -12.330  13.213  65.312  1.00  0.00    -0.532 A  
ENDBRANCH  20  21
ENDBRANCH  19  20
ENDBRANCH  18  19
ENDBRANCH  16  18
ENDBRANCH  15  16
ENDBRANCH  14  15
BRANCH  14  27
HETATM   27  C   UNL     1     -10.507   7.934  72.972  1.00  0.00    -0.343 C  
BRANCH  27  28
HETATM   28  O   UNL     1      -9.262   8.328  72.376  1.00  0.00    -0.206 OA 
BRANCH  28  29
HETATM   29  C   UNL     1      -8.428   7.296  72.065  1.00  0.00    -0.106 C  
HETATM   30  O   UNL     1      -8.128   6.386  72.824  1.00  0.00    -0.107 OA 
BRANCH  29  31
HETATM   31  C   UNL     1      -7.936   7.437  70.646  1.00  0.00    -0.098 C  
BRANCH  31  32
HETATM   32  C   UNL     1      -7.202   8.756  70.429  1.00  0.00    -0.050 C  
BRANCH  32  33
HETATM   33  C   UNL     1      -7.930   9.689  69.452  1.00  0.00    -0.111 C  
BRANCH  33  34
HETATM   34  C   UNL     1      -7.021  10.057  68.308  1.00  0.00    -0.068 A  
HETATM   35  C   UNL     1      -5.450  10.657  66.068  1.00  0.00    -0.106 A  
HETATM   36  C   UNL     1      -7.246  11.233  67.579  1.00  0.00    -0.100 A  
HETATM   37  C   UNL     1      -6.462  11.531  66.464  1.00  0.00    -0.037 A  
HETATM   38  C   UNL     1      -5.212   9.492  66.795  1.00  0.00    -0.041 A  
HETATM   39  C   UNL     1      -5.993   9.193  67.911  1.00  0.00    -0.049 A  
ENDBRANCH  33  34
ENDBRANCH  32  33
ENDBRANCH  31  32
ENDBRANCH  29  31
ENDBRANCH  28  29
ENDBRANCH  27  28
ENDBRANCH  14  27
ENDBRANCH  13  14
ENDBRANCH  12  13
ENDBRANCH   2  12
TORSDOF 20
ENDMDL
MODEL       75
REMARK 921   NORMALIZED FREE ENERGY PREDICTED BY IDOCK:   -5.48 KCAL/MOL
REMARK 922        TOTAL FREE ENERGY PREDICTED BY IDOCK:  -16.58 KCAL/MOL
REMARK 923 INTER-LIGAND FREE ENERGY PREDICTED BY IDOCK:  -10.91 KCAL/MOL
REMARK 924 INTRA-LIGAND FREE ENERGY PREDICTED BY IDOCK:   -5.67 KCAL/MOL
REMARK 927      BINDING AFFINITY PREDICTED BY RF-SCORE:    0.00 PKD
ROOT
HETATM    1  O   UNL     1     -12.440  12.355  71.092  1.00  0.00    -0.343 OA 
HETATM    2  C   UNL     1     -11.954  11.749  70.147  1.00  0.00    -0.339 C  
ENDROOT
BRANCH   2   3
HETATM    3  C   UNL     1     -11.455  10.326  70.218  1.00  0.00    -0.395 C  
BRANCH   3   4
HETATM    4  C   UNL     1     -11.828   9.647  71.537  1.00  0.00    -0.483 C  
BRANCH   4   5
HETATM    5  C   UNL     1     -12.620   8.352  71.320  1.00  0.00    -0.234 C  
BRANCH   5   6
HETATM    6  C   UNL     1     -11.718   7.148  71.222  1.00  0.00    -0.342 A  
HETATM    7  C   UNL     1     -11.553   6.486  69.997  1.00  0.00    -0.455 A  
HETATM    8  C   UNL     1     -10.059   4.895  71.034  1.00  0.00    -0.288 A  
HETATM    9  C   UNL     1     -10.724   5.367  69.904  1.00  0.00    -0.292 A  
HETATM   10  C   UNL     1     -11.048   6.662  72.352  1.00  0.00    -0.294 A  
HETATM   11  C   UNL     1     -10.221   5.543  72.257  1.00  0.00    -0.244 A  
ENDBRANCH   5   6
ENDBRANCH   4   5
ENDBRANCH   3   4
ENDBRANCH   2   3
BRANCH   2  12
HETATM   12  O   UNL     1     -11.783  12.252  68.893  1.00  0.00    -0.291 OA 
BRANCH  12  13
HETATM   13  C   UNL     1     -10.530  11.957  68.247  1.00  0.00    -0.205 C  
BRANCH  13  14
HETATM   14  C   UNL     1     -10.763  11.685  66.758  1.00  0.00    -0.260 C  
BRANCH  14  15
HETATM   15  O   UNL     1     -12.046  12.224  66.378  1.00  0.00    -0.623 OA 
BRANCH  15  16
HETATM   16  C   UNL     1     -12.169  12.616  65.082  1.00  0.00    -0.481 C  
HETATM   17  O   UNL     1     -13.103  12.347  64.342  1.00  0.00    -0.786 OA 
BRANCH  16  18
HETATM   18  C   UNL     1     -10.960  13.418  64.671  1.00  0.00    -0.388 C  
BRANCH  18  19
HETATM   19  C   UNL     1     -11.164  14.911  64.906  1.00  0.00    -0.415 C  
BRANCH  19  20
HETATM   20  C   UNL     1      -9.994  15.567  65.649  1.00  0.00    -0.394 C  
BRANCH  20  21
HETATM   21  C   UNL     1     -10.224  15.478  67.136  1.00  0.00    -0.260 A  
HETATM   22  C   UNL     1     -10.642  15.552  69.904  1.00  0.00    -0.322 A  
HETATM   23  C   UNL     1      -9.138  15.415  68.019  1.00  0.00    -0.175 A  
HETATM   24  C   UNL     1     -11.523  15.557  67.656  1.00  0.00    -0.211 A  
HETATM   25  C   UNL     1      -9.349  15.451  69.398  1.00  0.00    -0.266 A  
HETATM   26  C   UNL     1     -11.731  15.595  69.034  1.00  0.00    -0.408 A  
ENDBRANCH  20  21
ENDBRANCH  19  20
ENDBRANCH  18  19
ENDBRANCH  16  18
ENDBRANCH  15  16
ENDBRANCH  14  15
BRANCH  14  27
HETATM   27  C   UNL     1     -10.785  10.179  66.468  1.00  0.00    -0.048 C  
BRANCH  27  28
HETATM   28  O   UNL     1      -9.794   9.817  65.495  1.00  0.00    -0.294 OA 
BRANCH  28  29
HETATM   29  C   UNL     1      -8.650   9.290  66.016  1.00  0.00    -0.144 C  
HETATM   30  O   UNL     1      -7.746   9.941  66.518  1.00  0.00    -0.104 OA 
BRANCH  29  31
HETATM   31  C   UNL     1      -8.667   7.788  65.890  1.00  0.00    -0.175 C  
BRANCH  31  32
HETATM   32  C   UNL     1      -8.910   7.109  67.234  1.00  0.00    -0.120 C  
BRANCH  32  33
HETATM   33  C   UNL     1      -7.610   6.741  67.960  1.00  0.00    -0.107 C  
BRANCH  33  34
HETATM   34  C   UNL     1      -7.664   7.204  69.393  1.00  0.00    -0.107 A  
HETATM   35  C   UNL     1      -7.619   8.175  72.020  1.00  0.00    -0.129 A  
HETATM   36  C   UNL     1      -8.374   8.364  69.733  1.00  0.00    -0.125 A  
HETATM   37  C   UNL     1      -8.351   8.846  71.041  1.00  0.00    -0.233 A  
HETATM   38  C   UNL     1      -6.920   7.015  71.693  1.00  0.00    -0.069 A  
HETATM   39  C   UNL     1      -6.942   6.530  70.386  1.00  0.00    -0.064 A  
ENDBRANCH  33  34
ENDBRANCH  32  33
ENDBRANCH  31  32
ENDBRANCH  29  31
ENDBRANCH  28  29
ENDBRANCH  27  28
ENDBRANCH  14  27
ENDBRANCH  13  14
ENDBRANCH  12  13
ENDBRANCH   2  12
TORSDOF 20
ENDMDL
MODEL       76
REMARK 921   NORMALIZED FREE ENERGY PREDICTED BY IDOCK:   -5.48 KCAL/MOL
REMARK 922        TOTAL FREE ENERGY PREDICTED BY IDOCK:  -16.56 KCAL/MOL
REMARK 923 INTER-LIGAND FREE ENERGY PREDICTED BY IDOCK:  -11.90 KCAL/MOL
REMARK 924 INTRA-LIGAND FREE ENERGY PREDICTED BY IDOCK:   -4.66 KCAL/MOL
REMARK 927      BINDING AFFINITY PREDICTED BY RF-SCORE:    0.00 PKD
ROOT
HETATM    1  O   UNL     1     -14.113  13.175  72.742  1.00  0.00    -0.641 OA 
HETATM    2  C   UNL     1     -13.290  13.216  71.838  1.00  0.00    -0.455 C  
ENDROOT
BRANCH   2   3
HETATM    3  C   UNL     1     -12.815  14.489  71.180  1.00  0.00    -0.408 C  
BRANCH   3   4
HETATM    4  C   UNL     1     -12.271  14.244  69.771  1.00  0.00    -0.390 C  
BRANCH   4   5
HETATM    5  C   UNL     1     -11.747  15.528  69.118  1.00  0.00    -0.380 C  
BRANCH   5   6
HETATM    6  C   UNL     1     -10.929  15.243  67.885  1.00  0.00    -0.306 A  
HETATM    7  C   UNL     1      -9.811  14.399  67.957  1.00  0.00    -0.221 A  
HETATM    8  C   UNL     1      -9.389  14.721  65.600  1.00  0.00     0.025 A  
HETATM    9  C   UNL     1      -9.048  14.138  66.818  1.00  0.00    -0.266 A  
HETATM   10  C   UNL     1     -11.261  15.827  66.656  1.00  0.00    -0.000 A  
HETATM   11  C   UNL     1     -10.496  15.565  65.519  1.00  0.00    -0.407 A  
ENDBRANCH   5   6
ENDBRANCH   4   5
ENDBRANCH   3   4
ENDBRANCH   2   3
BRANCH   2  12
HETATM   12  O   UNL     1     -12.676  12.135  71.283  1.00  0.00    -0.366 OA 
BRANCH  12  13
HETATM   13  C   UNL     1     -13.214  10.843  71.625  1.00  0.00    -0.367 C  
BRANCH  13  14
HETATM   14  C   UNL     1     -12.076   9.831  71.787  1.00  0.00    -0.346 C  
BRANCH  14  15
HETATM   15  O   UNL     1     -11.559   9.495  70.483  1.00  0.00    -0.265 OA 
BRANCH  15  16
HETATM   16  C   UNL     1     -10.242   9.763  70.276  1.00  0.00    -0.289 C  
HETATM   17  O   UNL     1      -9.315   9.352  70.958  1.00  0.00    -0.240 OA 
BRANCH  16  18
HETATM   18  C   UNL     1     -10.085  10.675  69.086  1.00  0.00    -0.234 C  
BRANCH  18  19
HETATM   19  C   UNL     1     -11.105  10.365  67.996  1.00  0.00    -0.359 C  
BRANCH  19  20
HETATM   20  C   UNL     1     -11.778  11.621  67.430  1.00  0.00    -0.278 C  
BRANCH  20  21
HETATM   21  C   UNL     1     -11.536  11.701  65.944  1.00  0.00    -0.189 A  
HETATM   22  C   UNL     1     -10.942  12.033  63.228  1.00  0.00    -0.399 A  
HETATM   23  C   UNL     1     -12.338  12.520  65.139  1.00  0.00    -0.496 A  
HETATM   24  C   UNL     1     -10.446  11.033  65.369  1.00  0.00    -0.306 A  
HETATM   25  C   UNL     1     -12.040  12.683  63.785  1.00  0.00    -0.604 A  
HETATM   26  C   UNL     1     -10.150  11.200  64.017  1.00  0.00    -0.392 A  
ENDBRANCH  20  21
ENDBRANCH  19  20
ENDBRANCH  18  19
ENDBRANCH  16  18
ENDBRANCH  15  16
ENDBRANCH  14  15
BRANCH  14  27
HETATM   27  C   UNL     1     -12.578   8.536  72.437  1.00  0.00    -0.348 C  
BRANCH  27  28
HETATM   28  O   UNL     1     -12.300   7.394  71.615  1.00  0.00    -0.310 OA 
BRANCH  28  29
HETATM   29  C   UNL     1     -11.251   6.631  72.034  1.00  0.00    -0.266 C  
HETATM   30  O   UNL     1     -10.678   6.759  73.106  1.00  0.00    -0.259 OA 
BRANCH  29  31
HETATM   31  C   UNL     1     -10.907   5.602  70.987  1.00  0.00    -0.289 C  
BRANCH  31  32
HETATM   32  C   UNL     1     -11.210   6.102  69.579  1.00  0.00    -0.482 C  
BRANCH  32  33
HETATM   33  C   UNL     1      -9.948   6.282  68.725  1.00  0.00    -0.173 C  
BRANCH  33  34
HETATM   34  C   UNL     1      -9.814   5.142  67.748  1.00  0.00    -0.196 A  
HETATM   35  C   UNL     1      -9.397   3.091  65.887  1.00  0.00    -0.082 A  
HETATM   36  C   UNL     1      -9.168   3.958  68.130  1.00  0.00    -0.207 A  
HETATM   37  C   UNL     1      -8.962   2.937  67.203  1.00  0.00    -0.181 A  
HETATM   38  C   UNL     1     -10.050   4.261  65.502  1.00  0.00    -0.235 A  
HETATM   39  C   UNL     1     -10.259   5.282  66.428  1.00  0.00    -0.289 A  
ENDBRANCH  33  34
ENDBRANCH  32  33
ENDBRANCH  31  32
ENDBRANCH  29  31
ENDBRANCH  28  29
ENDBRANCH  27  28
ENDBRANCH  14  27
ENDBRANCH  13  14
ENDBRANCH  12  13
ENDBRANCH   2  12
TORSDOF 20
ENDMDL
MODEL       77
REMARK 921   NORMALIZED FREE ENERGY PREDICTED BY IDOCK:   -5.46 KCAL/MOL
REMARK 922        TOTAL FREE ENERGY PREDICTED BY IDOCK:  -16.53 KCAL/MOL
REMARK 923 INTER-LIGAND FREE ENERGY PREDICTED BY IDOCK:  -12.24 KCAL/MOL
REMARK 924 INTRA-LIGAND FREE ENERGY PREDICTED BY IDOCK:   -4.29 KCAL/MOL
REMARK 927      BINDING AFFINITY PREDICTED BY RF-SCORE:    0.00 PKD
ROOT
HETATM    1  O   UNL     1     -12.437  13.782  63.324  1.00  0.00    -0.819 OA 
HETATM    2  C   UNL     1     -12.056  14.360  64.332  1.00  0.00    -0.470 C  
ENDROOT
BRANCH   2   3
HETATM    3  C   UNL     1     -11.465  15.749  64.343  1.00  0.00    -0.268 C  
BRANCH   3   4
HETATM    4  C   UNL     1     -10.324  15.885  65.353  1.00  0.00    -0.399 C  
BRANCH   4   5
HETATM    5  C   UNL     1     -10.828  16.259  66.752  1.00  0.00    -0.125 C  
BRANCH   5   6
HETATM    6  C   UNL     1     -10.491  17.684  67.112  1.00  0.00    -0.319 A  
HETATM    7  C   UNL     1     -10.351  18.653  66.109  1.00  0.00    -0.481 A  
HETATM    8  C   UNL     1      -9.847  20.332  67.772  1.00  0.00    -0.534 A  
HETATM    9  C   UNL     1     -10.033  19.971  66.439  1.00  0.00    -0.601 A  
HETATM   10  C   UNL     1     -10.298  18.057  68.448  1.00  0.00    -0.377 A  
HETATM   11  C   UNL     1      -9.979  19.375  68.776  1.00  0.00    -0.522 A  
ENDBRANCH   5   6
ENDBRANCH   4   5
ENDBRANCH   3   4
ENDBRANCH   2   3
BRANCH   2  12
HETATM   12  O   UNL     1     -12.098  13.850  65.594  1.00  0.00    -0.374 OA 
BRANCH  12  13
HETATM   13  C   UNL     1     -12.094  12.414  65.709  1.00  0.00    -0.311 C  
BRANCH  13  14
HETATM   14  C   UNL     1     -10.677  11.917  66.007  1.00  0.00    -0.285 C  
BRANCH  14  15
HETATM   15  O   UNL     1     -10.710  10.486  66.184  1.00  0.00    -0.159 OA 
BRANCH  15  16
HETATM   16  C   UNL     1      -9.820   9.772  65.444  1.00  0.00    -0.295 C  
HETATM   17  O   UNL     1      -9.354  10.111  64.367  1.00  0.00    -0.249 OA 
BRANCH  16  18
HETATM   18  C   UNL     1      -9.506   8.469  66.136  1.00  0.00    -0.286 C  
BRANCH  18  19
HETATM   19  C   UNL     1     -10.489   8.176  67.264  1.00  0.00    -0.379 C  
BRANCH  19  20
HETATM   20  C   UNL     1     -11.013   6.735  67.243  1.00  0.00    -0.433 C  
BRANCH  20  21
HETATM   21  C   UNL     1     -10.617   6.032  68.517  1.00  0.00    -0.325 A  
HETATM   22  C   UNL     1     -10.054   4.570  70.837  1.00  0.00    -0.228 A  
HETATM   23  C   UNL     1     -11.232   6.365  69.730  1.00  0.00    -0.484 A  
HETATM   24  C   UNL     1      -9.701   4.972  68.482  1.00  0.00    -0.215 A  
HETATM   25  C   UNL     1     -10.949   5.635  70.886  1.00  0.00    -0.257 A  
HETATM   26  C   UNL     1      -9.422   4.243  69.638  1.00  0.00    -0.258 A  
ENDBRANCH  20  21
ENDBRANCH  19  20
ENDBRANCH  18  19
ENDBRANCH  16  18
ENDBRANCH  15  16
ENDBRANCH  14  15
BRANCH  14  27
HETATM   27  C   UNL     1     -10.136  12.535  67.302  1.00  0.00    -0.213 C  
BRANCH  27  28
HETATM   28  O   UNL     1      -8.926  13.269  67.068  1.00  0.00    -0.220 OA 
BRANCH  28  29
HETATM   29  C   UNL     1      -7.915  12.997  67.941  1.00  0.00    -0.157 C  
HETATM   30  O   UNL     1      -7.853  12.003  68.650  1.00  0.00    -0.133 OA 
BRANCH  29  31
HETATM   31  C   UNL     1      -6.882  14.094  67.898  1.00  0.00    -0.173 C  
BRANCH  31  32
HETATM   32  C   UNL     1      -7.514  15.473  68.047  1.00  0.00    -0.136 C  
BRANCH  32  33
HETATM   33  C   UNL     1      -7.097  16.444  66.934  1.00  0.00    -0.256 C  
BRANCH  33  34
HETATM   34  C   UNL     1      -6.699  17.773  67.525  1.00  0.00    -0.185 A  
HETATM   35  C   UNL     1      -6.139  20.280  68.641  1.00  0.00    -0.335 A  
HETATM   36  C   UNL     1      -6.581  17.920  68.913  1.00  0.00    -0.241 A  
HETATM   37  C   UNL     1      -6.302  19.169  69.468  1.00  0.00    -0.318 A  
HETATM   38  C   UNL     1      -6.243  20.139  67.258  1.00  0.00    -0.217 A  
HETATM   39  C   UNL     1      -6.521  18.891  66.701  1.00  0.00    -0.206 A  
ENDBRANCH  33  34
ENDBRANCH  32  33
ENDBRANCH  31  32
ENDBRANCH  29  31
ENDBRANCH  28  29
ENDBRANCH  27  28
ENDBRANCH  14  27
ENDBRANCH  13  14
ENDBRANCH  12  13
ENDBRANCH   2  12
TORSDOF 20
ENDMDL
MODEL       78
REMARK 921   NORMALIZED FREE ENERGY PREDICTED BY IDOCK:   -5.46 KCAL/MOL
REMARK 922        TOTAL FREE ENERGY PREDICTED BY IDOCK:  -16.53 KCAL/MOL
REMARK 923 INTER-LIGAND FREE ENERGY PREDICTED BY IDOCK:  -11.73 KCAL/MOL
REMARK 924 INTRA-LIGAND FREE ENERGY PREDICTED BY IDOCK:   -4.80 KCAL/MOL
REMARK 927      BINDING AFFINITY PREDICTED BY RF-SCORE:    0.00 PKD
ROOT
HETATM    1  O   UNL     1      -6.764  10.254  63.779  1.00  0.00    -0.129 OA 
HETATM    2  C   UNL     1      -7.613   9.377  63.856  1.00  0.00    -0.118 C  
ENDROOT
BRANCH   2   3
HETATM    3  C   UNL     1      -7.388   8.030  64.500  1.00  0.00    -0.089 C  
BRANCH   3   4
HETATM    4  C   UNL     1      -8.561   7.609  65.387  1.00  0.00    -0.074 C  
BRANCH   4   5
HETATM    5  C   UNL     1      -8.445   8.169  66.809  1.00  0.00    -0.123 C  
BRANCH   5   6
HETATM    6  C   UNL     1      -9.225   7.349  67.805  1.00  0.00    -0.133 A  
HETATM    7  C   UNL     1      -8.556   6.604  68.787  1.00  0.00    -0.122 A  
HETATM    8  C   UNL     1     -10.667   5.807  69.652  1.00  0.00    -0.416 A  
HETATM    9  C   UNL     1      -9.275   5.839  69.706  1.00  0.00    -0.161 A  
HETATM   10  C   UNL     1     -10.624   7.307  67.757  1.00  0.00    -0.289 A  
HETATM   11  C   UNL     1     -11.341   6.542  68.677  1.00  0.00    -0.203 A  
ENDBRANCH   5   6
ENDBRANCH   4   5
ENDBRANCH   3   4
ENDBRANCH   2   3
BRANCH   2  12
HETATM   12  O   UNL     1      -8.885   9.469  63.378  1.00  0.00    -0.227 OA 
BRANCH  12  13
HETATM   13  C   UNL     1      -9.332  10.782  62.987  1.00  0.00    -0.330 C  
BRANCH  13  14
HETATM   14  C   UNL     1     -10.388  11.289  63.973  1.00  0.00    -0.371 C  
BRANCH  14  15
HETATM   15  O   UNL     1     -10.782  12.624  63.591  1.00  0.00    -0.425 OA 
BRANCH  15  16
HETATM   16  C   UNL     1     -12.086  12.946  63.805  1.00  0.00    -0.508 C  
HETATM   17  O   UNL     1     -13.038  12.192  63.665  1.00  0.00    -0.787 OA 
BRANCH  16  18
HETATM   18  C   UNL     1     -12.197  14.392  64.216  1.00  0.00    -0.450 C  
BRANCH  18  19
HETATM   19  C   UNL     1     -10.897  14.910  64.822  1.00  0.00    -0.382 C  
BRANCH  19  20
HETATM   20  C   UNL     1     -11.036  15.293  66.300  1.00  0.00    -0.300 C  
BRANCH  20  21
HETATM   21  C   UNL     1     -10.060  16.392  66.634  1.00  0.00    -0.290 A  
HETATM   22  C   UNL     1      -8.185  18.306  67.446  1.00  0.00    -0.237 A  
HETATM   23  C   UNL     1     -10.445  17.455  67.460  1.00  0.00    -0.354 A  
HETATM   24  C   UNL     1      -8.729  16.309  66.202  1.00  0.00    -0.353 A  
HETATM   25  C   UNL     1      -9.509  18.409  67.862  1.00  0.00    -0.299 A  
HETATM   26  C   UNL     1      -7.796  17.262  66.608  1.00  0.00    -0.295 A  
ENDBRANCH  20  21
ENDBRANCH  19  20
ENDBRANCH  18  19
ENDBRANCH  16  18
ENDBRANCH  15  16
ENDBRANCH  14  15
BRANCH  14  27
HETATM   27  C   UNL     1      -9.825  11.360  65.398  1.00  0.00    -0.236 C  
BRANCH  27  28
HETATM   28  O   UNL     1     -10.769  10.869  66.360  1.00  0.00    -0.249 OA 
BRANCH  28  29
HETATM   29  C   UNL     1     -11.264  11.816  67.207  1.00  0.00    -0.305 C  
HETATM   30  O   UNL     1     -12.352  12.360  67.088  1.00  0.00    -0.380 OA 
BRANCH  29  31
HETATM   31  C   UNL     1     -10.278  12.086  68.315  1.00  0.00    -0.207 C  
BRANCH  31  32
HETATM   32  C   UNL     1     -10.073  10.863  69.202  1.00  0.00    -0.198 C  
BRANCH  32  33
HETATM   33  C   UNL     1     -11.370  10.385  69.867  1.00  0.00    -0.370 C  
BRANCH  33  34
HETATM   34  C   UNL     1     -11.057   9.456  71.012  1.00  0.00    -0.414 A  
HETATM   35  C   UNL     1     -10.458   7.593  73.016  1.00  0.00    -0.414 A  
HETATM   36  C   UNL     1      -9.725   9.202  71.369  1.00  0.00    -0.338 A  
HETATM   37  C   UNL     1      -9.429   8.274  72.368  1.00  0.00    -0.357 A  
HETATM   38  C   UNL     1     -11.785   7.849  72.675  1.00  0.00    -0.398 A  
HETATM   39  C   UNL     1     -12.084   8.777  71.678  1.00  0.00    -0.401 A  
ENDBRANCH  33  34
ENDBRANCH  32  33
ENDBRANCH  31  32
ENDBRANCH  29  31
ENDBRANCH  28  29
ENDBRANCH  27  28
ENDBRANCH  14  27
ENDBRANCH  13  14
ENDBRANCH  12  13
ENDBRANCH   2  12
TORSDOF 20
ENDMDL
MODEL       79
REMARK 921   NORMALIZED FREE ENERGY PREDICTED BY IDOCK:   -5.45 KCAL/MOL
REMARK 922        TOTAL FREE ENERGY PREDICTED BY IDOCK:  -16.51 KCAL/MOL
REMARK 923 INTER-LIGAND FREE ENERGY PREDICTED BY IDOCK:  -11.42 KCAL/MOL
REMARK 924 INTRA-LIGAND FREE ENERGY PREDICTED BY IDOCK:   -5.08 KCAL/MOL
REMARK 927      BINDING AFFINITY PREDICTED BY RF-SCORE:    0.00 PKD
ROOT
HETATM    1  O   UNL     1      -7.353  12.391  67.806  1.00  0.00    -0.100 OA 
HETATM    2  C   UNL     1      -8.258  11.732  67.315  1.00  0.00    -0.163 C  
ENDROOT
BRANCH   2   3
HETATM    3  C   UNL     1      -8.930  10.567  68.002  1.00  0.00    -0.135 C  
BRANCH   3   4
HETATM    4  C   UNL     1      -9.797  11.013  69.181  1.00  0.00    -0.117 C  
BRANCH   4   5
HETATM    5  C   UNL     1     -11.062  10.160  69.328  1.00  0.00    -0.270 C  
BRANCH   5   6
HETATM    6  C   UNL     1     -11.048   9.340  70.593  1.00  0.00    -0.335 A  
HETATM    7  C   UNL     1     -12.248   8.866  71.142  1.00  0.00    -0.303 A  
HETATM    8  C   UNL     1     -11.033   7.828  72.955  1.00  0.00    -0.467 A  
HETATM    9  C   UNL     1     -12.239   8.112  72.316  1.00  0.00    -0.397 A  
HETATM   10  C   UNL     1      -9.842   9.052  71.245  1.00  0.00    -0.376 A  
HETATM   11  C   UNL     1      -9.835   8.299  72.419  1.00  0.00    -0.375 A  
ENDBRANCH   5   6
ENDBRANCH   4   5
ENDBRANCH   3   4
ENDBRANCH   2   3
BRANCH   2  12
HETATM   12  O   UNL     1      -8.801  11.935  66.083  1.00  0.00    -0.166 OA 
BRANCH  12  13
HETATM   13  C   UNL     1      -9.960  11.147  65.752  1.00  0.00    -0.245 C  
BRANCH  13  14
HETATM   14  C   UNL     1      -9.869  10.668  64.300  1.00  0.00    -0.330 C  
BRANCH  14  15
HETATM   15  O   UNL     1      -8.497  10.334  64.003  1.00  0.00    -0.165 OA 
BRANCH  15  16
HETATM   16  C   UNL     1      -8.206   9.007  63.936  1.00  0.00    -0.172 C  
HETATM   17  O   UNL     1      -8.435   8.274  62.986  1.00  0.00    -0.119 OA 
BRANCH  16  18
HETATM   18  C   UNL     1      -7.579   8.554  65.230  1.00  0.00    -0.089 C  
BRANCH  18  19
HETATM   19  C   UNL     1      -8.242   7.290  65.769  1.00  0.00    -0.135 C  
BRANCH  19  20
HETATM   20  C   UNL     1      -9.638   7.546  66.348  1.00  0.00    -0.194 C  
BRANCH  20  21
HETATM   21  C   UNL     1      -9.745   6.914  67.713  1.00  0.00    -0.148 A  
HETATM   22  C   UNL     1      -9.913   5.529  70.140  1.00  0.00    -0.287 A  
HETATM   23  C   UNL     1     -10.987   6.490  68.202  1.00  0.00    -0.365 A  
HETATM   24  C   UNL     1      -8.590   6.655  68.463  1.00  0.00    -0.124 A  
HETATM   25  C   UNL     1     -11.068   5.801  69.413  1.00  0.00    -0.259 A  
HETATM   26  C   UNL     1      -8.674   5.964  69.671  1.00  0.00    -0.128 A  
ENDBRANCH  20  21
ENDBRANCH  19  20
ENDBRANCH  18  19
ENDBRANCH  16  18
ENDBRANCH  15  16
ENDBRANCH  14  15
BRANCH  14  27
HETATM   27  C   UNL     1     -10.302  11.770  63.326  1.00  0.00    -0.402 C  
BRANCH  27  28
HETATM   28  O   UNL     1     -10.782  12.928  64.024  1.00  0.00    -0.393 OA 
BRANCH  28  29
HETATM   29  C   UNL     1     -12.139  13.011  64.127  1.00  0.00    -0.427 C  
HETATM   30  O   UNL     1     -12.929  12.263  63.569  1.00  0.00    -0.776 OA 
BRANCH  29  31
HETATM   31  C   UNL     1     -12.522  14.152  65.035  1.00  0.00    -0.434 C  
BRANCH  31  32
HETATM   32  C   UNL     1     -11.526  14.327  66.176  1.00  0.00    -0.357 C  
BRANCH  32  33
HETATM   33  C   UNL     1     -11.897  13.510  67.421  1.00  0.00    -0.423 C  
BRANCH  33  34
HETATM   34  C   UNL     1     -11.833  14.378  68.652  1.00  0.00    -0.366 A  
HETATM   35  C   UNL     1     -11.552  15.910  70.980  1.00  0.00    -0.465 A  
HETATM   36  C   UNL     1     -11.141  15.597  68.619  1.00  0.00    -0.317 A  
HETATM   37  C   UNL     1     -11.003  16.359  69.779  1.00  0.00    -0.341 A  
HETATM   38  C   UNL     1     -12.252  14.705  71.017  1.00  0.00    -0.399 A  
HETATM   39  C   UNL     1     -12.393  13.942  69.859  1.00  0.00    -0.358 A  
ENDBRANCH  33  34
ENDBRANCH  32  33
ENDBRANCH  31  32
ENDBRANCH  29  31
ENDBRANCH  28  29
ENDBRANCH  27  28
ENDBRANCH  14  27
ENDBRANCH  13  14
ENDBRANCH  12  13
ENDBRANCH   2  12
TORSDOF 20
ENDMDL
MODEL       80
REMARK 921   NORMALIZED FREE ENERGY PREDICTED BY IDOCK:   -5.44 KCAL/MOL
REMARK 922        TOTAL FREE ENERGY PREDICTED BY IDOCK:  -16.48 KCAL/MOL
REMARK 923 INTER-LIGAND FREE ENERGY PREDICTED BY IDOCK:  -11.25 KCAL/MOL
REMARK 924 INTRA-LIGAND FREE ENERGY PREDICTED BY IDOCK:   -5.23 KCAL/MOL
REMARK 927      BINDING AFFINITY PREDICTED BY RF-SCORE:    0.00 PKD
ROOT
HETATM    1  O   UNL     1      -7.204   8.293  65.133  1.00  0.00    -0.076 OA 
HETATM    2  C   UNL     1      -7.819   9.109  65.805  1.00  0.00    -0.098 C  
ENDROOT
BRANCH   2   3
HETATM    3  C   UNL     1      -7.874   9.098  67.314  1.00  0.00    -0.099 C  
BRANCH   3   4
HETATM    4  C   UNL     1      -7.663   7.697  67.891  1.00  0.00    -0.115 C  
BRANCH   4   5
HETATM    5  C   UNL     1      -8.963   6.888  67.940  1.00  0.00    -0.121 C  
BRANCH   5   6
HETATM    6  C   UNL     1      -9.009   5.963  69.130  1.00  0.00    -0.119 A  
HETATM    7  C   UNL     1      -7.874   5.787  69.934  1.00  0.00    -0.088 A  
HETATM    8  C   UNL     1      -9.080   4.231  71.334  1.00  0.00    -0.179 A  
HETATM    9  C   UNL     1      -7.911   4.927  71.032  1.00  0.00    -0.091 A  
HETATM   10  C   UNL     1     -10.177   5.255  69.440  1.00  0.00    -0.321 A  
HETATM   11  C   UNL     1     -10.212   4.395  70.538  1.00  0.00    -0.081 A  
ENDBRANCH   5   6
ENDBRANCH   4   5
ENDBRANCH   3   4
ENDBRANCH   2   3
BRANCH   2  12
HETATM   12  O   UNL     1      -8.548  10.147  65.310  1.00  0.00    -0.143 OA 
BRANCH  12  13
HETATM   13  C   UNL     1      -9.978  10.055  65.454  1.00  0.00    -0.294 C  
BRANCH  13  14
HETATM   14  C   UNL     1     -10.546  11.407  65.897  1.00  0.00    -0.263 C  
BRANCH  14  15
HETATM   15  O   UNL     1     -11.385  11.207  67.054  1.00  0.00    -0.388 OA 
BRANCH  15  16
HETATM   16  C   UNL     1     -10.802  11.433  68.261  1.00  0.00    -0.209 C  
HETATM   17  O   UNL     1      -9.825  12.139  68.460  1.00  0.00    -0.209 OA 
BRANCH  16  18
HETATM   18  C   UNL     1     -11.522  10.654  69.333  1.00  0.00    -0.356 C  
BRANCH  18  19
HETATM   19  C   UNL     1     -10.848   9.314  69.609  1.00  0.00    -0.228 C  
BRANCH  19  20
HETATM   20  C   UNL     1      -9.669   9.427  70.583  1.00  0.00    -0.336 C  
BRANCH  20  21
HETATM   21  C   UNL     1      -9.833   8.426  71.698  1.00  0.00    -0.290 A  
HETATM   22  C   UNL     1     -10.239   6.741  73.896  1.00  0.00    -0.396 A  
HETATM   23  C   UNL     1      -8.838   8.282  72.673  1.00  0.00    -0.304 A  
HETATM   24  C   UNL     1     -11.025   7.700  71.824  1.00  0.00    -0.276 A  
HETATM   25  C   UNL     1      -9.043   7.440  73.768  1.00  0.00    -0.294 A  
HETATM   26  C   UNL     1     -11.227   6.862  72.920  1.00  0.00    -0.254 A  
ENDBRANCH  20  21
ENDBRANCH  19  20
ENDBRANCH  18  19
ENDBRANCH  16  18
ENDBRANCH  15  16
ENDBRANCH  14  15
BRANCH  14  27
HETATM   27  C   UNL     1     -11.411  12.031  64.796  1.00  0.00    -0.298 C  
BRANCH  27  28
HETATM   28  O   UNL     1     -12.389  12.928  65.341  1.00  0.00    -0.457 OA 
BRANCH  28  29
HETATM   29  C   UNL     1     -12.195  14.241  65.028  1.00  0.00    -0.433 C  
HETATM   30  O   UNL     1     -12.629  14.792  64.027  1.00  0.00    -0.822 OA 
BRANCH  29  31
HETATM   31  C   UNL     1     -11.377  14.915  66.100  1.00  0.00    -0.307 C  
BRANCH  31  32
HETATM   32  C   UNL     1     -11.982  14.713  67.485  1.00  0.00    -0.309 C  
BRANCH  32  33
HETATM   33  C   UNL     1     -11.407  15.675  68.533  1.00  0.00    -0.361 C  
BRANCH  33  34
HETATM   34  C   UNL     1     -11.819  15.244  69.918  1.00  0.00    -0.363 A  
HETATM   35  C   UNL     1     -12.747  14.526  72.461  1.00  0.00    -0.433 A  
HETATM   36  C   UNL     1     -12.533  14.052  70.102  1.00  0.00    -0.380 A  
HETATM   37  C   UNL     1     -12.994  13.695  71.369  1.00  0.00    -0.427 A  
HETATM   38  C   UNL     1     -12.028  15.708  72.288  1.00  0.00    -0.562 A  
HETATM   39  C   UNL     1     -11.565  16.066  71.023  1.00  0.00    -0.472 A  
ENDBRANCH  33  34
ENDBRANCH  32  33
ENDBRANCH  31  32
ENDBRANCH  29  31
ENDBRANCH  28  29
ENDBRANCH  27  28
ENDBRANCH  14  27
ENDBRANCH  13  14
ENDBRANCH  12  13
ENDBRANCH   2  12
TORSDOF 20
ENDMDL
MODEL       81
REMARK 921   NORMALIZED FREE ENERGY PREDICTED BY IDOCK:   -5.43 KCAL/MOL
REMARK 922        TOTAL FREE ENERGY PREDICTED BY IDOCK:  -16.45 KCAL/MOL
REMARK 923 INTER-LIGAND FREE ENERGY PREDICTED BY IDOCK:  -11.57 KCAL/MOL
REMARK 924 INTRA-LIGAND FREE ENERGY PREDICTED BY IDOCK:   -4.88 KCAL/MOL
REMARK 927      BINDING AFFINITY PREDICTED BY RF-SCORE:    0.00 PKD
ROOT
HETATM    1  O   UNL     1     -14.340   7.710  71.812  1.00  0.00    -0.413 OA 
HETATM    2  C   UNL     1     -13.150   7.778  71.540  1.00  0.00    -0.320 C  
ENDROOT
BRANCH   2   3
HETATM    3  C   UNL     1     -12.292   8.998  71.778  1.00  0.00    -0.438 C  
BRANCH   3   4
HETATM    4  C   UNL     1     -13.058  10.300  71.533  1.00  0.00    -0.534 C  
BRANCH   4   5
HETATM    5  C   UNL     1     -12.251  11.299  70.697  1.00  0.00    -0.489 C  
BRANCH   5   6
HETATM    6  C   UNL     1     -12.657  12.725  70.972  1.00  0.00    -0.362 A  
HETATM    7  C   UNL     1     -12.242  13.756  70.117  1.00  0.00    -0.425 A  
HETATM    8  C   UNL     1     -13.394  15.382  71.483  1.00  0.00    -0.586 A  
HETATM    9  C   UNL     1     -12.612  15.077  70.371  1.00  0.00    -0.399 A  
HETATM   10  C   UNL     1     -13.440  13.043  72.089  1.00  0.00    -0.638 A  
HETATM   11  C   UNL     1     -13.808  14.365  72.342  1.00  0.00    -0.595 A  
ENDBRANCH   5   6
ENDBRANCH   4   5
ENDBRANCH   3   4
ENDBRANCH   2   3
BRANCH   2  12
HETATM   12  O   UNL     1     -12.411   6.779  70.982  1.00  0.00    -0.367 OA 
BRANCH  12  13
HETATM   13  C   UNL     1     -11.516   6.072  71.862  1.00  0.00    -0.269 C  
BRANCH  13  14
HETATM   14  C   UNL     1     -10.178   5.827  71.157  1.00  0.00    -0.218 C  
BRANCH  14  15
HETATM   15  O   UNL     1      -9.355   7.003  71.294  1.00  0.00    -0.160 OA 
BRANCH  15  16
HETATM   16  C   UNL     1      -8.216   6.855  72.022  1.00  0.00    -0.099 C  
HETATM   17  O   UNL     1      -7.935   5.889  72.715  1.00  0.00    -0.104 OA 
BRANCH  16  18
HETATM   18  C   UNL     1      -7.350   8.081  71.877  1.00  0.00    -0.089 C  
BRANCH  18  19
HETATM   19  C   UNL     1      -7.678   8.858  70.606  1.00  0.00    -0.112 C  
BRANCH  19  20
HETATM   20  C   UNL     1      -6.439   9.469  69.941  1.00  0.00    -0.053 C  
BRANCH  20  21
HETATM   21  C   UNL     1      -6.705   9.682  68.472  1.00  0.00    -0.052 A  
HETATM   22  C   UNL     1      -7.431  10.061  65.795  1.00  0.00    -0.121 A  
HETATM   23  C   UNL     1      -6.808   8.587  67.605  1.00  0.00    -0.071 A  
HETATM   24  C   UNL     1      -6.948  10.971  67.979  1.00  0.00    -0.068 A  
HETATM   25  C   UNL     1      -7.169   8.779  66.270  1.00  0.00    -0.086 A  
HETATM   26  C   UNL     1      -7.311  11.159  66.646  1.00  0.00    -0.145 A  
ENDBRANCH  20  21
ENDBRANCH  19  20
ENDBRANCH  18  19
ENDBRANCH  16  18
ENDBRANCH  15  16
ENDBRANCH  14  15
BRANCH  14  27
HETATM   27  C   UNL     1     -10.381   5.570  69.660  1.00  0.00    -0.289 C  
BRANCH  27  28
HETATM   28  O   UNL     1      -9.668   6.526  68.862  1.00  0.00    -0.131 OA 
BRANCH  28  29
HETATM   29  C   UNL     1     -10.439   7.221  67.980  1.00  0.00    -0.197 C  
HETATM   30  O   UNL     1     -11.006   6.735  67.012  1.00  0.00    -0.377 OA 
BRANCH  29  31
HETATM   31  C   UNL     1     -10.499   8.675  68.376  1.00  0.00    -0.220 C  
BRANCH  31  32
HETATM   32  C   UNL     1     -10.866   9.569  67.196  1.00  0.00    -0.156 C  
BRANCH  32  33
HETATM   33  C   UNL     1     -10.672  11.061  67.496  1.00  0.00    -0.289 C  
BRANCH  33  34
HETATM   34  C   UNL     1     -11.140  11.892  66.329  1.00  0.00    -0.364 A  
HETATM   35  C   UNL     1     -12.160  13.328  64.151  1.00  0.00    -0.494 A  
HETATM   36  C   UNL     1     -12.009  12.972  66.536  1.00  0.00    -0.457 A  
HETATM   37  C   UNL     1     -12.516  13.687  65.451  1.00  0.00    -0.537 A  
HETATM   38  C   UNL     1     -11.287  12.262  63.938  1.00  0.00    -0.501 A  
HETATM   39  C   UNL     1     -10.778  11.547  65.021  1.00  0.00    -0.350 A  
ENDBRANCH  33  34
ENDBRANCH  32  33
ENDBRANCH  31  32
ENDBRANCH  29  31
ENDBRANCH  28  29
ENDBRANCH  27  28
ENDBRANCH  14  27
ENDBRANCH  13  14
ENDBRANCH  12  13
ENDBRANCH   2  12
TORSDOF 20
ENDMDL
MODEL       82
REMARK 921   NORMALIZED FREE ENERGY PREDICTED BY IDOCK:   -5.42 KCAL/MOL
REMARK 922        TOTAL FREE ENERGY PREDICTED BY IDOCK:  -16.43 KCAL/MOL
REMARK 923 INTER-LIGAND FREE ENERGY PREDICTED BY IDOCK:  -11.32 KCAL/MOL
REMARK 924 INTRA-LIGAND FREE ENERGY PREDICTED BY IDOCK:   -5.11 KCAL/MOL
REMARK 927      BINDING AFFINITY PREDICTED BY RF-SCORE:    0.00 PKD
ROOT
HETATM    1  O   UNL     1     -14.405   8.812  72.748  1.00  0.00    -0.569 OA 
HETATM    2  C   UNL     1     -13.385   8.673  72.088  1.00  0.00    -0.396 C  
ENDROOT
BRANCH   2   3
HETATM    3  C   UNL     1     -12.829   9.720  71.153  1.00  0.00    -0.434 C  
BRANCH   3   4
HETATM    4  C   UNL     1     -13.113  11.142  71.642  1.00  0.00    -0.529 C  
BRANCH   4   5
HETATM    5  C   UNL     1     -12.567  12.206  70.683  1.00  0.00    -0.255 C  
BRANCH   5   6
HETATM    6  C   UNL     1     -12.554  13.578  71.309  1.00  0.00    -0.427 A  
HETATM    7  C   UNL     1     -11.617  14.535  70.894  1.00  0.00    -0.243 A  
HETATM    8  C   UNL     1     -12.510  16.126  72.479  1.00  0.00    -0.518 A  
HETATM    9  C   UNL     1     -11.598  15.803  71.476  1.00  0.00    -0.531 A  
HETATM   10  C   UNL     1     -13.463  13.911  72.321  1.00  0.00    -0.623 A  
HETATM   11  C   UNL     1     -13.442  15.179  72.901  1.00  0.00    -0.589 A  
ENDBRANCH   5   6
ENDBRANCH   4   5
ENDBRANCH   3   4
ENDBRANCH   2   3
BRANCH   2  12
HETATM   12  O   UNL     1     -12.594   7.565  72.085  1.00  0.00    -0.258 OA 
BRANCH  12  13
HETATM   13  C   UNL     1     -11.313   7.686  72.734  1.00  0.00    -0.367 C  
BRANCH  13  14
HETATM   14  C   UNL     1     -10.191   7.410  71.730  1.00  0.00    -0.191 C  
BRANCH  14  15
HETATM   15  O   UNL     1     -10.173   6.001  71.423  1.00  0.00    -0.196 OA 
BRANCH  15  16
HETATM   16  C   UNL     1     -10.300   5.674  70.109  1.00  0.00    -0.271 C  
HETATM   17  O   UNL     1     -10.095   4.570  69.626  1.00  0.00    -0.221 OA 
BRANCH  16  18
HETATM   18  C   UNL     1     -10.706   6.889  69.314  1.00  0.00    -0.265 C  
BRANCH  18  19
HETATM   19  C   UNL     1     -10.623   6.638  67.813  1.00  0.00    -0.311 C  
BRANCH  19  20
HETATM   20  C   UNL     1     -10.763   7.919  66.982  1.00  0.00    -0.289 C  
BRANCH  20  21
HETATM   21  C   UNL     1      -9.452   8.232  66.306  1.00  0.00    -0.271 A  
HETATM   22  C   UNL     1      -6.974   8.963  65.230  1.00  0.00    -0.076 A  
HETATM   23  C   UNL     1      -9.362   9.287  65.390  1.00  0.00    -0.292 A  
HETATM   24  C   UNL     1      -8.291   7.532  66.661  1.00  0.00    -0.127 A  
HETATM   25  C   UNL     1      -8.125   9.650  64.854  1.00  0.00    -0.133 A  
HETATM   26  C   UNL     1      -7.056   7.898  66.126  1.00  0.00    -0.062 A  
ENDBRANCH  20  21
ENDBRANCH  19  20
ENDBRANCH  18  19
ENDBRANCH  16  18
ENDBRANCH  15  16
ENDBRANCH  14  15
BRANCH  14  27
HETATM   27  C   UNL     1      -8.822   7.777  72.316  1.00  0.00    -0.134 C  
BRANCH  27  28
HETATM   28  O   UNL     1      -8.328   9.007  71.766  1.00  0.00    -0.353 OA 
BRANCH  28  29
HETATM   29  C   UNL     1      -7.514   8.862  70.683  1.00  0.00    -0.091 C  
HETATM   30  O   UNL     1      -7.082   7.795  70.272  1.00  0.00    -0.049 OA 
BRANCH  29  31
HETATM   31  C   UNL     1      -7.231  10.206  70.063  1.00  0.00    -0.166 C  
BRANCH  31  32
HETATM   32  C   UNL     1      -8.047  10.427  68.794  1.00  0.00    -0.125 C  
BRANCH  32  33
HETATM   33  C   UNL     1      -9.527  10.713  69.078  1.00  0.00    -0.202 C  
BRANCH  33  34
HETATM   34  C   UNL     1     -10.068  11.702  68.078  1.00  0.00    -0.198 A  
HETATM   35  C   UNL     1     -11.149  13.633  66.361  1.00  0.00    -0.307 A  
HETATM   36  C   UNL     1      -9.346  12.864  67.774  1.00  0.00    -0.203 A  
HETATM   37  C   UNL     1      -9.885  13.825  66.919  1.00  0.00    -0.264 A  
HETATM   38  C   UNL     1     -11.868  12.475  66.650  1.00  0.00    -0.422 A  
HETATM   39  C   UNL     1     -11.331  11.512  67.503  1.00  0.00    -0.366 A  
ENDBRANCH  33  34
ENDBRANCH  32  33
ENDBRANCH  31  32
ENDBRANCH  29  31
ENDBRANCH  28  29
ENDBRANCH  27  28
ENDBRANCH  14  27
ENDBRANCH  13  14
ENDBRANCH  12  13
ENDBRANCH   2  12
TORSDOF 20
ENDMDL
MODEL       83
REMARK 921   NORMALIZED FREE ENERGY PREDICTED BY IDOCK:   -5.40 KCAL/MOL
REMARK 922        TOTAL FREE ENERGY PREDICTED BY IDOCK:  -16.40 KCAL/MOL
REMARK 923 INTER-LIGAND FREE ENERGY PREDICTED BY IDOCK:  -11.90 KCAL/MOL
REMARK 924 INTRA-LIGAND FREE ENERGY PREDICTED BY IDOCK:   -4.51 KCAL/MOL
REMARK 927      BINDING AFFINITY PREDICTED BY RF-SCORE:    0.00 PKD
ROOT
HETATM    1  O   UNL     1      -6.213  11.669  69.355  1.00  0.00    -0.079 OA 
HETATM    2  C   UNL     1      -7.309  11.414  68.876  1.00  0.00    -0.114 C  
ENDROOT
BRANCH   2   3
HETATM    3  C   UNL     1      -7.915  10.032  68.827  1.00  0.00    -0.096 C  
BRANCH   3   4
HETATM    4  C   UNL     1      -8.982   9.831  69.904  1.00  0.00    -0.254 C  
BRANCH   4   5
HETATM    5  C   UNL     1     -10.395  10.117  69.382  1.00  0.00    -0.251 C  
BRANCH   5   6
HETATM    6  C   UNL     1     -11.436   9.982  70.464  1.00  0.00    -0.407 A  
HETATM    7  C   UNL     1     -11.566   8.780  71.174  1.00  0.00    -0.344 A  
HETATM    8  C   UNL     1     -13.383   9.715  72.465  1.00  0.00    -0.314 A  
HETATM    9  C   UNL     1     -12.534   8.649  72.171  1.00  0.00    -0.453 A  
HETATM   10  C   UNL     1     -12.298  11.045  70.764  1.00  0.00    -0.496 A  
HETATM   11  C   UNL     1     -13.264  10.912  71.761  1.00  0.00    -0.513 A  
ENDBRANCH   5   6
ENDBRANCH   4   5
ENDBRANCH   3   4
ENDBRANCH   2   3
BRANCH   2  12
HETATM   12  O   UNL     1      -8.152  12.323  68.312  1.00  0.00    -0.154 OA 
BRANCH  12  13
HETATM   13  C   UNL     1      -8.178  12.370  66.872  1.00  0.00    -0.089 C  
BRANCH  13  14
HETATM   14  C   UNL     1      -9.545  12.867  66.392  1.00  0.00    -0.252 C  
BRANCH  14  15
HETATM   15  O   UNL     1     -10.329  13.262  67.537  1.00  0.00    -0.226 OA 
BRANCH  15  16
HETATM   16  C   UNL     1     -11.216  14.272  67.334  1.00  0.00    -0.316 C  
HETATM   17  O   UNL     1     -12.394  14.137  67.039  1.00  0.00    -0.396 OA 
BRANCH  16  18
HETATM   18  C   UNL     1     -10.526  15.602  67.496  1.00  0.00    -0.285 C  
BRANCH  18  19
HETATM   19  C   UNL     1     -11.069  16.380  68.691  1.00  0.00    -0.352 C  
BRANCH  19  20
HETATM   20  C   UNL     1     -10.654  15.776  70.037  1.00  0.00    -0.333 C  
BRANCH  20  21
HETATM   21  C   UNL     1     -11.852  15.698  70.949  1.00  0.00    -0.428 A  
HETATM   22  C   UNL     1     -14.013  15.329  72.691  1.00  0.00    -0.555 A  
HETATM   23  C   UNL     1     -13.084  15.240  70.463  1.00  0.00    -0.334 A  
HETATM   24  C   UNL     1     -11.721  15.989  72.313  1.00  0.00    -0.581 A  
HETATM   25  C   UNL     1     -14.159  15.058  71.333  1.00  0.00    -0.576 A  
HETATM   26  C   UNL     1     -12.797  15.804  73.181  1.00  0.00    -0.631 A  
ENDBRANCH  20  21
ENDBRANCH  19  20
ENDBRANCH  18  19
ENDBRANCH  16  18
ENDBRANCH  15  16
ENDBRANCH  14  15
BRANCH  14  27
HETATM   27  C   UNL     1     -10.311  11.757  65.662  1.00  0.00    -0.252 C  
BRANCH  27  28
HETATM   28  O   UNL     1      -9.530  11.191  64.600  1.00  0.00    -0.220 OA 
BRANCH  28  29
HETATM   29  C   UNL     1      -9.258   9.863  64.738  1.00  0.00    -0.254 C  
HETATM   30  O   UNL     1      -8.478   9.232  64.039  1.00  0.00    -0.175 OA 
BRANCH  29  31
HETATM   31  C   UNL     1     -10.051   9.287  65.884  1.00  0.00    -0.188 C  
BRANCH  31  32
HETATM   32  C   UNL     1      -9.490   7.946  66.344  1.00  0.00    -0.258 C  
BRANCH  32  33
HETATM   33  C   UNL     1     -10.545   7.057  67.016  1.00  0.00    -0.412 C  
BRANCH  33  34
HETATM   34  C   UNL     1      -9.987   6.449  68.277  1.00  0.00    -0.147 A  
HETATM   35  C   UNL     1      -8.979   5.483  70.706  1.00  0.00    -0.157 A  
HETATM   36  C   UNL     1     -10.848   5.882  69.227  1.00  0.00    -0.414 A  
HETATM   37  C   UNL     1     -10.344   5.401  70.436  1.00  0.00    -0.353 A  
HETATM   38  C   UNL     1      -8.115   6.035  69.762  1.00  0.00    -0.114 A  
HETATM   39  C   UNL     1      -8.615   6.516  68.552  1.00  0.00    -0.123 A  
ENDBRANCH  33  34
ENDBRANCH  32  33
ENDBRANCH  31  32
ENDBRANCH  29  31
ENDBRANCH  28  29
ENDBRANCH  27  28
ENDBRANCH  14  27
ENDBRANCH  13  14
ENDBRANCH  12  13
ENDBRANCH   2  12
TORSDOF 20
ENDMDL
MODEL       84
REMARK 921   NORMALIZED FREE ENERGY PREDICTED BY IDOCK:   -5.40 KCAL/MOL
REMARK 922        TOTAL FREE ENERGY PREDICTED BY IDOCK:  -16.40 KCAL/MOL
REMARK 923 INTER-LIGAND FREE ENERGY PREDICTED BY IDOCK:  -12.23 KCAL/MOL
REMARK 924 INTRA-LIGAND FREE ENERGY PREDICTED BY IDOCK:   -4.17 KCAL/MOL
REMARK 927      BINDING AFFINITY PREDICTED BY RF-SCORE:    0.00 PKD
ROOT
HETATM    1  O   UNL     1     -13.401  14.333  65.202  1.00  0.00    -0.626 OA 
HETATM    2  C   UNL     1     -12.394  13.645  65.292  1.00  0.00    -0.465 C  
ENDROOT
BRANCH   2   3
HETATM    3  C   UNL     1     -11.015  14.100  64.880  1.00  0.00    -0.405 C  
BRANCH   3   4
HETATM    4  C   UNL     1     -10.788  15.587  65.162  1.00  0.00    -0.452 C  
BRANCH   4   5
HETATM    5  C   UNL     1     -10.549  15.866  66.650  1.00  0.00    -0.305 C  
BRANCH   5   6
HETATM    6  C   UNL     1     -10.381  17.337  66.930  1.00  0.00    -0.310 A  
HETATM    7  C   UNL     1     -10.162  17.788  68.240  1.00  0.00    -0.382 A  
HETATM    8  C   UNL     1     -10.084  20.075  67.463  1.00  0.00    -0.565 A  
HETATM    9  C   UNL     1     -10.012  19.150  68.503  1.00  0.00    -0.496 A  
HETATM   10  C   UNL     1     -10.455  18.276  65.893  1.00  0.00    -0.324 A  
HETATM   11  C   UNL     1     -10.306  19.637  66.158  1.00  0.00    -0.627 A  
ENDBRANCH   5   6
ENDBRANCH   4   5
ENDBRANCH   3   4
ENDBRANCH   2   3
BRANCH   2  12
HETATM   12  O   UNL     1     -12.352  12.370  65.769  1.00  0.00    -0.644 OA 
BRANCH  12  13
HETATM   13  C   UNL     1     -11.196  12.014  66.550  1.00  0.00    -0.334 C  
BRANCH  13  14
HETATM   14  C   UNL     1     -11.369  12.500  67.992  1.00  0.00    -0.289 C  
BRANCH  14  15
HETATM   15  O   UNL     1     -10.078  12.869  68.520  1.00  0.00    -0.233 OA 
BRANCH  15  16
HETATM   16  C   UNL     1      -8.999  12.335  67.888  1.00  0.00    -0.186 C  
HETATM   17  O   UNL     1      -8.514  12.740  66.842  1.00  0.00    -0.181 OA 
BRANCH  16  18
HETATM   18  C   UNL     1      -8.496  11.138  68.654  1.00  0.00    -0.153 C  
BRANCH  18  19
HETATM   19  C   UNL     1      -8.431   9.892  67.777  1.00  0.00    -0.118 C  
BRANCH  19  20
HETATM   20  C   UNL     1      -7.934   8.653  68.532  1.00  0.00    -0.116 C  
BRANCH  20  21
HETATM   21  C   UNL     1      -8.814   7.473  68.206  1.00  0.00    -0.125 A  
HETATM   22  C   UNL     1     -10.459   5.365  67.377  1.00  0.00    -0.253 A  
HETATM   23  C   UNL     1     -10.206   7.575  68.318  1.00  0.00    -0.218 A  
HETATM   24  C   UNL     1      -8.253   6.295  67.694  1.00  0.00    -0.117 A  
HETATM   25  C   UNL     1     -11.024   6.522  67.905  1.00  0.00    -0.382 A  
HETATM   26  C   UNL     1      -9.073   5.246  67.280  1.00  0.00    -0.112 A  
ENDBRANCH  20  21
ENDBRANCH  19  20
ENDBRANCH  18  19
ENDBRANCH  16  18
ENDBRANCH  15  16
ENDBRANCH  14  15
BRANCH  14  27
HETATM   27  C   UNL     1     -11.939  11.391  68.885  1.00  0.00    -0.304 C  
BRANCH  27  28
HETATM   28  O   UNL     1     -12.371  11.908  70.152  1.00  0.00    -0.248 OA 
BRANCH  28  29
HETATM   29  C   UNL     1     -12.474  10.977  71.142  1.00  0.00    -0.397 C  
HETATM   30  O   UNL     1     -13.269  11.027  72.069  1.00  0.00    -0.499 OA 
BRANCH  29  31
HETATM   31  C   UNL     1     -11.472   9.872  70.922  1.00  0.00    -0.456 C  
BRANCH  31  32
HETATM   32  C   UNL     1     -12.048   8.506  71.276  1.00  0.00    -0.323 C  
BRANCH  32  33
HETATM   33  C   UNL     1     -11.383   7.879  72.508  1.00  0.00    -0.449 C  
BRANCH  33  34
HETATM   34  C   UNL     1     -10.303   6.916  72.085  1.00  0.00    -0.221 A  
HETATM   35  C   UNL     1      -8.301   5.206  71.130  1.00  0.00    -0.121 A  
HETATM   36  C   UNL     1      -8.955   7.294  72.156  1.00  0.00    -0.148 A  
HETATM   37  C   UNL     1      -7.959   6.441  71.681  1.00  0.00    -0.102 A  
HETATM   38  C   UNL     1      -9.638   4.819  71.067  1.00  0.00    -0.242 A  
HETATM   39  C   UNL     1     -10.636   5.669  71.543  1.00  0.00    -0.306 A  
ENDBRANCH  33  34
ENDBRANCH  32  33
ENDBRANCH  31  32
ENDBRANCH  29  31
ENDBRANCH  28  29
ENDBRANCH  27  28
ENDBRANCH  14  27
ENDBRANCH  13  14
ENDBRANCH  12  13
ENDBRANCH   2  12
TORSDOF 20
ENDMDL
MODEL       85
REMARK 921   NORMALIZED FREE ENERGY PREDICTED BY IDOCK:   -5.40 KCAL/MOL
REMARK 922        TOTAL FREE ENERGY PREDICTED BY IDOCK:  -16.40 KCAL/MOL
REMARK 923 INTER-LIGAND FREE ENERGY PREDICTED BY IDOCK:  -12.08 KCAL/MOL
REMARK 924 INTRA-LIGAND FREE ENERGY PREDICTED BY IDOCK:   -4.32 KCAL/MOL
REMARK 927      BINDING AFFINITY PREDICTED BY RF-SCORE:    0.00 PKD
ROOT
HETATM    1  O   UNL     1     -12.600  13.843  63.371  1.00  0.00    -0.853 OA 
HETATM    2  C   UNL     1     -12.113  14.394  64.348  1.00  0.00    -0.470 C  
ENDROOT
BRANCH   2   3
HETATM    3  C   UNL     1     -11.652  15.831  64.371  1.00  0.00    -0.240 C  
BRANCH   3   4
HETATM    4  C   UNL     1     -10.450  16.039  65.295  1.00  0.00    -0.384 C  
BRANCH   4   5
HETATM    5  C   UNL     1     -10.871  16.385  66.727  1.00  0.00    -0.098 C  
BRANCH   5   6
HETATM    6  C   UNL     1     -10.513  17.803  67.096  1.00  0.00    -0.338 A  
HETATM    7  C   UNL     1     -10.327  18.159  68.439  1.00  0.00    -0.371 A  
HETATM    8  C   UNL     1      -9.864  20.441  67.792  1.00  0.00    -0.494 A  
HETATM    9  C   UNL     1     -10.002  19.471  68.784  1.00  0.00    -0.547 A  
HETATM   10  C   UNL     1     -10.376  18.785  66.107  1.00  0.00    -0.494 A  
HETATM   11  C   UNL     1     -10.051  20.097  66.454  1.00  0.00    -0.569 A  
ENDBRANCH   5   6
ENDBRANCH   4   5
ENDBRANCH   3   4
ENDBRANCH   2   3
BRANCH   2  12
HETATM   12  O   UNL     1     -11.905  13.808  65.560  1.00  0.00    -0.335 OA 
BRANCH  12  13
HETATM   13  C   UNL     1     -11.969  12.369  65.599  1.00  0.00    -0.386 C  
BRANCH  13  14
HETATM   14  C   UNL     1     -10.964  11.829  66.620  1.00  0.00    -0.294 C  
BRANCH  14  15
HETATM   15  O   UNL     1     -11.669  11.033  67.595  1.00  0.00    -0.576 OA 
BRANCH  15  16
HETATM   16  C   UNL     1     -10.909  10.181  68.333  1.00  0.00    -0.242 C  
HETATM   17  O   UNL     1      -9.975   9.514  67.914  1.00  0.00    -0.157 OA 
BRANCH  16  18
HETATM   18  C   UNL     1     -11.405  10.151  69.757  1.00  0.00    -0.312 C  
BRANCH  18  19
HETATM   19  C   UNL     1     -11.280   8.762  70.371  1.00  0.00    -0.247 C  
BRANCH  19  20
HETATM   20  C   UNL     1     -11.119   8.792  71.896  1.00  0.00    -0.434 C  
BRANCH  20  21
HETATM   21  C   UNL     1      -9.671   8.582  72.258  1.00  0.00    -0.380 A  
HETATM   22  C   UNL     1      -6.999   7.975  72.831  1.00  0.00    -0.109 A  
HETATM   23  C   UNL     1      -9.325   7.991  73.480  1.00  0.00    -0.285 A  
HETATM   24  C   UNL     1      -8.661   8.885  71.335  1.00  0.00    -0.262 A  
HETATM   25  C   UNL     1      -7.992   7.691  73.764  1.00  0.00    -0.194 A  
HETATM   26  C   UNL     1      -7.330   8.581  71.621  1.00  0.00    -0.118 A  
ENDBRANCH  20  21
ENDBRANCH  19  20
ENDBRANCH  18  19
ENDBRANCH  16  18
ENDBRANCH  15  16
ENDBRANCH  14  15
BRANCH  14  27
HETATM   27  C   UNL     1     -10.266  12.972  67.367  1.00  0.00    -0.231 C  
BRANCH  27  28
HETATM   28  O   UNL     1      -8.942  13.197  66.863  1.00  0.00    -0.224 OA 
BRANCH  28  29
HETATM   29  C   UNL     1      -7.946  13.005  67.773  1.00  0.00    -0.164 C  
HETATM   30  O   UNL     1      -7.894  12.078  68.568  1.00  0.00    -0.134 OA 
BRANCH  29  31
HETATM   31  C   UNL     1      -6.913  14.097  67.649  1.00  0.00    -0.200 C  
BRANCH  31  32
HETATM   32  C   UNL     1      -7.516  15.477  67.885  1.00  0.00    -0.150 C  
BRANCH  32  33
HETATM   33  C   UNL     1      -7.165  16.479  66.777  1.00  0.00    -0.260 C  
BRANCH  33  34
HETATM   34  C   UNL     1      -6.786  17.808  67.378  1.00  0.00    -0.185 A  
HETATM   35  C   UNL     1      -6.263  20.313  68.516  1.00  0.00    -0.336 A  
HETATM   36  C   UNL     1      -6.659  17.943  68.767  1.00  0.00    -0.235 A  
HETATM   37  C   UNL     1      -6.398  19.191  69.333  1.00  0.00    -0.330 A  
HETATM   38  C   UNL     1      -6.376  20.185  67.133  1.00  0.00    -0.231 A  
HETATM   39  C   UNL     1      -6.636  18.939  66.565  1.00  0.00    -0.214 A  
ENDBRANCH  33  34
ENDBRANCH  32  33
ENDBRANCH  31  32
ENDBRANCH  29  31
ENDBRANCH  28  29
ENDBRANCH  27  28
ENDBRANCH  14  27
ENDBRANCH  13  14
ENDBRANCH  12  13
ENDBRANCH   2  12
TORSDOF 20
ENDMDL
MODEL       86
REMARK 921   NORMALIZED FREE ENERGY PREDICTED BY IDOCK:   -5.40 KCAL/MOL
REMARK 922        TOTAL FREE ENERGY PREDICTED BY IDOCK:  -16.40 KCAL/MOL
REMARK 923 INTER-LIGAND FREE ENERGY PREDICTED BY IDOCK:  -12.61 KCAL/MOL
REMARK 924 INTRA-LIGAND FREE ENERGY PREDICTED BY IDOCK:   -3.78 KCAL/MOL
REMARK 927      BINDING AFFINITY PREDICTED BY RF-SCORE:    0.00 PKD
ROOT
HETATM    1  O   UNL     1      -9.132  12.457  68.588  1.00  0.00    -0.108 OA 
HETATM    2  C   UNL     1      -9.926  11.999  67.778  1.00  0.00    -0.195 C  
ENDROOT
BRANCH   2   3
HETATM    3  C   UNL     1     -11.424  11.987  67.970  1.00  0.00    -0.392 C  
BRANCH   3   4
HETATM    4  C   UNL     1     -11.836  12.535  69.338  1.00  0.00    -0.368 C  
BRANCH   4   5
HETATM    5  C   UNL     1     -12.049  14.052  69.316  1.00  0.00    -0.380 C  
BRANCH   5   6
HETATM    6  C   UNL     1     -12.395  14.595  70.679  1.00  0.00    -0.398 A  
HETATM    7  C   UNL     1     -13.460  14.048  71.410  1.00  0.00    -0.360 A  
HETATM    8  C   UNL     1     -13.057  15.610  73.208  1.00  0.00    -0.675 A  
HETATM    9  C   UNL     1     -13.786  14.552  72.669  1.00  0.00    -0.543 A  
HETATM   10  C   UNL     1     -11.671  15.661  71.229  1.00  0.00    -0.478 A  
HETATM   11  C   UNL     1     -11.999  16.164  72.488  1.00  0.00    -0.660 A  
ENDBRANCH   5   6
ENDBRANCH   4   5
ENDBRANCH   3   4
ENDBRANCH   2   3
BRANCH   2  12
HETATM   12  O   UNL     1      -9.595  11.431  66.586  1.00  0.00    -0.185 OA 
BRANCH  12  13
HETATM   13  C   UNL     1     -10.595  11.477  65.550  1.00  0.00    -0.281 C  
BRANCH  13  14
HETATM   14  C   UNL     1      -9.958  11.910  64.227  1.00  0.00    -0.246 C  
BRANCH  14  15
HETATM   15  O   UNL     1     -10.816  12.880  63.590  1.00  0.00    -0.379 OA 
BRANCH  15  16
HETATM   16  C   UNL     1     -12.112  12.892  64.001  1.00  0.00    -0.455 C  
HETATM   17  O   UNL     1     -12.984  12.120  63.632  1.00  0.00    -0.780 OA 
BRANCH  16  18
HETATM   18  C   UNL     1     -12.333  14.028  64.968  1.00  0.00    -0.458 C  
BRANCH  18  19
HETATM   19  C   UNL     1     -11.206  15.054  64.903  1.00  0.00    -0.423 C  
BRANCH  19  20
HETATM   20  C   UNL     1     -10.458  15.206  66.233  1.00  0.00    -0.312 C  
BRANCH  20  21
HETATM   21  C   UNL     1     -10.367  16.666  66.600  1.00  0.00    -0.296 A  
HETATM   22  C   UNL     1     -10.434  19.372  67.313  1.00  0.00    -0.579 A  
HETATM   23  C   UNL     1     -10.514  17.653  65.617  1.00  0.00    -0.150 A  
HETATM   24  C   UNL     1     -10.232  17.049  67.940  1.00  0.00    -0.317 A  
HETATM   25  C   UNL     1     -10.546  19.002  65.976  1.00  0.00    -0.499 A  
HETATM   26  C   UNL     1     -10.266  18.397  68.295  1.00  0.00    -0.412 A  
ENDBRANCH  20  21
ENDBRANCH  19  20
ENDBRANCH  18  19
ENDBRANCH  16  18
ENDBRANCH  15  16
ENDBRANCH  14  15
BRANCH  14  27
HETATM   27  C   UNL     1      -9.807  10.721  63.271  1.00  0.00    -0.346 C  
BRANCH  27  28
HETATM   28  O   UNL     1      -8.428  10.461  62.971  1.00  0.00    -0.162 OA 
BRANCH  28  29
HETATM   29  C   UNL     1      -7.734   9.845  63.968  1.00  0.00    -0.141 C  
HETATM   30  O   UNL     1      -6.814  10.350  64.595  1.00  0.00    -0.105 OA 
BRANCH  29  31
HETATM   31  C   UNL     1      -8.271   8.454  64.191  1.00  0.00    -0.122 C  
BRANCH  31  32
HETATM   32  C   UNL     1      -8.084   7.999  65.635  1.00  0.00    -0.121 C  
BRANCH  32  33
HETATM   33  C   UNL     1      -9.413   7.720  66.349  1.00  0.00    -0.245 C  
BRANCH  33  34
HETATM   34  C   UNL     1      -9.363   8.235  67.764  1.00  0.00    -0.153 A  
HETATM   35  C   UNL     1      -9.302   9.363  70.327  1.00  0.00    -0.294 A  
HETATM   36  C   UNL     1     -10.543   8.368  68.508  1.00  0.00    -0.149 A  
HETATM   37  C   UNL     1     -10.511   8.930  69.785  1.00  0.00    -0.217 A  
HETATM   38  C   UNL     1      -8.122   9.223  69.598  1.00  0.00    -0.116 A  
HETATM   39  C   UNL     1      -8.151   8.661  68.322  1.00  0.00    -0.118 A  
ENDBRANCH  33  34
ENDBRANCH  32  33
ENDBRANCH  31  32
ENDBRANCH  29  31
ENDBRANCH  28  29
ENDBRANCH  27  28
ENDBRANCH  14  27
ENDBRANCH  13  14
ENDBRANCH  12  13
ENDBRANCH   2  12
TORSDOF 20
ENDMDL
MODEL       87
REMARK 921   NORMALIZED FREE ENERGY PREDICTED BY IDOCK:   -5.40 KCAL/MOL
REMARK 922        TOTAL FREE ENERGY PREDICTED BY IDOCK:  -16.39 KCAL/MOL
REMARK 923 INTER-LIGAND FREE ENERGY PREDICTED BY IDOCK:  -11.63 KCAL/MOL
REMARK 924 INTRA-LIGAND FREE ENERGY PREDICTED BY IDOCK:   -4.76 KCAL/MOL
REMARK 927      BINDING AFFINITY PREDICTED BY RF-SCORE:    0.00 PKD
ROOT
HETATM    1  O   UNL     1     -11.978  13.085  63.644  1.00  0.00    -0.481 OA 
HETATM    2  C   UNL     1     -11.783  13.786  64.627  1.00  0.00    -0.395 C  
ENDROOT
BRANCH   2   3
HETATM    3  C   UNL     1     -11.677  15.291  64.590  1.00  0.00    -0.308 C  
BRANCH   3   4
HETATM    4  C   UNL     1     -10.445  15.803  65.339  1.00  0.00    -0.438 C  
BRANCH   4   5
HETATM    5  C   UNL     1     -10.769  16.209  66.781  1.00  0.00    -0.235 C  
BRANCH   5   6
HETATM    6  C   UNL     1     -10.500  17.671  67.031  1.00  0.00    -0.305 A  
HETATM    7  C   UNL     1     -10.313  18.143  68.339  1.00  0.00    -0.371 A  
HETATM    8  C   UNL     1     -10.017  20.392  67.508  1.00  0.00    -0.537 A  
HETATM    9  C   UNL     1     -10.071  19.497  68.574  1.00  0.00    -0.543 A  
HETATM   10  C   UNL     1     -10.448  18.581  65.967  1.00  0.00    -0.433 A  
HETATM   11  C   UNL     1     -10.205  19.934  66.205  1.00  0.00    -0.611 A  
ENDBRANCH   5   6
ENDBRANCH   4   5
ENDBRANCH   3   4
ENDBRANCH   2   3
BRANCH   2  12
HETATM   12  O   UNL     1     -11.631  13.329  65.901  1.00  0.00    -0.323 OA 
BRANCH  12  13
HETATM   13  C   UNL     1     -11.313  11.932  66.050  1.00  0.00    -0.316 C  
BRANCH  13  14
HETATM   14  C   UNL     1      -9.894  11.776  66.606  1.00  0.00    -0.202 C  
BRANCH  14  15
HETATM   15  O   UNL     1      -9.781  10.489  67.247  1.00  0.00    -0.164 OA 
BRANCH  15  16
HETATM   16  C   UNL     1      -8.540   9.934  67.259  1.00  0.00    -0.125 C  
HETATM   17  O   UNL     1      -7.628  10.210  66.494  1.00  0.00    -0.103 OA 
BRANCH  16  18
HETATM   18  C   UNL     1      -8.453   8.895  68.348  1.00  0.00    -0.129 C  
BRANCH  18  19
HETATM   19  C   UNL     1      -9.832   8.403  68.773  1.00  0.00    -0.180 C  
BRANCH  19  20
HETATM   20  C   UNL     1      -9.949   8.176  70.284  1.00  0.00    -0.189 C  
BRANCH  20  21
HETATM   21  C   UNL     1     -11.301   8.636  70.764  1.00  0.00    -0.299 A  
HETATM   22  C   UNL     1     -13.718   9.514  71.872  1.00  0.00    -0.410 A  
HETATM   23  C   UNL     1     -12.224   7.713  71.274  1.00  0.00    -0.339 A  
HETATM   24  C   UNL     1     -11.612  10.002  70.796  1.00  0.00    -0.444 A  
HETATM   25  C   UNL     1     -13.428   8.153  71.825  1.00  0.00    -0.381 A  
HETATM   26  C   UNL     1     -12.816  10.439  71.349  1.00  0.00    -0.556 A  
ENDBRANCH  20  21
ENDBRANCH  19  20
ENDBRANCH  18  19
ENDBRANCH  16  18
ENDBRANCH  15  16
ENDBRANCH  14  15
BRANCH  14  27
HETATM   27  C   UNL     1      -9.592  12.849  67.658  1.00  0.00    -0.196 C  
BRANCH  27  28
HETATM   28  O   UNL     1      -8.415  13.599  67.321  1.00  0.00    -0.188 OA 
BRANCH  28  29
HETATM   29  C   UNL     1      -7.403  13.509  68.229  1.00  0.00    -0.116 C  
HETATM   30  O   UNL     1      -7.256  12.592  69.024  1.00  0.00    -0.081 OA 
BRANCH  29  31
HETATM   31  C   UNL     1      -6.485  14.699  68.102  1.00  0.00    -0.142 C  
BRANCH  31  32
HETATM   32  C   UNL     1      -7.264  16.006  68.003  1.00  0.00    -0.141 C  
BRANCH  32  33
HETATM   33  C   UNL     1      -7.107  16.691  66.639  1.00  0.00    -0.257 C  
BRANCH  33  34
HETATM   34  C   UNL     1      -6.769  18.148  66.824  1.00  0.00    -0.221 A  
HETATM   35  C   UNL     1      -6.323  20.890  67.185  1.00  0.00    -0.371 A  
HETATM   36  C   UNL     1      -6.612  18.677  68.112  1.00  0.00    -0.231 A  
HETATM   37  C   UNL     1      -6.389  20.043  68.291  1.00  0.00    -0.306 A  
HETATM   38  C   UNL     1      -6.466  20.369  65.900  1.00  0.00    -0.255 A  
HETATM   39  C   UNL     1      -6.688  19.005  65.719  1.00  0.00    -0.304 A  
ENDBRANCH  33  34
ENDBRANCH  32  33
ENDBRANCH  31  32
ENDBRANCH  29  31
ENDBRANCH  28  29
ENDBRANCH  27  28
ENDBRANCH  14  27
ENDBRANCH  13  14
ENDBRANCH  12  13
ENDBRANCH   2  12
TORSDOF 20
ENDMDL
MODEL       88
REMARK 921   NORMALIZED FREE ENERGY PREDICTED BY IDOCK:   -5.40 KCAL/MOL
REMARK 922        TOTAL FREE ENERGY PREDICTED BY IDOCK:  -16.39 KCAL/MOL
REMARK 923 INTER-LIGAND FREE ENERGY PREDICTED BY IDOCK:  -11.12 KCAL/MOL
REMARK 924 INTRA-LIGAND FREE ENERGY PREDICTED BY IDOCK:   -5.27 KCAL/MOL
REMARK 927      BINDING AFFINITY PREDICTED BY RF-SCORE:    0.00 PKD
ROOT
HETATM    1  O   UNL     1     -13.274  15.346  70.884  1.00  0.00    -0.473 OA 
HETATM    2  C   UNL     1     -12.402  14.800  70.223  1.00  0.00    -0.345 C  
ENDROOT
BRANCH   2   3
HETATM    3  C   UNL     1     -11.624  15.476  69.119  1.00  0.00    -0.374 C  
BRANCH   3   4
HETATM    4  C   UNL     1     -11.230  14.500  68.009  1.00  0.00    -0.308 C  
BRANCH   4   5
HETATM    5  C   UNL     1     -12.388  14.216  67.046  1.00  0.00    -0.253 C  
BRANCH   5   6
HETATM    6  C   UNL     1     -11.922  13.527  65.788  1.00  0.00    -0.439 A  
HETATM    7  C   UNL     1     -12.845  12.879  64.954  1.00  0.00    -0.370 A  
HETATM    8  C   UNL     1     -11.064  12.228  63.456  1.00  0.00    -0.533 A  
HETATM    9  C   UNL     1     -12.416  12.235  63.793  1.00  0.00    -0.619 A  
HETATM   10  C   UNL     1     -10.565  13.510  65.443  1.00  0.00    -0.313 A  
HETATM   11  C   UNL     1     -10.139  12.866  64.282  1.00  0.00    -0.251 A  
ENDBRANCH   5   6
ENDBRANCH   4   5
ENDBRANCH   3   4
ENDBRANCH   2   3
BRANCH   2  12
HETATM   12  O   UNL     1     -11.996  13.509  70.371  1.00  0.00    -0.329 OA 
BRANCH  12  13
HETATM   13  C   UNL     1     -12.897  12.625  71.064  1.00  0.00    -0.166 C  
BRANCH  13  14
HETATM   14  C   UNL     1     -12.646  11.178  70.631  1.00  0.00    -0.318 C  
BRANCH  14  15
HETATM   15  O   UNL     1     -12.412  10.372  71.804  1.00  0.00    -0.390 OA 
BRANCH  15  16
HETATM   16  C   UNL     1     -13.047   9.170  71.840  1.00  0.00    -0.411 C  
HETATM   17  O   UNL     1     -14.223   8.977  71.571  1.00  0.00    -0.312 OA 
BRANCH  16  18
HETATM   18  C   UNL     1     -12.090   8.097  72.293  1.00  0.00    -0.419 C  
BRANCH  18  19
HETATM   19  C   UNL     1     -12.418   6.745  71.669  1.00  0.00    -0.398 C  
BRANCH  19  20
HETATM   20  C   UNL     1     -11.785   6.553  70.286  1.00  0.00    -0.430 C  
BRANCH  20  21
HETATM   21  C   UNL     1     -10.618   5.605  70.388  1.00  0.00    -0.364 A  
HETATM   22  C   UNL     1      -8.608   3.668  70.595  1.00  0.00    -0.112 A  
HETATM   23  C   UNL     1     -10.092   5.261  71.640  1.00  0.00    -0.259 A  
HETATM   24  C   UNL     1     -10.111   4.983  69.239  1.00  0.00    -0.270 A  
HETATM   25  C   UNL     1      -9.089   4.296  71.741  1.00  0.00    -0.166 A  
HETATM   26  C   UNL     1      -9.110   4.017  69.343  1.00  0.00    -0.191 A  
ENDBRANCH  20  21
ENDBRANCH  19  20
ENDBRANCH  18  19
ENDBRANCH  16  18
ENDBRANCH  15  16
ENDBRANCH  14  15
BRANCH  14  27
HETATM   27  C   UNL     1     -11.403  11.076  69.739  1.00  0.00    -0.292 C  
BRANCH  27  28
HETATM   28  O   UNL     1     -11.754  10.770  68.382  1.00  0.00    -0.428 OA 
BRANCH  28  29
HETATM   29  C   UNL     1     -10.694  10.627  67.537  1.00  0.00    -0.272 C  
HETATM   30  O   UNL     1     -10.756  10.153  66.412  1.00  0.00    -0.125 OA 
BRANCH  29  31
HETATM   31  C   UNL     1      -9.438  11.146  68.189  1.00  0.00    -0.180 C  
BRANCH  31  32
HETATM   32  C   UNL     1      -8.310  10.121  68.142  1.00  0.00    -0.117 C  
BRANCH  32  33
HETATM   33  C   UNL     1      -8.787   8.695  68.449  1.00  0.00    -0.142 C  
BRANCH  33  34
HETATM   34  C   UNL     1      -8.261   8.247  69.788  1.00  0.00    -0.121 A  
HETATM   35  C   UNL     1      -7.177   7.567  72.280  1.00  0.00    -0.069 A  
HETATM   36  C   UNL     1      -8.851   8.715  70.970  1.00  0.00    -0.235 A  
HETATM   37  C   UNL     1      -8.311   8.375  72.210  1.00  0.00    -0.218 A  
HETATM   38  C   UNL     1      -6.591   7.087  71.109  1.00  0.00    -0.045 A  
HETATM   39  C   UNL     1      -7.130   7.425  69.868  1.00  0.00    -0.065 A  
ENDBRANCH  33  34
ENDBRANCH  32  33
ENDBRANCH  31  32
ENDBRANCH  29  31
ENDBRANCH  28  29
ENDBRANCH  27  28
ENDBRANCH  14  27
ENDBRANCH  13  14
ENDBRANCH  12  13
ENDBRANCH   2  12
TORSDOF 20
ENDMDL
MODEL       89
REMARK 921   NORMALIZED FREE ENERGY PREDICTED BY IDOCK:   -5.39 KCAL/MOL
REMARK 922        TOTAL FREE ENERGY PREDICTED BY IDOCK:  -16.38 KCAL/MOL
REMARK 923 INTER-LIGAND FREE ENERGY PREDICTED BY IDOCK:  -11.97 KCAL/MOL
REMARK 924 INTRA-LIGAND FREE ENERGY PREDICTED BY IDOCK:   -4.41 KCAL/MOL
REMARK 927      BINDING AFFINITY PREDICTED BY RF-SCORE:    0.00 PKD
ROOT
HETATM    1  O   UNL     1     -12.307   6.673  71.870  1.00  0.00    -0.342 OA 
HETATM    2  C   UNL     1     -11.572   7.558  72.285  1.00  0.00    -0.310 C  
ENDROOT
BRANCH   2   3
HETATM    3  C   UNL     1     -10.112   7.362  72.619  1.00  0.00    -0.255 C  
BRANCH   3   4
HETATM    4  C   UNL     1      -9.203   7.627  71.417  1.00  0.00    -0.152 C  
BRANCH   4   5
HETATM    5  C   UNL     1      -9.275   6.505  70.376  1.00  0.00    -0.156 C  
BRANCH   5   6
HETATM    6  C   UNL     1      -9.383   7.042  68.971  1.00  0.00    -0.136 A  
HETATM    7  C   UNL     1      -8.226   7.350  68.241  1.00  0.00    -0.125 A  
HETATM    8  C   UNL     1      -9.574   8.058  66.365  1.00  0.00    -0.267 A  
HETATM    9  C   UNL     1      -8.323   7.853  66.943  1.00  0.00    -0.116 A  
HETATM   10  C   UNL     1     -10.635   7.256  68.382  1.00  0.00    -0.209 A  
HETATM   11  C   UNL     1     -10.730   7.759  67.084  1.00  0.00    -0.337 A  
ENDBRANCH   5   6
ENDBRANCH   4   5
ENDBRANCH   3   4
ENDBRANCH   2   3
BRANCH   2  12
HETATM   12  O   UNL     1     -11.943   8.848  72.512  1.00  0.00    -0.305 OA 
BRANCH  12  13
HETATM   13  C   UNL     1     -13.176   9.280  71.904  1.00  0.00    -0.423 C  
BRANCH  13  14
HETATM   14  C   UNL     1     -12.949  10.584  71.134  1.00  0.00    -0.411 C  
BRANCH  14  15
HETATM   15  O   UNL     1     -11.579  10.630  70.684  1.00  0.00    -0.326 OA 
BRANCH  15  16
HETATM   16  C   UNL     1     -11.394  10.753  69.342  1.00  0.00    -0.285 C  
HETATM   17  O   UNL     1     -12.277  10.741  68.498  1.00  0.00    -0.470 OA 
BRANCH  16  18
HETATM   18  C   UNL     1      -9.923  10.877  69.036  1.00  0.00    -0.206 C  
BRANCH  18  19
HETATM   19  C   UNL     1      -9.637  12.044  68.097  1.00  0.00    -0.200 C  
BRANCH  19  20
HETATM   20  C   UNL     1      -9.179  11.594  66.704  1.00  0.00    -0.196 C  
BRANCH  20  21
HETATM   21  C   UNL     1     -10.226  11.961  65.683  1.00  0.00    -0.280 A  
HETATM   22  C   UNL     1     -12.287  12.446  63.851  1.00  0.00    -0.602 A  
HETATM   23  C   UNL     1     -10.138  11.473  64.373  1.00  0.00    -0.328 A  
HETATM   24  C   UNL     1     -11.347  12.712  66.059  1.00  0.00    -0.369 A  
HETATM   25  C   UNL     1     -11.167  11.717  63.461  1.00  0.00    -0.494 A  
HETATM   26  C   UNL     1     -12.374  12.953  65.147  1.00  0.00    -0.547 A  
ENDBRANCH  20  21
ENDBRANCH  19  20
ENDBRANCH  18  19
ENDBRANCH  16  18
ENDBRANCH  15  16
ENDBRANCH  14  15
BRANCH  14  27
HETATM   27  C   UNL     1     -13.186  11.804  72.031  1.00  0.00    -0.355 C  
BRANCH  27  28
HETATM   28  O   UNL     1     -13.297  13.009  71.261  1.00  0.00    -0.187 OA 
BRANCH  28  29
HETATM   29  C   UNL     1     -13.158  14.160  71.978  1.00  0.00    -0.387 C  
HETATM   30  O   UNL     1     -14.031  14.659  72.673  1.00  0.00    -0.472 OA 
BRANCH  29  31
HETATM   31  C   UNL     1     -11.771  14.721  71.797  1.00  0.00    -0.315 C  
BRANCH  31  32
HETATM   32  C   UNL     1     -11.466  15.016  70.332  1.00  0.00    -0.321 C  
BRANCH  32  33
HETATM   33  C   UNL     1     -10.943  16.441  70.107  1.00  0.00    -0.291 C  
BRANCH  33  34
HETATM   34  C   UNL     1     -10.423  16.589  68.701  1.00  0.00    -0.304 A  
HETATM   35  C   UNL     1      -9.622  16.807  66.025  1.00  0.00    -0.265 A  
HETATM   36  C   UNL     1     -10.644  17.776  67.989  1.00  0.00    -0.372 A  
HETATM   37  C   UNL     1     -10.244  17.883  66.657  1.00  0.00    -0.371 A  
HETATM   38  C   UNL     1      -9.389  15.627  66.730  1.00  0.00    -0.268 A  
HETATM   39  C   UNL     1      -9.786  15.518  68.062  1.00  0.00    -0.212 A  
ENDBRANCH  33  34
ENDBRANCH  32  33
ENDBRANCH  31  32
ENDBRANCH  29  31
ENDBRANCH  28  29
ENDBRANCH  27  28
ENDBRANCH  14  27
ENDBRANCH  13  14
ENDBRANCH  12  13
ENDBRANCH   2  12
TORSDOF 20
ENDMDL
MODEL       90
REMARK 921   NORMALIZED FREE ENERGY PREDICTED BY IDOCK:   -5.39 KCAL/MOL
REMARK 922        TOTAL FREE ENERGY PREDICTED BY IDOCK:  -16.37 KCAL/MOL
REMARK 923 INTER-LIGAND FREE ENERGY PREDICTED BY IDOCK:  -12.91 KCAL/MOL
REMARK 924 INTRA-LIGAND FREE ENERGY PREDICTED BY IDOCK:   -3.46 KCAL/MOL
REMARK 927      BINDING AFFINITY PREDICTED BY RF-SCORE:    0.00 PKD
ROOT
HETATM    1  O   UNL     1      -5.681  13.417  67.200  1.00  0.00    -0.302 OA 
HETATM    2  C   UNL     1      -6.689  13.509  67.885  1.00  0.00    -0.150 C  
ENDROOT
BRANCH   2   3
HETATM    3  C   UNL     1      -7.147  14.782  68.556  1.00  0.00    -0.110 C  
BRANCH   3   4
HETATM    4  C   UNL     1      -6.736  16.029  67.770  1.00  0.00    -0.175 C  
BRANCH   4   5
HETATM    5  C   UNL     1      -7.780  16.424  66.719  1.00  0.00    -0.298 C  
BRANCH   5   6
HETATM    6  C   UNL     1      -8.650  17.564  67.185  1.00  0.00    -0.238 A  
HETATM    7  C   UNL     1      -8.264  18.344  68.285  1.00  0.00    -0.317 A  
HETATM    8  C   UNL     1     -10.269  19.676  68.070  1.00  0.00    -0.579 A  
HETATM    9  C   UNL     1      -9.069  19.396  68.722  1.00  0.00    -0.411 A  
HETATM   10  C   UNL     1      -9.859  17.851  66.540  1.00  0.00    -0.343 A  
HETATM   11  C   UNL     1     -10.663  18.903  66.979  1.00  0.00    -0.477 A  
ENDBRANCH   5   6
ENDBRANCH   4   5
ENDBRANCH   3   4
ENDBRANCH   2   3
BRANCH   2  12
HETATM   12  O   UNL     1      -7.553  12.492  68.156  1.00  0.00    -0.107 OA 
BRANCH  12  13
HETATM   13  C   UNL     1      -7.971  11.688  67.036  1.00  0.00    -0.164 C  
BRANCH  13  14
HETATM   14  C   UNL     1      -9.489  11.789  66.858  1.00  0.00    -0.193 C  
BRANCH  14  15
HETATM   15  O   UNL     1     -10.035  10.459  66.731  1.00  0.00    -0.190 OA 
BRANCH  15  16
HETATM   16  C   UNL     1     -10.878  10.063  67.722  1.00  0.00    -0.282 C  
HETATM   17  O   UNL     1     -11.786  10.730  68.194  1.00  0.00    -0.533 OA 
BRANCH  16  18
HETATM   18  C   UNL     1     -10.510   8.675  68.184  1.00  0.00    -0.241 C  
BRANCH  18  19
HETATM   19  C   UNL     1      -9.202   8.667  68.968  1.00  0.00    -0.145 C  
BRANCH  19  20
HETATM   20  C   UNL     1      -9.327   9.323  70.348  1.00  0.00    -0.295 C  
BRANCH  20  21
HETATM   21  C   UNL     1     -10.631   8.917  70.987  1.00  0.00    -0.315 A  
HETATM   22  C   UNL     1     -12.946   8.191  72.384  1.00  0.00    -0.164 A  
HETATM   23  C   UNL     1     -10.888   7.572  71.282  1.00  0.00    -0.253 A  
HETATM   24  C   UNL     1     -11.557   9.892  71.381  1.00  0.00    -0.428 A  
HETATM   25  C   UNL     1     -12.043   7.213  71.977  1.00  0.00    -0.329 A  
HETATM   26  C   UNL     1     -12.709   9.530  72.078  1.00  0.00    -0.479 A  
ENDBRANCH  20  21
ENDBRANCH  19  20
ENDBRANCH  18  19
ENDBRANCH  16  18
ENDBRANCH  15  16
ENDBRANCH  14  15
BRANCH  14  27
HETATM   27  C   UNL     1      -9.846  12.563  65.583  1.00  0.00    -0.216 C  
BRANCH  27  28
HETATM   28  O   UNL     1     -10.005  13.964  65.847  1.00  0.00    -0.299 OA 
BRANCH  28  29
HETATM   29  C   UNL     1     -11.243  14.460  65.566  1.00  0.00    -0.330 C  
HETATM   30  O   UNL     1     -11.559  14.995  64.514  1.00  0.00    -0.391 OA 
BRANCH  29  31
HETATM   31  C   UNL     1     -12.166  14.245  66.739  1.00  0.00    -0.384 C  
BRANCH  31  32
HETATM   32  C   UNL     1     -11.655  14.939  67.997  1.00  0.00    -0.363 C  
BRANCH  32  33
HETATM   33  C   UNL     1     -11.321  13.956  69.126  1.00  0.00    -0.331 C  
BRANCH  33  34
HETATM   34  C   UNL     1     -12.235  14.183  70.303  1.00  0.00    -0.416 A  
HETATM   35  C   UNL     1     -13.783  14.629  72.594  1.00  0.00    -0.545 A  
HETATM   36  C   UNL     1     -12.605  15.485  70.666  1.00  0.00    -0.493 A  
HETATM   37  C   UNL     1     -13.376  15.706  71.807  1.00  0.00    -0.541 A  
HETATM   38  C   UNL     1     -13.430  13.330  72.232  1.00  0.00    -0.679 A  
HETATM   39  C   UNL     1     -12.660  13.107  71.091  1.00  0.00    -0.403 A  
ENDBRANCH  33  34
ENDBRANCH  32  33
ENDBRANCH  31  32
ENDBRANCH  29  31
ENDBRANCH  28  29
ENDBRANCH  27  28
ENDBRANCH  14  27
ENDBRANCH  13  14
ENDBRANCH  12  13
ENDBRANCH   2  12
TORSDOF 20
ENDMDL
MODEL       91
REMARK 921   NORMALIZED FREE ENERGY PREDICTED BY IDOCK:   -5.39 KCAL/MOL
REMARK 922        TOTAL FREE ENERGY PREDICTED BY IDOCK:  -16.36 KCAL/MOL
REMARK 923 INTER-LIGAND FREE ENERGY PREDICTED BY IDOCK:  -11.76 KCAL/MOL
REMARK 924 INTRA-LIGAND FREE ENERGY PREDICTED BY IDOCK:   -4.61 KCAL/MOL
REMARK 927      BINDING AFFINITY PREDICTED BY RF-SCORE:    0.00 PKD
ROOT
HETATM    1  O   UNL     1     -11.669  12.849  64.087  1.00  0.00    -0.353 OA 
HETATM    2  C   UNL     1     -11.912  13.116  65.256  1.00  0.00    -0.398 C  
ENDROOT
BRANCH   2   3
HETATM    3  C   UNL     1     -11.882  14.511  65.832  1.00  0.00    -0.334 C  
BRANCH   3   4
HETATM    4  C   UNL     1     -10.516  15.178  65.662  1.00  0.00    -0.378 C  
BRANCH   4   5
HETATM    5  C   UNL     1     -10.634  16.631  65.189  1.00  0.00    -0.181 C  
BRANCH   5   6
HETATM    6  C   UNL     1     -10.492  17.610  66.327  1.00  0.00    -0.292 A  
HETATM    7  C   UNL     1     -10.549  18.990  66.085  1.00  0.00    -0.495 A  
HETATM    8  C   UNL     1     -10.210  19.438  68.435  1.00  0.00    -0.516 A  
HETATM    9  C   UNL     1     -10.411  19.898  67.135  1.00  0.00    -0.566 A  
HETATM   10  C   UNL     1     -10.286  17.158  67.637  1.00  0.00    -0.329 A  
HETATM   11  C   UNL     1     -10.148  18.068  68.685  1.00  0.00    -0.401 A  
ENDBRANCH   5   6
ENDBRANCH   4   5
ENDBRANCH   3   4
ENDBRANCH   2   3
BRANCH   2  12
HETATM   12  O   UNL     1     -12.243  12.210  66.217  1.00  0.00    -0.604 OA 
BRANCH  12  13
HETATM   13  C   UNL     1     -11.838  12.525  67.564  1.00  0.00    -0.323 C  
BRANCH  13  14
HETATM   14  C   UNL     1     -11.135  11.318  68.192  1.00  0.00    -0.259 C  
BRANCH  14  15
HETATM   15  O   UNL     1     -11.172  11.451  69.628  1.00  0.00    -0.258 OA 
BRANCH  15  16
HETATM   16  C   UNL     1     -11.913  10.525  70.295  1.00  0.00    -0.325 C  
HETATM   17  O   UNL     1     -13.133  10.493  70.349  1.00  0.00    -0.279 OA 
BRANCH  16  18
HETATM   18  C   UNL     1     -11.003   9.546  70.993  1.00  0.00    -0.424 C  
BRANCH  18  19
HETATM   19  C   UNL     1     -10.520   8.449  70.050  1.00  0.00    -0.224 C  
BRANCH  19  20
HETATM   20  C   UNL     1     -11.402   7.196  70.087  1.00  0.00    -0.277 C  
BRANCH  20  21
HETATM   21  C   UNL     1     -10.910   6.198  69.070  1.00  0.00    -0.416 A  
HETATM   22  C   UNL     1      -9.794   4.472  67.170  1.00  0.00    -0.225 A  
HETATM   23  C   UNL     1     -11.118   6.421  67.702  1.00  0.00    -0.388 A  
HETATM   24  C   UNL     1     -10.155   5.090  69.476  1.00  0.00    -0.301 A  
HETATM   25  C   UNL     1     -10.561   5.557  66.757  1.00  0.00    -0.360 A  
HETATM   26  C   UNL     1      -9.599   4.231  68.529  1.00  0.00    -0.202 A  
ENDBRANCH  20  21
ENDBRANCH  19  20
ENDBRANCH  18  19
ENDBRANCH  16  18
ENDBRANCH  15  16
ENDBRANCH  14  15
BRANCH  14  27
HETATM   27  C   UNL     1      -9.663  11.253  67.768  1.00  0.00    -0.173 C  
BRANCH  27  28
HETATM   28  O   UNL     1      -9.169  12.546  67.388  1.00  0.00    -0.174 OA 
BRANCH  28  29
HETATM   29  C   UNL     1      -7.973  12.885  67.945  1.00  0.00    -0.156 C  
HETATM   30  O   UNL     1      -7.008  12.141  68.038  1.00  0.00    -0.076 OA 
BRANCH  29  31
HETATM   31  C   UNL     1      -8.010  14.315  68.423  1.00  0.00    -0.143 C  
BRANCH  31  32
HETATM   32  C   UNL     1      -7.149  15.225  67.555  1.00  0.00    -0.224 C  
BRANCH  32  33
HETATM   33  C   UNL     1      -6.439  16.321  68.360  1.00  0.00    -0.130 C  
BRANCH  33  34
HETATM   34  C   UNL     1      -6.546  17.644  67.646  1.00  0.00    -0.185 A  
HETATM   35  C   UNL     1      -6.926  20.098  66.350  1.00  0.00    -0.273 A  
HETATM   36  C   UNL     1      -6.515  18.842  68.373  1.00  0.00    -0.248 A  
HETATM   37  C   UNL     1      -6.704  20.064  67.726  1.00  0.00    -0.286 A  
HETATM   38  C   UNL     1      -6.945  18.912  65.618  1.00  0.00    -0.267 A  
HETATM   39  C   UNL     1      -6.755  17.690  66.262  1.00  0.00    -0.317 A  
ENDBRANCH  33  34
ENDBRANCH  32  33
ENDBRANCH  31  32
ENDBRANCH  29  31
ENDBRANCH  28  29
ENDBRANCH  27  28
ENDBRANCH  14  27
ENDBRANCH  13  14
ENDBRANCH  12  13
ENDBRANCH   2  12
TORSDOF 20
ENDMDL
MODEL       92
REMARK 921   NORMALIZED FREE ENERGY PREDICTED BY IDOCK:   -5.37 KCAL/MOL
REMARK 922        TOTAL FREE ENERGY PREDICTED BY IDOCK:  -16.33 KCAL/MOL
REMARK 923 INTER-LIGAND FREE ENERGY PREDICTED BY IDOCK:  -11.77 KCAL/MOL
REMARK 924 INTRA-LIGAND FREE ENERGY PREDICTED BY IDOCK:   -4.55 KCAL/MOL
REMARK 927      BINDING AFFINITY PREDICTED BY RF-SCORE:    0.00 PKD
ROOT
HETATM    1  O   UNL     1      -7.299  10.257  66.746  1.00  0.00    -0.100 OA 
HETATM    2  C   UNL     1      -8.380  10.068  67.286  1.00  0.00    -0.121 C  
ENDROOT
BRANCH   2   3
HETATM    3  C   UNL     1      -8.715   8.849  68.111  1.00  0.00    -0.134 C  
BRANCH   3   4
HETATM    4  C   UNL     1      -8.298   9.008  69.574  1.00  0.00    -0.117 C  
BRANCH   4   5
HETATM    5  C   UNL     1      -7.444   7.834  70.066  1.00  0.00    -0.080 C  
BRANCH   5   6
HETATM    6  C   UNL     1      -7.748   7.473  71.498  1.00  0.00    -0.085 A  
HETATM    7  C   UNL     1      -7.239   6.290  72.052  1.00  0.00    -0.091 A  
HETATM    8  C   UNL     1      -8.323   6.785  74.155  1.00  0.00    -0.154 A  
HETATM    9  C   UNL     1      -7.524   5.950  73.375  1.00  0.00    -0.094 A  
HETATM   10  C   UNL     1      -8.553   8.303  72.288  1.00  0.00    -0.257 A  
HETATM   11  C   UNL     1      -8.837   7.961  73.611  1.00  0.00    -0.336 A  
ENDBRANCH   5   6
ENDBRANCH   4   5
ENDBRANCH   3   4
ENDBRANCH   2   3
BRANCH   2  12
HETATM   12  O   UNL     1      -9.446  10.913  67.231  1.00  0.00    -0.158 OA 
BRANCH  12  13
HETATM   13  C   UNL     1      -9.499  11.948  68.232  1.00  0.00    -0.197 C  
BRANCH  13  14
HETATM   14  C   UNL     1     -10.955  12.230  68.614  1.00  0.00    -0.239 C  
BRANCH  14  15
HETATM   15  O   UNL     1     -11.394  11.229  69.557  1.00  0.00    -0.252 OA 
BRANCH  15  16
HETATM   16  C   UNL     1     -12.194  11.668  70.565  1.00  0.00    -0.361 C  
HETATM   17  O   UNL     1     -12.389  12.837  70.862  1.00  0.00    -0.372 OA 
BRANCH  16  18
HETATM   18  C   UNL     1     -12.792  10.492  71.294  1.00  0.00    -0.532 C  
BRANCH  18  19
HETATM   19  C   UNL     1     -11.885   9.268  71.235  1.00  0.00    -0.415 C  
BRANCH  19  20
HETATM   20  C   UNL     1     -12.502   8.032  71.899  1.00  0.00    -0.364 C  
BRANCH  20  21
HETATM   21  C   UNL     1     -11.733   6.800  71.495  1.00  0.00    -0.361 A  
HETATM   22  C   UNL     1     -10.105   4.630  70.804  1.00  0.00    -0.264 A  
HETATM   23  C   UNL     1     -11.260   6.659  70.184  1.00  0.00    -0.416 A  
HETATM   24  C   UNL     1     -11.399   5.831  72.451  1.00  0.00    -0.348 A  
HETATM   25  C   UNL     1     -10.450   5.575  69.842  1.00  0.00    -0.386 A  
HETATM   26  C   UNL     1     -10.587   4.751  72.106  1.00  0.00    -0.204 A  
ENDBRANCH  20  21
ENDBRANCH  19  20
ENDBRANCH  18  19
ENDBRANCH  16  18
ENDBRANCH  15  16
ENDBRANCH  14  15
BRANCH  14  27
HETATM   27  C   UNL     1     -11.873  12.150  67.389  1.00  0.00    -0.227 C  
BRANCH  27  28
HETATM   28  O   UNL     1     -12.324  13.451  66.985  1.00  0.00    -0.311 OA 
BRANCH  28  29
HETATM   29  C   UNL     1     -12.374  13.644  65.637  1.00  0.00    -0.478 C  
HETATM   30  O   UNL     1     -13.068  13.001  64.864  1.00  0.00    -0.745 OA 
BRANCH  29  31
HETATM   31  C   UNL     1     -11.456  14.772  65.240  1.00  0.00    -0.352 C  
BRANCH  31  32
HETATM   32  C   UNL     1     -10.433  15.081  66.328  1.00  0.00    -0.309 C  
BRANCH  32  33
HETATM   33  C   UNL     1      -9.470  16.209  65.939  1.00  0.00    -0.337 C  
BRANCH  33  34
HETATM   34  C   UNL     1      -9.822  17.474  66.679  1.00  0.00    -0.308 A  
HETATM   35  C   UNL     1     -10.310  19.889  68.011  1.00  0.00    -0.547 A  
HETATM   36  C   UNL     1     -10.367  18.566  65.990  1.00  0.00    -0.423 A  
HETATM   37  C   UNL     1     -10.610  19.768  66.655  1.00  0.00    -0.578 A  
HETATM   38  C   UNL     1      -9.779  18.804  68.706  1.00  0.00    -0.432 A  
HETATM   39  C   UNL     1      -9.536  17.601  68.045  1.00  0.00    -0.289 A  
ENDBRANCH  33  34
ENDBRANCH  32  33
ENDBRANCH  31  32
ENDBRANCH  29  31
ENDBRANCH  28  29
ENDBRANCH  27  28
ENDBRANCH  14  27
ENDBRANCH  13  14
ENDBRANCH  12  13
ENDBRANCH   2  12
TORSDOF 20
ENDMDL
MODEL       93
REMARK 921   NORMALIZED FREE ENERGY PREDICTED BY IDOCK:   -5.36 KCAL/MOL
REMARK 922        TOTAL FREE ENERGY PREDICTED BY IDOCK:  -16.31 KCAL/MOL
REMARK 923 INTER-LIGAND FREE ENERGY PREDICTED BY IDOCK:  -11.37 KCAL/MOL
REMARK 924 INTRA-LIGAND FREE ENERGY PREDICTED BY IDOCK:   -4.93 KCAL/MOL
REMARK 927      BINDING AFFINITY PREDICTED BY RF-SCORE:    0.00 PKD
ROOT
HETATM    1  O   UNL     1     -13.157  14.435  73.446  1.00  0.00    -0.587 OA 
HETATM    2  C   UNL     1     -13.063  14.452  72.227  1.00  0.00    -0.389 C  
ENDROOT
BRANCH   2   3
HETATM    3  C   UNL     1     -12.854  15.704  71.409  1.00  0.00    -0.546 C  
BRANCH   3   4
HETATM    4  C   UNL     1     -12.433  15.392  69.972  1.00  0.00    -0.316 C  
BRANCH   4   5
HETATM    5  C   UNL     1     -10.944  15.043  69.865  1.00  0.00    -0.282 C  
BRANCH   5   6
HETATM    6  C   UNL     1     -10.438  15.149  68.449  1.00  0.00    -0.233 A  
HETATM    7  C   UNL     1      -9.063  15.072  68.182  1.00  0.00    -0.178 A  
HETATM    8  C   UNL     1      -9.485  15.363  65.820  1.00  0.00    -0.325 A  
HETATM    9  C   UNL     1      -8.591  15.176  66.873  1.00  0.00    -0.289 A  
HETATM   10  C   UNL     1     -11.327  15.341  67.384  1.00  0.00    -0.285 A  
HETATM   11  C   UNL     1     -10.853  15.446  66.076  1.00  0.00    -0.315 A  
ENDBRANCH   5   6
ENDBRANCH   4   5
ENDBRANCH   3   4
ENDBRANCH   2   3
BRANCH   2  12
HETATM   12  O   UNL     1     -13.133  13.360  71.417  1.00  0.00    -0.340 OA 
BRANCH  12  13
HETATM   13  C   UNL     1     -13.397  12.098  72.059  1.00  0.00    -0.365 C  
BRANCH  13  14
HETATM   14  C   UNL     1     -12.964  10.947  71.146  1.00  0.00    -0.352 C  
BRANCH  14  15
HETATM   15  O   UNL     1     -12.307   9.939  71.942  1.00  0.00    -0.380 OA 
BRANCH  15  16
HETATM   16  C   UNL     1     -12.903   8.717  71.971  1.00  0.00    -0.390 C  
HETATM   17  O   UNL     1     -14.054   8.478  71.638  1.00  0.00    -0.400 OA 
BRANCH  16  18
HETATM   18  C   UNL     1     -11.941   7.689  72.509  1.00  0.00    -0.261 C  
BRANCH  18  19
HETATM   19  C   UNL     1     -11.955   6.410  71.678  1.00  0.00    -0.347 C  
BRANCH  19  20
HETATM   20  C   UNL     1     -11.449   6.620  70.247  1.00  0.00    -0.449 C  
BRANCH  20  21
HETATM   21  C   UNL     1     -10.020   7.100  70.278  1.00  0.00    -0.191 A  
HETATM   22  C   UNL     1      -7.353   7.934  70.107  1.00  0.00    -0.070 A  
HETATM   23  C   UNL     1      -8.980   6.208  70.566  1.00  0.00    -0.148 A  
HETATM   24  C   UNL     1      -9.711   8.420  69.925  1.00  0.00    -0.179 A  
HETATM   25  C   UNL     1      -7.651   6.626  70.480  1.00  0.00    -0.099 A  
HETATM   26  C   UNL     1      -8.383   8.835  69.838  1.00  0.00    -0.125 A  
ENDBRANCH  20  21
ENDBRANCH  19  20
ENDBRANCH  18  19
ENDBRANCH  16  18
ENDBRANCH  15  16
ENDBRANCH  14  15
BRANCH  14  27
HETATM   27  C   UNL     1     -11.967  11.427  70.085  1.00  0.00    -0.377 C  
BRANCH  27  28
HETATM   28  O   UNL     1     -12.465  11.206  68.758  1.00  0.00    -0.468 OA 
BRANCH  28  29
HETATM   29  C   UNL     1     -11.632  11.617  67.760  1.00  0.00    -0.289 C  
HETATM   30  O   UNL     1     -11.998  12.113  66.704  1.00  0.00    -0.616 OA 
BRANCH  29  31
HETATM   31  C   UNL     1     -10.196  11.380  68.153  1.00  0.00    -0.200 C  
BRANCH  31  32
HETATM   32  C   UNL     1      -9.320  11.082  66.941  1.00  0.00    -0.189 C  
BRANCH  32  33
HETATM   33  C   UNL     1      -9.958  10.074  65.976  1.00  0.00    -0.334 C  
BRANCH  33  34
HETATM   34  C   UNL     1      -9.502   8.676  66.307  1.00  0.00    -0.307 A  
HETATM   35  C   UNL     1      -8.671   6.036  66.742  1.00  0.00    -0.119 A  
HETATM   36  C   UNL     1      -8.147   8.333  66.203  1.00  0.00    -0.111 A  
HETATM   37  C   UNL     1      -7.735   7.018  66.420  1.00  0.00    -0.104 A  
HETATM   38  C   UNL     1     -10.019   6.372  66.859  1.00  0.00    -0.217 A  
HETATM   39  C   UNL     1     -10.434   7.686  66.643  1.00  0.00    -0.198 A  
ENDBRANCH  33  34
ENDBRANCH  32  33
ENDBRANCH  31  32
ENDBRANCH  29  31
ENDBRANCH  28  29
ENDBRANCH  27  28
ENDBRANCH  14  27
ENDBRANCH  13  14
ENDBRANCH  12  13
ENDBRANCH   2  12
TORSDOF 20
ENDMDL
MODEL       94
REMARK 921   NORMALIZED FREE ENERGY PREDICTED BY IDOCK:   -5.36 KCAL/MOL
REMARK 922        TOTAL FREE ENERGY PREDICTED BY IDOCK:  -16.30 KCAL/MOL
REMARK 923 INTER-LIGAND FREE ENERGY PREDICTED BY IDOCK:  -11.41 KCAL/MOL
REMARK 924 INTRA-LIGAND FREE ENERGY PREDICTED BY IDOCK:   -4.89 KCAL/MOL
REMARK 927      BINDING AFFINITY PREDICTED BY RF-SCORE:    0.00 PKD
ROOT
HETATM    1  O   UNL     1      -9.841   6.684  66.753  1.00  0.00    -0.166 OA 
HETATM    2  C   UNL     1      -8.947   7.468  67.038  1.00  0.00    -0.130 C  
ENDROOT
BRANCH   2   3
HETATM    3  C   UNL     1      -7.783   7.137  67.941  1.00  0.00    -0.113 C  
BRANCH   3   4
HETATM    4  C   UNL     1      -8.087   7.436  69.410  1.00  0.00    -0.129 C  
BRANCH   4   5
HETATM    5  C   UNL     1      -8.948   6.346  70.059  1.00  0.00    -0.146 C  
BRANCH   5   6
HETATM    6  C   UNL     1     -10.167   6.918  70.739  1.00  0.00    -0.212 A  
HETATM    7  C   UNL     1     -11.449   6.637  70.245  1.00  0.00    -0.449 A  
HETATM    8  C   UNL     1     -12.438   7.990  71.987  1.00  0.00    -0.357 A  
HETATM    9  C   UNL     1     -12.578   7.170  70.869  1.00  0.00    -0.268 A  
HETATM   10  C   UNL     1     -10.037   7.746  71.860  1.00  0.00    -0.231 A  
HETATM   11  C   UNL     1     -11.167   8.278  72.482  1.00  0.00    -0.446 A  
ENDBRANCH   5   6
ENDBRANCH   4   5
ENDBRANCH   3   4
ENDBRANCH   2   3
BRANCH   2  12
HETATM   12  O   UNL     1      -8.857   8.753  66.596  1.00  0.00    -0.123 OA 
BRANCH  12  13
HETATM   13  C   UNL     1     -10.066   9.345  66.085  1.00  0.00    -0.254 C  
BRANCH  13  14
HETATM   14  C   UNL     1     -10.311  10.698  66.759  1.00  0.00    -0.245 C  
BRANCH  14  15
HETATM   15  O   UNL     1     -11.475  10.595  67.606  1.00  0.00    -0.474 OA 
BRANCH  15  16
HETATM   16  C   UNL     1     -11.252  10.710  68.943  1.00  0.00    -0.275 C  
HETATM   17  O   UNL     1     -10.300  10.243  69.550  1.00  0.00    -0.217 OA 
BRANCH  16  18
HETATM   18  C   UNL     1     -12.378  11.481  69.586  1.00  0.00    -0.207 C  
BRANCH  18  19
HETATM   19  C   UNL     1     -11.922  12.856  70.063  1.00  0.00    -0.380 C  
BRANCH  19  20
HETATM   20  C   UNL     1     -11.885  13.898  68.940  1.00  0.00    -0.393 C  
BRANCH  20  21
HETATM   21  C   UNL     1     -10.520  14.536  68.883  1.00  0.00    -0.246 A  
HETATM   22  C   UNL     1      -7.954  15.649  69.002  1.00  0.00    -0.208 A  
HETATM   23  C   UNL     1     -10.344  15.869  69.275  1.00  0.00    -0.249 A  
HETATM   24  C   UNL     1      -9.399  13.773  68.531  1.00  0.00    -0.144 A  
HETATM   25  C   UNL     1      -9.064  16.422  69.332  1.00  0.00    -0.037 A  
HETATM   26  C   UNL     1      -8.121  14.327  68.592  1.00  0.00    -0.140 A  
ENDBRANCH  20  21
ENDBRANCH  19  20
ENDBRANCH  18  19
ENDBRANCH  16  18
ENDBRANCH  15  16
ENDBRANCH  14  15
BRANCH  14  27
HETATM   27  C   UNL     1     -10.586  11.791  65.720  1.00  0.00    -0.268 C  
BRANCH  27  28
HETATM   28  O   UNL     1     -11.953  12.224  65.763  1.00  0.00    -0.521 OA 
BRANCH  28  29
HETATM   29  C   UNL     1     -12.165  13.491  65.307  1.00  0.00    -0.441 C  
HETATM   30  O   UNL     1     -13.240  14.073  65.332  1.00  0.00    -0.761 OA 
BRANCH  29  31
HETATM   31  C   UNL     1     -10.879  14.073  64.776  1.00  0.00    -0.430 C  
BRANCH  31  32
HETATM   32  C   UNL     1     -10.759  15.560  65.087  1.00  0.00    -0.460 C  
BRANCH  32  33
HETATM   33  C   UNL     1      -9.364  15.954  65.589  1.00  0.00    -0.165 C  
BRANCH  33  34
HETATM   34  C   UNL     1      -9.340  17.411  65.973  1.00  0.00    -0.101 A  
HETATM   35  C   UNL     1      -9.294  20.067  66.864  1.00  0.00    -0.515 A  
HETATM   36  C   UNL     1      -8.120  18.059  66.208  1.00  0.00    -0.259 A  
HETATM   37  C   UNL     1      -8.098  19.382  66.651  1.00  0.00    -0.310 A  
HETATM   38  C   UNL     1     -10.511  19.433  66.622  1.00  0.00    -0.568 A  
HETATM   39  C   UNL     1     -10.536  18.112  66.178  1.00  0.00    -0.377 A  
ENDBRANCH  33  34
ENDBRANCH  32  33
ENDBRANCH  31  32
ENDBRANCH  29  31
ENDBRANCH  28  29
ENDBRANCH  27  28
ENDBRANCH  14  27
ENDBRANCH  13  14
ENDBRANCH  12  13
ENDBRANCH   2  12
TORSDOF 20
ENDMDL
MODEL       95
REMARK 921   NORMALIZED FREE ENERGY PREDICTED BY IDOCK:   -5.36 KCAL/MOL
REMARK 922        TOTAL FREE ENERGY PREDICTED BY IDOCK:  -16.30 KCAL/MOL
REMARK 923 INTER-LIGAND FREE ENERGY PREDICTED BY IDOCK:  -11.74 KCAL/MOL
REMARK 924 INTRA-LIGAND FREE ENERGY PREDICTED BY IDOCK:   -4.56 KCAL/MOL
REMARK 927      BINDING AFFINITY PREDICTED BY RF-SCORE:    0.00 PKD
ROOT
HETATM    1  O   UNL     1      -7.879   9.803  69.138  1.00  0.00    -0.083 OA 
HETATM    2  C   UNL     1      -9.020  10.172  69.379  1.00  0.00    -0.191 C  
ENDROOT
BRANCH   2   3
HETATM    3  C   UNL     1      -9.630  11.447  68.847  1.00  0.00    -0.087 C  
BRANCH   3   4
HETATM    4  C   UNL     1      -9.134  11.782  67.440  1.00  0.00    -0.175 C  
BRANCH   4   5
HETATM    5  C   UNL     1      -9.655  10.795  66.389  1.00  0.00    -0.226 C  
BRANCH   5   6
HETATM    6  C   UNL     1     -10.603  11.450  65.417  1.00  0.00    -0.333 A  
HETATM    7  C   UNL     1     -10.380  11.352  64.036  1.00  0.00    -0.418 A  
HETATM    8  C   UNL     1     -12.351  12.680  63.602  1.00  0.00    -0.584 A  
HETATM    9  C   UNL     1     -11.252  11.963  63.134  1.00  0.00    -0.248 A  
HETATM   10  C   UNL     1     -11.709  12.177  65.877  1.00  0.00    -0.393 A  
HETATM   11  C   UNL     1     -12.580  12.787  64.973  1.00  0.00    -0.538 A  
ENDBRANCH   5   6
ENDBRANCH   4   5
ENDBRANCH   3   4
ENDBRANCH   2   3
BRANCH   2  12
HETATM   12  O   UNL     1      -9.916   9.503  70.156  1.00  0.00    -0.209 OA 
BRANCH  12  13
HETATM   13  C   UNL     1     -11.278   9.971  70.116  1.00  0.00    -0.304 C  
BRANCH  13  14
HETATM   14  C   UNL     1     -11.898   9.891  71.514  1.00  0.00    -0.365 C  
BRANCH  14  15
HETATM   15  O   UNL     1     -12.465   8.578  71.700  1.00  0.00    -0.304 OA 
BRANCH  15  16
HETATM   16  C   UNL     1     -11.662   7.660  72.301  1.00  0.00    -0.324 C  
HETATM   17  O   UNL     1     -10.800   7.903  73.132  1.00  0.00    -0.375 OA 
BRANCH  16  18
HETATM   18  C   UNL     1     -11.967   6.283  71.768  1.00  0.00    -0.313 C  
BRANCH  18  19
HETATM   19  C   UNL     1     -10.974   5.859  70.691  1.00  0.00    -0.357 C  
BRANCH  19  20
HETATM   20  C   UNL     1     -11.395   6.296  69.283  1.00  0.00    -0.411 C  
BRANCH  20  21
HETATM   21  C   UNL     1     -10.191   6.312  68.375  1.00  0.00    -0.200 A  
HETATM   22  C   UNL     1      -7.861   6.503  66.835  1.00  0.00    -0.107 A  
HETATM   23  C   UNL     1     -10.117   7.221  67.312  1.00  0.00    -0.291 A  
HETATM   24  C   UNL     1      -9.093   5.485  68.645  1.00  0.00    -0.128 A  
HETATM   25  C   UNL     1      -8.955   7.313  66.545  1.00  0.00    -0.175 A  
HETATM   26  C   UNL     1      -7.932   5.581  67.879  1.00  0.00    -0.097 A  
ENDBRANCH  20  21
ENDBRANCH  19  20
ENDBRANCH  18  19
ENDBRANCH  16  18
ENDBRANCH  15  16
ENDBRANCH  14  15
BRANCH  14  27
HETATM   27  C   UNL     1     -13.029  10.914  71.676  1.00  0.00    -0.464 C  
BRANCH  27  28
HETATM   28  O   UNL     1     -12.668  12.187  71.121  1.00  0.00    -0.358 OA 
BRANCH  28  29
HETATM   29  C   UNL     1     -13.297  13.255  71.688  1.00  0.00    -0.322 C  
HETATM   30  O   UNL     1     -14.096  13.187  72.611  1.00  0.00    -0.701 OA 
BRANCH  29  31
HETATM   31  C   UNL     1     -12.857  14.532  71.018  1.00  0.00    -0.418 C  
BRANCH  31  32
HETATM   32  C   UNL     1     -11.992  14.260  69.793  1.00  0.00    -0.394 C  
BRANCH  32  33
HETATM   33  C   UNL     1     -12.028  15.403  68.770  1.00  0.00    -0.278 C  
BRANCH  33  34
HETATM   34  C   UNL     1     -10.723  15.473  68.019  1.00  0.00    -0.283 A  
HETATM   35  C   UNL     1      -8.295  15.416  66.624  1.00  0.00    -0.255 A  
HETATM   36  C   UNL     1     -10.711  15.408  66.619  1.00  0.00    -0.309 A  
HETATM   37  C   UNL     1      -9.502  15.380  65.926  1.00  0.00    -0.369 A  
HETATM   38  C   UNL     1      -8.299  15.493  68.016  1.00  0.00    -0.142 A  
HETATM   39  C   UNL     1      -9.507  15.522  68.711  1.00  0.00    -0.210 A  
ENDBRANCH  33  34
ENDBRANCH  32  33
ENDBRANCH  31  32
ENDBRANCH  29  31
ENDBRANCH  28  29
ENDBRANCH  27  28
ENDBRANCH  14  27
ENDBRANCH  13  14
ENDBRANCH  12  13
ENDBRANCH   2  12
TORSDOF 20
ENDMDL
MODEL       96
REMARK 921   NORMALIZED FREE ENERGY PREDICTED BY IDOCK:   -5.35 KCAL/MOL
REMARK 922        TOTAL FREE ENERGY PREDICTED BY IDOCK:  -16.29 KCAL/MOL
REMARK 923 INTER-LIGAND FREE ENERGY PREDICTED BY IDOCK:  -11.56 KCAL/MOL
REMARK 924 INTRA-LIGAND FREE ENERGY PREDICTED BY IDOCK:   -4.73 KCAL/MOL
REMARK 927      BINDING AFFINITY PREDICTED BY RF-SCORE:    0.00 PKD
ROOT
HETATM    1  O   UNL     1     -10.907   6.848  66.928  1.00  0.00    -0.351 OA 
HETATM    2  C   UNL     1     -10.132   7.784  66.795  1.00  0.00    -0.270 C  
ENDROOT
BRANCH   2   3
HETATM    3  C   UNL     1      -8.749   7.833  67.399  1.00  0.00    -0.128 C  
BRANCH   3   4
HETATM    4  C   UNL     1      -8.768   7.586  68.908  1.00  0.00    -0.132 C  
BRANCH   4   5
HETATM    5  C   UNL     1      -8.456   6.128  69.262  1.00  0.00    -0.119 C  
BRANCH   5   6
HETATM    6  C   UNL     1      -8.891   5.780  70.663  1.00  0.00    -0.145 A  
HETATM    7  C   UNL     1     -10.118   5.139  70.885  1.00  0.00    -0.302 A  
HETATM    8  C   UNL     1      -9.716   5.145  73.267  1.00  0.00    -0.160 A  
HETATM    9  C   UNL     1     -10.526   4.821  72.181  1.00  0.00    -0.243 A  
HETATM   10  C   UNL     1      -8.086   6.105  71.763  1.00  0.00    -0.110 A  
HETATM   11  C   UNL     1      -8.496   5.787  73.058  1.00  0.00    -0.118 A  
ENDBRANCH   5   6
ENDBRANCH   4   5
ENDBRANCH   3   4
ENDBRANCH   2   3
BRANCH   2  12
HETATM   12  O   UNL     1     -10.385   8.922  66.091  1.00  0.00    -0.187 OA 
BRANCH  12  13
HETATM   13  C   UNL     1      -9.294   9.455  65.315  1.00  0.00    -0.238 C  
BRANCH  13  14
HETATM   14  C   UNL     1      -9.548  10.933  65.006  1.00  0.00    -0.251 C  
BRANCH  14  15
HETATM   15  O   UNL     1     -10.017  11.588  66.203  1.00  0.00    -0.210 OA 
BRANCH  15  16
HETATM   16  C   UNL     1      -9.062  11.940  67.105  1.00  0.00    -0.178 C  
HETATM   17  O   UNL     1      -7.914  12.263  66.839  1.00  0.00    -0.152 OA 
BRANCH  16  18
HETATM   18  C   UNL     1      -9.617  11.845  68.504  1.00  0.00    -0.160 C  
BRANCH  18  19
HETATM   19  C   UNL     1     -10.961  11.125  68.532  1.00  0.00    -0.267 C  
BRANCH  19  20
HETATM   20  C   UNL     1     -11.811  11.488  69.756  1.00  0.00    -0.429 C  
BRANCH  20  21
HETATM   21  C   UNL     1     -11.907  10.299  70.678  1.00  0.00    -0.439 A  
HETATM   22  C   UNL     1     -12.055   8.242  72.571  1.00  0.00    -0.400 A  
HETATM   23  C   UNL     1     -10.753   9.601  71.056  1.00  0.00    -0.393 A  
HETATM   24  C   UNL     1     -13.139   9.941  71.241  1.00  0.00    -0.487 A  
HETATM   25  C   UNL     1     -10.830   8.575  72.000  1.00  0.00    -0.405 A  
HETATM   26  C   UNL     1     -13.212   8.917  72.185  1.00  0.00    -0.478 A  
ENDBRANCH  20  21
ENDBRANCH  19  20
ENDBRANCH  18  19
ENDBRANCH  16  18
ENDBRANCH  15  16
ENDBRANCH  14  15
BRANCH  14  27
HETATM   27  C   UNL     1     -10.629  11.096  63.931  1.00  0.00    -0.364 C  
BRANCH  27  28
HETATM   28  O   UNL     1     -10.739  12.461  63.501  1.00  0.00    -0.442 OA 
BRANCH  28  29
HETATM   29  C   UNL     1     -11.983  13.002  63.635  1.00  0.00    -0.539 C  
HETATM   30  O   UNL     1     -12.541  13.689  62.793  1.00  0.00    -0.456 OA 
BRANCH  29  31
HETATM   31  C   UNL     1     -12.573  12.621  64.970  1.00  0.00    -0.504 C  
BRANCH  31  32
HETATM   32  C   UNL     1     -12.710  13.827  65.893  1.00  0.00    -0.452 C  
BRANCH  32  33
HETATM   33  C   UNL     1     -11.450  14.702  65.923  1.00  0.00    -0.338 C  
BRANCH  33  34
HETATM   34  C   UNL     1     -11.102  15.065  67.344  1.00  0.00    -0.324 A  
HETATM   35  C   UNL     1     -10.393  15.567  70.007  1.00  0.00    -0.315 A  
HETATM   36  C   UNL     1      -9.813  15.513  67.662  1.00  0.00    -0.213 A  
HETATM   37  C   UNL     1      -9.461  15.763  68.988  1.00  0.00    -0.247 A  
HETATM   38  C   UNL     1     -11.680  15.133  69.698  1.00  0.00    -0.353 A  
HETATM   39  C   UNL     1     -12.035  14.884  68.373  1.00  0.00    -0.255 A  
ENDBRANCH  33  34
ENDBRANCH  32  33
ENDBRANCH  31  32
ENDBRANCH  29  31
ENDBRANCH  28  29
ENDBRANCH  27  28
ENDBRANCH  14  27
ENDBRANCH  13  14
ENDBRANCH  12  13
ENDBRANCH   2  12
TORSDOF 20
ENDMDL
MODEL       97
REMARK 921   NORMALIZED FREE ENERGY PREDICTED BY IDOCK:   -5.35 KCAL/MOL
REMARK 922        TOTAL FREE ENERGY PREDICTED BY IDOCK:  -16.29 KCAL/MOL
REMARK 923 INTER-LIGAND FREE ENERGY PREDICTED BY IDOCK:  -11.20 KCAL/MOL
REMARK 924 INTRA-LIGAND FREE ENERGY PREDICTED BY IDOCK:   -5.08 KCAL/MOL
REMARK 927      BINDING AFFINITY PREDICTED BY RF-SCORE:    0.00 PKD
ROOT
HETATM    1  O   UNL     1      -9.016   6.337  65.993  1.00  0.00    -0.156 OA 
HETATM    2  C   UNL     1      -9.078   7.465  66.461  1.00  0.00    -0.162 C  
ENDROOT
BRANCH   2   3
HETATM    3  C   UNL     1      -8.763   8.724  65.688  1.00  0.00    -0.215 C  
BRANCH   3   4
HETATM    4  C   UNL     1      -9.915   9.729  65.727  1.00  0.00    -0.349 C  
BRANCH   4   5
HETATM    5  C   UNL     1      -9.428  11.176  65.595  1.00  0.00    -0.252 C  
BRANCH   5   6
HETATM    6  C   UNL     1     -10.573  12.153  65.506  1.00  0.00    -0.314 A  
HETATM    7  C   UNL     1     -11.007  12.624  64.259  1.00  0.00    -0.404 A  
HETATM    8  C   UNL     1     -12.690  13.984  65.334  1.00  0.00    -0.499 A  
HETATM    9  C   UNL     1     -12.062  13.533  64.174  1.00  0.00    -0.488 A  
HETATM   10  C   UNL     1     -11.209  12.616  66.666  1.00  0.00    -0.346 A  
HETATM   11  C   UNL     1     -12.263  13.525  66.579  1.00  0.00    -0.433 A  
ENDBRANCH   5   6
ENDBRANCH   4   5
ENDBRANCH   3   4
ENDBRANCH   2   3
BRANCH   2  12
HETATM   12  O   UNL     1      -9.433   7.768  67.740  1.00  0.00    -0.141 OA 
BRANCH  12  13
HETATM   13  C   UNL     1      -8.357   8.007  68.668  1.00  0.00    -0.127 C  
BRANCH  13  14
HETATM   14  C   UNL     1      -8.451   9.433  69.219  1.00  0.00    -0.141 C  
BRANCH  14  15
HETATM   15  O   UNL     1      -7.123   9.994  69.293  1.00  0.00    -0.062 OA 
BRANCH  15  16
HETATM   16  C   UNL     1      -6.835  10.968  68.390  1.00  0.00    -0.065 C  
HETATM   17  O   UNL     1      -6.486  10.787  67.233  1.00  0.00    -0.064 OA 
BRANCH  16  18
HETATM   18  C   UNL     1      -6.981  12.324  69.033  1.00  0.00    -0.078 C  
BRANCH  18  19
HETATM   19  C   UNL     1      -7.717  13.305  68.127  1.00  0.00    -0.143 C  
BRANCH  19  20
HETATM   20  C   UNL     1      -8.541  14.338  68.905  1.00  0.00    -0.030 C  
BRANCH  20  21
HETATM   21  C   UNL     1      -9.153  15.326  67.945  1.00  0.00    -0.175 A  
HETATM   22  C   UNL     1     -10.484  17.023  66.159  1.00  0.00    -0.274 A  
HETATM   23  C   UNL     1      -9.006  15.155  66.562  1.00  0.00    -0.326 A  
HETATM   24  C   UNL     1      -9.957  16.369  68.423  1.00  0.00    -0.238 A  
HETATM   25  C   UNL     1      -9.670  16.003  65.674  1.00  0.00    -0.273 A  
HETATM   26  C   UNL     1     -10.621  17.213  67.533  1.00  0.00    -0.323 A  
ENDBRANCH  20  21
ENDBRANCH  19  20
ENDBRANCH  18  19
ENDBRANCH  16  18
ENDBRANCH  15  16
ENDBRANCH  14  15
BRANCH  14  27
HETATM   27  C   UNL     1      -9.040   9.441  70.635  1.00  0.00    -0.233 C  
BRANCH  27  28
HETATM   28  O   UNL     1     -10.331   8.816  70.669  1.00  0.00    -0.193 OA 
BRANCH  28  29
HETATM   29  C   UNL     1     -11.366   9.662  70.935  1.00  0.00    -0.360 C  
HETATM   30  O   UNL     1     -12.108   9.577  71.902  1.00  0.00    -0.371 OA 
BRANCH  29  31
HETATM   31  C   UNL     1     -11.457  10.722  69.867  1.00  0.00    -0.398 C  
BRANCH  31  32
HETATM   32  C   UNL     1     -12.456  11.814  70.235  1.00  0.00    -0.237 C  
BRANCH  32  33
HETATM   33  C   UNL     1     -11.926  13.227  69.958  1.00  0.00    -0.399 C  
BRANCH  33  34
HETATM   34  C   UNL     1     -12.362  14.170  71.049  1.00  0.00    -0.438 A  
HETATM   35  C   UNL     1     -13.060  15.832  73.193  1.00  0.00    -0.669 A  
HETATM   36  C   UNL     1     -11.612  15.321  71.328  1.00  0.00    -0.430 A  
HETATM   37  C   UNL     1     -11.961  16.148  72.395  1.00  0.00    -0.649 A  
HETATM   38  C   UNL     1     -13.818  14.696  72.916  1.00  0.00    -0.235 A  
HETATM   39  C   UNL     1     -13.472  13.868  71.848  1.00  0.00    -0.511 A  
ENDBRANCH  33  34
ENDBRANCH  32  33
ENDBRANCH  31  32
ENDBRANCH  29  31
ENDBRANCH  28  29
ENDBRANCH  27  28
ENDBRANCH  14  27
ENDBRANCH  13  14
ENDBRANCH  12  13
ENDBRANCH   2  12
TORSDOF 20
ENDMDL
MODEL       98
REMARK 921   NORMALIZED FREE ENERGY PREDICTED BY IDOCK:   -5.31 KCAL/MOL
REMARK 922        TOTAL FREE ENERGY PREDICTED BY IDOCK:  -16.20 KCAL/MOL
REMARK 923 INTER-LIGAND FREE ENERGY PREDICTED BY IDOCK:  -10.43 KCAL/MOL
REMARK 924 INTRA-LIGAND FREE ENERGY PREDICTED BY IDOCK:   -5.77 KCAL/MOL
REMARK 927      BINDING AFFINITY PREDICTED BY RF-SCORE:    0.00 PKD
ROOT
HETATM    1  O   UNL     1     -11.579   8.340  73.009  1.00  0.00    -0.252 OA 
HETATM    2  C   UNL     1     -12.407   7.987  72.181  1.00  0.00    -0.315 C  
ENDROOT
BRANCH   2   3
HETATM    3  C   UNL     1     -13.454   8.898  71.585  1.00  0.00    -0.427 C  
BRANCH   3   4
HETATM    4  C   UNL     1     -13.255  10.357  72.000  1.00  0.00    -0.497 C  
BRANCH   4   5
HETATM    5  C   UNL     1     -12.487  11.161  70.946  1.00  0.00    -0.509 C  
BRANCH   5   6
HETATM    6  C   UNL     1     -12.753  12.641  71.059  1.00  0.00    -0.316 A  
HETATM    7  C   UNL     1     -13.530  13.142  72.113  1.00  0.00    -0.653 A  
HETATM    8  C   UNL     1     -13.268  15.390  71.266  1.00  0.00    -0.585 A  
HETATM    9  C   UNL     1     -13.783  14.510  72.216  1.00  0.00    -0.559 A  
HETATM   10  C   UNL     1     -12.243  13.533  70.107  1.00  0.00    -0.400 A  
HETATM   11  C   UNL     1     -12.498  14.901  70.211  1.00  0.00    -0.386 A  
ENDBRANCH   5   6
ENDBRANCH   4   5
ENDBRANCH   3   4
ENDBRANCH   2   3
BRANCH   2  12
HETATM   12  O   UNL     1     -12.522   6.731  71.668  1.00  0.00    -0.351 OA 
BRANCH  12  13
HETATM   13  C   UNL     1     -11.367   5.878  71.789  1.00  0.00    -0.227 C  
BRANCH  13  14
HETATM   14  C   UNL     1     -10.549   5.922  70.495  1.00  0.00    -0.275 C  
BRANCH  14  15
HETATM   15  O   UNL     1     -11.442   6.138  69.383  1.00  0.00    -0.423 OA 
BRANCH  15  16
HETATM   16  C   UNL     1     -11.006   6.998  68.424  1.00  0.00    -0.076 C  
HETATM   17  O   UNL     1     -10.981   6.774  67.224  1.00  0.00    -0.339 OA 
BRANCH  16  18
HETATM   18  C   UNL     1     -10.522   8.276  69.063  1.00  0.00    -0.212 C  
BRANCH  18  19
HETATM   19  C   UNL     1     -10.701   9.474  68.137  1.00  0.00    -0.247 C  
BRANCH  19  20
HETATM   20  C   UNL     1      -9.805  10.660  68.512  1.00  0.00    -0.175 C  
BRANCH  20  21
HETATM   21  C   UNL     1     -10.265  11.895  67.780  1.00  0.00    -0.211 A  
HETATM   22  C   UNL     1     -11.009  14.104  66.229  1.00  0.00    -0.303 A  
HETATM   23  C   UNL     1      -9.454  13.037  67.738  1.00  0.00    -0.209 A  
HETATM   24  C   UNL     1     -11.463  11.880  67.054  1.00  0.00    -0.384 A  
HETATM   25  C   UNL     1      -9.827  14.137  66.965  1.00  0.00    -0.258 A  
HETATM   26  C   UNL     1     -11.832  12.980  66.280  1.00  0.00    -0.466 A  
ENDBRANCH  20  21
ENDBRANCH  19  20
ENDBRANCH  18  19
ENDBRANCH  16  18
ENDBRANCH  15  16
ENDBRANCH  14  15
BRANCH  14  27
HETATM   27  C   UNL     1      -9.821   4.594  70.257  1.00  0.00    -0.243 C  
BRANCH  27  28
HETATM   28  O   UNL     1      -8.396   4.763  70.288  1.00  0.00    -0.078 OA 
BRANCH  28  29
HETATM   29  C   UNL     1      -7.846   5.186  69.115  1.00  0.00    -0.081 C  
HETATM   30  O   UNL     1      -8.238   4.863  68.003  1.00  0.00    -0.096 OA 
BRANCH  29  31
HETATM   31  C   UNL     1      -6.692   6.117  69.388  1.00  0.00    -0.060 C  
BRANCH  31  32
HETATM   32  C   UNL     1      -7.061   7.571  69.118  1.00  0.00    -0.078 C  
BRANCH  32  33
HETATM   33  C   UNL     1      -6.187   8.216  68.034  1.00  0.00    -0.047 C  
BRANCH  33  34
HETATM   34  C   UNL     1      -7.050   8.765  66.927  1.00  0.00    -0.078 A  
HETATM   35  C   UNL     1      -8.533   9.715  64.749  1.00  0.00    -0.168 A  
HETATM   36  C   UNL     1      -8.022   7.955  66.324  1.00  0.00    -0.103 A  
HETATM   37  C   UNL     1      -8.760   8.430  65.239  1.00  0.00    -0.148 A  
HETATM   38  C   UNL     1      -7.577  10.531  65.351  1.00  0.00    -0.097 A  
HETATM   39  C   UNL     1      -6.838  10.060  66.436  1.00  0.00    -0.093 A  
ENDBRANCH  33  34
ENDBRANCH  32  33
ENDBRANCH  31  32
ENDBRANCH  29  31
ENDBRANCH  28  29
ENDBRANCH  27  28
ENDBRANCH  14  27
ENDBRANCH  13  14
ENDBRANCH  12  13
ENDBRANCH   2  12
TORSDOF 20
ENDMDL
MODEL       99
REMARK 921   NORMALIZED FREE ENERGY PREDICTED BY IDOCK:   -5.31 KCAL/MOL
REMARK 922        TOTAL FREE ENERGY PREDICTED BY IDOCK:  -16.19 KCAL/MOL
REMARK 923 INTER-LIGAND FREE ENERGY PREDICTED BY IDOCK:  -12.16 KCAL/MOL
REMARK 924 INTRA-LIGAND FREE ENERGY PREDICTED BY IDOCK:   -4.04 KCAL/MOL
REMARK 927      BINDING AFFINITY PREDICTED BY RF-SCORE:    0.00 PKD
ROOT
HETATM    1  O   UNL     1      -6.608  14.327  67.485  1.00  0.00    -0.230 OA 
HETATM    2  C   UNL     1      -7.551  13.556  67.599  1.00  0.00    -0.177 C  
ENDROOT
BRANCH   2   3
HETATM    3  C   UNL     1      -8.980  13.908  67.264  1.00  0.00    -0.225 C  
BRANCH   3   4
HETATM    4  C   UNL     1      -9.075  15.129  66.347  1.00  0.00    -0.331 C  
BRANCH   4   5
HETATM    5  C   UNL     1     -10.514  15.405  65.895  1.00  0.00    -0.354 C  
BRANCH   5   6
HETATM    6  C   UNL     1     -11.122  14.222  65.186  1.00  0.00    -0.354 A  
HETATM    7  C   UNL     1     -12.461  13.872  65.414  1.00  0.00    -0.528 A  
HETATM    8  C   UNL     1     -12.256  12.011  63.886  1.00  0.00    -0.555 A  
HETATM    9  C   UNL     1     -13.024  12.773  64.764  1.00  0.00    -0.228 A  
HETATM   10  C   UNL     1     -10.358  13.446  64.305  1.00  0.00    -0.249 A  
HETATM   11  C   UNL     1     -10.923  12.348  63.657  1.00  0.00    -0.525 A  
ENDBRANCH   5   6
ENDBRANCH   4   5
ENDBRANCH   3   4
ENDBRANCH   2   3
BRANCH   2  12
HETATM   12  O   UNL     1      -7.468  12.271  68.042  1.00  0.00    -0.096 OA 
BRANCH  12  13
HETATM   13  C   UNL     1      -7.408  11.245  67.033  1.00  0.00    -0.136 C  
BRANCH  13  14
HETATM   14  C   UNL     1      -8.440  10.155  67.336  1.00  0.00    -0.122 C  
BRANCH  14  15
HETATM   15  O   UNL     1      -9.563  10.750  68.018  1.00  0.00    -0.157 OA 
BRANCH  15  16
HETATM   16  C   UNL     1     -10.760  10.678  67.375  1.00  0.00    -0.276 C  
HETATM   17  O   UNL     1     -10.952  10.166  66.283  1.00  0.00     0.046 OA 
BRANCH  16  18
HETATM   18  C   UNL     1     -11.826  11.355  68.199  1.00  0.00    -0.288 C  
BRANCH  18  19
HETATM   19  C   UNL     1     -11.238  12.407  69.133  1.00  0.00    -0.295 C  
BRANCH  19  20
HETATM   20  C   UNL     1     -11.984  13.745  69.074  1.00  0.00    -0.399 C  
BRANCH  20  21
HETATM   21  C   UNL     1     -12.354  14.182  70.468  1.00  0.00    -0.434 A  
HETATM   22  C   UNL     1     -12.884  14.834  73.138  1.00  0.00    -0.614 A  
HETATM   23  C   UNL     1     -13.385  13.538  71.163  1.00  0.00    -0.142 A  
HETATM   24  C   UNL     1     -11.605  15.172  71.119  1.00  0.00    -0.405 A  
HETATM   25  C   UNL     1     -13.648  13.865  72.494  1.00  0.00    -0.680 A  
HETATM   26  C   UNL     1     -11.869  15.495  72.450  1.00  0.00    -0.570 A  
ENDBRANCH  20  21
ENDBRANCH  19  20
ENDBRANCH  18  19
ENDBRANCH  16  18
ENDBRANCH  15  16
ENDBRANCH  14  15
BRANCH  14  27
HETATM   27  C   UNL     1      -7.853   9.078  68.255  1.00  0.00    -0.100 C  
BRANCH  27  28
HETATM   28  O   UNL     1      -8.886   8.327  68.911  1.00  0.00    -0.139 OA 
BRANCH  28  29
HETATM   29  C   UNL     1      -9.267   7.192  68.259  1.00  0.00    -0.132 C  
HETATM   30  O   UNL     1      -8.573   6.577  67.463  1.00  0.00    -0.119 OA 
BRANCH  29  31
HETATM   31  C   UNL     1     -10.664   6.803  68.670  1.00  0.00    -0.279 C  
BRANCH  31  32
HETATM   32  C   UNL     1     -10.671   6.002  69.968  1.00  0.00    -0.380 C  
BRANCH  32  33
HETATM   33  C   UNL     1     -10.378   6.865  71.202  1.00  0.00    -0.222 C  
BRANCH  33  34
HETATM   34  C   UNL     1     -11.511   7.828  71.445  1.00  0.00    -0.289 A  
HETATM   35  C   UNL     1     -13.640   9.629  71.713  1.00  0.00    -0.424 A  
HETATM   36  C   UNL     1     -12.831   7.361  71.513  1.00  0.00    -0.416 A  
HETATM   37  C   UNL     1     -13.890   8.259  71.647  1.00  0.00    -0.431 A  
HETATM   38  C   UNL     1     -12.330  10.101  71.658  1.00  0.00    -0.471 A  
HETATM   39  C   UNL     1     -11.269   9.206  71.525  1.00  0.00    -0.430 A  
ENDBRANCH  33  34
ENDBRANCH  32  33
ENDBRANCH  31  32
ENDBRANCH  29  31
ENDBRANCH  28  29
ENDBRANCH  27  28
ENDBRANCH  14  27
ENDBRANCH  13  14
ENDBRANCH  12  13
ENDBRANCH   2  12
TORSDOF 20
ENDMDL
MODEL      100
REMARK 921   NORMALIZED FREE ENERGY PREDICTED BY IDOCK:   -5.31 KCAL/MOL
REMARK 922        TOTAL FREE ENERGY PREDICTED BY IDOCK:  -16.19 KCAL/MOL
REMARK 923 INTER-LIGAND FREE ENERGY PREDICTED BY IDOCK:  -12.07 KCAL/MOL
REMARK 924 INTRA-LIGAND FREE ENERGY PREDICTED BY IDOCK:   -4.13 KCAL/MOL
REMARK 927      BINDING AFFINITY PREDICTED BY RF-SCORE:    0.00 PKD
ROOT
HETATM    1  O   UNL     1     -10.433  17.177  65.314  1.00  0.00    -0.655 OA 
HETATM    2  C   UNL     1     -10.608  16.426  66.263  1.00  0.00    -0.242 C  
ENDROOT
BRANCH   2   3
HETATM    3  C   UNL     1     -10.159  16.722  67.674  1.00  0.00    -0.275 C  
BRANCH   3   4
HETATM    4  C   UNL     1     -11.183  16.265  68.715  1.00  0.00    -0.343 C  
BRANCH   4   5
HETATM    5  C   UNL     1     -10.608  15.216  69.674  1.00  0.00    -0.274 C  
BRANCH   5   6
HETATM    6  C   UNL     1     -11.594  14.829  70.746  1.00  0.00    -0.318 A  
HETATM    7  C   UNL     1     -12.456  13.739  70.555  1.00  0.00    -0.409 A  
HETATM    8  C   UNL     1     -13.444  14.111  72.728  1.00  0.00    -0.592 A  
HETATM    9  C   UNL     1     -13.374  13.382  71.543  1.00  0.00    -0.345 A  
HETATM   10  C   UNL     1     -11.676  15.558  71.940  1.00  0.00    -0.527 A  
HETATM   11  C   UNL     1     -12.595  15.199  72.926  1.00  0.00    -0.512 A  
ENDBRANCH   5   6
ENDBRANCH   4   5
ENDBRANCH   3   4
ENDBRANCH   2   3
BRANCH   2  12
HETATM   12  O   UNL     1     -11.227  15.214  66.205  1.00  0.00    -0.336 OA 
BRANCH  12  13
HETATM   13  C   UNL     1     -11.055  14.462  64.988  1.00  0.00    -0.380 C  
BRANCH  13  14
HETATM   14  C   UNL     1     -10.991  12.965  65.305  1.00  0.00    -0.283 C  
BRANCH  14  15
HETATM   15  O   UNL     1     -10.308  12.782  66.562  1.00  0.00    -0.245 OA 
BRANCH  15  16
HETATM   16  C   UNL     1     -11.016  12.157  67.541  1.00  0.00    -0.257 C  
HETATM   17  O   UNL     1     -12.219  11.949  67.528  1.00  0.00    -0.510 OA 
BRANCH  16  18
HETATM   18  C   UNL     1     -10.098  11.778  68.675  1.00  0.00    -0.198 C  
BRANCH  18  19
HETATM   19  C   UNL     1     -10.404  10.383  69.210  1.00  0.00    -0.250 C  
BRANCH  19  20
HETATM   20  C   UNL     1     -11.119  10.404  70.566  1.00  0.00    -0.343 C  
BRANCH  20  21
HETATM   21  C   UNL     1     -10.693   9.211  71.383  1.00  0.00    -0.414 A  
HETATM   22  C   UNL     1      -9.875   7.143  73.084  1.00  0.00    -0.251 A  
HETATM   23  C   UNL     1      -9.341   8.855  71.466  1.00  0.00    -0.335 A  
HETATM   24  C   UNL     1     -11.634   8.505  72.145  1.00  0.00    -0.447 A  
HETATM   25  C   UNL     1      -8.936   7.823  72.314  1.00  0.00    -0.194 A  
HETATM   26  C   UNL     1     -11.226   7.477  72.994  1.00  0.00    -0.373 A  
ENDBRANCH  20  21
ENDBRANCH  19  20
ENDBRANCH  18  19
ENDBRANCH  16  18
ENDBRANCH  15  16
ENDBRANCH  14  15
BRANCH  14  27
HETATM   27  C   UNL     1     -10.203  12.207  64.230  1.00  0.00    -0.324 C  
BRANCH  27  28
HETATM   28  O   UNL     1     -10.608  10.832  64.155  1.00  0.00    -0.347 OA 
BRANCH  28  29
HETATM   29  C   UNL     1      -9.599   9.931  64.321  1.00  0.00    -0.151 C  
HETATM   30  O   UNL     1      -8.777   9.636  63.465  1.00  0.00    -0.194 OA 
BRANCH  29  31
HETATM   31  C   UNL     1      -9.638   9.359  65.716  1.00  0.00    -0.340 C  
BRANCH  31  32
HETATM   32  C   UNL     1      -8.306   8.727  66.107  1.00  0.00    -0.126 C  
BRANCH  32  33
HETATM   33  C   UNL     1      -8.143   8.571  67.624  1.00  0.00    -0.107 C  
BRANCH  33  34
HETATM   34  C   UNL     1      -8.794   7.295  68.090  1.00  0.00    -0.126 A  
HETATM   35  C   UNL     1      -9.981   4.980  69.130  1.00  0.00    -0.267 A  
HETATM   36  C   UNL     1     -10.170   7.261  68.354  1.00  0.00    -0.203 A  
HETATM   37  C   UNL     1     -10.760   6.108  68.872  1.00  0.00    -0.376 A  
HETATM   38  C   UNL     1      -8.614   5.002  68.859  1.00  0.00    -0.091 A  
HETATM   39  C   UNL     1      -8.022   6.153  68.340  1.00  0.00    -0.108 A  
ENDBRANCH  33  34
ENDBRANCH  32  33
ENDBRANCH  31  32
ENDBRANCH  29  31
ENDBRANCH  28  29
ENDBRANCH  27  28
ENDBRANCH  14  27
ENDBRANCH  13  14
ENDBRANCH  12  13
ENDBRANCH   2  12
TORSDOF 20
ENDMDL
MODEL      101
REMARK 921   NORMALIZED FREE ENERGY PREDICTED BY IDOCK:   -5.30 KCAL/MOL
REMARK 922        TOTAL FREE ENERGY PREDICTED BY IDOCK:  -16.18 KCAL/MOL
REMARK 923 INTER-LIGAND FREE ENERGY PREDICTED BY IDOCK:  -11.47 KCAL/MOL
REMARK 924 INTRA-LIGAND FREE ENERGY PREDICTED BY IDOCK:   -4.71 KCAL/MOL
REMARK 927      BINDING AFFINITY PREDICTED BY RF-SCORE:    0.00 PKD
ROOT
HETATM    1  O   UNL     1     -10.200   8.923  66.952  1.00  0.00    -0.243 OA 
HETATM    2  C   UNL     1     -10.121   9.478  68.039  1.00  0.00    -0.188 C  
ENDROOT
BRANCH   2   3
HETATM    3  C   UNL     1      -8.959  10.340  68.471  1.00  0.00    -0.134 C  
BRANCH   3   4
HETATM    4  C   UNL     1      -8.851  11.622  67.644  1.00  0.00    -0.159 C  
BRANCH   4   5
HETATM    5  C   UNL     1     -10.008  12.589  67.918  1.00  0.00    -0.212 C  
BRANCH   5   6
HETATM    6  C   UNL     1     -10.745  12.962  66.657  1.00  0.00    -0.280 A  
HETATM    7  C   UNL     1     -12.014  13.554  66.728  1.00  0.00    -0.453 A  
HETATM    8  C   UNL     1     -12.131  13.643  64.316  1.00  0.00    -0.480 A  
HETATM    9  C   UNL     1     -12.702  13.894  65.562  1.00  0.00    -0.536 A  
HETATM   10  C   UNL     1     -10.182  12.710  65.399  1.00  0.00    -0.301 A  
HETATM   11  C   UNL     1     -10.871  13.051  64.235  1.00  0.00    -0.430 A  
ENDBRANCH   5   6
ENDBRANCH   4   5
ENDBRANCH   3   4
ENDBRANCH   2   3
BRANCH   2  12
HETATM   12  O   UNL     1     -11.056   9.409  69.027  1.00  0.00    -0.125 OA 
BRANCH  12  13
HETATM   13  C   UNL     1     -10.645   9.854  70.334  1.00  0.00    -0.302 C  
BRANCH  13  14
HETATM   14  C   UNL     1     -11.860  10.358  71.119  1.00  0.00    -0.337 C  
BRANCH  14  15
HETATM   15  O   UNL     1     -12.969   9.465  70.890  1.00  0.00    -0.207 OA 
BRANCH  15  16
HETATM   16  C   UNL     1     -13.336   8.686  71.942  1.00  0.00    -0.382 C  
HETATM   17  O   UNL     1     -13.689   9.090  73.039  1.00  0.00    -0.275 OA 
BRANCH  16  18
HETATM   18  C   UNL     1     -13.217   7.229  71.569  1.00  0.00    -0.434 C  
BRANCH  18  19
HETATM   19  C   UNL     1     -11.762   6.774  71.522  1.00  0.00    -0.361 C  
BRANCH  19  20
HETATM   20  C   UNL     1     -11.380   6.125  70.187  1.00  0.00    -0.433 C  
BRANCH  20  21
HETATM   21  C   UNL     1     -10.361   5.039  70.424  1.00  0.00    -0.297 A  
HETATM   22  C   UNL     1      -8.301   3.190  70.838  1.00  0.00    -0.091 A  
HETATM   23  C   UNL     1      -9.821   4.327  69.345  1.00  0.00    -0.205 A  
HETATM   24  C   UNL     1      -9.873   4.799  71.715  1.00  0.00    -0.242 A  
HETATM   25  C   UNL     1      -8.794   3.405  69.554  1.00  0.00    -0.150 A  
HETATM   26  C   UNL     1      -8.846   3.878  71.921  1.00  0.00    -0.137 A  
ENDBRANCH  20  21
ENDBRANCH  19  20
ENDBRANCH  18  19
ENDBRANCH  16  18
ENDBRANCH  15  16
ENDBRANCH  14  15
BRANCH  14  27
HETATM   27  C   UNL     1     -12.281  11.755  70.649  1.00  0.00    -0.349 C  
BRANCH  27  28
HETATM   28  O   UNL     1     -13.094  12.416  71.629  1.00  0.00    -0.404 OA 
BRANCH  28  29
HETATM   29  C   UNL     1     -12.872  13.756  71.745  1.00  0.00    -0.326 C  
HETATM   30  O   UNL     1     -13.083  14.415  72.753  1.00  0.00    -0.454 OA 
BRANCH  29  31
HETATM   31  C   UNL     1     -12.319  14.303  70.454  1.00  0.00    -0.419 C  
BRANCH  31  32
HETATM   32  C   UNL     1     -11.199  15.309  70.698  1.00  0.00    -0.353 C  
BRANCH  32  33
HETATM   33  C   UNL     1     -11.284  16.532  69.776  1.00  0.00    -0.166 C  
BRANCH  33  34
HETATM   34  C   UNL     1     -10.282  16.411  68.656  1.00  0.00    -0.258 A  
HETATM   35  C   UNL     1      -8.485  16.015  66.545  1.00  0.00    -0.348 A  
HETATM   36  C   UNL     1     -10.654  16.723  67.341  1.00  0.00    -0.291 A  
HETATM   37  C   UNL     1      -9.758  16.525  66.291  1.00  0.00    -0.328 A  
HETATM   38  C   UNL     1      -8.104  15.714  67.851  1.00  0.00    -0.149 A  
HETATM   39  C   UNL     1      -8.997  15.911  68.903  1.00  0.00    -0.228 A  
ENDBRANCH  33  34
ENDBRANCH  32  33
ENDBRANCH  31  32
ENDBRANCH  29  31
ENDBRANCH  28  29
ENDBRANCH  27  28
ENDBRANCH  14  27
ENDBRANCH  13  14
ENDBRANCH  12  13
ENDBRANCH   2  12
TORSDOF 20
ENDMDL
MODEL      102
REMARK 921   NORMALIZED FREE ENERGY PREDICTED BY IDOCK:   -5.30 KCAL/MOL
REMARK 922        TOTAL FREE ENERGY PREDICTED BY IDOCK:  -16.18 KCAL/MOL
REMARK 923 INTER-LIGAND FREE ENERGY PREDICTED BY IDOCK:  -12.15 KCAL/MOL
REMARK 924 INTRA-LIGAND FREE ENERGY PREDICTED BY IDOCK:   -4.03 KCAL/MOL
REMARK 927      BINDING AFFINITY PREDICTED BY RF-SCORE:    0.00 PKD
ROOT
HETATM    1  O   UNL     1      -8.266   6.375  66.485  1.00  0.00    -0.108 OA 
HETATM    2  C   UNL     1      -8.937   7.397  66.446  1.00  0.00    -0.163 C  
ENDROOT
BRANCH   2   3
HETATM    3  C   UNL     1     -10.040   7.726  67.424  1.00  0.00    -0.288 C  
BRANCH   3   4
HETATM    4  C   UNL     1     -10.837   6.487  67.836  1.00  0.00    -0.383 C  
BRANCH   4   5
HETATM    5  C   UNL     1     -10.299   5.852  69.123  1.00  0.00    -0.303 C  
BRANCH   5   6
HETATM    6  C   UNL     1     -10.687   6.640  70.348  1.00  0.00    -0.297 A  
HETATM    7  C   UNL     1     -12.014   6.634  70.802  1.00  0.00    -0.412 A  
HETATM    8  C   UNL     1     -11.422   8.117  72.616  1.00  0.00    -0.454 A  
HETATM    9  C   UNL     1     -12.378   7.368  71.932  1.00  0.00    -0.343 A  
HETATM   10  C   UNL     1      -9.736   7.399  71.041  1.00  0.00    -0.164 A  
HETATM   11  C   UNL     1     -10.101   8.132  72.170  1.00  0.00    -0.320 A  
ENDBRANCH   5   6
ENDBRANCH   4   5
ENDBRANCH   3   4
ENDBRANCH   2   3
BRANCH   2  12
HETATM   12  O   UNL     1      -8.805   8.391  65.525  1.00  0.00    -0.172 OA 
BRANCH  12  13
HETATM   13  C   UNL     1      -9.687   9.521  65.666  1.00  0.00    -0.290 C  
BRANCH  13  14
HETATM   14  C   UNL     1      -9.116  10.727  64.915  1.00  0.00    -0.198 C  
BRANCH  14  15
HETATM   15  O   UNL     1      -8.878  11.795  65.856  1.00  0.00    -0.133 OA 
BRANCH  15  16
HETATM   16  C   UNL     1      -8.044  11.505  66.890  1.00  0.00    -0.164 C  
HETATM   17  O   UNL     1      -6.980  10.912  66.803  1.00  0.00    -0.109 OA 
BRANCH  16  18
HETATM   18  C   UNL     1      -8.641  11.999  68.184  1.00  0.00    -0.173 C  
BRANCH  18  19
HETATM   19  C   UNL     1      -9.406  10.899  68.912  1.00  0.00    -0.169 C  
BRANCH  19  20
HETATM   20  C   UNL     1     -10.913  10.935  68.637  1.00  0.00    -0.274 C  
BRANCH  20  21
HETATM   21  C   UNL     1     -11.624  11.601  69.787  1.00  0.00    -0.389 A  
HETATM   22  C   UNL     1     -13.143  12.823  71.796  1.00  0.00    -0.455 A  
HETATM   23  C   UNL     1     -11.751  12.995  69.830  1.00  0.00    -0.346 A  
HETATM   24  C   UNL     1     -12.248  10.827  70.775  1.00  0.00    -0.480 A  
HETATM   25  C   UNL     1     -12.508  13.602  70.833  1.00  0.00    -0.448 A  
HETATM   26  C   UNL     1     -13.006  11.436  71.774  1.00  0.00    -0.519 A  
ENDBRANCH  20  21
ENDBRANCH  19  20
ENDBRANCH  18  19
ENDBRANCH  16  18
ENDBRANCH  15  16
ENDBRANCH  14  15
BRANCH  14  27
HETATM   27  C   UNL     1     -10.105  11.243  63.864  1.00  0.00    -0.340 C  
BRANCH  27  28
HETATM   28  O   UNL     1     -11.461  11.137  64.322  1.00  0.00    -0.090 OA 
BRANCH  28  29
HETATM   29  C   UNL     1     -12.180  12.292  64.250  1.00  0.00    -0.425 C  
HETATM   30  O   UNL     1     -12.655  12.757  63.224  1.00  0.00    -0.676 OA 
BRANCH  29  31
HETATM   31  C   UNL     1     -12.311  12.908  65.620  1.00  0.00    -0.482 C  
BRANCH  31  32
HETATM   32  C   UNL     1     -12.214  14.429  65.568  1.00  0.00    -0.352 C  
BRANCH  32  33
HETATM   33  C   UNL     1     -10.769  14.938  65.645  1.00  0.00    -0.352 C  
BRANCH  33  34
HETATM   34  C   UNL     1     -10.649  16.009  66.698  1.00  0.00    -0.297 A  
HETATM   35  C   UNL     1     -10.242  17.992  68.634  1.00  0.00    -0.385 A  
HETATM   36  C   UNL     1     -10.569  17.358  66.326  1.00  0.00    -0.194 A  
HETATM   37  C   UNL     1     -10.367  18.345  67.291  1.00  0.00    -0.417 A  
HETATM   38  C   UNL     1     -10.333  16.654  69.014  1.00  0.00    -0.317 A  
HETATM   39  C   UNL     1     -10.536  15.666  68.051  1.00  0.00    -0.263 A  
ENDBRANCH  33  34
ENDBRANCH  32  33
ENDBRANCH  31  32
ENDBRANCH  29  31
ENDBRANCH  28  29
ENDBRANCH  27  28
ENDBRANCH  14  27
ENDBRANCH  13  14
ENDBRANCH  12  13
ENDBRANCH   2  12
TORSDOF 20
ENDMDL
MODEL      103
REMARK 921   NORMALIZED FREE ENERGY PREDICTED BY IDOCK:   -5.30 KCAL/MOL
REMARK 922        TOTAL FREE ENERGY PREDICTED BY IDOCK:  -16.17 KCAL/MOL
REMARK 923 INTER-LIGAND FREE ENERGY PREDICTED BY IDOCK:  -11.55 KCAL/MOL
REMARK 924 INTRA-LIGAND FREE ENERGY PREDICTED BY IDOCK:   -4.62 KCAL/MOL
REMARK 927      BINDING AFFINITY PREDICTED BY RF-SCORE:    0.00 PKD
ROOT
HETATM    1  O   UNL     1      -9.803  10.076  64.488  1.00  0.00    -0.305 OA 
HETATM    2  C   UNL     1     -10.038  10.253  65.675  1.00  0.00    -0.271 C  
ENDROOT
BRANCH   2   3
HETATM    3  C   UNL     1      -9.441   9.431  66.791  1.00  0.00    -0.217 C  
BRANCH   3   4
HETATM    4  C   UNL     1      -9.568   7.928  66.534  1.00  0.00    -0.281 C  
BRANCH   4   5
HETATM    5  C   UNL     1     -10.782   7.318  67.243  1.00  0.00    -0.391 C  
BRANCH   5   6
HETATM    6  C   UNL     1     -10.393   6.570  68.493  1.00  0.00    -0.219 A  
HETATM    7  C   UNL     1     -11.353   6.285  69.474  1.00  0.00    -0.475 A  
HETATM    8  C   UNL     1      -9.674   5.196  70.829  1.00  0.00    -0.255 A  
HETATM    9  C   UNL     1     -10.994   5.599  70.635  1.00  0.00    -0.258 A  
HETATM   10  C   UNL     1      -9.068   6.164  68.699  1.00  0.00    -0.125 A  
HETATM   11  C   UNL     1      -8.712   5.479  69.861  1.00  0.00    -0.127 A  
ENDBRANCH   5   6
ENDBRANCH   4   5
ENDBRANCH   3   4
ENDBRANCH   2   3
BRANCH   2  12
HETATM   12  O   UNL     1     -10.870  11.206  66.178  1.00  0.00    -0.253 OA 
BRANCH  12  13
HETATM   13  C   UNL     1     -10.286  12.498  66.436  1.00  0.00    -0.243 C  
BRANCH  13  14
HETATM   14  C   UNL     1     -11.062  13.208  67.549  1.00  0.00    -0.271 C  
BRANCH  14  15
HETATM   15  O   UNL     1     -12.084  12.320  68.048  1.00  0.00    -0.439 OA 
BRANCH  15  16
HETATM   16  C   UNL     1     -12.122  12.151  69.397  1.00  0.00    -0.190 C  
HETATM   17  O   UNL     1     -11.985  13.034  70.230  1.00  0.00    -0.337 OA 
BRANCH  16  18
HETATM   18  C   UNL     1     -12.329  10.694  69.726  1.00  0.00    -0.263 C  
BRANCH  18  19
HETATM   19  C   UNL     1     -11.021  10.007  70.105  1.00  0.00    -0.368 C  
BRANCH  19  20
HETATM   20  C   UNL     1     -11.069   9.351  71.490  1.00  0.00    -0.446 C  
BRANCH  20  21
HETATM   21  C   UNL     1      -9.717   8.776  71.826  1.00  0.00    -0.380 A  
HETATM   22  C   UNL     1      -7.158   7.912  72.565  1.00  0.00    -0.095 A  
HETATM   23  C   UNL     1      -8.623   8.995  70.979  1.00  0.00    -0.264 A  
HETATM   24  C   UNL     1      -9.518   8.100  73.038  1.00  0.00    -0.333 A  
HETATM   25  C   UNL     1      -7.349   8.562  71.349  1.00  0.00    -0.104 A  
HETATM   26  C   UNL     1      -8.244   7.671  73.406  1.00  0.00    -0.196 A  
ENDBRANCH  20  21
ENDBRANCH  19  20
ENDBRANCH  18  19
ENDBRANCH  16  18
ENDBRANCH  15  16
ENDBRANCH  14  15
BRANCH  14  27
HETATM   27  C   UNL     1     -11.758  14.469  67.021  1.00  0.00    -0.393 C  
BRANCH  27  28
HETATM   28  O   UNL     1     -11.727  15.529  67.987  1.00  0.00    -0.322 OA 
BRANCH  28  29
HETATM   29  C   UNL     1     -10.593  16.285  67.968  1.00  0.00    -0.308 C  
HETATM   30  O   UNL     1      -9.832  16.427  68.914  1.00  0.00    -0.238 OA 
BRANCH  29  31
HETATM   31  C   UNL     1     -10.410  16.912  66.609  1.00  0.00    -0.299 C  
BRANCH  31  32
HETATM   32  C   UNL     1      -9.075  17.641  66.497  1.00  0.00    -0.284 C  
BRANCH  32  33
HETATM   33  C   UNL     1      -9.198  19.151  66.742  1.00  0.00    -0.356 C  
BRANCH  33  34
HETATM   34  C   UNL     1      -7.990  19.658  67.487  1.00  0.00    -0.316 A  
HETATM   35  C   UNL     1      -5.855  20.727  68.951  1.00  0.00    -0.379 A  
HETATM   36  C   UNL     1      -7.715  19.194  68.781  1.00  0.00    -0.390 A  
HETATM   37  C   UNL     1      -6.651  19.727  69.509  1.00  0.00    -0.388 A  
HETATM   38  C   UNL     1      -6.115  21.185  67.660  1.00  0.00    -0.425 A  
HETATM   39  C   UNL     1      -7.177  20.653  66.930  1.00  0.00    -0.350 A  
ENDBRANCH  33  34
ENDBRANCH  32  33
ENDBRANCH  31  32
ENDBRANCH  29  31
ENDBRANCH  28  29
ENDBRANCH  27  28
ENDBRANCH  14  27
ENDBRANCH  13  14
ENDBRANCH  12  13
ENDBRANCH   2  12
TORSDOF 20
ENDMDL
MODEL      104
REMARK 921   NORMALIZED FREE ENERGY PREDICTED BY IDOCK:   -5.29 KCAL/MOL
REMARK 922        TOTAL FREE ENERGY PREDICTED BY IDOCK:  -16.16 KCAL/MOL
REMARK 923 INTER-LIGAND FREE ENERGY PREDICTED BY IDOCK:  -12.76 KCAL/MOL
REMARK 924 INTRA-LIGAND FREE ENERGY PREDICTED BY IDOCK:   -3.39 KCAL/MOL
REMARK 927      BINDING AFFINITY PREDICTED BY RF-SCORE:    0.00 PKD
ROOT
HETATM    1  O   UNL     1     -12.816  14.659  63.920  1.00  0.00    -0.691 OA 
HETATM    2  C   UNL     1     -12.121  13.828  64.487  1.00  0.00    -0.428 C  
ENDROOT
BRANCH   2   3
HETATM    3  C   UNL     1     -10.962  13.107  63.841  1.00  0.00    -0.308 C  
BRANCH   3   4
HETATM    4  C   UNL     1     -11.059  11.590  64.008  1.00  0.00    -0.441 C  
BRANCH   4   5
HETATM    5  C   UNL     1      -9.702  10.953  64.326  1.00  0.00    -0.347 C  
BRANCH   5   6
HETATM    6  C   UNL     1      -9.775  10.027  65.513  1.00  0.00    -0.355 A  
HETATM    7  C   UNL     1     -10.566  10.360  66.622  1.00  0.00    -0.245 A  
HETATM    8  C   UNL     1      -9.904   8.320  67.734  1.00  0.00    -0.214 A  
HETATM    9  C   UNL     1     -10.631   9.508  67.726  1.00  0.00    -0.318 A  
HETATM   10  C   UNL     1      -9.045   8.832  65.534  1.00  0.00    -0.221 A  
HETATM   11  C   UNL     1      -9.111   7.982  66.638  1.00  0.00    -0.199 A  
ENDBRANCH   5   6
ENDBRANCH   4   5
ENDBRANCH   3   4
ENDBRANCH   2   3
BRANCH   2  12
HETATM   12  O   UNL     1     -12.276  13.419  65.777  1.00  0.00    -0.411 OA 
BRANCH  12  13
HETATM   13  C   UNL     1     -12.410  14.455  66.769  1.00  0.00    -0.170 C  
BRANCH  13  14
HETATM   14  C   UNL     1     -11.265  14.360  67.781  1.00  0.00    -0.300 C  
BRANCH  14  15
HETATM   15  O   UNL     1     -10.357  13.319  67.363  1.00  0.00    -0.240 OA 
BRANCH  15  16
HETATM   16  C   UNL     1      -9.033  13.628  67.409  1.00  0.00    -0.218 C  
HETATM   17  O   UNL     1      -8.179  13.014  68.031  1.00  0.00    -0.140 OA 
BRANCH  16  18
HETATM   18  C   UNL     1      -8.767  14.870  66.597  1.00  0.00    -0.262 C  
BRANCH  18  19
HETATM   19  C   UNL     1      -7.716  15.760  67.251  1.00  0.00    -0.232 C  
BRANCH  19  20
HETATM   20  C   UNL     1      -8.292  16.659  68.351  1.00  0.00    -0.208 C  
BRANCH  20  21
HETATM   21  C   UNL     1      -8.944  17.868  67.730  1.00  0.00    -0.254 A  
HETATM   22  C   UNL     1     -10.212  19.974  66.391  1.00  0.00    -0.598 A  
HETATM   23  C   UNL     1      -8.214  18.709  66.880  1.00  0.00    -0.268 A  
HETATM   24  C   UNL     1     -10.312  18.107  67.918  1.00  0.00    -0.410 A  
HETATM   25  C   UNL     1      -8.848  19.759  66.215  1.00  0.00    -0.417 A  
HETATM   26  C   UNL     1     -10.943  19.156  67.250  1.00  0.00    -0.417 A  
ENDBRANCH  20  21
ENDBRANCH  19  20
ENDBRANCH  18  19
ENDBRANCH  16  18
ENDBRANCH  15  16
ENDBRANCH  14  15
BRANCH  14  27
HETATM   27  C   UNL     1     -11.788  13.990  69.174  1.00  0.00    -0.350 C  
BRANCH  27  28
HETATM   28  O   UNL     1     -11.959  12.572  69.312  1.00  0.00    -0.296 OA 
BRANCH  28  29
HETATM   29  C   UNL     1     -12.232  12.151  70.579  1.00  0.00    -0.304 C  
HETATM   30  O   UNL     1     -12.813  12.814  71.426  1.00  0.00    -0.370 OA 
BRANCH  29  31
HETATM   31  C   UNL     1     -11.721  10.747  70.780  1.00  0.00    -0.400 C  
BRANCH  31  32
HETATM   32  C   UNL     1     -12.839   9.790  71.180  1.00  0.00    -0.434 C  
BRANCH  32  33
HETATM   33  C   UNL     1     -12.462   8.895  72.368  1.00  0.00    -0.405 C  
BRANCH  33  34
HETATM   34  C   UNL     1     -11.701   7.686  71.888  1.00  0.00    -0.328 A  
HETATM   35  C   UNL     1     -10.433   5.334  71.049  1.00  0.00    -0.274 A  
HETATM   36  C   UNL     1     -11.897   7.200  70.588  1.00  0.00    -0.334 A  
HETATM   37  C   UNL     1     -11.264   6.029  70.171  1.00  0.00    -0.412 A  
HETATM   38  C   UNL     1     -10.224   5.817  72.340  1.00  0.00    -0.224 A  
HETATM   39  C   UNL     1     -10.854   6.988  72.758  1.00  0.00    -0.321 A  
ENDBRANCH  33  34
ENDBRANCH  32  33
ENDBRANCH  31  32
ENDBRANCH  29  31
ENDBRANCH  28  29
ENDBRANCH  27  28
ENDBRANCH  14  27
ENDBRANCH  13  14
ENDBRANCH  12  13
ENDBRANCH   2  12
TORSDOF 20
ENDMDL
MODEL      105
REMARK 921   NORMALIZED FREE ENERGY PREDICTED BY IDOCK:   -5.28 KCAL/MOL
REMARK 922        TOTAL FREE ENERGY PREDICTED BY IDOCK:  -16.13 KCAL/MOL
REMARK 923 INTER-LIGAND FREE ENERGY PREDICTED BY IDOCK:  -11.32 KCAL/MOL
REMARK 924 INTRA-LIGAND FREE ENERGY PREDICTED BY IDOCK:   -4.80 KCAL/MOL
REMARK 927      BINDING AFFINITY PREDICTED BY RF-SCORE:    0.00 PKD
ROOT
HETATM    1  O   UNL     1      -7.378  10.778  68.550  1.00  0.00    -0.085 OA 
HETATM    2  C   UNL     1      -8.399  11.357  68.207  1.00  0.00    -0.152 C  
ENDROOT
BRANCH   2   3
HETATM    3  C   UNL     1      -8.480  12.322  67.048  1.00  0.00    -0.181 C  
BRANCH   3   4
HETATM    4  C   UNL     1      -8.865  13.733  67.496  1.00  0.00    -0.197 C  
BRANCH   4   5
HETATM    5  C   UNL     1      -7.849  14.328  68.478  1.00  0.00    -0.143 C  
BRANCH   5   6
HETATM    6  C   UNL     1      -7.440  15.726  68.090  1.00  0.00    -0.129 A  
HETATM    7  C   UNL     1      -7.395  16.102  66.740  1.00  0.00    -0.220 A  
HETATM    8  C   UNL     1      -6.662  18.320  67.360  1.00  0.00    -0.204 A  
HETATM    9  C   UNL     1      -7.010  17.393  66.378  1.00  0.00    -0.314 A  
HETATM   10  C   UNL     1      -7.084  16.664  69.068  1.00  0.00    -0.216 A  
HETATM   11  C   UNL     1      -6.699  17.954  68.704  1.00  0.00    -0.239 A  
ENDBRANCH   5   6
ENDBRANCH   4   5
ENDBRANCH   3   4
ENDBRANCH   2   3
BRANCH   2  12
HETATM   12  O   UNL     1      -9.615  11.230  68.807  1.00  0.00    -0.192 OA 
BRANCH  12  13
HETATM   13  C   UNL     1      -9.836  10.026  69.566  1.00  0.00    -0.229 C  
BRANCH  13  14
HETATM   14  C   UNL     1     -11.063  10.195  70.466  1.00  0.00    -0.327 C  
BRANCH  14  15
HETATM   15  O   UNL     1     -11.634   8.896  70.728  1.00  0.00    -0.280 OA 
BRANCH  15  16
HETATM   16  C   UNL     1     -12.142   8.707  71.975  1.00  0.00    -0.375 C  
HETATM   17  O   UNL     1     -13.080   9.318  72.463  1.00  0.00    -0.418 OA 
BRANCH  16  18
HETATM   18  C   UNL     1     -11.353   7.641  72.694  1.00  0.00    -0.423 C  
BRANCH  18  19
HETATM   19  C   UNL     1     -11.602   6.257  72.104  1.00  0.00    -0.367 C  
BRANCH  19  20
HETATM   20  C   UNL     1     -10.312   5.545  71.680  1.00  0.00    -0.277 C  
BRANCH  20  21
HETATM   21  C   UNL     1      -9.989   5.891  70.249  1.00  0.00    -0.247 A  
HETATM   22  C   UNL     1      -9.436   6.760  67.645  1.00  0.00    -0.126 A  
HETATM   23  C   UNL     1     -10.998   5.904  69.277  1.00  0.00    -0.397 A  
HETATM   24  C   UNL     1      -8.695   6.298  69.896  1.00  0.00    -0.141 A  
HETATM   25  C   UNL     1     -10.720   6.337  67.980  1.00  0.00    -0.369 A  
HETATM   26  C   UNL     1      -8.421   6.732  68.599  1.00  0.00    -0.123 A  
ENDBRANCH  20  21
ENDBRANCH  19  20
ENDBRANCH  18  19
ENDBRANCH  16  18
ENDBRANCH  15  16
ENDBRANCH  14  15
BRANCH  14  27
HETATM   27  C   UNL     1     -12.138  11.048  69.782  1.00  0.00    -0.353 C  
BRANCH  27  28
HETATM   28  O   UNL     1     -12.166  12.381  70.311  1.00  0.00    -0.327 OA 
BRANCH  28  29
HETATM   29  C   UNL     1     -12.119  13.368  69.372  1.00  0.00    -0.269 C  
HETATM   30  O   UNL     1     -12.181  13.188  68.165  1.00  0.00    -0.247 OA 
BRANCH  29  31
HETATM   31  C   UNL     1     -11.988  14.714  70.040  1.00  0.00    -0.376 C  
BRANCH  31  32
HETATM   32  C   UNL     1     -11.768  15.831  69.026  1.00  0.00    -0.405 C  
BRANCH  32  33
HETATM   33  C   UNL     1     -10.666  16.811  69.446  1.00  0.00    -0.300 C  
BRANCH  33  34
HETATM   34  C   UNL     1     -10.437  17.834  68.364  1.00  0.00    -0.351 A  
HETATM   35  C   UNL     1     -10.189  19.786  66.370  1.00  0.00    -0.614 A  
HETATM   36  C   UNL     1     -10.087  19.149  68.699  1.00  0.00    -0.471 A  
HETATM   37  C   UNL     1      -9.964  20.120  67.705  1.00  0.00    -0.560 A  
HETATM   38  C   UNL     1     -10.525  18.477  66.027  1.00  0.00    -0.433 A  
HETATM   39  C   UNL     1     -10.648  17.505  67.019  1.00  0.00    -0.245 A  
ENDBRANCH  33  34
ENDBRANCH  32  33
ENDBRANCH  31  32
ENDBRANCH  29  31
ENDBRANCH  28  29
ENDBRANCH  27  28
ENDBRANCH  14  27
ENDBRANCH  13  14
ENDBRANCH  12  13
ENDBRANCH   2  12
TORSDOF 20
ENDMDL
MODEL      106
REMARK 921   NORMALIZED FREE ENERGY PREDICTED BY IDOCK:   -5.27 KCAL/MOL
REMARK 922        TOTAL FREE ENERGY PREDICTED BY IDOCK:  -16.10 KCAL/MOL
REMARK 923 INTER-LIGAND FREE ENERGY PREDICTED BY IDOCK:   -9.46 KCAL/MOL
REMARK 924 INTRA-LIGAND FREE ENERGY PREDICTED BY IDOCK:   -6.65 KCAL/MOL
REMARK 927      BINDING AFFINITY PREDICTED BY RF-SCORE:    0.00 PKD
ROOT
HETATM    1  O   UNL     1      -7.657   6.462  72.902  1.00  0.00    -0.094 OA 
HETATM    2  C   UNL     1      -8.000   7.610  72.657  1.00  0.00    -0.106 C  
ENDROOT
BRANCH   2   3
HETATM    3  C   UNL     1      -7.184   8.584  71.841  1.00  0.00    -0.113 C  
BRANCH   3   4
HETATM    4  C   UNL     1      -6.507   7.911  70.645  1.00  0.00    -0.037 C  
BRANCH   4   5
HETATM    5  C   UNL     1      -7.353   8.004  69.371  1.00  0.00    -0.080 C  
BRANCH   5   6
HETATM    6  C   UNL     1      -7.077   9.270  68.599  1.00  0.00    -0.070 A  
HETATM    7  C   UNL     1      -7.921  10.381  68.739  1.00  0.00    -0.122 A  
HETATM    8  C   UNL     1      -6.583  11.621  67.154  1.00  0.00    -0.134 A  
HETATM    9  C   UNL     1      -7.672  11.552  68.021  1.00  0.00    -0.119 A  
HETATM   10  C   UNL     1      -5.989   9.349  67.721  1.00  0.00    -0.052 A  
HETATM   11  C   UNL     1      -5.742  10.520  67.004  1.00  0.00    -0.047 A  
ENDBRANCH   5   6
ENDBRANCH   4   5
ENDBRANCH   3   4
ENDBRANCH   2   3
BRANCH   2  12
HETATM   12  O   UNL     1      -9.157   8.192  73.075  1.00  0.00    -0.239 OA 
BRANCH  12  13
HETATM   13  C   UNL     1      -9.968   8.815  72.060  1.00  0.00    -0.321 C  
BRANCH  13  14
HETATM   14  C   UNL     1     -11.381   8.226  72.087  1.00  0.00    -0.352 C  
BRANCH  14  15
HETATM   15  O   UNL     1     -11.554   7.374  70.935  1.00  0.00    -0.280 OA 
BRANCH  15  16
HETATM   16  C   UNL     1     -11.082   6.105  71.054  1.00  0.00    -0.297 C  
HETATM   17  O   UNL     1     -11.334   5.333  71.967  1.00  0.00    -0.106 OA 
BRANCH  16  18
HETATM   18  C   UNL     1     -10.166   5.788  69.899  1.00  0.00    -0.302 C  
BRANCH  18  19
HETATM   19  C   UNL     1     -10.802   6.141  68.558  1.00  0.00    -0.389 C  
BRANCH  19  20
HETATM   20  C   UNL     1      -9.887   5.845  67.364  1.00  0.00    -0.145 C  
BRANCH  20  21
HETATM   21  C   UNL     1      -9.552   7.129  66.650  1.00  0.00    -0.226 A  
HETATM   22  C   UNL     1      -9.081   9.447  65.153  1.00  0.00    -0.280 A  
HETATM   23  C   UNL     1      -8.505   7.171  65.720  1.00  0.00    -0.151 A  
HETATM   24  C   UNL     1     -10.346   8.268  66.837  1.00  0.00    -0.391 A  
HETATM   25  C   UNL     1      -8.272   8.328  64.975  1.00  0.00    -0.160 A  
HETATM   26  C   UNL     1     -10.112   9.422  66.090  1.00  0.00    -0.324 A  
ENDBRANCH  20  21
ENDBRANCH  19  20
ENDBRANCH  18  19
ENDBRANCH  16  18
ENDBRANCH  15  16
ENDBRANCH  14  15
BRANCH  14  27
HETATM   27  C   UNL     1     -12.442   9.330  72.014  1.00  0.00    -0.378 C  
BRANCH  27  28
HETATM   28  O   UNL     1     -12.606   9.813  70.672  1.00  0.00    -0.224 OA 
BRANCH  28  29
HETATM   29  C   UNL     1     -12.264  11.120  70.491  1.00  0.00    -0.384 C  
HETATM   30  O   UNL     1     -12.400  12.001  71.328  1.00  0.00    -0.255 OA 
BRANCH  29  31
HETATM   31  C   UNL     1     -11.685  11.318  69.114  1.00  0.00    -0.410 C  
BRANCH  31  32
HETATM   32  C   UNL     1     -11.998  12.705  68.562  1.00  0.00    -0.258 C  
BRANCH  32  33
HETATM   33  C   UNL     1     -10.851  13.288  67.726  1.00  0.00    -0.268 C  
BRANCH  33  34
HETATM   34  C   UNL     1     -11.111  13.067  66.258  1.00  0.00    -0.314 A  
HETATM   35  C   UNL     1     -11.568  12.476  63.559  1.00  0.00    -0.584 A  
HETATM   36  C   UNL     1     -12.400  12.748  65.811  1.00  0.00    -0.388 A  
HETATM   37  C   UNL     1     -12.626  12.454  64.466  1.00  0.00    -0.477 A  
HETATM   38  C   UNL     1     -10.285  12.804  63.994  1.00  0.00    -0.323 A  
HETATM   39  C   UNL     1     -10.056  13.099  65.337  1.00  0.00    -0.260 A  
ENDBRANCH  33  34
ENDBRANCH  32  33
ENDBRANCH  31  32
ENDBRANCH  29  31
ENDBRANCH  28  29
ENDBRANCH  27  28
ENDBRANCH  14  27
ENDBRANCH  13  14
ENDBRANCH  12  13
ENDBRANCH   2  12
TORSDOF 20
ENDMDL
MODEL      107
REMARK 921   NORMALIZED FREE ENERGY PREDICTED BY IDOCK:   -5.26 KCAL/MOL
REMARK 922        TOTAL FREE ENERGY PREDICTED BY IDOCK:  -16.10 KCAL/MOL
REMARK 923 INTER-LIGAND FREE ENERGY PREDICTED BY IDOCK:  -11.86 KCAL/MOL
REMARK 924 INTRA-LIGAND FREE ENERGY PREDICTED BY IDOCK:   -4.24 KCAL/MOL
REMARK 927      BINDING AFFINITY PREDICTED BY RF-SCORE:    0.00 PKD
ROOT
HETATM    1  O   UNL     1      -7.261   8.628  69.022  1.00  0.00    -0.070 OA 
HETATM    2  C   UNL     1      -8.092   9.468  68.707  1.00  0.00    -0.096 C  
ENDROOT
BRANCH   2   3
HETATM    3  C   UNL     1      -9.131  10.030  69.647  1.00  0.00    -0.230 C  
BRANCH   3   4
HETATM    4  C   UNL     1     -10.541   9.966  69.056  1.00  0.00    -0.240 C  
BRANCH   4   5
HETATM    5  C   UNL     1     -11.116  11.358  68.775  1.00  0.00    -0.290 C  
BRANCH   5   6
HETATM    6  C   UNL     1     -11.894  11.897  69.949  1.00  0.00    -0.418 A  
HETATM    7  C   UNL     1     -12.496  11.019  70.861  1.00  0.00    -0.509 A  
HETATM    8  C   UNL     1     -13.356  12.890  72.125  1.00  0.00    -0.615 A  
HETATM    9  C   UNL     1     -13.221  11.515  71.946  1.00  0.00    -0.479 A  
HETATM   10  C   UNL     1     -12.039  13.277  70.137  1.00  0.00    -0.403 A  
HETATM   11  C   UNL     1     -12.765  13.771  71.221  1.00  0.00    -0.450 A  
ENDBRANCH   5   6
ENDBRANCH   4   5
ENDBRANCH   3   4
ENDBRANCH   2   3
BRANCH   2  12
HETATM   12  O   UNL     1      -8.217  10.026  67.471  1.00  0.00    -0.113 OA 
BRANCH  12  13
HETATM   13  C   UNL     1      -7.378   9.484  66.432  1.00  0.00    -0.093 C  
BRANCH  13  14
HETATM   14  C   UNL     1      -8.239   8.778  65.381  1.00  0.00    -0.136 C  
BRANCH  14  15
HETATM   15  O   UNL     1      -9.544   9.394  65.354  1.00  0.00    -0.273 OA 
BRANCH  15  16
HETATM   16  C   UNL     1      -9.820  10.159  64.265  1.00  0.00    -0.200 C  
HETATM   17  O   UNL     1      -9.405   9.964  63.133  1.00  0.00    -0.275 OA 
BRANCH  16  18
HETATM   18  C   UNL     1     -10.701  11.317  64.662  1.00  0.00    -0.371 C  
BRANCH  18  19
HETATM   19  C   UNL     1     -11.062  12.190  63.465  1.00  0.00    -0.525 C  
BRANCH  19  20
HETATM   20  C   UNL     1     -12.176  13.198  63.773  1.00  0.00    -0.528 C  
BRANCH  20  21
HETATM   21  C   UNL     1     -11.769  14.064  64.938  1.00  0.00    -0.385 A  
HETATM   22  C   UNL     1     -10.867  15.498  67.167  1.00  0.00    -0.316 A  
HETATM   23  C   UNL     1     -12.441  13.965  66.163  1.00  0.00    -0.478 A  
HETATM   24  C   UNL     1     -10.654  14.906  64.836  1.00  0.00    -0.417 A  
HETATM   25  C   UNL     1     -11.990  14.681  67.272  1.00  0.00    -0.312 A  
HETATM   26  C   UNL     1     -10.204  15.619  65.947  1.00  0.00    -0.372 A  
ENDBRANCH  20  21
ENDBRANCH  19  20
ENDBRANCH  18  19
ENDBRANCH  16  18
ENDBRANCH  15  16
ENDBRANCH  14  15
BRANCH  14  27
HETATM   27  C   UNL     1      -8.430   7.296  65.728  1.00  0.00    -0.143 C  
BRANCH  27  28
HETATM   28  O   UNL     1      -9.608   7.091  66.522  1.00  0.00    -0.179 OA 
BRANCH  28  29
HETATM   29  C   UNL     1      -9.936   5.784  66.727  1.00  0.00    -0.175 C  
HETATM   30  O   UNL     1     -10.931   5.234  66.278  1.00  0.00    -0.237 OA 
BRANCH  29  31
HETATM   31  C   UNL     1      -8.889   5.114  67.581  1.00  0.00    -0.105 C  
BRANCH  31  32
HETATM   32  C   UNL     1      -8.970   5.566  69.035  1.00  0.00    -0.118 C  
BRANCH  32  33
HETATM   33  C   UNL     1     -10.278   5.148  69.718  1.00  0.00    -0.357 C  
BRANCH  33  34
HETATM   34  C   UNL     1     -10.650   6.144  70.786  1.00  0.00    -0.299 A  
HETATM   35  C   UNL     1     -11.313   8.130  72.647  1.00  0.00    -0.450 A  
HETATM   36  C   UNL     1     -11.971   6.598  70.898  1.00  0.00    -0.413 A  
HETATM   37  C   UNL     1     -12.300   7.587  71.825  1.00  0.00    -0.357 A  
HETATM   38  C   UNL     1      -9.999   7.675  72.551  1.00  0.00    -0.263 A  
HETATM   39  C   UNL     1      -9.668   6.686  71.625  1.00  0.00    -0.170 A  
ENDBRANCH  33  34
ENDBRANCH  32  33
ENDBRANCH  31  32
ENDBRANCH  29  31
ENDBRANCH  28  29
ENDBRANCH  27  28
ENDBRANCH  14  27
ENDBRANCH  13  14
ENDBRANCH  12  13
ENDBRANCH   2  12
TORSDOF 20
ENDMDL
MODEL      108
REMARK 921   NORMALIZED FREE ENERGY PREDICTED BY IDOCK:   -5.26 KCAL/MOL
REMARK 922        TOTAL FREE ENERGY PREDICTED BY IDOCK:  -16.10 KCAL/MOL
REMARK 923 INTER-LIGAND FREE ENERGY PREDICTED BY IDOCK:  -13.40 KCAL/MOL
REMARK 924 INTRA-LIGAND FREE ENERGY PREDICTED BY IDOCK:   -2.70 KCAL/MOL
REMARK 927      BINDING AFFINITY PREDICTED BY RF-SCORE:    0.00 PKD
ROOT
HETATM    1  O   UNL     1     -10.253   9.651  70.877  1.00  0.00    -0.295 OA 
HETATM    2  C   UNL     1     -11.001  10.382  70.243  1.00  0.00    -0.284 C  
ENDROOT
BRANCH   2   3
HETATM    3  C   UNL     1     -12.469  10.564  70.545  1.00  0.00    -0.433 C  
BRANCH   3   4
HETATM    4  C   UNL     1     -12.702  11.214  71.910  1.00  0.00    -0.293 C  
BRANCH   4   5
HETATM    5  C   UNL     1     -13.703  12.373  71.837  1.00  0.00    -0.067 C  
BRANCH   5   6
HETATM    6  C   UNL     1     -13.020  13.716  71.895  1.00  0.00    -0.432 A  
HETATM    7  C   UNL     1     -13.115  14.508  73.048  1.00  0.00    -0.611 A  
HETATM    8  C   UNL     1     -11.768  16.222  72.006  1.00  0.00    -0.528 A  
HETATM    9  C   UNL     1     -12.489  15.754  73.102  1.00  0.00    -0.599 A  
HETATM   10  C   UNL     1     -12.297  14.197  70.797  1.00  0.00    -0.439 A  
HETATM   11  C   UNL     1     -11.672  15.444  70.853  1.00  0.00    -0.395 A  
ENDBRANCH   5   6
ENDBRANCH   4   5
ENDBRANCH   3   4
ENDBRANCH   2   3
BRANCH   2  12
HETATM   12  O   UNL     1     -10.637  11.142  69.173  1.00  0.00    -0.213 OA 
BRANCH  12  13
HETATM   13  C   UNL     1     -11.560  11.180  68.067  1.00  0.00    -0.263 C  
BRANCH  13  14
HETATM   14  C   UNL     1     -10.831  10.830  66.766  1.00  0.00    -0.194 C  
BRANCH  14  15
HETATM   15  O   UNL     1      -9.527  10.303  67.088  1.00  0.00    -0.155 OA 
BRANCH  15  16
HETATM   16  C   UNL     1      -9.241   9.070  66.592  1.00  0.00    -0.167 C  
HETATM   17  O   UNL     1      -9.211   8.768  65.408  1.00  0.00    -0.183 OA 
BRANCH  16  18
HETATM   18  C   UNL     1      -8.994   8.105  67.724  1.00  0.00    -0.134 C  
BRANCH  18  19
HETATM   19  C   UNL     1     -10.287   7.466  68.217  1.00  0.00    -0.231 C  
BRANCH  19  20
HETATM   20  C   UNL     1     -11.040   6.710  67.115  1.00  0.00    -0.427 C  
BRANCH  20  21
HETATM   21  C   UNL     1     -10.420   5.350  66.918  1.00  0.00    -0.337 A  
HETATM   22  C   UNL     1      -9.059   2.935  66.524  1.00  0.00    -0.153 A  
HETATM   23  C   UNL     1     -10.302   4.805  65.633  1.00  0.00    -0.219 A  
HETATM   24  C   UNL     1      -9.867   4.662  68.006  1.00  0.00    -0.174 A  
HETATM   25  C   UNL     1      -9.624   3.600  65.440  1.00  0.00    -0.156 A  
HETATM   26  C   UNL     1      -9.189   3.459  67.809  1.00  0.00    -0.235 A  
ENDBRANCH  20  21
ENDBRANCH  19  20
ENDBRANCH  18  19
ENDBRANCH  16  18
ENDBRANCH  15  16
ENDBRANCH  14  15
BRANCH  14  27
HETATM   27  C   UNL     1     -10.628  12.075  65.894  1.00  0.00    -0.265 C  
BRANCH  27  28
HETATM   28  O   UNL     1     -11.866  12.522  65.322  1.00  0.00    -0.374 OA 
BRANCH  28  29
HETATM   29  C   UNL     1     -11.768  13.645  64.557  1.00  0.00    -0.400 C  
HETATM   30  O   UNL     1     -12.562  13.969  63.686  1.00  0.00    -0.818 OA 
BRANCH  29  31
HETATM   31  C   UNL     1     -10.544  14.434  64.948  1.00  0.00    -0.456 C  
BRANCH  31  32
HETATM   32  C   UNL     1     -10.905  15.825  65.455  1.00  0.00    -0.343 C  
BRANCH  32  33
HETATM   33  C   UNL     1     -10.496  16.052  66.917  1.00  0.00    -0.306 C  
BRANCH  33  34
HETATM   34  C   UNL     1     -10.288  17.522  67.178  1.00  0.00    -0.330 A  
HETATM   35  C   UNL     1     -10.084  20.267  67.697  1.00  0.00    -0.515 A  
HETATM   36  C   UNL     1     -10.067  17.982  68.483  1.00  0.00    -0.399 A  
HETATM   37  C   UNL     1      -9.965  19.349  68.740  1.00  0.00    -0.522 A  
HETATM   38  C   UNL     1     -10.292  19.817  66.395  1.00  0.00    -0.619 A  
HETATM   39  C   UNL     1     -10.393  18.451  66.135  1.00  0.00    -0.431 A  
ENDBRANCH  33  34
ENDBRANCH  32  33
ENDBRANCH  31  32
ENDBRANCH  29  31
ENDBRANCH  28  29
ENDBRANCH  27  28
ENDBRANCH  14  27
ENDBRANCH  13  14
ENDBRANCH  12  13
ENDBRANCH   2  12
TORSDOF 20
ENDMDL
MODEL      109
REMARK 921   NORMALIZED FREE ENERGY PREDICTED BY IDOCK:   -5.25 KCAL/MOL
REMARK 922        TOTAL FREE ENERGY PREDICTED BY IDOCK:  -16.08 KCAL/MOL
REMARK 923 INTER-LIGAND FREE ENERGY PREDICTED BY IDOCK:  -13.80 KCAL/MOL
REMARK 924 INTRA-LIGAND FREE ENERGY PREDICTED BY IDOCK:   -2.28 KCAL/MOL
REMARK 927      BINDING AFFINITY PREDICTED BY RF-SCORE:    0.00 PKD
ROOT
HETATM    1  O   UNL     1     -11.379   9.241  71.779  1.00  0.00    -0.369 OA 
HETATM    2  C   UNL     1     -11.643  10.021  70.875  1.00  0.00    -0.378 C  
ENDROOT
BRANCH   2   3
HETATM    3  C   UNL     1     -12.898  10.858  70.815  1.00  0.00    -0.378 C  
BRANCH   3   4
HETATM    4  C   UNL     1     -13.160  11.603  72.126  1.00  0.00    -0.290 C  
BRANCH   4   5
HETATM    5  C   UNL     1     -14.021  12.854  71.921  1.00  0.00     0.049 C  
BRANCH   5   6
HETATM    6  C   UNL     1     -13.203  14.120  71.978  1.00  0.00    -0.488 A  
HETATM    7  C   UNL     1     -12.988  14.769  73.202  1.00  0.00    -0.623 A  
HETATM    8  C   UNL     1     -11.699  16.484  72.091  1.00  0.00    -0.330 A  
HETATM    9  C   UNL     1     -12.237  15.943  73.257  1.00  0.00    -0.625 A  
HETATM   10  C   UNL     1     -12.661  14.674  70.811  1.00  0.00    -0.415 A  
HETATM   11  C   UNL     1     -11.911  15.848  70.868  1.00  0.00    -0.453 A  
ENDBRANCH   5   6
ENDBRANCH   4   5
ENDBRANCH   3   4
ENDBRANCH   2   3
BRANCH   2  12
HETATM   12  O   UNL     1     -10.861  10.258  69.786  1.00  0.00    -0.247 OA 
BRANCH  12  13
HETATM   13  C   UNL     1     -11.423  11.096  68.759  1.00  0.00    -0.299 C  
BRANCH  13  14
HETATM   14  C   UNL     1     -11.028  10.566  67.378  1.00  0.00    -0.288 C  
BRANCH  14  15
HETATM   15  O   UNL     1      -9.674  10.070  67.436  1.00  0.00    -0.154 OA 
BRANCH  15  16
HETATM   16  C   UNL     1      -9.382   9.032  66.608  1.00  0.00    -0.177 C  
HETATM   17  O   UNL     1      -9.265   9.100  65.394  1.00  0.00    -0.219 OA 
BRANCH  16  18
HETATM   18  C   UNL     1      -9.251   7.760  67.408  1.00  0.00    -0.156 C  
BRANCH  18  19
HETATM   19  C   UNL     1     -10.539   7.422  68.150  1.00  0.00    -0.216 C  
BRANCH  19  20
HETATM   20  C   UNL     1     -10.751   5.914  68.329  1.00  0.00    -0.319 C  
BRANCH  20  21
HETATM   21  C   UNL     1     -10.492   5.531  69.764  1.00  0.00    -0.389 A  
HETATM   22  C   UNL     1     -10.154   4.633  72.393  1.00  0.00    -0.239 A  
HETATM   23  C   UNL     1     -11.341   5.985  70.782  1.00  0.00    -0.295 A  
HETATM   24  C   UNL     1      -9.459   4.640  70.081  1.00  0.00    -0.246 A  
HETATM   25  C   UNL     1     -11.169   5.536  72.092  1.00  0.00    -0.247 A  
HETATM   26  C   UNL     1      -9.292   4.192  71.391  1.00  0.00    -0.211 A  
ENDBRANCH  20  21
ENDBRANCH  19  20
ENDBRANCH  18  19
ENDBRANCH  16  18
ENDBRANCH  15  16
ENDBRANCH  14  15
BRANCH  14  27
HETATM   27  C   UNL     1     -11.071  11.680  66.325  1.00  0.00    -0.290 C  
BRANCH  27  28
HETATM   28  O   UNL     1     -12.150  12.594  66.572  1.00  0.00    -0.525 OA 
BRANCH  28  29
HETATM   29  C   UNL     1     -12.289  13.577  65.638  1.00  0.00    -0.476 C  
HETATM   30  O   UNL     1     -13.358  14.023  65.247  1.00  0.00    -0.741 OA 
BRANCH  29  31
HETATM   31  C   UNL     1     -10.934  14.040  65.165  1.00  0.00    -0.357 C  
BRANCH  31  32
HETATM   32  C   UNL     1     -10.712  15.522  65.445  1.00  0.00    -0.422 C  
BRANCH  32  33
HETATM   33  C   UNL     1     -10.472  15.819  66.931  1.00  0.00    -0.315 C  
BRANCH  33  34
HETATM   34  C   UNL     1     -10.301  17.301  67.145  1.00  0.00    -0.321 A  
HETATM   35  C   UNL     1     -10.167  20.068  67.558  1.00  0.00    -0.551 A  
HETATM   36  C   UNL     1     -10.224  17.821  68.445  1.00  0.00    -0.384 A  
HETATM   37  C   UNL     1     -10.157  19.199  68.649  1.00  0.00    -0.471 A  
HETATM   38  C   UNL     1     -10.231  19.558  66.262  1.00  0.00    -0.582 A  
HETATM   39  C   UNL     1     -10.297  18.181  66.056  1.00  0.00    -0.360 A  
ENDBRANCH  33  34
ENDBRANCH  32  33
ENDBRANCH  31  32
ENDBRANCH  29  31
ENDBRANCH  28  29
ENDBRANCH  27  28
ENDBRANCH  14  27
ENDBRANCH  13  14
ENDBRANCH  12  13
ENDBRANCH   2  12
TORSDOF 20
ENDMDL
MODEL      110
REMARK 921   NORMALIZED FREE ENERGY PREDICTED BY IDOCK:   -5.24 KCAL/MOL
REMARK 922        TOTAL FREE ENERGY PREDICTED BY IDOCK:  -16.05 KCAL/MOL
REMARK 923 INTER-LIGAND FREE ENERGY PREDICTED BY IDOCK:  -10.92 KCAL/MOL
REMARK 924 INTRA-LIGAND FREE ENERGY PREDICTED BY IDOCK:   -5.13 KCAL/MOL
REMARK 927      BINDING AFFINITY PREDICTED BY RF-SCORE:    0.00 PKD
ROOT
HETATM    1  O   UNL     1      -7.635   8.330  66.658  1.00  0.00    -0.087 OA 
HETATM    2  C   UNL     1      -8.773   8.041  66.317  1.00  0.00    -0.153 C  
ENDROOT
BRANCH   2   3
HETATM    3  C   UNL     1      -9.376   6.663  66.452  1.00  0.00    -0.175 C  
BRANCH   3   4
HETATM    4  C   UNL     1     -10.355   6.571  67.623  1.00  0.00    -0.239 C  
BRANCH   4   5
HETATM    5  C   UNL     1      -9.903   5.559  68.681  1.00  0.00    -0.198 C  
BRANCH   5   6
HETATM    6  C   UNL     1     -10.633   5.740  69.988  1.00  0.00    -0.380 A  
HETATM    7  C   UNL     1     -11.762   6.570  70.058  1.00  0.00    -0.388 A  
HETATM    8  C   UNL     1     -11.987   6.098  72.417  1.00  0.00    -0.240 A  
HETATM    9  C   UNL     1     -12.436   6.745  71.267  1.00  0.00    -0.365 A  
HETATM   10  C   UNL     1     -10.188   5.099  71.150  1.00  0.00    -0.291 A  
HETATM   11  C   UNL     1     -10.863   5.275  72.358  1.00  0.00    -0.283 A  
ENDBRANCH   5   6
ENDBRANCH   4   5
ENDBRANCH   3   4
ENDBRANCH   2   3
BRANCH   2  12
HETATM   12  O   UNL     1      -9.673   8.902  65.765  1.00  0.00    -0.240 OA 
BRANCH  12  13
HETATM   13  C   UNL     1      -9.183   9.760  64.717  1.00  0.00    -0.261 C  
BRANCH  13  14
HETATM   14  C   UNL     1      -9.659  11.196  64.953  1.00  0.00    -0.239 C  
BRANCH  14  15
HETATM   15  O   UNL     1     -10.348  11.259  66.219  1.00  0.00    -0.232 OA 
BRANCH  15  16
HETATM   16  C   UNL     1      -9.712  11.935  67.213  1.00  0.00    -0.184 C  
HETATM   17  O   UNL     1      -8.648  12.526  67.104  1.00  0.00    -0.188 OA 
BRANCH  16  18
HETATM   18  C   UNL     1     -10.501  11.828  68.493  1.00  0.00    -0.233 C  
BRANCH  18  19
HETATM   19  C   UNL     1     -10.876  10.384  68.808  1.00  0.00    -0.269 C  
BRANCH  19  20
HETATM   20  C   UNL     1     -10.965  10.103  70.313  1.00  0.00    -0.380 C  
BRANCH  20  21
HETATM   21  C   UNL     1      -9.750   9.329  70.757  1.00  0.00    -0.348 A  
HETATM   22  C   UNL     1      -7.615   7.694  71.534  1.00  0.00    -0.081 A  
HETATM   23  C   UNL     1      -9.620   8.921  72.091  1.00  0.00    -0.210 A  
HETATM   24  C   UNL     1      -8.788   8.928  69.822  1.00  0.00    -0.144 A  
HETATM   25  C   UNL     1      -8.554   8.106  72.476  1.00  0.00    -0.255 A  
HETATM   26  C   UNL     1      -7.725   8.112  70.209  1.00  0.00    -0.085 A  
ENDBRANCH  20  21
ENDBRANCH  19  20
ENDBRANCH  18  19
ENDBRANCH  16  18
ENDBRANCH  15  16
ENDBRANCH  14  15
BRANCH  14  27
HETATM   27  C   UNL     1     -10.644  11.638  63.864  1.00  0.00    -0.391 C  
BRANCH  27  28
HETATM   28  O   UNL     1     -11.901  12.041  64.426  1.00  0.00    -0.350 OA 
BRANCH  28  29
HETATM   29  C   UNL     1     -12.263  13.326  64.149  1.00  0.00    -0.401 C  
HETATM   30  O   UNL     1     -12.686  13.717  63.071  1.00  0.00    -0.681 OA 
BRANCH  29  31
HETATM   31  C   UNL     1     -12.073  14.192  65.369  1.00  0.00    -0.415 C  
BRANCH  31  32
HETATM   32  C   UNL     1     -11.215  15.416  65.066  1.00  0.00    -0.393 C  
BRANCH  32  33
HETATM   33  C   UNL     1      -9.799  15.310  65.648  1.00  0.00    -0.383 C  
BRANCH  33  34
HETATM   34  C   UNL     1      -9.572  16.398  66.667  1.00  0.00    -0.273 A  
HETATM   35  C   UNL     1      -9.076  18.522  68.425  1.00  0.00    -0.345 A  
HETATM   36  C   UNL     1     -10.521  17.415  66.835  1.00  0.00    -0.279 A  
HETATM   37  C   UNL     1     -10.274  18.472  67.711  1.00  0.00    -0.412 A  
HETATM   38  C   UNL     1      -8.132  17.508  68.272  1.00  0.00    -0.268 A  
HETATM   39  C   UNL     1      -8.378  16.450  67.397  1.00  0.00    -0.183 A  
ENDBRANCH  33  34
ENDBRANCH  32  33
ENDBRANCH  31  32
ENDBRANCH  29  31
ENDBRANCH  28  29
ENDBRANCH  27  28
ENDBRANCH  14  27
ENDBRANCH  13  14
ENDBRANCH  12  13
ENDBRANCH   2  12
TORSDOF 20
ENDMDL
MODEL      111
REMARK 921   NORMALIZED FREE ENERGY PREDICTED BY IDOCK:   -5.23 KCAL/MOL
REMARK 922        TOTAL FREE ENERGY PREDICTED BY IDOCK:  -16.04 KCAL/MOL
REMARK 923 INTER-LIGAND FREE ENERGY PREDICTED BY IDOCK:  -11.84 KCAL/MOL
REMARK 924 INTRA-LIGAND FREE ENERGY PREDICTED BY IDOCK:   -4.20 KCAL/MOL
REMARK 927      BINDING AFFINITY PREDICTED BY RF-SCORE:    0.00 PKD
ROOT
HETATM    1  O   UNL     1      -8.801   6.653  66.276  1.00  0.00    -0.140 OA 
HETATM    2  C   UNL     1      -9.530   7.625  66.418  1.00  0.00    -0.161 C  
ENDROOT
BRANCH   2   3
HETATM    3  C   UNL     1     -10.519   7.788  67.548  1.00  0.00    -0.338 C  
BRANCH   3   4
HETATM    4  C   UNL     1     -11.180   6.463  67.933  1.00  0.00    -0.262 C  
BRANCH   4   5
HETATM    5  C   UNL     1     -11.372   6.328  69.447  1.00  0.00    -0.448 C  
BRANCH   5   6
HETATM    6  C   UNL     1     -10.475   5.271  70.040  1.00  0.00    -0.351 A  
HETATM    7  C   UNL     1     -10.357   5.143  71.432  1.00  0.00    -0.273 A  
HETATM    8  C   UNL     1      -8.796   3.320  71.152  1.00  0.00    -0.139 A  
HETATM    9  C   UNL     1      -9.523   4.170  71.983  1.00  0.00    -0.195 A  
HETATM   10  C   UNL     1      -9.737   4.414  69.214  1.00  0.00    -0.252 A  
HETATM   11  C   UNL     1      -8.904   3.442  69.767  1.00  0.00    -0.153 A  
ENDBRANCH   5   6
ENDBRANCH   4   5
ENDBRANCH   3   4
ENDBRANCH   2   3
BRANCH   2  12
HETATM   12  O   UNL     1      -9.571   8.705  65.590  1.00  0.00    -0.142 OA 
BRANCH  12  13
HETATM   13  C   UNL     1      -8.764   9.837  65.969  1.00  0.00    -0.141 C  
BRANCH  13  14
HETATM   14  C   UNL     1      -9.318  11.111  65.324  1.00  0.00    -0.219 C  
BRANCH  14  15
HETATM   15  O   UNL     1      -9.197  12.201  66.262  1.00  0.00    -0.220 OA 
BRANCH  15  16
HETATM   16  C   UNL     1      -8.219  12.078  67.198  1.00  0.00    -0.181 C  
HETATM   17  O   UNL     1      -7.055  11.781  66.977  1.00  0.00    -0.137 OA 
BRANCH  16  18
HETATM   18  C   UNL     1      -8.787  12.335  68.571  1.00  0.00    -0.068 C  
BRANCH  18  19
HETATM   19  C   UNL     1      -9.208  11.042  69.261  1.00  0.00     0.063 C  
BRANCH  19  20
HETATM   20  C   UNL     1     -10.720  10.796  69.201  1.00  0.00    -0.265 C  
BRANCH  20  21
HETATM   21  C   UNL     1     -11.161  10.044  70.431  1.00  0.00    -0.393 A  
HETATM   22  C   UNL     1     -12.006   8.457  72.577  1.00  0.00    -0.418 A  
HETATM   23  C   UNL     1     -12.517   9.981  70.775  1.00  0.00    -0.386 A  
HETATM   24  C   UNL     1     -10.230   9.320  71.187  1.00  0.00    -0.387 A  
HETATM   25  C   UNL     1     -12.936   9.190  71.846  1.00  0.00    -0.473 A  
HETATM   26  C   UNL     1     -10.651   8.528  72.255  1.00  0.00    -0.408 A  
ENDBRANCH  20  21
ENDBRANCH  19  20
ENDBRANCH  18  19
ENDBRANCH  16  18
ENDBRANCH  15  16
ENDBRANCH  14  15
BRANCH  14  27
HETATM   27  C   UNL     1     -10.803  10.956  64.978  1.00  0.00    -0.072 C  
BRANCH  27  28
HETATM   28  O   UNL     1     -11.630  11.746  65.846  1.00  0.00    -0.354 OA 
BRANCH  28  29
HETATM   29  C   UNL     1     -12.340  12.726  65.219  1.00  0.00    -0.488 C  
HETATM   30  O   UNL     1     -13.036  12.561  64.228  1.00  0.00    -0.748 OA 
BRANCH  29  31
HETATM   31  C   UNL     1     -12.149  14.041  65.932  1.00  0.00    -0.448 C  
BRANCH  31  32
HETATM   32  C   UNL     1     -12.158  13.870  67.448  1.00  0.00    -0.380 C  
BRANCH  32  33
HETATM   33  C   UNL     1     -11.587  15.086  68.188  1.00  0.00    -0.360 C  
BRANCH  33  34
HETATM   34  C   UNL     1     -11.789  14.934  69.674  1.00  0.00    -0.356 A  
HETATM   35  C   UNL     1     -12.342  14.699  72.410  1.00  0.00    -0.357 A  
HETATM   36  C   UNL     1     -12.268  13.726  70.200  1.00  0.00    -0.425 A  
HETATM   37  C   UNL     1     -12.542  13.610  71.562  1.00  0.00    -0.385 A  
HETATM   38  C   UNL     1     -11.855  15.900  71.897  1.00  0.00    -0.595 A  
HETATM   39  C   UNL     1     -11.579  16.018  70.535  1.00  0.00    -0.383 A  
ENDBRANCH  33  34
ENDBRANCH  32  33
ENDBRANCH  31  32
ENDBRANCH  29  31
ENDBRANCH  28  29
ENDBRANCH  27  28
ENDBRANCH  14  27
ENDBRANCH  13  14
ENDBRANCH  12  13
ENDBRANCH   2  12
TORSDOF 20
ENDMDL
MODEL      112
REMARK 921   NORMALIZED FREE ENERGY PREDICTED BY IDOCK:   -5.22 KCAL/MOL
REMARK 922        TOTAL FREE ENERGY PREDICTED BY IDOCK:  -16.00 KCAL/MOL
REMARK 923 INTER-LIGAND FREE ENERGY PREDICTED BY IDOCK:  -13.51 KCAL/MOL
REMARK 924 INTRA-LIGAND FREE ENERGY PREDICTED BY IDOCK:   -2.50 KCAL/MOL
REMARK 927      BINDING AFFINITY PREDICTED BY RF-SCORE:    0.00 PKD
ROOT
HETATM    1  O   UNL     1     -10.156  10.573  69.780  1.00  0.00    -0.194 OA 
HETATM    2  C   UNL     1     -11.318  10.954  69.804  1.00  0.00    -0.301 C  
ENDROOT
BRANCH   2   3
HETATM    3  C   UNL     1     -12.416  10.281  70.592  1.00  0.00    -0.407 C  
BRANCH   3   4
HETATM    4  C   UNL     1     -11.865   9.338  71.663  1.00  0.00    -0.453 C  
BRANCH   4   5
HETATM    5  C   UNL     1     -12.638   8.016  71.726  1.00  0.00    -0.353 C  
BRANCH   5   6
HETATM    6  C   UNL     1     -11.758   6.830  71.420  1.00  0.00    -0.371 A  
HETATM    7  C   UNL     1     -11.243   6.044  72.461  1.00  0.00    -0.333 A  
HETATM    8  C   UNL     1     -10.106   4.635  70.861  1.00  0.00    -0.257 A  
HETATM    9  C   UNL     1     -10.423   4.950  72.181  1.00  0.00    -0.257 A  
HETATM   10  C   UNL     1     -11.429   6.507  70.098  1.00  0.00    -0.477 A  
HETATM   11  C   UNL     1     -10.608   5.413  69.820  1.00  0.00    -0.347 A  
ENDBRANCH   5   6
ENDBRANCH   4   5
ENDBRANCH   3   4
ENDBRANCH   2   3
BRANCH   2  12
HETATM   12  O   UNL     1     -11.807  12.031  69.130  1.00  0.00    -0.300 OA 
BRANCH  12  13
HETATM   13  C   UNL     1     -11.885  11.913  67.697  1.00  0.00    -0.195 C  
BRANCH  13  14
HETATM   14  C   UNL     1     -10.985  12.962  67.037  1.00  0.00    -0.262 C  
BRANCH  14  15
HETATM   15  O   UNL     1     -10.985  14.155  67.847  1.00  0.00    -0.244 OA 
BRANCH  15  16
HETATM   16  C   UNL     1      -9.916  14.982  67.693  1.00  0.00    -0.225 C  
HETATM   17  O   UNL     1      -8.770  14.628  67.461  1.00  0.00    -0.167 OA 
BRANCH  16  18
HETATM   18  C   UNL     1     -10.344  16.415  67.882  1.00  0.00    -0.286 C  
BRANCH  18  19
HETATM   19  C   UNL     1     -10.632  16.732  69.345  1.00  0.00    -0.318 C  
BRANCH  19  20
HETATM   20  C   UNL     1     -10.468  15.518  70.266  1.00  0.00    -0.282 C  
BRANCH  20  21
HETATM   21  C   UNL     1     -11.703  15.353  71.114  1.00  0.00    -0.418 A  
HETATM   22  C   UNL     1     -14.025  15.283  72.678  1.00  0.00    -0.555 A  
HETATM   23  C   UNL     1     -11.620  15.436  72.510  1.00  0.00    -0.525 A  
HETATM   24  C   UNL     1     -12.960  15.213  70.512  1.00  0.00    -0.366 A  
HETATM   25  C   UNL     1     -12.779  15.400  73.287  1.00  0.00    -0.626 A  
HETATM   26  C   UNL     1     -14.116  15.180  71.291  1.00  0.00    -0.537 A  
ENDBRANCH  20  21
ENDBRANCH  19  20
ENDBRANCH  18  19
ENDBRANCH  16  18
ENDBRANCH  15  16
ENDBRANCH  14  15
BRANCH  14  27
HETATM   27  C   UNL     1     -11.507  13.342  65.646  1.00  0.00    -0.318 C  
BRANCH  27  28
HETATM   28  O   UNL     1     -12.355  12.318  65.106  1.00  0.00    -0.520 OA 
BRANCH  28  29
HETATM   29  C   UNL     1     -12.201  12.096  63.770  1.00  0.00    -0.531 C  
HETATM   30  O   UNL     1     -13.116  11.902  62.984  1.00  0.00    -0.500 OA 
BRANCH  29  31
HETATM   31  C   UNL     1     -10.739  12.132  63.404  1.00  0.00    -0.461 C  
BRANCH  31  32
HETATM   32  C   UNL     1     -10.120  10.738  63.401  1.00  0.00    -0.345 C  
BRANCH  32  33
HETATM   33  C   UNL     1      -8.938  10.608  64.371  1.00  0.00    -0.212 C  
BRANCH  33  34
HETATM   34  C   UNL     1      -9.123   9.404  65.258  1.00  0.00    -0.287 A  
HETATM   35  C   UNL     1      -9.577   7.095  66.778  1.00  0.00    -0.230 A  
HETATM   36  C   UNL     1      -8.314   8.272  65.087  1.00  0.00    -0.167 A  
HETATM   37  C   UNL     1      -8.541   7.123  65.845  1.00  0.00    -0.157 A  
HETATM   38  C   UNL     1     -10.378   8.221  66.963  1.00  0.00    -0.393 A  
HETATM   39  C   UNL     1     -10.152   9.371  66.207  1.00  0.00    -0.328 A  
ENDBRANCH  33  34
ENDBRANCH  32  33
ENDBRANCH  31  32
ENDBRANCH  29  31
ENDBRANCH  28  29
ENDBRANCH  27  28
ENDBRANCH  14  27
ENDBRANCH  13  14
ENDBRANCH  12  13
ENDBRANCH   2  12
TORSDOF 20
ENDMDL
MODEL      113
REMARK 921   NORMALIZED FREE ENERGY PREDICTED BY IDOCK:   -5.20 KCAL/MOL
REMARK 922        TOTAL FREE ENERGY PREDICTED BY IDOCK:  -15.96 KCAL/MOL
REMARK 923 INTER-LIGAND FREE ENERGY PREDICTED BY IDOCK:  -11.95 KCAL/MOL
REMARK 924 INTRA-LIGAND FREE ENERGY PREDICTED BY IDOCK:   -4.01 KCAL/MOL
REMARK 927      BINDING AFFINITY PREDICTED BY RF-SCORE:    0.00 PKD
ROOT
HETATM    1  O   UNL     1      -6.357   6.873  66.201  1.00  0.00    -0.046 OA 
HETATM    2  C   UNL     1      -6.701   7.870  66.820  1.00  0.00    -0.063 C  
ENDROOT
BRANCH   2   3
HETATM    3  C   UNL     1      -6.570   8.028  68.316  1.00  0.00    -0.056 C  
BRANCH   3   4
HETATM    4  C   UNL     1      -7.816   7.544  69.059  1.00  0.00    -0.120 C  
BRANCH   4   5
HETATM    5  C   UNL     1      -8.356   8.596  70.035  1.00  0.00    -0.124 C  
BRANCH   5   6
HETATM    6  C   UNL     1      -9.633   8.148  70.701  1.00  0.00    -0.179 A  
HETATM    7  C   UNL     1      -9.861   8.432  72.055  1.00  0.00    -0.354 A  
HETATM    8  C   UNL     1     -11.996   7.304  71.953  1.00  0.00    -0.342 A  
HETATM    9  C   UNL     1     -11.039   8.013  72.676  1.00  0.00    -0.453 A  
HETATM   10  C   UNL     1     -10.599   7.432  69.984  1.00  0.00    -0.241 A  
HETATM   11  C   UNL     1     -11.776   7.014  70.607  1.00  0.00    -0.384 A  
ENDBRANCH   5   6
ENDBRANCH   4   5
ENDBRANCH   3   4
ENDBRANCH   2   3
BRANCH   2  12
HETATM   12  O   UNL     1      -7.253   8.986  66.269  1.00  0.00    -0.088 OA 
BRANCH  12  13
HETATM   13  C   UNL     1      -7.903   8.821  64.994  1.00  0.00    -0.111 C  
BRANCH  13  14
HETATM   14  C   UNL     1      -9.323   9.393  65.054  1.00  0.00    -0.191 C  
BRANCH  14  15
HETATM   15  O   UNL     1      -9.271  10.805  64.763  1.00  0.00    -0.199 OA 
BRANCH  15  16
HETATM   16  C   UNL     1      -9.662  11.173  63.513  1.00  0.00    -0.334 C  
HETATM   17  O   UNL     1      -8.916  11.451  62.587  1.00  0.00    -0.316 OA 
BRANCH  16  18
HETATM   18  C   UNL     1     -11.167  11.218  63.439  1.00  0.00    -0.104 C  
BRANCH  18  19
HETATM   19  C   UNL     1     -11.698  12.641  63.581  1.00  0.00    -0.597 C  
BRANCH  19  20
HETATM   20  C   UNL     1     -12.356  12.902  64.941  1.00  0.00    -0.532 C  
BRANCH  20  21
HETATM   21  C   UNL     1     -11.720  14.104  65.590  1.00  0.00    -0.357 A  
HETATM   22  C   UNL     1     -10.333  16.218  66.793  1.00  0.00    -0.296 A  
HETATM   23  C   UNL     1     -11.646  14.200  66.986  1.00  0.00    -0.404 A  
HETATM   24  C   UNL     1     -11.110  15.091  64.804  1.00  0.00    -0.388 A  
HETATM   25  C   UNL     1     -10.954  15.255  67.583  1.00  0.00    -0.311 A  
HETATM   26  C   UNL     1     -10.418  16.143  65.404  1.00  0.00    -0.396 A  
ENDBRANCH  20  21
ENDBRANCH  19  20
ENDBRANCH  18  19
ENDBRANCH  16  18
ENDBRANCH  15  16
ENDBRANCH  14  15
BRANCH  14  27
HETATM   27  C   UNL     1      -9.927   9.226  66.452  1.00  0.00    -0.286 C  
BRANCH  27  28
HETATM   28  O   UNL     1     -10.884  10.257  66.737  1.00  0.00    -0.187 OA 
BRANCH  28  29
HETATM   29  C   UNL     1     -10.675  10.921  67.909  1.00  0.00    -0.231 C  
HETATM   30  O   UNL     1      -9.670  11.563  68.179  1.00  0.00    -0.179 OA 
BRANCH  29  31
HETATM   31  C   UNL     1     -11.866  10.756  68.818  1.00  0.00    -0.250 C  
BRANCH  31  32
HETATM   32  C   UNL     1     -11.543  11.156  70.254  1.00  0.00    -0.388 C  
BRANCH  32  33
HETATM   33  C   UNL     1     -12.796  11.455  71.086  1.00  0.00    -0.440 C  
BRANCH  33  34
HETATM   34  C   UNL     1     -12.889  12.932  71.375  1.00  0.00    -0.377 A  
HETATM   35  C   UNL     1     -13.211  15.681  71.800  1.00  0.00    -0.548 A  
HETATM   36  C   UNL     1     -13.714  13.398  72.408  1.00  0.00    -0.698 A  
HETATM   37  C   UNL     1     -13.873  14.767  72.619  1.00  0.00    -0.506 A  
HETATM   38  C   UNL     1     -12.380  15.226  70.778  1.00  0.00    -0.433 A  
HETATM   39  C   UNL     1     -12.219  13.857  70.566  1.00  0.00    -0.443 A  
ENDBRANCH  33  34
ENDBRANCH  32  33
ENDBRANCH  31  32
ENDBRANCH  29  31
ENDBRANCH  28  29
ENDBRANCH  27  28
ENDBRANCH  14  27
ENDBRANCH  13  14
ENDBRANCH  12  13
ENDBRANCH   2  12
TORSDOF 20
ENDMDL
MODEL      114
REMARK 921   NORMALIZED FREE ENERGY PREDICTED BY IDOCK:   -5.18 KCAL/MOL
REMARK 922        TOTAL FREE ENERGY PREDICTED BY IDOCK:  -15.92 KCAL/MOL
REMARK 923 INTER-LIGAND FREE ENERGY PREDICTED BY IDOCK:  -10.80 KCAL/MOL
REMARK 924 INTRA-LIGAND FREE ENERGY PREDICTED BY IDOCK:   -5.13 KCAL/MOL
REMARK 927      BINDING AFFINITY PREDICTED BY RF-SCORE:    0.00 PKD
ROOT
HETATM    1  O   UNL     1      -9.297  18.747  66.862  1.00  0.00    -0.283 OA 
HETATM    2  C   UNL     1      -9.412  17.556  66.612  1.00  0.00    -0.275 C  
ENDROOT
BRANCH   2   3
HETATM    3  C   UNL     1      -8.250  16.620  66.379  1.00  0.00    -0.353 C  
BRANCH   3   4
HETATM    4  C   UNL     1      -7.956  15.749  67.601  1.00  0.00    -0.163 C  
BRANCH   4   5
HETATM    5  C   UNL     1      -8.070  14.253  67.289  1.00  0.00    -0.199 C  
BRANCH   5   6
HETATM    6  C   UNL     1      -7.350  13.405  68.307  1.00  0.00    -0.113 A  
HETATM    7  C   UNL     1      -7.567  12.020  68.355  1.00  0.00    -0.128 A  
HETATM    8  C   UNL     1      -6.028  11.823  70.207  1.00  0.00    -0.155 A  
HETATM    9  C   UNL     1      -6.906  11.234  69.300  1.00  0.00    -0.116 A  
HETATM   10  C   UNL     1      -6.468  13.987  69.226  1.00  0.00    -0.114 A  
HETATM   11  C   UNL     1      -5.809  13.199  70.170  1.00  0.00    -0.147 A  
ENDBRANCH   5   6
ENDBRANCH   4   5
ENDBRANCH   3   4
ENDBRANCH   2   3
BRANCH   2  12
HETATM   12  O   UNL     1     -10.592  16.886  66.501  1.00  0.00    -0.280 OA 
BRANCH  12  13
HETATM   13  C   UNL     1     -10.852  16.244  65.237  1.00  0.00    -0.297 C  
BRANCH  13  14
HETATM   14  C   UNL     1     -11.315  14.803  65.470  1.00  0.00    -0.343 C  
BRANCH  14  15
HETATM   15  O   UNL     1     -11.440  14.574  66.889  1.00  0.00    -0.340 OA 
BRANCH  15  16
HETATM   16  C   UNL     1     -11.843  13.330  67.260  1.00  0.00    -0.372 C  
HETATM   17  O   UNL     1     -12.511  12.565  66.582  1.00  0.00    -0.352 OA 
BRANCH  16  18
HETATM   18  C   UNL     1     -11.367  13.033  68.660  1.00  0.00    -0.329 C  
BRANCH  18  19
HETATM   19  C   UNL     1     -11.783  11.638  69.116  1.00  0.00    -0.390 C  
BRANCH  19  20
HETATM   20  C   UNL     1     -10.630  10.628  69.085  1.00  0.00    -0.256 C  
BRANCH  20  21
HETATM   21  C   UNL     1     -10.733   9.704  70.271  1.00  0.00    -0.335 A  
HETATM   22  C   UNL     1     -10.943   8.180  72.610  1.00  0.00    -0.440 A  
HETATM   23  C   UNL     1      -9.582   9.323  70.974  1.00  0.00    -0.329 A  
HETATM   24  C   UNL     1     -11.988   9.295  70.741  1.00  0.00    -0.269 A  
HETATM   25  C   UNL     1      -9.690   8.562  72.139  1.00  0.00    -0.387 A  
HETATM   26  C   UNL     1     -12.092   8.538  71.907  1.00  0.00    -0.411 A  
ENDBRANCH  20  21
ENDBRANCH  19  20
ENDBRANCH  18  19
ENDBRANCH  16  18
ENDBRANCH  15  16
ENDBRANCH  14  15
BRANCH  14  27
HETATM   27  C   UNL     1     -10.293  13.798  64.924  1.00  0.00    -0.398 C  
BRANCH  27  28
HETATM   28  O   UNL     1     -10.864  12.974  63.898  1.00  0.00    -0.395 OA 
BRANCH  28  29
HETATM   29  C   UNL     1     -10.168  11.833  63.630  1.00  0.00    -0.428 C  
HETATM   30  O   UNL     1      -9.307  11.726  62.769  1.00  0.00    -0.351 OA 
BRANCH  29  31
HETATM   31  C   UNL     1     -10.609  10.727  64.555  1.00  0.00    -0.258 C  
BRANCH  31  32
HETATM   32  C   UNL     1      -9.556  10.423  65.615  1.00  0.00    -0.281 C  
BRANCH  32  33
HETATM   33  C   UNL     1      -8.938   9.027  65.459  1.00  0.00    -0.252 C  
BRANCH  33  34
HETATM   34  C   UNL     1      -9.268   8.174  66.657  1.00  0.00    -0.225 A  
HETATM   35  C   UNL     1      -9.847   6.439  68.778  1.00  0.00    -0.152 A  
HETATM   36  C   UNL     1      -8.249   7.738  67.515  1.00  0.00    -0.124 A  
HETATM   37  C   UNL     1      -8.539   6.875  68.571  1.00  0.00    -0.123 A  
HETATM   38  C   UNL     1     -10.868   6.877  67.937  1.00  0.00    -0.287 A  
HETATM   39  C   UNL     1     -10.581   7.741  66.881  1.00  0.00    -0.347 A  
ENDBRANCH  33  34
ENDBRANCH  32  33
ENDBRANCH  31  32
ENDBRANCH  29  31
ENDBRANCH  28  29
ENDBRANCH  27  28
ENDBRANCH  14  27
ENDBRANCH  13  14
ENDBRANCH  12  13
ENDBRANCH   2  12
TORSDOF 20
ENDMDL
MODEL      115
REMARK 921   NORMALIZED FREE ENERGY PREDICTED BY IDOCK:   -5.18 KCAL/MOL
REMARK 922        TOTAL FREE ENERGY PREDICTED BY IDOCK:  -15.92 KCAL/MOL
REMARK 923 INTER-LIGAND FREE ENERGY PREDICTED BY IDOCK:  -11.02 KCAL/MOL
REMARK 924 INTRA-LIGAND FREE ENERGY PREDICTED BY IDOCK:   -4.90 KCAL/MOL
REMARK 927      BINDING AFFINITY PREDICTED BY RF-SCORE:    0.00 PKD
ROOT
HETATM    1  O   UNL     1     -10.159  11.272  65.055  1.00  0.00    -0.247 OA 
HETATM    2  C   UNL     1     -10.545  11.922  66.016  1.00  0.00    -0.265 C  
ENDROOT
BRANCH   2   3
HETATM    3  C   UNL     1     -11.286  11.336  67.195  1.00  0.00    -0.344 C  
BRANCH   3   4
HETATM    4  C   UNL     1     -10.991   9.846  67.380  1.00  0.00    -0.214 C  
BRANCH   4   5
HETATM    5  C   UNL     1      -9.900   9.596  68.428  1.00  0.00    -0.170 C  
BRANCH   5   6
HETATM    6  C   UNL     1      -9.756   8.132  68.756  1.00  0.00    -0.155 A  
HETATM    7  C   UNL     1      -8.588   7.656  69.370  1.00  0.00    -0.136 A  
HETATM    8  C   UNL     1      -9.470   5.407  69.354  1.00  0.00    -0.181 A  
HETATM    9  C   UNL     1      -8.448   6.301  69.669  1.00  0.00    -0.129 A  
HETATM   10  C   UNL     1     -10.775   7.224  68.440  1.00  0.00    -0.165 A  
HETATM   11  C   UNL     1     -10.633   5.869  68.740  1.00  0.00    -0.340 A  
ENDBRANCH   5   6
ENDBRANCH   4   5
ENDBRANCH   3   4
ENDBRANCH   2   3
BRANCH   2  12
HETATM   12  O   UNL     1     -10.375  13.263  66.180  1.00  0.00    -0.278 OA 
BRANCH  12  13
HETATM   13  C   UNL     1     -11.249  13.912  67.123  1.00  0.00    -0.313 C  
BRANCH  13  14
HETATM   14  C   UNL     1     -10.421  14.680  68.158  1.00  0.00    -0.237 C  
BRANCH  14  15
HETATM   15  O   UNL     1      -9.241  13.913  68.476  1.00  0.00    -0.198 OA 
BRANCH  15  16
HETATM   16  C   UNL     1      -8.126  14.629  68.779  1.00  0.00    -0.152 C  
HETATM   17  O   UNL     1      -7.453  14.507  69.791  1.00  0.00    -0.045 OA 
BRANCH  16  18
HETATM   18  C   UNL     1      -7.848  15.631  67.687  1.00  0.00    -0.173 C  
BRANCH  18  19
HETATM   19  C   UNL     1      -6.935  16.754  68.167  1.00  0.00    -0.160 C  
BRANCH  19  20
HETATM   20  C   UNL     1      -7.681  17.839  68.951  1.00  0.00    -0.201 C  
BRANCH  20  21
HETATM   21  C   UNL     1      -8.627  18.570  68.033  1.00  0.00    -0.310 A  
HETATM   22  C   UNL     1     -10.404  19.725  66.204  1.00  0.00    -0.627 A  
HETATM   23  C   UNL     1      -8.144  19.220  66.890  1.00  0.00    -0.285 A  
HETATM   24  C   UNL     1     -10.009  18.523  68.261  1.00  0.00    -0.409 A  
HETATM   25  C   UNL     1      -9.032  19.796  65.980  1.00  0.00    -0.302 A  
HETATM   26  C   UNL     1     -10.894  19.098  67.348  1.00  0.00    -0.533 A  
ENDBRANCH  20  21
ENDBRANCH  19  20
ENDBRANCH  18  19
ENDBRANCH  16  18
ENDBRANCH  15  16
ENDBRANCH  14  15
BRANCH  14  27
HETATM   27  C   UNL     1     -11.210  14.883  69.457  1.00  0.00    -0.277 C  
BRANCH  27  28
HETATM   28  O   UNL     1     -11.844  13.668  69.881  1.00  0.00    -0.298 OA 
BRANCH  28  29
HETATM   29  C   UNL     1     -12.743  13.818  70.894  1.00  0.00    -0.323 C  
HETATM   30  O   UNL     1     -13.188  14.889  71.281  1.00  0.00    -0.356 OA 
BRANCH  29  31
HETATM   31  C   UNL     1     -13.116  12.472  71.461  1.00  0.00    -0.373 C  
BRANCH  31  32
HETATM   32  C   UNL     1     -12.299  11.347  70.834  1.00  0.00    -0.483 C  
BRANCH  32  33
HETATM   33  C   UNL     1     -13.047  10.008  70.808  1.00  0.00    -0.316 C  
BRANCH  33  34
HETATM   34  C   UNL     1     -12.242   8.948  71.515  1.00  0.00    -0.388 A  
HETATM   35  C   UNL     1     -10.680   6.927  72.662  1.00  0.00    -0.275 A  
HETATM   36  C   UNL     1     -10.920   9.207  71.901  1.00  0.00    -0.372 A  
HETATM   37  C   UNL     1     -10.143   8.200  72.472  1.00  0.00    -0.370 A  
HETATM   38  C   UNL     1     -11.998   6.664  72.293  1.00  0.00    -0.259 A  
HETATM   39  C   UNL     1     -12.777   7.670  71.722  1.00  0.00    -0.356 A  
ENDBRANCH  33  34
ENDBRANCH  32  33
ENDBRANCH  31  32
ENDBRANCH  29  31
ENDBRANCH  28  29
ENDBRANCH  27  28
ENDBRANCH  14  27
ENDBRANCH  13  14
ENDBRANCH  12  13
ENDBRANCH   2  12
TORSDOF 20
ENDMDL
MODEL      116
REMARK 921   NORMALIZED FREE ENERGY PREDICTED BY IDOCK:   -5.18 KCAL/MOL
REMARK 922        TOTAL FREE ENERGY PREDICTED BY IDOCK:  -15.91 KCAL/MOL
REMARK 923 INTER-LIGAND FREE ENERGY PREDICTED BY IDOCK:  -11.44 KCAL/MOL
REMARK 924 INTRA-LIGAND FREE ENERGY PREDICTED BY IDOCK:   -4.48 KCAL/MOL
REMARK 927      BINDING AFFINITY PREDICTED BY RF-SCORE:    0.00 PKD
ROOT
HETATM    1  O   UNL     1     -12.818  12.138  71.580  1.00  0.00    -0.359 OA 
HETATM    2  C   UNL     1     -12.398  11.497  70.628  1.00  0.00    -0.364 C  
ENDROOT
BRANCH   2   3
HETATM    3  C   UNL     1     -12.374   9.988  70.564  1.00  0.00    -0.282 C  
BRANCH   3   4
HETATM    4  C   UNL     1     -11.662   9.370  71.769  1.00  0.00    -0.444 C  
BRANCH   4   5
HETATM    5  C   UNL     1     -12.347   8.087  72.253  1.00  0.00    -0.336 C  
BRANCH   5   6
HETATM    6  C   UNL     1     -11.562   6.853  71.888  1.00  0.00    -0.321 A  
HETATM    7  C   UNL     1     -11.324   6.538  70.542  1.00  0.00    -0.426 A  
HETATM    8  C   UNL     1     -10.117   4.550  71.200  1.00  0.00    -0.218 A  
HETATM    9  C   UNL     1     -10.603   5.393  70.202  1.00  0.00    -0.344 A  
HETATM   10  C   UNL     1     -11.072   5.997  72.883  1.00  0.00    -0.290 A  
HETATM   11  C   UNL     1     -10.352   4.852  72.540  1.00  0.00    -0.256 A  
ENDBRANCH   5   6
ENDBRANCH   4   5
ENDBRANCH   3   4
ENDBRANCH   2   3
BRANCH   2  12
HETATM   12  O   UNL     1     -11.886  12.030  69.484  1.00  0.00    -0.304 OA 
BRANCH  12  13
HETATM   13  C   UNL     1     -11.739  11.134  68.366  1.00  0.00    -0.279 C  
BRANCH  13  14
HETATM   14  C   UNL     1     -11.153  11.886  67.168  1.00  0.00    -0.293 C  
BRANCH  14  15
HETATM   15  O   UNL     1     -12.234  12.428  66.381  1.00  0.00    -0.604 OA 
BRANCH  15  16
HETATM   16  C   UNL     1     -11.980  13.603  65.746  1.00  0.00    -0.395 C  
HETATM   17  O   UNL     1     -12.621  14.062  64.812  1.00  0.00    -0.605 OA 
BRANCH  16  18
HETATM   18  C   UNL     1     -10.762  14.258  66.346  1.00  0.00    -0.297 C  
BRANCH  18  19
HETATM   19  C   UNL     1     -11.109  15.566  67.048  1.00  0.00    -0.238 C  
BRANCH  19  20
HETATM   20  C   UNL     1      -9.937  16.147  67.848  1.00  0.00    -0.239 C  
BRANCH  20  21
HETATM   21  C   UNL     1      -9.871  17.639  67.640  1.00  0.00    -0.294 A  
HETATM   22  C   UNL     1      -9.983  20.407  67.234  1.00  0.00    -0.564 A  
HETATM   23  C   UNL     1      -9.770  18.170  66.347  1.00  0.00    -0.329 A  
HETATM   24  C   UNL     1     -10.007  18.510  68.729  1.00  0.00    -0.417 A  
HETATM   25  C   UNL     1      -9.826  19.550  66.148  1.00  0.00    -0.490 A  
HETATM   26  C   UNL     1     -10.064  19.889  68.526  1.00  0.00    -0.538 A  
ENDBRANCH  20  21
ENDBRANCH  19  20
ENDBRANCH  18  19
ENDBRANCH  16  18
ENDBRANCH  15  16
ENDBRANCH  14  15
BRANCH  14  27
HETATM   27  C   UNL     1     -10.346  10.945  66.265  1.00  0.00    -0.250 C  
BRANCH  27  28
HETATM   28  O   UNL     1     -10.055   9.705  66.926  1.00  0.00    -0.199 OA 
BRANCH  28  29
HETATM   29  C   UNL     1      -8.728   9.433  67.071  1.00  0.00    -0.127 C  
HETATM   30  O   UNL     1      -8.045   8.827  66.258  1.00  0.00    -0.103 OA 
BRANCH  29  31
HETATM   31  C   UNL     1      -8.223   9.997  68.375  1.00  0.00    -0.106 C  
BRANCH  31  32
HETATM   32  C   UNL     1      -8.717   9.189  69.571  1.00  0.00    -0.140 C  
BRANCH  32  33
HETATM   33  C   UNL     1      -7.924   7.893  69.784  1.00  0.00    -0.114 C  
BRANCH  33  34
HETATM   34  C   UNL     1      -7.751   7.624  71.256  1.00  0.00    -0.085 A  
HETATM   35  C   UNL     1      -7.578   7.014  73.985  1.00  0.00    -0.118 A  
HETATM   36  C   UNL     1      -7.019   6.509  71.688  1.00  0.00    -0.072 A  
HETATM   37  C   UNL     1      -6.934   6.207  73.047  1.00  0.00    -0.079 A  
HETATM   38  C   UNL     1      -8.297   8.131  73.564  1.00  0.00    -0.299 A  
HETATM   39  C   UNL     1      -8.383   8.436  72.206  1.00  0.00    -0.218 A  
ENDBRANCH  33  34
ENDBRANCH  32  33
ENDBRANCH  31  32
ENDBRANCH  29  31
ENDBRANCH  28  29
ENDBRANCH  27  28
ENDBRANCH  14  27
ENDBRANCH  13  14
ENDBRANCH  12  13
ENDBRANCH   2  12
TORSDOF 20
ENDMDL
MODEL      117
REMARK 921   NORMALIZED FREE ENERGY PREDICTED BY IDOCK:   -5.16 KCAL/MOL
REMARK 922        TOTAL FREE ENERGY PREDICTED BY IDOCK:  -15.88 KCAL/MOL
REMARK 923 INTER-LIGAND FREE ENERGY PREDICTED BY IDOCK:  -11.24 KCAL/MOL
REMARK 924 INTRA-LIGAND FREE ENERGY PREDICTED BY IDOCK:   -4.64 KCAL/MOL
REMARK 927      BINDING AFFINITY PREDICTED BY RF-SCORE:    0.00 PKD
ROOT
HETATM    1  O   UNL     1     -14.263  13.375  72.705  1.00  0.00    -0.747 OA 
HETATM    2  C   UNL     1     -13.307  13.190  71.964  1.00  0.00    -0.493 C  
ENDROOT
BRANCH   2   3
HETATM    3  C   UNL     1     -12.289  14.247  71.611  1.00  0.00    -0.392 C  
BRANCH   3   4
HETATM    4  C   UNL     1     -12.682  15.034  70.359  1.00  0.00    -0.371 C  
BRANCH   4   5
HETATM    5  C   UNL     1     -12.040  14.464  69.090  1.00  0.00    -0.316 C  
BRANCH   5   6
HETATM    6  C   UNL     1     -10.904  15.323  68.596  1.00  0.00    -0.253 A  
HETATM    7  C   UNL     1     -11.158  16.597  68.066  1.00  0.00    -0.255 A  
HETATM    8  C   UNL     1      -8.798  16.921  67.658  1.00  0.00    -0.215 A  
HETATM    9  C   UNL     1     -10.109  17.391  67.602  1.00  0.00    -0.327 A  
HETATM   10  C   UNL     1      -9.583  14.859  68.644  1.00  0.00    -0.222 A  
HETATM   11  C   UNL     1      -8.536  15.655  68.179  1.00  0.00    -0.147 A  
ENDBRANCH   5   6
ENDBRANCH   4   5
ENDBRANCH   3   4
ENDBRANCH   2   3
BRANCH   2  12
HETATM   12  O   UNL     1     -13.009  12.015  71.343  1.00  0.00    -0.370 OA 
BRANCH  12  13
HETATM   13  C   UNL     1     -13.218  10.812  72.107  1.00  0.00    -0.255 C  
BRANCH  13  14
HETATM   14  C   UNL     1     -12.501   9.637  71.436  1.00  0.00    -0.373 C  
BRANCH  14  15
HETATM   15  O   UNL     1     -12.337   8.576  72.401  1.00  0.00    -0.374 OA 
BRANCH  15  16
HETATM   16  C   UNL     1     -12.102   7.337  71.892  1.00  0.00    -0.314 C  
HETATM   17  O   UNL     1     -12.646   6.855  70.910  1.00  0.00    -0.357 OA 
BRANCH  16  18
HETATM   18  C   UNL     1     -11.083   6.619  72.740  1.00  0.00    -0.283 C  
BRANCH  18  19
HETATM   19  C   UNL     1     -10.431   5.464  71.987  1.00  0.00    -0.278 C  
BRANCH  19  20
HETATM   20  C   UNL     1      -8.900   5.497  72.048  1.00  0.00    -0.137 C  
BRANCH  20  21
HETATM   21  C   UNL     1      -8.383   6.658  71.238  1.00  0.00    -0.124 A  
HETATM   22  C   UNL     1      -7.247   8.674  69.662  1.00  0.00    -0.052 A  
HETATM   23  C   UNL     1      -7.452   7.548  71.789  1.00  0.00    -0.080 A  
HETATM   24  C   UNL     1      -8.755   6.803  69.895  1.00  0.00    -0.141 A  
HETATM   25  C   UNL     1      -6.888   8.552  71.002  1.00  0.00    -0.059 A  
HETATM   26  C   UNL     1      -8.188   7.806  69.110  1.00  0.00    -0.129 A  
ENDBRANCH  20  21
ENDBRANCH  19  20
ENDBRANCH  18  19
ENDBRANCH  16  18
ENDBRANCH  15  16
ENDBRANCH  14  15
BRANCH  14  27
HETATM   27  C   UNL     1     -11.105  10.045  70.951  1.00  0.00    -0.314 C  
BRANCH  27  28
HETATM   28  O   UNL     1     -10.913   9.714  69.568  1.00  0.00    -0.232 OA 
BRANCH  28  29
HETATM   29  C   UNL     1     -11.240  10.706  68.693  1.00  0.00    -0.278 C  
HETATM   30  O   UNL     1     -12.380  10.988  68.350  1.00  0.00    -0.528 OA 
BRANCH  29  31
HETATM   31  C   UNL     1      -9.995  11.409  68.216  1.00  0.00    -0.203 C  
BRANCH  31  32
HETATM   32  C   UNL     1      -9.481  10.826  66.905  1.00  0.00    -0.192 C  
BRANCH  32  33
HETATM   33  C   UNL     1     -10.543  10.824  65.796  1.00  0.00    -0.204 C  
BRANCH  33  34
HETATM   34  C   UNL     1     -10.924  12.237  65.438  1.00  0.00    -0.341 A  
HETATM   35  C   UNL     1     -11.618  14.907  64.951  1.00  0.00    -0.395 A  
HETATM   36  C   UNL     1      -9.930  13.194  65.191  1.00  0.00    -0.170 A  
HETATM   37  C   UNL     1     -10.277  14.523  64.948  1.00  0.00    -0.338 A  
HETATM   38  C   UNL     1     -12.613  13.958  65.184  1.00  0.00    -0.466 A  
HETATM   39  C   UNL     1     -12.268  12.629  65.425  1.00  0.00    -0.517 A  
ENDBRANCH  33  34
ENDBRANCH  32  33
ENDBRANCH  31  32
ENDBRANCH  29  31
ENDBRANCH  28  29
ENDBRANCH  27  28
ENDBRANCH  14  27
ENDBRANCH  13  14
ENDBRANCH  12  13
ENDBRANCH   2  12
TORSDOF 20
ENDMDL
MODEL      118
REMARK 921   NORMALIZED FREE ENERGY PREDICTED BY IDOCK:   -5.16 KCAL/MOL
REMARK 922        TOTAL FREE ENERGY PREDICTED BY IDOCK:  -15.87 KCAL/MOL
REMARK 923 INTER-LIGAND FREE ENERGY PREDICTED BY IDOCK:   -9.54 KCAL/MOL
REMARK 924 INTRA-LIGAND FREE ENERGY PREDICTED BY IDOCK:   -6.34 KCAL/MOL
REMARK 927      BINDING AFFINITY PREDICTED BY RF-SCORE:    0.00 PKD
ROOT
HETATM    1  O   UNL     1      -7.626  15.506  69.951  1.00  0.00    -0.136 OA 
HETATM    2  C   UNL     1      -8.188  14.874  69.068  1.00  0.00    -0.168 C  
ENDROOT
BRANCH   2   3
HETATM    3  C   UNL     1      -7.481  13.967  68.090  1.00  0.00    -0.126 C  
BRANCH   3   4
HETATM    4  C   UNL     1      -7.943  12.514  68.209  1.00  0.00    -0.153 C  
BRANCH   4   5
HETATM    5  C   UNL     1      -6.873  11.523  67.739  1.00  0.00    -0.077 C  
BRANCH   5   6
HETATM    6  C   UNL     1      -6.907  10.237  68.526  1.00  0.00    -0.061 A  
HETATM    7  C   UNL     1      -7.432  10.217  69.827  1.00  0.00    -0.169 A  
HETATM    8  C   UNL     1      -6.959   7.854  70.003  1.00  0.00    -0.049 A  
HETATM    9  C   UNL     1      -7.459   9.030  70.559  1.00  0.00    -0.099 A  
HETATM   10  C   UNL     1      -6.404   9.050  67.978  1.00  0.00    -0.055 A  
HETATM   11  C   UNL     1      -6.432   7.864  68.713  1.00  0.00    -0.048 A  
ENDBRANCH   5   6
ENDBRANCH   4   5
ENDBRANCH   3   4
ENDBRANCH   2   3
BRANCH   2  12
HETATM   12  O   UNL     1      -9.528  14.885  68.823  1.00  0.00    -0.203 OA 
BRANCH  12  13
HETATM   13  C   UNL     1     -10.386  15.138  69.952  1.00  0.00    -0.189 C  
BRANCH  13  14
HETATM   14  C   UNL     1     -11.762  14.508  69.713  1.00  0.00    -0.303 C  
BRANCH  14  15
HETATM   15  O   UNL     1     -11.666  13.083  69.914  1.00  0.00    -0.304 OA 
BRANCH  15  16
HETATM   16  C   UNL     1     -12.471  12.560  70.878  1.00  0.00    -0.269 C  
HETATM   17  O   UNL     1     -13.129  13.203  71.682  1.00  0.00    -0.383 OA 
BRANCH  16  18
HETATM   18  C   UNL     1     -12.414  11.054  70.833  1.00  0.00    -0.509 C  
BRANCH  18  19
HETATM   19  C   UNL     1     -11.068  10.554  70.319  1.00  0.00    -0.359 C  
BRANCH  19  20
HETATM   20  C   UNL     1     -11.119   9.105  69.818  1.00  0.00    -0.140 C  
BRANCH  20  21
HETATM   21  C   UNL     1     -10.633   9.043  68.393  1.00  0.00    -0.200 A  
HETATM   22  C   UNL     1      -9.514   8.985  65.827  1.00  0.00    -0.305 A  
HETATM   23  C   UNL     1     -10.637  10.192  67.592  1.00  0.00    -0.316 A  
HETATM   24  C   UNL     1     -10.081   7.859  67.886  1.00  0.00    -0.240 A  
HETATM   25  C   UNL     1     -10.079  10.160  66.313  1.00  0.00    -0.303 A  
HETATM   26  C   UNL     1      -9.523   7.830  66.609  1.00  0.00    -0.263 A  
ENDBRANCH  20  21
ENDBRANCH  19  20
ENDBRANCH  18  19
ENDBRANCH  16  18
ENDBRANCH  15  16
ENDBRANCH  14  15
BRANCH  14  27
HETATM   27  C   UNL     1     -12.235  14.745  68.274  1.00  0.00    -0.030 C  
BRANCH  27  28
HETATM   28  O   UNL     1     -12.281  13.519  67.528  1.00  0.00    -0.325 OA 
BRANCH  28  29
HETATM   29  C   UNL     1     -12.019  13.651  66.198  1.00  0.00    -0.416 C  
HETATM   30  O   UNL     1     -12.862  13.629  65.313  1.00  0.00    -0.672 OA 
BRANCH  29  31
HETATM   31  C   UNL     1     -10.539  13.838  65.977  1.00  0.00    -0.290 C  
BRANCH  31  32
HETATM   32  C   UNL     1     -10.251  14.957  64.982  1.00  0.00    -0.365 C  
BRANCH  32  33
HETATM   33  C   UNL     1     -10.870  16.299  65.398  1.00  0.00    -0.284 C  
BRANCH  33  34
HETATM   34  C   UNL     1      -9.902  17.076  66.253  1.00  0.00    -0.310 A  
HETATM   35  C   UNL     1      -8.094  18.374  67.953  1.00  0.00    -0.271 A  
HETATM   36  C   UNL     1      -8.521  16.930  66.063  1.00  0.00    -0.186 A  
HETATM   37  C   UNL     1      -7.621  17.578  66.911  1.00  0.00    -0.245 A  
HETATM   38  C   UNL     1      -9.466  18.533  68.141  1.00  0.00    -0.341 A  
HETATM   39  C   UNL     1     -10.367  17.888  67.294  1.00  0.00    -0.374 A  
ENDBRANCH  33  34
ENDBRANCH  32  33
ENDBRANCH  31  32
ENDBRANCH  29  31
ENDBRANCH  28  29
ENDBRANCH  27  28
ENDBRANCH  14  27
ENDBRANCH  13  14
ENDBRANCH  12  13
ENDBRANCH   2  12
TORSDOF 20
ENDMDL
MODEL      119
REMARK 921   NORMALIZED FREE ENERGY PREDICTED BY IDOCK:   -5.15 KCAL/MOL
REMARK 922        TOTAL FREE ENERGY PREDICTED BY IDOCK:  -15.85 KCAL/MOL
REMARK 923 INTER-LIGAND FREE ENERGY PREDICTED BY IDOCK:  -11.17 KCAL/MOL
REMARK 924 INTRA-LIGAND FREE ENERGY PREDICTED BY IDOCK:   -4.68 KCAL/MOL
REMARK 927      BINDING AFFINITY PREDICTED BY RF-SCORE:    0.00 PKD
ROOT
HETATM    1  O   UNL     1     -12.166  12.354  65.823  1.00  0.00    -0.620 OA 
HETATM    2  C   UNL     1     -11.670  12.347  66.941  1.00  0.00    -0.362 C  
ENDROOT
BRANCH   2   3
HETATM    3  C   UNL     1     -10.590  13.298  67.398  1.00  0.00    -0.250 C  
BRANCH   3   4
HETATM    4  C   UNL     1     -11.073  14.750  67.428  1.00  0.00    -0.327 C  
BRANCH   4   5
HETATM    5  C   UNL     1     -10.146  15.654  68.248  1.00  0.00    -0.218 C  
BRANCH   5   6
HETATM    6  C   UNL     1     -10.176  17.082  67.766  1.00  0.00    -0.312 A  
HETATM    7  C   UNL     1     -10.373  18.131  68.675  1.00  0.00    -0.315 A  
HETATM    8  C   UNL     1     -10.252  19.740  66.876  1.00  0.00    -0.579 A  
HETATM    9  C   UNL     1     -10.407  19.454  68.231  1.00  0.00    -0.500 A  
HETATM   10  C   UNL     1     -10.025  17.381  66.406  1.00  0.00    -0.322 A  
HETATM   11  C   UNL     1     -10.061  18.704  65.964  1.00  0.00    -0.326 A  
ENDBRANCH   5   6
ENDBRANCH   4   5
ENDBRANCH   3   4
ENDBRANCH   2   3
BRANCH   2  12
HETATM   12  O   UNL     1     -12.004  11.489  67.945  1.00  0.00    -0.618 OA 
BRANCH  12  13
HETATM   13  C   UNL     1     -12.269  12.078  69.233  1.00  0.00    -0.077 C  
BRANCH  13  14
HETATM   14  C   UNL     1     -11.665  11.206  70.338  1.00  0.00    -0.320 C  
BRANCH  14  15
HETATM   15  O   UNL     1     -11.037  10.056  69.736  1.00  0.00    -0.247 OA 
BRANCH  15  16
HETATM   16  C   UNL     1      -9.752   9.813  70.111  1.00  0.00    -0.248 C  
HETATM   17  O   UNL     1      -9.402   9.279  71.153  1.00  0.00    -0.254 OA 
BRANCH  16  18
HETATM   18  C   UNL     1      -8.804  10.328  69.057  1.00  0.00    -0.170 C  
BRANCH  18  19
HETATM   19  C   UNL     1      -8.487   9.265  68.011  1.00  0.00    -0.120 C  
BRANCH  19  20
HETATM   20  C   UNL     1      -9.672   8.960  67.088  1.00  0.00    -0.241 C  
BRANCH  20  21
HETATM   21  C   UNL     1      -9.650   7.505  66.696  1.00  0.00    -0.263 A  
HETATM   22  C   UNL     1      -9.723   4.864  65.770  1.00  0.00    -0.184 A  
HETATM   23  C   UNL     1     -10.710   6.660  67.048  1.00  0.00    -0.437 A  
HETATM   24  C   UNL     1      -8.615   7.006  65.894  1.00  0.00    -0.152 A  
HETATM   25  C   UNL     1     -10.744   5.343  66.586  1.00  0.00    -0.309 A  
HETATM   26  C   UNL     1      -8.653   5.690  65.431  1.00  0.00    -0.150 A  
ENDBRANCH  20  21
ENDBRANCH  19  20
ENDBRANCH  18  19
ENDBRANCH  16  18
ENDBRANCH  15  16
ENDBRANCH  14  15
BRANCH  14  27
HETATM   27  C   UNL     1     -12.749  10.698  71.296  1.00  0.00    -0.433 C  
BRANCH  27  28
HETATM   28  O   UNL     1     -13.190   9.381  70.937  1.00  0.00    -0.191 OA 
BRANCH  28  29
HETATM   29  C   UNL     1     -12.901   8.414  71.853  1.00  0.00    -0.353 C  
HETATM   30  O   UNL     1     -12.581   8.624  73.014  1.00  0.00    -0.232 OA 
BRANCH  29  31
HETATM   31  C   UNL     1     -13.042   7.049  71.228  1.00  0.00    -0.329 C  
BRANCH  31  32
HETATM   32  C   UNL     1     -11.785   6.641  70.469  1.00  0.00    -0.453 C  
BRANCH  32  33
HETATM   33  C   UNL     1     -10.794   5.851  71.335  1.00  0.00    -0.332 C  
BRANCH  33  34
HETATM   34  C   UNL     1      -9.659   5.335  70.489  1.00  0.00    -0.236 A  
HETATM   35  C   UNL     1      -7.636   4.444  68.769  1.00  0.00    -0.063 A  
HETATM   36  C   UNL     1      -8.588   6.176  70.158  1.00  0.00    -0.133 A  
HETATM   37  C   UNL     1      -7.581   5.731  69.302  1.00  0.00    -0.088 A  
HETATM   38  C   UNL     1      -8.691   3.597  69.103  1.00  0.00    -0.137 A  
HETATM   39  C   UNL     1      -9.699   4.039  69.960  1.00  0.00    -0.264 A  
ENDBRANCH  33  34
ENDBRANCH  32  33
ENDBRANCH  31  32
ENDBRANCH  29  31
ENDBRANCH  28  29
ENDBRANCH  27  28
ENDBRANCH  14  27
ENDBRANCH  13  14
ENDBRANCH  12  13
ENDBRANCH   2  12
TORSDOF 20
ENDMDL
MODEL      120
REMARK 921   NORMALIZED FREE ENERGY PREDICTED BY IDOCK:   -5.14 KCAL/MOL
REMARK 922        TOTAL FREE ENERGY PREDICTED BY IDOCK:  -15.82 KCAL/MOL
REMARK 923 INTER-LIGAND FREE ENERGY PREDICTED BY IDOCK:  -12.97 KCAL/MOL
REMARK 924 INTRA-LIGAND FREE ENERGY PREDICTED BY IDOCK:   -2.85 KCAL/MOL
REMARK 927      BINDING AFFINITY PREDICTED BY RF-SCORE:    0.00 PKD
ROOT
HETATM    1  O   UNL     1     -10.365  10.238  68.160  1.00  0.00    -0.160 OA 
HETATM    2  C   UNL     1     -11.063  11.241  68.102  1.00  0.00    -0.259 C  
ENDROOT
BRANCH   2   3
HETATM    3  C   UNL     1     -12.273  11.485  68.971  1.00  0.00    -0.186 C  
BRANCH   3   4
HETATM    4  C   UNL     1     -11.891  11.873  70.401  1.00  0.00    -0.329 C  
BRANCH   4   5
HETATM    5  C   UNL     1     -12.813  11.232  71.443  1.00  0.00    -0.515 C  
BRANCH   5   6
HETATM    6  C   UNL     1     -12.567   9.751  71.582  1.00  0.00    -0.509 A  
HETATM    7  C   UNL     1     -11.266   9.264  71.772  1.00  0.00    -0.413 A  
HETATM    8  C   UNL     1     -12.099   6.996  71.822  1.00  0.00    -0.371 A  
HETATM    9  C   UNL     1     -11.035   7.893  71.894  1.00  0.00    -0.308 A  
HETATM   10  C   UNL     1     -13.629   8.840  71.506  1.00  0.00    -0.374 A  
HETATM   11  C   UNL     1     -13.396   7.470  71.628  1.00  0.00    -0.414 A  
ENDBRANCH   5   6
ENDBRANCH   4   5
ENDBRANCH   3   4
ENDBRANCH   2   3
BRANCH   2  12
HETATM   12  O   UNL     1     -10.866  12.289  67.255  1.00  0.00    -0.231 OA 
BRANCH  12  13
HETATM   13  C   UNL     1      -9.639  13.026  67.417  1.00  0.00    -0.211 C  
BRANCH  13  14
HETATM   14  C   UNL     1      -9.505  14.068  66.303  1.00  0.00    -0.227 C  
BRANCH  14  15
HETATM   15  O   UNL     1      -8.523  15.049  66.695  1.00  0.00    -0.248 OA 
BRANCH  15  16
HETATM   16  C   UNL     1      -8.445  15.318  68.025  1.00  0.00    -0.147 C  
HETATM   17  O   UNL     1      -7.809  14.675  68.846  1.00  0.00    -0.140 OA 
BRANCH  16  18
HETATM   18  C   UNL     1      -9.290  16.522  68.356  1.00  0.00    -0.221 C  
BRANCH  18  19
HETATM   19  C   UNL     1     -10.115  16.306  69.621  1.00  0.00    -0.175 C  
BRANCH  19  20
HETATM   20  C   UNL     1     -11.570  15.922  69.329  1.00  0.00    -0.372 C  
BRANCH  20  21
HETATM   21  C   UNL     1     -12.246  15.488  70.604  1.00  0.00    -0.445 A  
HETATM   22  C   UNL     1     -13.581  14.904  72.995  1.00  0.00    -0.416 A  
HETATM   23  C   UNL     1     -11.582  15.602  71.833  1.00  0.00    -0.547 A  
HETATM   24  C   UNL     1     -13.579  15.057  70.585  1.00  0.00    -0.132 A  
HETATM   25  C   UNL     1     -12.250  15.309  73.023  1.00  0.00    -0.527 A  
HETATM   26  C   UNL     1     -14.244  14.767  71.776  1.00  0.00    -0.629 A  
ENDBRANCH  20  21
ENDBRANCH  19  20
ENDBRANCH  18  19
ENDBRANCH  16  18
ENDBRANCH  15  16
ENDBRANCH  14  15
BRANCH  14  27
HETATM   27  C   UNL     1     -10.831  14.803  66.071  1.00  0.00    -0.318 C  
BRANCH  27  28
HETATM   28  O   UNL     1     -11.270  14.678  64.711  1.00  0.00    -0.379 OA 
BRANCH  28  29
HETATM   29  C   UNL     1     -12.262  13.764  64.513  1.00  0.00    -0.403 C  
HETATM   30  O   UNL     1     -13.320  13.738  65.125  1.00  0.00    -0.688 OA 
BRANCH  29  31
HETATM   31  C   UNL     1     -11.867  12.797  63.426  1.00  0.00    -0.591 C  
BRANCH  31  32
HETATM   32  C   UNL     1     -11.039  11.638  63.972  1.00  0.00    -0.458 C  
BRANCH  32  33
HETATM   33  C   UNL     1      -9.957  11.165  62.992  1.00  0.00    -0.347 C  
BRANCH  33  34
HETATM   34  C   UNL     1      -9.232   9.970  63.554  1.00  0.00    -0.315 A  
HETATM   35  C   UNL     1      -8.034   7.646  64.560  1.00  0.00    -0.130 A  
HETATM   36  C   UNL     1      -8.512   9.119  62.705  1.00  0.00    -0.211 A  
HETATM   37  C   UNL     1      -7.915   7.962  63.207  1.00  0.00    -0.125 A  
HETATM   38  C   UNL     1      -8.738   8.494  65.413  1.00  0.00    -0.194 A  
HETATM   39  C   UNL     1      -9.334   9.651  64.914  1.00  0.00    -0.306 A  
ENDBRANCH  33  34
ENDBRANCH  32  33
ENDBRANCH  31  32
ENDBRANCH  29  31
ENDBRANCH  28  29
ENDBRANCH  27  28
ENDBRANCH  14  27
ENDBRANCH  13  14
ENDBRANCH  12  13
ENDBRANCH   2  12
TORSDOF 20
ENDMDL
MODEL      121
REMARK 921   NORMALIZED FREE ENERGY PREDICTED BY IDOCK:   -5.13 KCAL/MOL
REMARK 922        TOTAL FREE ENERGY PREDICTED BY IDOCK:  -15.80 KCAL/MOL
REMARK 923 INTER-LIGAND FREE ENERGY PREDICTED BY IDOCK:  -11.90 KCAL/MOL
REMARK 924 INTRA-LIGAND FREE ENERGY PREDICTED BY IDOCK:   -3.91 KCAL/MOL
REMARK 927      BINDING AFFINITY PREDICTED BY RF-SCORE:    0.00 PKD
ROOT
HETATM    1  O   UNL     1     -10.156  10.708  69.635  1.00  0.00    -0.189 OA 
HETATM    2  C   UNL     1     -11.252  11.112  69.270  1.00  0.00    -0.267 C  
ENDROOT
BRANCH   2   3
HETATM    3  C   UNL     1     -12.546  10.828  69.993  1.00  0.00    -0.247 C  
BRANCH   3   4
HETATM    4  C   UNL     1     -12.313  10.304  71.411  1.00  0.00    -0.502 C  
BRANCH   4   5
HETATM    5  C   UNL     1     -12.844   8.878  71.599  1.00  0.00    -0.401 C  
BRANCH   5   6
HETATM    6  C   UNL     1     -11.735   7.890  71.860  1.00  0.00    -0.342 A  
HETATM    7  C   UNL     1     -10.426   8.340  72.085  1.00  0.00    -0.371 A  
HETATM    8  C   UNL     1      -9.664   6.060  72.328  1.00  0.00    -0.172 A  
HETATM    9  C   UNL     1      -9.397   7.427  72.321  1.00  0.00    -0.174 A  
HETATM   10  C   UNL     1     -11.992   6.513  71.865  1.00  0.00    -0.389 A  
HETATM   11  C   UNL     1     -10.961   5.603  72.100  1.00  0.00    -0.307 A  
ENDBRANCH   5   6
ENDBRANCH   4   5
ENDBRANCH   3   4
ENDBRANCH   2   3
BRANCH   2  12
HETATM   12  O   UNL     1     -11.482  11.872  68.164  1.00  0.00    -0.271 OA 
BRANCH  12  13
HETATM   13  C   UNL     1     -11.032  11.332  66.906  1.00  0.00    -0.290 C  
BRANCH  13  14
HETATM   14  C   UNL     1     -10.365  12.432  66.074  1.00  0.00    -0.251 C  
BRANCH  14  15
HETATM   15  O   UNL     1     -11.180  13.621  66.131  1.00  0.00    -0.298 OA 
BRANCH  15  16
HETATM   16  C   UNL     1     -10.523  14.784  66.387  1.00  0.00    -0.293 C  
HETATM   17  O   UNL     1      -9.530  15.185  65.799  1.00  0.00    -0.327 OA 
BRANCH  16  18
HETATM   18  C   UNL     1     -11.184  15.506  67.534  1.00  0.00    -0.272 C  
BRANCH  18  19
HETATM   19  C   UNL     1     -10.516  15.184  68.866  1.00  0.00    -0.241 C  
BRANCH  19  20
HETATM   20  C   UNL     1     -10.836  16.209  69.960  1.00  0.00    -0.349 C  
BRANCH  20  21
HETATM   21  C   UNL     1     -11.819  15.617  70.938  1.00  0.00    -0.428 A  
HETATM   22  C   UNL     1     -13.472  14.374  72.825  1.00  0.00    -0.582 A  
HETATM   23  C   UNL     1     -12.597  14.510  70.577  1.00  0.00    -0.413 A  
HETATM   24  C   UNL     1     -11.895  16.109  72.248  1.00  0.00    -0.631 A  
HETATM   25  C   UNL     1     -13.421  13.892  71.520  1.00  0.00    -0.383 A  
HETATM   26  C   UNL     1     -12.717  15.488  73.188  1.00  0.00    -0.591 A  
ENDBRANCH  20  21
ENDBRANCH  19  20
ENDBRANCH  18  19
ENDBRANCH  16  18
ENDBRANCH  15  16
ENDBRANCH  14  15
BRANCH  14  27
HETATM   27  C   UNL     1     -10.247  12.017  64.603  1.00  0.00    -0.282 C  
BRANCH  27  28
HETATM   28  O   UNL     1     -10.231  10.589  64.460  1.00  0.00    -0.348 OA 
BRANCH  28  29
HETATM   29  C   UNL     1      -9.364  10.121  63.518  1.00  0.00    -0.290 C  
HETATM   30  O   UNL     1      -9.649   9.914  62.347  1.00  0.00    -0.235 OA 
BRANCH  29  31
HETATM   31  C   UNL     1      -8.003   9.903  64.128  1.00  0.00    -0.150 C  
BRANCH  31  32
HETATM   32  C   UNL     1      -8.087   9.141  65.445  1.00  0.00    -0.124 C  
BRANCH  32  33
HETATM   33  C   UNL     1      -8.349   7.641  65.251  1.00  0.00    -0.121 C  
BRANCH  33  34
HETATM   34  C   UNL     1      -9.177   7.105  66.390  1.00  0.00    -0.196 A  
HETATM   35  C   UNL     1     -10.867   6.162  68.415  1.00  0.00    -0.382 A  
HETATM   36  C   UNL     1      -9.688   5.801  66.337  1.00  0.00    -0.175 A  
HETATM   37  C   UNL     1     -10.529   5.332  67.346  1.00  0.00    -0.213 A  
HETATM   38  C   UNL     1     -10.354   7.456  68.481  1.00  0.00    -0.221 A  
HETATM   39  C   UNL     1      -9.511   7.926  67.474  1.00  0.00    -0.175 A  
ENDBRANCH  33  34
ENDBRANCH  32  33
ENDBRANCH  31  32
ENDBRANCH  29  31
ENDBRANCH  28  29
ENDBRANCH  27  28
ENDBRANCH  14  27
ENDBRANCH  13  14
ENDBRANCH  12  13
ENDBRANCH   2  12
TORSDOF 20
ENDMDL
MODEL      122
REMARK 921   NORMALIZED FREE ENERGY PREDICTED BY IDOCK:   -5.13 KCAL/MOL
REMARK 922        TOTAL FREE ENERGY PREDICTED BY IDOCK:  -15.80 KCAL/MOL
REMARK 923 INTER-LIGAND FREE ENERGY PREDICTED BY IDOCK:  -12.05 KCAL/MOL
REMARK 924 INTRA-LIGAND FREE ENERGY PREDICTED BY IDOCK:   -3.76 KCAL/MOL
REMARK 927      BINDING AFFINITY PREDICTED BY RF-SCORE:    0.00 PKD
ROOT
HETATM    1  O   UNL     1     -10.171  11.670  64.860  1.00  0.00    -0.246 OA 
HETATM    2  C   UNL     1     -11.118  12.345  65.240  1.00  0.00    -0.303 C  
ENDROOT
BRANCH   2   3
HETATM    3  C   UNL     1     -11.483  13.694  64.668  1.00  0.00    -0.383 C  
BRANCH   3   4
HETATM    4  C   UNL     1     -10.416  14.752  64.957  1.00  0.00    -0.443 C  
BRANCH   4   5
HETATM    5  C   UNL     1     -11.022  16.143  65.175  1.00  0.00    -0.327 C  
BRANCH   5   6
HETATM    6  C   UNL     1     -10.109  17.039  65.972  1.00  0.00    -0.318 A  
HETATM    7  C   UNL     1     -10.632  18.124  66.690  1.00  0.00    -0.296 A  
HETATM    8  C   UNL     1      -8.416  18.723  67.443  1.00  0.00    -0.288 A  
HETATM    9  C   UNL     1      -9.789  18.960  67.423  1.00  0.00    -0.373 A  
HETATM   10  C   UNL     1      -8.727  16.813  65.996  1.00  0.00    -0.218 A  
HETATM   11  C   UNL     1      -7.885  17.650  66.729  1.00  0.00    -0.265 A  
ENDBRANCH   5   6
ENDBRANCH   4   5
ENDBRANCH   3   4
ENDBRANCH   2   3
BRANCH   2  12
HETATM   12  O   UNL     1     -11.986  11.996  66.229  1.00  0.00    -0.596 OA 
BRANCH  12  13
HETATM   13  C   UNL     1     -11.728  12.547  67.535  1.00  0.00    -0.374 C  
BRANCH  13  14
HETATM   14  C   UNL     1     -10.832  11.596  68.335  1.00  0.00    -0.219 C  
BRANCH  14  15
HETATM   15  O   UNL     1     -11.162  11.707  69.735  1.00  0.00    -0.223 OA 
BRANCH  15  16
HETATM   16  C   UNL     1     -11.938  10.714  70.246  1.00  0.00    -0.339 C  
HETATM   17  O   UNL     1     -13.159  10.671  70.206  1.00  0.00    -0.223 OA 
BRANCH  16  18
HETATM   18  C   UNL     1     -11.070   9.672  70.905  1.00  0.00    -0.422 C  
BRANCH  18  19
HETATM   19  C   UNL     1     -11.670   8.276  70.784  1.00  0.00    -0.213 C  
BRANCH  19  20
HETATM   20  C   UNL     1     -10.646   7.160  71.024  1.00  0.00    -0.239 C  
BRANCH  20  21
HETATM   21  C   UNL     1     -10.134   6.649  69.701  1.00  0.00    -0.202 A  
HETATM   22  C   UNL     1      -9.183   5.481  67.341  1.00  0.00    -0.110 A  
HETATM   23  C   UNL     1      -8.757   6.549  69.466  1.00  0.00    -0.134 A  
HETATM   24  C   UNL     1     -11.030   6.177  68.732  1.00  0.00    -0.421 A  
HETATM   25  C   UNL     1      -8.286   5.967  68.288  1.00  0.00    -0.110 A  
HETATM   26  C   UNL     1     -10.556   5.595  67.558  1.00  0.00    -0.296 A  
ENDBRANCH  20  21
ENDBRANCH  19  20
ENDBRANCH  18  19
ENDBRANCH  16  18
ENDBRANCH  15  16
ENDBRANCH  14  15
BRANCH  14  27
HETATM   27  C   UNL     1      -9.352  11.965  68.174  1.00  0.00    -0.191 C  
BRANCH  27  28
HETATM   28  O   UNL     1      -9.187  13.364  67.899  1.00  0.00    -0.198 OA 
BRANCH  28  29
HETATM   29  C   UNL     1      -8.212  13.977  68.627  1.00  0.00    -0.103 C  
HETATM   30  O   UNL     1      -7.067  13.566  68.748  1.00  0.00    -0.098 OA 
BRANCH  29  31
HETATM   31  C   UNL     1      -8.748  15.240  69.252  1.00  0.00    -0.237 C  
BRANCH  31  32
HETATM   32  C   UNL     1     -10.265  15.333  69.129  1.00  0.00    -0.242 C  
BRANCH  32  33
HETATM   33  C   UNL     1     -10.873  16.399  70.050  1.00  0.00    -0.306 C  
BRANCH  33  34
HETATM   34  C   UNL     1     -11.817  15.758  71.035  1.00  0.00    -0.460 A  
HETATM   35  C   UNL     1     -13.428  14.468  72.929  1.00  0.00    -0.525 A  
HETATM   36  C   UNL     1     -11.945  16.280  72.330  1.00  0.00    -0.630 A  
HETATM   37  C   UNL     1     -12.748  15.637  73.272  1.00  0.00    -0.626 A  
HETATM   38  C   UNL     1     -13.315  13.950  71.640  1.00  0.00    -0.437 A  
HETATM   39  C   UNL     1     -12.514  14.592  70.696  1.00  0.00    -0.408 A  
ENDBRANCH  33  34
ENDBRANCH  32  33
ENDBRANCH  31  32
ENDBRANCH  29  31
ENDBRANCH  28  29
ENDBRANCH  27  28
ENDBRANCH  14  27
ENDBRANCH  13  14
ENDBRANCH  12  13
ENDBRANCH   2  12
TORSDOF 20
ENDMDL
MODEL      123
REMARK 921   NORMALIZED FREE ENERGY PREDICTED BY IDOCK:   -5.12 KCAL/MOL
REMARK 922        TOTAL FREE ENERGY PREDICTED BY IDOCK:  -15.78 KCAL/MOL
REMARK 923 INTER-LIGAND FREE ENERGY PREDICTED BY IDOCK:  -10.93 KCAL/MOL
REMARK 924 INTRA-LIGAND FREE ENERGY PREDICTED BY IDOCK:   -4.85 KCAL/MOL
REMARK 927      BINDING AFFINITY PREDICTED BY RF-SCORE:    0.00 PKD
ROOT
HETATM    1  O   UNL     1     -13.957   6.948  71.650  1.00  0.00    -0.299 OA 
HETATM    2  C   UNL     1     -12.766   7.213  71.569  1.00  0.00    -0.393 C  
ENDROOT
BRANCH   2   3
HETATM    3  C   UNL     1     -12.062   8.233  72.431  1.00  0.00    -0.430 C  
BRANCH   3   4
HETATM    4  C   UNL     1     -11.723   9.509  71.658  1.00  0.00    -0.460 C  
BRANCH   4   5
HETATM    5  C   UNL     1     -12.956  10.388  71.419  1.00  0.00    -0.545 C  
BRANCH   5   6
HETATM    6  C   UNL     1     -12.580  11.790  71.009  1.00  0.00    -0.409 A  
HETATM    7  C   UNL     1     -11.800  12.007  69.864  1.00  0.00    -0.405 A  
HETATM    8  C   UNL     1     -11.862  14.392  70.249  1.00  0.00    -0.382 A  
HETATM    9  C   UNL     1     -11.446  13.302  69.486  1.00  0.00    -0.299 A  
HETATM   10  C   UNL     1     -12.989  12.891  71.772  1.00  0.00    -0.416 A  
HETATM   11  C   UNL     1     -12.634  14.186  71.392  1.00  0.00    -0.445 A  
ENDBRANCH   5   6
ENDBRANCH   4   5
ENDBRANCH   3   4
ENDBRANCH   2   3
BRANCH   2  12
HETATM   12  O   UNL     1     -11.890   6.640  70.697  1.00  0.00    -0.382 OA 
BRANCH  12  13
HETATM   13  C   UNL     1     -10.668   6.125  71.259  1.00  0.00    -0.256 C  
BRANCH  13  14
HETATM   14  C   UNL     1      -9.524   6.283  70.252  1.00  0.00    -0.161 C  
BRANCH  14  15
HETATM   15  O   UNL     1      -9.316   7.687  69.996  1.00  0.00    -0.154 OA 
BRANCH  15  16
HETATM   16  C   UNL     1      -8.070   8.164  70.259  1.00  0.00    -0.109 C  
HETATM   17  O   UNL     1      -7.060   7.487  70.386  1.00  0.00    -0.057 OA 
BRANCH  16  18
HETATM   18  C   UNL     1      -8.114   9.664  70.405  1.00  0.00    -0.198 C  
BRANCH  18  19
HETATM   19  C   UNL     1      -8.174  10.363  69.051  1.00  0.00    -0.141 C  
BRANCH  19  20
HETATM   20  C   UNL     1      -6.943  11.234  68.772  1.00  0.00    -0.091 C  
BRANCH  20  21
HETATM   21  C   UNL     1      -7.380  12.636  68.432  1.00  0.00    -0.118 A  
HETATM   22  C   UNL     1      -8.379  15.205  67.942  1.00  0.00    -0.153 A  
HETATM   23  C   UNL     1      -8.239  12.868  67.349  1.00  0.00    -0.187 A  
HETATM   24  C   UNL     1      -7.011  13.709  69.253  1.00  0.00    -0.025 A  
HETATM   25  C   UNL     1      -8.735  14.149  67.106  1.00  0.00    -0.239 A  
HETATM   26  C   UNL     1      -7.510  14.988  69.009  1.00  0.00    -0.156 A  
ENDBRANCH  20  21
ENDBRANCH  19  20
ENDBRANCH  18  19
ENDBRANCH  16  18
ENDBRANCH  15  16
ENDBRANCH  14  15
BRANCH  14  27
HETATM   27  C   UNL     1      -9.867   5.612  68.917  1.00  0.00    -0.147 C  
BRANCH  27  28
HETATM   28  O   UNL     1      -9.023   6.086  67.858  1.00  0.00    -0.120 OA 
BRANCH  28  29
HETATM   29  C   UNL     1      -9.686   6.640  66.804  1.00  0.00    -0.169 C  
HETATM   30  O   UNL     1     -10.730   6.212  66.332  1.00  0.00    -0.159 OA 
BRANCH  29  31
HETATM   31  C   UNL     1      -8.951   7.861  66.313  1.00  0.00    -0.207 C  
BRANCH  31  32
HETATM   32  C   UNL     1      -9.883   9.058  66.156  1.00  0.00    -0.349 C  
BRANCH  32  33
HETATM   33  C   UNL     1      -9.616   9.858  64.874  1.00  0.00    -0.356 C  
BRANCH  33  34
HETATM   34  C   UNL     1     -10.537  11.049  64.801  1.00  0.00    -0.350 A  
HETATM   35  C   UNL     1     -12.103  13.369  64.703  1.00  0.00    -0.456 A  
HETATM   36  C   UNL     1     -10.681  11.757  63.600  1.00  0.00    -0.503 A  
HETATM   37  C   UNL     1     -11.461  12.912  63.553  1.00  0.00    -0.470 A  
HETATM   38  C   UNL     1     -11.975  12.663  65.898  1.00  0.00    -0.497 A  
HETATM   39  C   UNL     1     -11.197  11.508  65.948  1.00  0.00    -0.239 A  
ENDBRANCH  33  34
ENDBRANCH  32  33
ENDBRANCH  31  32
ENDBRANCH  29  31
ENDBRANCH  28  29
ENDBRANCH  27  28
ENDBRANCH  14  27
ENDBRANCH  13  14
ENDBRANCH  12  13
ENDBRANCH   2  12
TORSDOF 20
ENDMDL
MODEL      124
REMARK 921   NORMALIZED FREE ENERGY PREDICTED BY IDOCK:   -5.11 KCAL/MOL
REMARK 922        TOTAL FREE ENERGY PREDICTED BY IDOCK:  -15.78 KCAL/MOL
REMARK 923 INTER-LIGAND FREE ENERGY PREDICTED BY IDOCK:  -11.02 KCAL/MOL
REMARK 924 INTRA-LIGAND FREE ENERGY PREDICTED BY IDOCK:   -4.75 KCAL/MOL
REMARK 927      BINDING AFFINITY PREDICTED BY RF-SCORE:    0.00 PKD
ROOT
HETATM    1  O   UNL     1     -10.234   9.397  71.218  1.00  0.00    -0.315 OA 
HETATM    2  C   UNL     1     -10.428   9.702  70.049  1.00  0.00    -0.261 C  
ENDROOT
BRANCH   2   3
HETATM    3  C   UNL     1      -9.562   9.248  68.898  1.00  0.00    -0.155 C  
BRANCH   3   4
HETATM    4  C   UNL     1     -10.378   8.584  67.788  1.00  0.00    -0.298 C  
BRANCH   4   5
HETATM    5  C   UNL     1      -9.670   7.357  67.202  1.00  0.00    -0.223 C  
BRANCH   5   6
HETATM    6  C   UNL     1      -9.369   6.321  68.254  1.00  0.00    -0.112 A  
HETATM    7  C   UNL     1     -10.396   5.813  69.062  1.00  0.00    -0.313 A  
HETATM    8  C   UNL     1      -8.814   4.406  70.227  1.00  0.00    -0.126 A  
HETATM    9  C   UNL     1     -10.119   4.859  70.042  1.00  0.00    -0.337 A  
HETATM   10  C   UNL     1      -8.060   5.862  68.451  1.00  0.00    -0.109 A  
HETATM   11  C   UNL     1      -7.785   4.908  69.431  1.00  0.00    -0.067 A  
ENDBRANCH   5   6
ENDBRANCH   4   5
ENDBRANCH   3   4
ENDBRANCH   2   3
BRANCH   2  12
HETATM   12  O   UNL     1     -11.442  10.492  69.600  1.00  0.00    -0.247 OA 
BRANCH  12  13
HETATM   13  C   UNL     1     -11.301  11.908  69.822  1.00  0.00    -0.147 C  
BRANCH  13  14
HETATM   14  C   UNL     1     -10.789  12.588  68.549  1.00  0.00    -0.243 C  
BRANCH  14  15
HETATM   15  O   UNL     1     -10.173  13.844  68.905  1.00  0.00    -0.213 OA 
BRANCH  15  16
HETATM   16  C   UNL     1      -8.870  13.993  68.545  1.00  0.00    -0.160 C  
HETATM   17  O   UNL     1      -8.204  13.177  67.926  1.00  0.00    -0.137 OA 
BRANCH  16  18
HETATM   18  C   UNL     1      -8.346  15.313  69.051  1.00  0.00    -0.215 C  
BRANCH  18  19
HETATM   19  C   UNL     1      -7.031  15.695  68.381  1.00  0.00    -0.115 C  
BRANCH  19  20
HETATM   20  C   UNL     1      -7.212  16.173  66.935  1.00  0.00    -0.240 C  
BRANCH  20  21
HETATM   21  C   UNL     1      -6.877  17.640  66.839  1.00  0.00    -0.212 A  
HETATM   22  C   UNL     1      -6.487  20.408  66.687  1.00  0.00    -0.266 A  
HETATM   23  C   UNL     1      -6.888  18.289  65.599  1.00  0.00    -0.264 A  
HETATM   24  C   UNL     1      -6.647  18.388  68.001  1.00  0.00    -0.210 A  
HETATM   25  C   UNL     1      -6.693  19.669  65.525  1.00  0.00    -0.313 A  
HETATM   26  C   UNL     1      -6.454  19.767  67.925  1.00  0.00    -0.267 A  
ENDBRANCH  20  21
ENDBRANCH  19  20
ENDBRANCH  18  19
ENDBRANCH  16  18
ENDBRANCH  15  16
ENDBRANCH  14  15
BRANCH  14  27
HETATM   27  C   UNL     1     -11.940  12.891  67.582  1.00  0.00    -0.289 C  
BRANCH  27  28
HETATM   28  O   UNL     1     -11.537  12.719  66.216  1.00  0.00    -0.337 OA 
BRANCH  28  29
HETATM   29  C   UNL     1     -11.731  13.810  65.423  1.00  0.00    -0.335 C  
HETATM   30  O   UNL     1     -12.819  14.195  65.019  1.00  0.00    -0.687 OA 
BRANCH  29  31
HETATM   31  C   UNL     1     -10.412  14.475  65.123  1.00  0.00    -0.439 C  
BRANCH  31  32
HETATM   32  C   UNL     1     -10.475  15.983  65.345  1.00  0.00    -0.415 C  
BRANCH  32  33
HETATM   33  C   UNL     1     -10.714  16.360  66.813  1.00  0.00    -0.180 C  
BRANCH  33  34
HETATM   34  C   UNL     1     -10.532  17.844  67.005  1.00  0.00    -0.345 A  
HETATM   35  C   UNL     1     -10.011  20.574  67.347  1.00  0.00    -0.525 A  
HETATM   36  C   UNL     1     -10.443  18.693  65.894  1.00  0.00    -0.395 A  
HETATM   37  C   UNL     1     -10.184  20.053  66.066  1.00  0.00    -0.568 A  
HETATM   38  C   UNL     1     -10.110  19.738  68.458  1.00  0.00    -0.555 A  
HETATM   39  C   UNL     1     -10.370  18.379  68.289  1.00  0.00    -0.384 A  
ENDBRANCH  33  34
ENDBRANCH  32  33
ENDBRANCH  31  32
ENDBRANCH  29  31
ENDBRANCH  28  29
ENDBRANCH  27  28
ENDBRANCH  14  27
ENDBRANCH  13  14
ENDBRANCH  12  13
ENDBRANCH   2  12
TORSDOF 20
ENDMDL
MODEL      125
REMARK 921   NORMALIZED FREE ENERGY PREDICTED BY IDOCK:   -5.11 KCAL/MOL
REMARK 922        TOTAL FREE ENERGY PREDICTED BY IDOCK:  -15.77 KCAL/MOL
REMARK 923 INTER-LIGAND FREE ENERGY PREDICTED BY IDOCK:  -12.59 KCAL/MOL
REMARK 924 INTRA-LIGAND FREE ENERGY PREDICTED BY IDOCK:   -3.19 KCAL/MOL
REMARK 927      BINDING AFFINITY PREDICTED BY RF-SCORE:    0.00 PKD
ROOT
HETATM    1  O   UNL     1     -13.010  12.607  71.619  1.00  0.00    -0.374 OA 
HETATM    2  C   UNL     1     -12.869  11.489  71.144  1.00  0.00    -0.315 C  
ENDROOT
BRANCH   2   3
HETATM    3  C   UNL     1     -13.040  10.208  71.924  1.00  0.00    -0.571 C  
BRANCH   3   4
HETATM    4  C   UNL     1     -12.254   9.048  71.309  1.00  0.00    -0.373 C  
BRANCH   4   5
HETATM    5  C   UNL     1     -10.905   8.828  72.002  1.00  0.00    -0.428 C  
BRANCH   5   6
HETATM    6  C   UNL     1     -10.798   7.452  72.610  1.00  0.00    -0.349 A  
HETATM    7  C   UNL     1      -9.729   7.136  73.460  1.00  0.00    -0.293 A  
HETATM    8  C   UNL     1     -10.582   4.891  73.732  1.00  0.00    -0.331 A  
HETATM    9  C   UNL     1      -9.624   5.862  74.020  1.00  0.00    -0.161 A  
HETATM   10  C   UNL     1     -11.753   6.468  72.324  1.00  0.00    -0.320 A  
HETATM   11  C   UNL     1     -11.646   5.195  72.884  1.00  0.00    -0.282 A  
ENDBRANCH   5   6
ENDBRANCH   4   5
ENDBRANCH   3   4
ENDBRANCH   2   3
BRANCH   2  12
HETATM   12  O   UNL     1     -12.539  11.219  69.851  1.00  0.00    -0.189 OA 
BRANCH  12  13
HETATM   13  C   UNL     1     -11.626  12.135  69.215  1.00  0.00    -0.318 C  
BRANCH  13  14
HETATM   14  C   UNL     1     -10.854  11.415  68.106  1.00  0.00    -0.213 C  
BRANCH  14  15
HETATM   15  O   UNL     1      -9.503  11.177  68.555  1.00  0.00    -0.181 OA 
BRANCH  15  16
HETATM   16  C   UNL     1      -9.013   9.928  68.338  1.00  0.00    -0.120 C  
HETATM   17  O   UNL     1      -7.831   9.631  68.251  1.00  0.00    -0.085 OA 
BRANCH  16  18
HETATM   18  C   UNL     1     -10.150   8.949  68.187  1.00  0.00    -0.227 C  
BRANCH  18  19
HETATM   19  C   UNL     1      -9.663   7.504  68.230  1.00  0.00    -0.163 C  
BRANCH  19  20
HETATM   20  C   UNL     1     -10.689   6.545  68.844  1.00  0.00    -0.318 C  
BRANCH  20  21
HETATM   21  C   UNL     1     -10.108   5.155  68.910  1.00  0.00    -0.237 A  
HETATM   22  C   UNL     1      -9.253   2.493  69.042  1.00  0.00    -0.207 A  
HETATM   23  C   UNL     1      -9.826   4.563  70.147  1.00  0.00    -0.296 A  
HETATM   24  C   UNL     1      -9.937   4.406  67.738  1.00  0.00    -0.098 A  
HETATM   25  C   UNL     1      -9.398   3.236  70.211  1.00  0.00    -0.242 A  
HETATM   26  C   UNL     1      -9.512   3.079  67.805  1.00  0.00    -0.198 A  
ENDBRANCH  20  21
ENDBRANCH  19  20
ENDBRANCH  18  19
ENDBRANCH  16  18
ENDBRANCH  15  16
ENDBRANCH  14  15
BRANCH  14  27
HETATM   27  C   UNL     1     -10.779  12.273  66.838  1.00  0.00    -0.232 C  
BRANCH  27  28
HETATM   28  O   UNL     1     -12.068  12.412  66.222  1.00  0.00    -0.612 OA 
BRANCH  28  29
HETATM   29  C   UNL     1     -12.242  13.566  65.518  1.00  0.00    -0.451 C  
HETATM   30  O   UNL     1     -13.317  14.119  65.338  1.00  0.00    -0.705 OA 
BRANCH  29  31
HETATM   31  C   UNL     1     -10.916  14.066  65.004  1.00  0.00    -0.379 C  
BRANCH  31  32
HETATM   32  C   UNL     1     -10.767  15.572  65.189  1.00  0.00    -0.460 C  
BRANCH  32  33
HETATM   33  C   UNL     1      -9.554  15.950  66.048  1.00  0.00    -0.385 C  
BRANCH  33  34
HETATM   34  C   UNL     1      -9.755  17.311  66.664  1.00  0.00    -0.295 A  
HETATM   35  C   UNL     1     -10.282  19.773  67.892  1.00  0.00    -0.576 A  
HETATM   36  C   UNL     1      -9.257  17.585  67.945  1.00  0.00    -0.265 A  
HETATM   37  C   UNL     1      -9.520  18.812  68.555  1.00  0.00    -0.400 A  
HETATM   38  C   UNL     1     -10.771  19.512  66.613  1.00  0.00    -0.552 A  
HETATM   39  C   UNL     1     -10.509  18.287  66.001  1.00  0.00    -0.380 A  
ENDBRANCH  33  34
ENDBRANCH  32  33
ENDBRANCH  31  32
ENDBRANCH  29  31
ENDBRANCH  28  29
ENDBRANCH  27  28
ENDBRANCH  14  27
ENDBRANCH  13  14
ENDBRANCH  12  13
ENDBRANCH   2  12
TORSDOF 20
ENDMDL
MODEL      126
REMARK 921   NORMALIZED FREE ENERGY PREDICTED BY IDOCK:   -5.10 KCAL/MOL
REMARK 922        TOTAL FREE ENERGY PREDICTED BY IDOCK:  -15.75 KCAL/MOL
REMARK 923 INTER-LIGAND FREE ENERGY PREDICTED BY IDOCK:  -12.82 KCAL/MOL
REMARK 924 INTRA-LIGAND FREE ENERGY PREDICTED BY IDOCK:   -2.93 KCAL/MOL
REMARK 927      BINDING AFFINITY PREDICTED BY RF-SCORE:    0.00 PKD
ROOT
HETATM    1  O   UNL     1      -6.335  12.874  67.090  1.00  0.00    -0.249 OA 
HETATM    2  C   UNL     1      -7.452  12.505  67.423  1.00  0.00    -0.153 C  
ENDROOT
BRANCH   2   3
HETATM    3  C   UNL     1      -7.867  11.058  67.546  1.00  0.00    -0.116 C  
BRANCH   3   4
HETATM    4  C   UNL     1      -9.388  10.893  67.570  1.00  0.00    -0.164 C  
BRANCH   4   5
HETATM    5  C   UNL     1      -9.949  10.472  66.208  1.00  0.00    -0.276 C  
BRANCH   5   6
HETATM    6  C   UNL     1     -10.780  11.560  65.577  1.00  0.00    -0.328 A  
HETATM    7  C   UNL     1     -11.582  12.389  66.374  1.00  0.00    -0.442 A  
HETATM    8  C   UNL     1     -12.345  13.574  64.410  1.00  0.00    -0.391 A  
HETATM    9  C   UNL     1     -12.358  13.393  65.792  1.00  0.00    -0.513 A  
HETATM   10  C   UNL     1     -10.777  11.748  64.189  1.00  0.00    -0.410 A  
HETATM   11  C   UNL     1     -11.554  12.751  63.609  1.00  0.00    -0.572 A  
ENDBRANCH   5   6
ENDBRANCH   4   5
ENDBRANCH   3   4
ENDBRANCH   2   3
BRANCH   2  12
HETATM   12  O   UNL     1      -8.493  13.327  67.731  1.00  0.00    -0.155 OA 
BRANCH  12  13
HETATM   13  C   UNL     1      -8.688  14.467  66.872  1.00  0.00    -0.211 C  
BRANCH  13  14
HETATM   14  C   UNL     1      -8.562  15.760  67.685  1.00  0.00    -0.163 C  
BRANCH  14  15
HETATM   15  O   UNL     1      -7.164  16.051  67.886  1.00  0.00    -0.121 OA 
BRANCH  15  16
HETATM   16  C   UNL     1      -6.733  16.049  69.176  1.00  0.00    -0.174 C  
HETATM   17  O   UNL     1      -6.682  15.072  69.909  1.00  0.00    -0.168 OA 
BRANCH  16  18
HETATM   18  C   UNL     1      -6.349  17.447  69.592  1.00  0.00    -0.201 C  
BRANCH  18  19
HETATM   19  C   UNL     1      -5.984  18.314  68.392  1.00  0.00    -0.184 C  
BRANCH  19  20
HETATM   20  C   UNL     1      -6.662  19.688  68.416  1.00  0.00    -0.323 C  
BRANCH  20  21
HETATM   21  C   UNL     1      -8.053  19.579  67.845  1.00  0.00    -0.340 A  
HETATM   22  C   UNL     1     -10.660  19.607  66.826  1.00  0.00    -0.602 A  
HETATM   23  C   UNL     1      -9.144  19.313  68.683  1.00  0.00    -0.428 A  
HETATM   24  C   UNL     1      -8.281  19.838  66.487  1.00  0.00    -0.363 A  
HETATM   25  C   UNL     1     -10.443  19.327  68.172  1.00  0.00    -0.450 A  
HETATM   26  C   UNL     1      -9.580  19.854  65.980  1.00  0.00    -0.435 A  
ENDBRANCH  20  21
ENDBRANCH  19  20
ENDBRANCH  18  19
ENDBRANCH  16  18
ENDBRANCH  15  16
ENDBRANCH  14  15
BRANCH  14  27
HETATM   27  C   UNL     1      -9.211  15.609  69.066  1.00  0.00    -0.243 C  
BRANCH  27  28
HETATM   28  O   UNL     1     -10.636  15.476  68.965  1.00  0.00    -0.226 OA 
BRANCH  28  29
HETATM   29  C   UNL     1     -11.260  15.127  70.125  1.00  0.00    -0.273 C  
HETATM   30  O   UNL     1     -10.934  15.514  71.238  1.00  0.00    -0.332 OA 
BRANCH  29  31
HETATM   31  C   UNL     1     -12.414  14.201  69.836  1.00  0.00    -0.313 C  
BRANCH  31  32
HETATM   32  C   UNL     1     -12.349  12.933  70.679  1.00  0.00    -0.385 C  
BRANCH  32  33
HETATM   33  C   UNL     1     -11.814  11.724  69.898  1.00  0.00    -0.423 C  
BRANCH  33  34
HETATM   34  C   UNL     1     -11.897  10.480  70.744  1.00  0.00    -0.465 A  
HETATM   35  C   UNL     1     -11.997   8.269  72.461  1.00  0.00    -0.420 A  
HETATM   36  C   UNL     1     -13.065  10.194  71.465  1.00  0.00    -0.529 A  
HETATM   37  C   UNL     1     -13.113   9.092  72.320  1.00  0.00    -0.509 A  
HETATM   38  C   UNL     1     -10.836   8.539  71.738  1.00  0.00    -0.374 A  
HETATM   39  C   UNL     1     -10.786   9.639  70.882  1.00  0.00    -0.402 A  
ENDBRANCH  33  34
ENDBRANCH  32  33
ENDBRANCH  31  32
ENDBRANCH  29  31
ENDBRANCH  28  29
ENDBRANCH  27  28
ENDBRANCH  14  27
ENDBRANCH  13  14
ENDBRANCH  12  13
ENDBRANCH   2  12
TORSDOF 20
ENDMDL
MODEL      127
REMARK 921   NORMALIZED FREE ENERGY PREDICTED BY IDOCK:   -5.10 KCAL/MOL
REMARK 922        TOTAL FREE ENERGY PREDICTED BY IDOCK:  -15.75 KCAL/MOL
REMARK 923 INTER-LIGAND FREE ENERGY PREDICTED BY IDOCK:  -11.40 KCAL/MOL
REMARK 924 INTRA-LIGAND FREE ENERGY PREDICTED BY IDOCK:   -4.35 KCAL/MOL
REMARK 927      BINDING AFFINITY PREDICTED BY RF-SCORE:    0.00 PKD
ROOT
HETATM    1  O   UNL     1     -10.013   3.997  71.109  1.00  0.00    -0.188 OA 
HETATM    2  C   UNL     1     -10.141   4.907  70.302  1.00  0.00    -0.252 C  
ENDROOT
BRANCH   2   3
HETATM    3  C   UNL     1      -9.870   4.775  68.823  1.00  0.00    -0.218 C  
BRANCH   3   4
HETATM    4  C   UNL     1      -8.409   5.068  68.474  1.00  0.00    -0.088 C  
BRANCH   4   5
HETATM    5  C   UNL     1      -8.192   5.219  66.964  1.00  0.00    -0.108 C  
BRANCH   5   6
HETATM    6  C   UNL     1      -7.824   6.631  66.583  1.00  0.00    -0.104 A  
HETATM    7  C   UNL     1      -6.907   7.356  67.358  1.00  0.00    -0.078 A  
HETATM    8  C   UNL     1      -7.148   9.263  65.893  1.00  0.00    -0.090 A  
HETATM    9  C   UNL     1      -6.570   8.665  67.012  1.00  0.00    -0.058 A  
HETATM   10  C   UNL     1      -8.402   7.243  65.464  1.00  0.00    -0.137 A  
HETATM   11  C   UNL     1      -8.064   8.552  65.120  1.00  0.00    -0.142 A  
ENDBRANCH   5   6
ENDBRANCH   4   5
ENDBRANCH   3   4
ENDBRANCH   2   3
BRANCH   2  12
HETATM   12  O   UNL     1     -10.542   6.174  70.602  1.00  0.00    -0.221 OA 
BRANCH  12  13
HETATM   13  C   UNL     1     -10.850   6.441  71.983  1.00  0.00    -0.239 C  
BRANCH  13  14
HETATM   14  C   UNL     1     -11.176   7.926  72.167  1.00  0.00    -0.307 C  
BRANCH  14  15
HETATM   15  O   UNL     1     -12.208   8.299  71.230  1.00  0.00    -0.293 OA 
BRANCH  15  16
HETATM   16  C   UNL     1     -13.481   8.291  71.708  1.00  0.00    -0.352 C  
HETATM   17  O   UNL     1     -14.267   7.360  71.627  1.00  0.00    -0.425 OA 
BRANCH  16  18
HETATM   18  C   UNL     1     -13.801   9.624  72.337  1.00  0.00    -0.270 C  
BRANCH  18  19
HETATM   19  C   UNL     1     -13.135  10.776  71.591  1.00  0.00    -0.551 C  
BRANCH  19  20
HETATM   20  C   UNL     1     -13.503  12.151  72.160  1.00  0.00    -0.383 C  
BRANCH  20  21
HETATM   21  C   UNL     1     -12.875  13.233  71.319  1.00  0.00    -0.398 A  
HETATM   22  C   UNL     1     -11.906  15.240  69.624  1.00  0.00    -0.363 A  
HETATM   23  C   UNL     1     -12.105  12.902  70.198  1.00  0.00    -0.373 A  
HETATM   24  C   UNL     1     -13.137  14.582  71.595  1.00  0.00    -0.416 A  
HETATM   25  C   UNL     1     -11.622  13.904  69.355  1.00  0.00    -0.350 A  
HETATM   26  C   UNL     1     -12.655  15.581  70.749  1.00  0.00    -0.505 A  
ENDBRANCH  20  21
ENDBRANCH  19  20
ENDBRANCH  18  19
ENDBRANCH  16  18
ENDBRANCH  15  16
ENDBRANCH  14  15
BRANCH  14  27
HETATM   27  C   UNL     1      -9.950   8.801  71.881  1.00  0.00    -0.331 C  
BRANCH  27  28
HETATM   28  O   UNL     1     -10.198   9.719  70.807  1.00  0.00    -0.280 OA 
BRANCH  28  29
HETATM   29  C   UNL     1      -9.309   9.645  69.777  1.00  0.00    -0.218 C  
HETATM   30  O   UNL     1      -8.128   9.953  69.849  1.00  0.00    -0.164 OA 
BRANCH  29  31
HETATM   31  C   UNL     1      -9.991   9.120  68.539  1.00  0.00    -0.192 C  
BRANCH  31  32
HETATM   32  C   UNL     1     -10.837  10.192  67.861  1.00  0.00    -0.336 C  
BRANCH  32  33
HETATM   33  C   UNL     1      -9.992  11.269  67.168  1.00  0.00    -0.219 C  
BRANCH  33  34
HETATM   34  C   UNL     1     -10.663  11.721  65.897  1.00  0.00    -0.328 A  
HETATM   35  C   UNL     1     -12.002  12.399  63.532  1.00  0.00    -0.627 A  
HETATM   36  C   UNL     1     -11.913  12.353  65.946  1.00  0.00    -0.434 A  
HETATM   37  C   UNL     1     -12.579  12.691  64.768  1.00  0.00    -0.530 A  
HETATM   38  C   UNL     1     -10.754  11.782  63.475  1.00  0.00    -0.501 A  
HETATM   39  C   UNL     1     -10.086  11.444  64.651  1.00  0.00    -0.330 A  
ENDBRANCH  33  34
ENDBRANCH  32  33
ENDBRANCH  31  32
ENDBRANCH  29  31
ENDBRANCH  28  29
ENDBRANCH  27  28
ENDBRANCH  14  27
ENDBRANCH  13  14
ENDBRANCH  12  13
ENDBRANCH   2  12
TORSDOF 20
ENDMDL
MODEL      128
REMARK 921   NORMALIZED FREE ENERGY PREDICTED BY IDOCK:   -5.10 KCAL/MOL
REMARK 922        TOTAL FREE ENERGY PREDICTED BY IDOCK:  -15.75 KCAL/MOL
REMARK 923 INTER-LIGAND FREE ENERGY PREDICTED BY IDOCK:  -11.27 KCAL/MOL
REMARK 924 INTRA-LIGAND FREE ENERGY PREDICTED BY IDOCK:   -4.48 KCAL/MOL
REMARK 927      BINDING AFFINITY PREDICTED BY RF-SCORE:    0.00 PKD
ROOT
HETATM    1  O   UNL     1      -7.703   9.459  69.640  1.00  0.00    -0.081 OA 
HETATM    2  C   UNL     1      -8.841   9.901  69.572  1.00  0.00    -0.197 C  
ENDROOT
BRANCH   2   3
HETATM    3  C   UNL     1      -9.237  11.104  68.750  1.00  0.00    -0.151 C  
BRANCH   3   4
HETATM    4  C   UNL     1      -9.306  10.787  67.255  1.00  0.00    -0.165 C  
BRANCH   4   5
HETATM    5  C   UNL     1     -10.746  10.590  66.769  1.00  0.00    -0.252 C  
BRANCH   5   6
HETATM    6  C   UNL     1     -11.218  11.740  65.916  1.00  0.00    -0.345 A  
HETATM    7  C   UNL     1     -11.993  12.765  66.476  1.00  0.00    -0.428 A  
HETATM    8  C   UNL     1     -12.115  13.873  64.332  1.00  0.00    -0.477 A  
HETATM    9  C   UNL     1     -12.437  13.827  65.688  1.00  0.00    -0.541 A  
HETATM   10  C   UNL     1     -10.904  11.794  64.552  1.00  0.00    -0.377 A  
HETATM   11  C   UNL     1     -11.349  12.856  63.765  1.00  0.00    -0.490 A  
ENDBRANCH   5   6
ENDBRANCH   4   5
ENDBRANCH   3   4
ENDBRANCH   2   3
BRANCH   2  12
HETATM   12  O   UNL     1      -9.925   9.388  70.218  1.00  0.00    -0.203 OA 
BRANCH  12  13
HETATM   13  C   UNL     1     -11.069  10.255  70.342  1.00  0.00    -0.319 C  
BRANCH  13  14
HETATM   14  C   UNL     1     -12.060   9.668  71.352  1.00  0.00    -0.388 C  
BRANCH  14  15
HETATM   15  O   UNL     1     -12.828   8.632  70.707  1.00  0.00     0.049 OA 
BRANCH  15  16
HETATM   16  C   UNL     1     -12.889   7.440  71.358  1.00  0.00    -0.365 C  
HETATM   17  O   UNL     1     -13.828   7.042  72.031  1.00  0.00    -0.226 OA 
BRANCH  16  18
HETATM   18  C   UNL     1     -11.604   6.677  71.154  1.00  0.00    -0.384 C  
BRANCH  18  19
HETATM   19  C   UNL     1     -11.390   5.627  72.239  1.00  0.00    -0.300 C  
BRANCH  19  20
HETATM   20  C   UNL     1     -10.788   6.206  73.524  1.00  0.00    -0.207 C  
BRANCH  20  21
HETATM   21  C   UNL     1      -9.355   6.606  73.278  1.00  0.00    -0.150 A  
HETATM   22  C   UNL     1      -6.761   7.412  72.603  1.00  0.00    -0.063 A  
HETATM   23  C   UNL     1      -8.446   5.687  72.738  1.00  0.00    -0.120 A  
HETATM   24  C   UNL     1      -8.943   7.927  73.497  1.00  0.00    -0.343 A  
HETATM   25  C   UNL     1      -7.153   6.091  72.403  1.00  0.00    -0.084 A  
HETATM   26  C   UNL     1      -7.651   8.328  73.159  1.00  0.00    -0.170 A  
ENDBRANCH  20  21
ENDBRANCH  19  20
ENDBRANCH  18  19
ENDBRANCH  16  18
ENDBRANCH  15  16
ENDBRANCH  14  15
BRANCH  14  27
HETATM   27  C   UNL     1     -13.042  10.737  71.847  1.00  0.00    -0.451 C  
BRANCH  27  28
HETATM   28  O   UNL     1     -12.861  11.978  71.151  1.00  0.00    -0.337 OA 
BRANCH  28  29
HETATM   29  C   UNL     1     -13.456  13.054  71.740  1.00  0.00    -0.314 C  
HETATM   30  O   UNL     1     -14.250  12.993  72.667  1.00  0.00    -0.609 OA 
BRANCH  29  31
HETATM   31  C   UNL     1     -12.984  14.329  71.088  1.00  0.00    -0.423 C  
BRANCH  31  32
HETATM   32  C   UNL     1     -11.897  14.067  70.052  1.00  0.00    -0.388 C  
BRANCH  32  33
HETATM   33  C   UNL     1     -10.863  15.198  69.973  1.00  0.00    -0.275 C  
BRANCH  33  34
HETATM   34  C   UNL     1     -10.326  15.316  68.570  1.00  0.00    -0.231 A  
HETATM   35  C   UNL     1      -9.191  15.641  66.030  1.00  0.00    -0.374 A  
HETATM   36  C   UNL     1      -9.330  14.437  68.120  1.00  0.00    -0.203 A  
HETATM   37  C   UNL     1      -8.766  14.600  66.855  1.00  0.00    -0.251 A  
HETATM   38  C   UNL     1     -10.189  16.511  66.465  1.00  0.00    -0.305 A  
HETATM   39  C   UNL     1     -10.755  16.350  67.729  1.00  0.00    -0.328 A  
ENDBRANCH  33  34
ENDBRANCH  32  33
ENDBRANCH  31  32
ENDBRANCH  29  31
ENDBRANCH  28  29
ENDBRANCH  27  28
ENDBRANCH  14  27
ENDBRANCH  13  14
ENDBRANCH  12  13
ENDBRANCH   2  12
TORSDOF 20
ENDMDL
MODEL      129
REMARK 921   NORMALIZED FREE ENERGY PREDICTED BY IDOCK:   -5.10 KCAL/MOL
REMARK 922        TOTAL FREE ENERGY PREDICTED BY IDOCK:  -15.74 KCAL/MOL
REMARK 923 INTER-LIGAND FREE ENERGY PREDICTED BY IDOCK:  -11.12 KCAL/MOL
REMARK 924 INTRA-LIGAND FREE ENERGY PREDICTED BY IDOCK:   -4.62 KCAL/MOL
REMARK 927      BINDING AFFINITY PREDICTED BY RF-SCORE:    0.00 PKD
ROOT
HETATM    1  O   UNL     1     -10.015   4.209  73.332  1.00  0.00    -0.123 OA 
HETATM    2  C   UNL     1      -9.313   5.079  72.838  1.00  0.00    -0.134 C  
ENDROOT
BRANCH   2   3
HETATM    3  C   UNL     1      -7.991   4.819  72.155  1.00  0.00    -0.106 C  
BRANCH   3   4
HETATM    4  C   UNL     1      -8.156   4.554  70.658  1.00  0.00    -0.074 C  
BRANCH   4   5
HETATM    5  C   UNL     1      -7.673   5.732  69.803  1.00  0.00    -0.084 C  
BRANCH   5   6
HETATM    6  C   UNL     1      -8.741   6.220  68.857  1.00  0.00    -0.125 A  
HETATM    7  C   UNL     1      -8.388   6.903  67.684  1.00  0.00    -0.123 A  
HETATM    8  C   UNL     1     -10.720   7.148  67.101  1.00  0.00    -0.422 A  
HETATM    9  C   UNL     1      -9.374   7.362  66.810  1.00  0.00    -0.202 A  
HETATM   10  C   UNL     1     -10.097   6.014  69.142  1.00  0.00    -0.229 A  
HETATM   11  C   UNL     1     -11.081   6.474  68.267  1.00  0.00    -0.332 A  
ENDBRANCH   5   6
ENDBRANCH   4   5
ENDBRANCH   3   4
ENDBRANCH   2   3
BRANCH   2  12
HETATM   12  O   UNL     1      -9.601   6.410  72.823  1.00  0.00    -0.151 OA 
BRANCH  12  13
HETATM   13  C   UNL     1     -10.983   6.767  72.626  1.00  0.00    -0.257 C  
BRANCH  13  14
HETATM   14  C   UNL     1     -11.091   8.248  72.251  1.00  0.00    -0.359 C  
BRANCH  14  15
HETATM   15  O   UNL     1     -12.114   8.402  71.246  1.00  0.00    -0.291 OA 
BRANCH  15  16
HETATM   16  C   UNL     1     -13.311   8.880  71.680  1.00  0.00    -0.365 C  
HETATM   17  O   UNL     1     -14.391   8.323  71.549  1.00  0.00    -0.433 OA 
BRANCH  16  18
HETATM   18  C   UNL     1     -13.121  10.228  72.328  1.00  0.00    -0.315 C  
BRANCH  18  19
HETATM   19  C   UNL     1     -13.008  11.343  71.294  1.00  0.00    -0.415 C  
BRANCH  19  20
HETATM   20  C   UNL     1     -13.414  12.715  71.845  1.00  0.00    -0.424 C  
BRANCH  20  21
HETATM   21  C   UNL     1     -12.498  13.776  71.290  1.00  0.00    -0.428 A  
HETATM   22  C   UNL     1     -10.991  15.854  70.172  1.00  0.00    -0.369 A  
HETATM   23  C   UNL     1     -11.974  13.654  69.996  1.00  0.00    -0.413 A  
HETATM   24  C   UNL     1     -12.240  14.941  72.025  1.00  0.00    -0.434 A  
HETATM   25  C   UNL     1     -11.222  14.691  69.442  1.00  0.00    -0.307 A  
HETATM   26  C   UNL     1     -11.491  15.976  71.467  1.00  0.00    -0.459 A  
ENDBRANCH  20  21
ENDBRANCH  19  20
ENDBRANCH  18  19
ENDBRANCH  16  18
ENDBRANCH  15  16
ENDBRANCH  14  15
BRANCH  14  27
HETATM   27  C   UNL     1      -9.775   8.766  71.661  1.00  0.00    -0.296 C  
BRANCH  27  28
HETATM   28  O   UNL     1      -9.975   9.353  70.367  1.00  0.00    -0.216 OA 
BRANCH  28  29
HETATM   29  C   UNL     1      -8.838   9.797  69.760  1.00  0.00    -0.224 C  
HETATM   30  O   UNL     1      -7.706   9.438  70.049  1.00  0.00    -0.089 OA 
BRANCH  29  31
HETATM   31  C   UNL     1      -9.182  10.788  68.677  1.00  0.00    -0.184 C  
BRANCH  31  32
HETATM   32  C   UNL     1     -10.658  10.728  68.302  1.00  0.00    -0.233 C  
BRANCH  32  33
HETATM   33  C   UNL     1     -10.890  10.751  66.785  1.00  0.00    -0.256 C  
BRANCH  33  34
HETATM   34  C   UNL     1     -10.958  12.172  66.290  1.00  0.00    -0.332 A  
HETATM   35  C   UNL     1     -11.048  14.750  65.199  1.00  0.00    -0.389 A  
HETATM   36  C   UNL     1     -12.159  12.685  65.781  1.00  0.00    -0.484 A  
HETATM   37  C   UNL     1     -12.203  13.969  65.238  1.00  0.00    -0.451 A  
HETATM   38  C   UNL     1      -9.853  14.252  65.714  1.00  0.00    -0.314 A  
HETATM   39  C   UNL     1      -9.807  12.969  66.258  1.00  0.00    -0.278 A  
ENDBRANCH  33  34
ENDBRANCH  32  33
ENDBRANCH  31  32
ENDBRANCH  29  31
ENDBRANCH  28  29
ENDBRANCH  27  28
ENDBRANCH  14  27
ENDBRANCH  13  14
ENDBRANCH  12  13
ENDBRANCH   2  12
TORSDOF 20
ENDMDL
MODEL      130
REMARK 921   NORMALIZED FREE ENERGY PREDICTED BY IDOCK:   -5.10 KCAL/MOL
REMARK 922        TOTAL FREE ENERGY PREDICTED BY IDOCK:  -15.74 KCAL/MOL
REMARK 923 INTER-LIGAND FREE ENERGY PREDICTED BY IDOCK:  -12.05 KCAL/MOL
REMARK 924 INTRA-LIGAND FREE ENERGY PREDICTED BY IDOCK:   -3.69 KCAL/MOL
REMARK 927      BINDING AFFINITY PREDICTED BY RF-SCORE:    0.00 PKD
ROOT
HETATM    1  O   UNL     1      -8.707   6.155  67.858  1.00  0.00    -0.114 OA 
HETATM    2  C   UNL     1      -9.697   6.839  68.075  1.00  0.00    -0.124 C  
ENDROOT
BRANCH   2   3
HETATM    3  C   UNL     1     -10.667   6.596  69.207  1.00  0.00    -0.307 C  
BRANCH   3   4
HETATM    4  C   UNL     1      -9.956   6.432  70.551  1.00  0.00    -0.214 C  
BRANCH   4   5
HETATM    5  C   UNL     1      -9.623   7.780  71.200  1.00  0.00    -0.174 C  
BRANCH   5   6
HETATM    6  C   UNL     1     -10.847   8.643  71.373  1.00  0.00    -0.339 A  
HETATM    7  C   UNL     1     -11.889   8.232  72.217  1.00  0.00    -0.451 A  
HETATM    8  C   UNL     1     -13.135  10.234  71.687  1.00  0.00    -0.553 A  
HETATM    9  C   UNL     1     -13.026   9.026  72.373  1.00  0.00    -0.471 A  
HETATM   10  C   UNL     1     -10.969   9.857  70.684  1.00  0.00    -0.405 A  
HETATM   11  C   UNL     1     -12.106  10.649  70.842  1.00  0.00    -0.489 A  
ENDBRANCH   5   6
ENDBRANCH   4   5
ENDBRANCH   3   4
ENDBRANCH   2   3
BRANCH   2  12
HETATM   12  O   UNL     1     -10.084   7.919  67.340  1.00  0.00    -0.183 OA 
BRANCH  12  13
HETATM   13  C   UNL     1      -9.289   9.111  67.481  1.00  0.00    -0.135 C  
BRANCH  13  14
HETATM   14  C   UNL     1      -9.186   9.831  66.133  1.00  0.00    -0.176 C  
BRANCH  14  15
HETATM   15  O   UNL     1      -8.181  10.863  66.229  1.00  0.00    -0.156 OA 
BRANCH  15  16
HETATM   16  C   UNL     1      -7.213  10.669  67.164  1.00  0.00    -0.097 C  
HETATM   17  O   UNL     1      -6.419   9.740  67.186  1.00  0.00    -0.068 OA 
BRANCH  16  18
HETATM   18  C   UNL     1      -7.277  11.760  68.203  1.00  0.00    -0.086 C  
BRANCH  18  19
HETATM   19  C   UNL     1      -7.480  13.133  67.570  1.00  0.00    -0.164 C  
BRANCH  19  20
HETATM   20  C   UNL     1      -7.446  14.274  68.592  1.00  0.00    -0.127 C  
BRANCH  20  21
HETATM   21  C   UNL     1      -8.296  15.419  68.103  1.00  0.00    -0.145 A  
HETATM   22  C   UNL     1      -9.673  17.661  67.146  1.00  0.00    -0.291 A  
HETATM   23  C   UNL     1      -8.676  16.444  68.979  1.00  0.00    -0.233 A  
HETATM   24  C   UNL     1      -8.632  15.520  66.747  1.00  0.00    -0.307 A  
HETATM   25  C   UNL     1      -9.364  17.560  68.500  1.00  0.00    -0.286 A  
HETATM   26  C   UNL     1      -9.316  16.637  66.270  1.00  0.00    -0.323 A  
ENDBRANCH  20  21
ENDBRANCH  19  20
ENDBRANCH  18  19
ENDBRANCH  16  18
ENDBRANCH  15  16
ENDBRANCH  14  15
BRANCH  14  27
HETATM   27  C   UNL     1     -10.512  10.506  65.763  1.00  0.00    -0.143 C  
BRANCH  27  28
HETATM   28  O   UNL     1     -11.172  11.036  66.922  1.00  0.00    -0.290 OA 
BRANCH  28  29
HETATM   29  C   UNL     1     -11.693  12.285  66.760  1.00  0.00    -0.342 C  
HETATM   30  O   UNL     1     -12.527  12.591  65.920  1.00  0.00    -0.596 OA 
BRANCH  29  31
HETATM   31  C   UNL     1     -11.097  13.230  67.772  1.00  0.00    -0.289 C  
BRANCH  31  32
HETATM   32  C   UNL     1     -12.109  13.626  68.842  1.00  0.00    -0.335 C  
BRANCH  32  33
HETATM   33  C   UNL     1     -12.150  15.139  69.094  1.00  0.00    -0.258 C  
BRANCH  33  34
HETATM   34  C   UNL     1     -12.550  15.419  70.520  1.00  0.00    -0.471 A  
HETATM   35  C   UNL     1     -13.239  15.767  73.213  1.00  0.00    -0.687 A  
HETATM   36  C   UNL     1     -11.599  15.880  71.441  1.00  0.00    -0.529 A  
HETATM   37  C   UNL     1     -11.944  16.053  72.782  1.00  0.00    -0.623 A  
HETATM   38  C   UNL     1     -14.193  15.320  72.300  1.00  0.00    -0.642 A  
HETATM   39  C   UNL     1     -13.851  15.147  70.960  1.00  0.00    -0.423 A  
ENDBRANCH  33  34
ENDBRANCH  32  33
ENDBRANCH  31  32
ENDBRANCH  29  31
ENDBRANCH  28  29
ENDBRANCH  27  28
ENDBRANCH  14  27
ENDBRANCH  13  14
ENDBRANCH  12  13
ENDBRANCH   2  12
TORSDOF 20
ENDMDL
MODEL      131
REMARK 921   NORMALIZED FREE ENERGY PREDICTED BY IDOCK:   -5.08 KCAL/MOL
REMARK 922        TOTAL FREE ENERGY PREDICTED BY IDOCK:  -15.69 KCAL/MOL
REMARK 923 INTER-LIGAND FREE ENERGY PREDICTED BY IDOCK:  -10.97 KCAL/MOL
REMARK 924 INTRA-LIGAND FREE ENERGY PREDICTED BY IDOCK:   -4.72 KCAL/MOL
REMARK 927      BINDING AFFINITY PREDICTED BY RF-SCORE:    0.00 PKD
ROOT
HETATM    1  O   UNL     1     -10.198  18.179  68.993  1.00  0.00    -0.381 OA 
HETATM    2  C   UNL     1     -10.053  17.034  68.587  1.00  0.00    -0.303 C  
ENDROOT
BRANCH   2   3
HETATM    3  C   UNL     1      -9.026  16.622  67.559  1.00  0.00    -0.204 C  
BRANCH   3   4
HETATM    4  C   UNL     1      -8.073  15.551  68.091  1.00  0.00    -0.132 C  
BRANCH   4   5
HETATM    5  C   UNL     1      -8.288  14.193  67.414  1.00  0.00    -0.210 C  
BRANCH   5   6
HETATM    6  C   UNL     1      -7.709  13.059  68.222  1.00  0.00    -0.141 A  
HETATM    7  C   UNL     1      -8.268  11.776  68.142  1.00  0.00    -0.153 A  
HETATM    8  C   UNL     1      -6.650  10.948  69.735  1.00  0.00    -0.140 A  
HETATM    9  C   UNL     1      -7.739  10.726  68.893  1.00  0.00    -0.129 A  
HETATM   10  C   UNL     1      -6.617  13.273  69.074  1.00  0.00    -0.104 A  
HETATM   11  C   UNL     1      -6.090  12.222  69.824  1.00  0.00    -0.141 A  
ENDBRANCH   5   6
ENDBRANCH   4   5
ENDBRANCH   3   4
ENDBRANCH   2   3
BRANCH   2  12
HETATM   12  O   UNL     1     -10.784  15.958  68.987  1.00  0.00    -0.222 OA 
BRANCH  12  13
HETATM   13  C   UNL     1     -11.859  15.551  68.118  1.00  0.00    -0.117 C  
BRANCH  13  14
HETATM   14  C   UNL     1     -12.090  14.042  68.245  1.00  0.00    -0.277 C  
BRANCH  14  15
HETATM   15  O   UNL     1     -11.331  13.545  69.367  1.00  0.00    -0.260 OA 
BRANCH  15  16
HETATM   16  C   UNL     1     -12.037  12.875  70.316  1.00  0.00    -0.302 C  
HETATM   17  O   UNL     1     -12.708  13.387  71.199  1.00  0.00    -0.348 OA 
BRANCH  16  18
HETATM   18  C   UNL     1     -11.848  11.389  70.142  1.00  0.00    -0.440 C  
BRANCH  18  19
HETATM   19  C   UNL     1     -12.994  10.596  70.761  1.00  0.00    -0.396 C  
BRANCH  19  20
HETATM   20  C   UNL     1     -12.598   9.886  72.061  1.00  0.00    -0.410 C  
BRANCH  20  21
HETATM   21  C   UNL     1     -11.762   8.673  71.743  1.00  0.00    -0.400 A  
HETATM   22  C   UNL     1     -10.218   6.486  70.924  1.00  0.00    -0.220 A  
HETATM   23  C   UNL     1     -12.375   7.458  71.411  1.00  0.00    -0.394 A  
HETATM   24  C   UNL     1     -10.366   8.774  71.682  1.00  0.00    -0.391 A  
HETATM   25  C   UNL     1     -11.603   6.369  71.004  1.00  0.00    -0.386 A  
HETATM   26  C   UNL     1      -9.597   7.685  71.272  1.00  0.00    -0.171 A  
ENDBRANCH  20  21
ENDBRANCH  19  20
ENDBRANCH  18  19
ENDBRANCH  16  18
ENDBRANCH  15  16
ENDBRANCH  14  15
BRANCH  14  27
HETATM   27  C   UNL     1     -11.608  13.302  66.991  1.00  0.00    -0.359 C  
BRANCH  27  28
HETATM   28  O   UNL     1     -11.660  14.145  65.832  1.00  0.00    -0.331 OA 
BRANCH  28  29
HETATM   29  C   UNL     1     -11.832  13.484  64.653  1.00  0.00    -0.394 C  
HETATM   30  O   UNL     1     -12.904  13.337  64.083  1.00  0.00    -0.640 OA 
BRANCH  29  31
HETATM   31  C   UNL     1     -10.508  12.967  64.150  1.00  0.00    -0.429 C  
BRANCH  31  32
HETATM   32  C   UNL     1     -10.529  11.455  63.949  1.00  0.00    -0.444 C  
BRANCH  32  33
HETATM   33  C   UNL     1      -9.268  10.764  64.485  1.00  0.00    -0.250 C  
BRANCH  33  34
HETATM   34  C   UNL     1      -9.640   9.725  65.511  1.00  0.00    -0.348 A  
HETATM   35  C   UNL     1     -10.207   7.870  67.532  1.00  0.00    -0.308 A  
HETATM   36  C   UNL     1     -10.613  10.007  66.480  1.00  0.00    -0.165 A  
HETATM   37  C   UNL     1     -10.895   9.082  67.485  1.00  0.00    -0.130 A  
HETATM   38  C   UNL     1      -9.247   7.577  66.565  1.00  0.00    -0.217 A  
HETATM   39  C   UNL     1      -8.964   8.499  65.559  1.00  0.00    -0.182 A  
ENDBRANCH  33  34
ENDBRANCH  32  33
ENDBRANCH  31  32
ENDBRANCH  29  31
ENDBRANCH  28  29
ENDBRANCH  27  28
ENDBRANCH  14  27
ENDBRANCH  13  14
ENDBRANCH  12  13
ENDBRANCH   2  12
TORSDOF 20
ENDMDL
MODEL      132
REMARK 921   NORMALIZED FREE ENERGY PREDICTED BY IDOCK:   -5.07 KCAL/MOL
REMARK 922        TOTAL FREE ENERGY PREDICTED BY IDOCK:  -15.68 KCAL/MOL
REMARK 923 INTER-LIGAND FREE ENERGY PREDICTED BY IDOCK:  -11.43 KCAL/MOL
REMARK 924 INTRA-LIGAND FREE ENERGY PREDICTED BY IDOCK:   -4.26 KCAL/MOL
REMARK 927      BINDING AFFINITY PREDICTED BY RF-SCORE:    0.00 PKD
ROOT
HETATM    1  O   UNL     1     -13.626  15.630  71.105  1.00  0.00    -0.582 OA 
HETATM    2  C   UNL     1     -12.448  15.303  71.114  1.00  0.00    -0.375 C  
ENDROOT
BRANCH   2   3
HETATM    3  C   UNL     1     -11.304  16.238  70.803  1.00  0.00    -0.327 C  
BRANCH   3   4
HETATM    4  C   UNL     1     -10.605  15.881  69.490  1.00  0.00    -0.282 C  
BRANCH   4   5
HETATM    5  C   UNL     1     -11.158  16.676  68.302  1.00  0.00    -0.295 C  
BRANCH   5   6
HETATM    6  C   UNL     1     -10.231  17.789  67.885  1.00  0.00    -0.362 A  
HETATM    7  C   UNL     1      -9.060  18.045  68.612  1.00  0.00    -0.276 A  
HETATM    8  C   UNL     1      -8.510  19.870  67.127  1.00  0.00    -0.376 A  
HETATM    9  C   UNL     1      -8.203  19.079  68.232  1.00  0.00    -0.364 A  
HETATM   10  C   UNL     1     -10.532  18.593  66.778  1.00  0.00    -0.454 A  
HETATM   11  C   UNL     1      -9.675  19.627  66.400  1.00  0.00    -0.503 A  
ENDBRANCH   5   6
ENDBRANCH   4   5
ENDBRANCH   3   4
ENDBRANCH   2   3
BRANCH   2  12
HETATM   12  O   UNL     1     -11.979  14.057  71.400  1.00  0.00    -0.265 OA 
BRANCH  12  13
HETATM   13  C   UNL     1     -12.747  12.948  70.893  1.00  0.00    -0.207 C  
BRANCH  13  14
HETATM   14  C   UNL     1     -11.812  11.899  70.285  1.00  0.00    -0.281 C  
BRANCH  14  15
HETATM   15  O   UNL     1     -12.259  11.591  68.949  1.00  0.00    -0.415 OA 
BRANCH  15  16
HETATM   16  C   UNL     1     -11.471  12.040  67.936  1.00  0.00    -0.330 C  
HETATM   17  O   UNL     1     -11.239  13.211  67.679  1.00  0.00    -0.259 OA 
BRANCH  16  18
HETATM   18  C   UNL     1     -10.937  10.872  67.145  1.00  0.00    -0.334 C  
BRANCH  18  19
HETATM   19  C   UNL     1      -9.654  10.315  67.752  1.00  0.00    -0.171 C  
BRANCH  19  20
HETATM   20  C   UNL     1      -9.750   8.823  68.093  1.00  0.00    -0.177 C  
BRANCH  20  21
HETATM   21  C   UNL     1      -8.734   8.477  69.151  1.00  0.00    -0.134 A  
HETATM   22  C   UNL     1      -6.982   7.648  71.171  1.00  0.00    -0.050 A  
HETATM   23  C   UNL     1      -8.876   8.965  70.456  1.00  0.00    -0.221 A  
HETATM   24  C   UNL     1      -7.692   7.586  68.864  1.00  0.00    -0.115 A  
HETATM   25  C   UNL     1      -8.001   8.551  71.461  1.00  0.00    -0.169 A  
HETATM   26  C   UNL     1      -6.820   7.172  69.871  1.00  0.00    -0.056 A  
ENDBRANCH  20  21
ENDBRANCH  19  20
ENDBRANCH  18  19
ENDBRANCH  16  18
ENDBRANCH  15  16
ENDBRANCH  14  15
BRANCH  14  27
HETATM   27  C   UNL     1     -11.837  10.599  71.097  1.00  0.00    -0.241 C  
BRANCH  27  28
HETATM   28  O   UNL     1     -13.061  10.465  71.835  1.00  0.00    -0.441 OA 
BRANCH  28  29
HETATM   29  C   UNL     1     -13.291   9.218  72.336  1.00  0.00    -0.449 C  
HETATM   30  O   UNL     1     -14.393   8.772  72.618  1.00  0.00    -0.585 OA 
BRANCH  29  31
HETATM   31  C   UNL     1     -11.991   8.469  72.480  1.00  0.00    -0.401 C  
BRANCH  31  32
HETATM   32  C   UNL     1     -12.085   7.057  71.912  1.00  0.00    -0.358 C  
BRANCH  32  33
HETATM   33  C   UNL     1     -11.120   6.076  72.590  1.00  0.00    -0.314 C  
BRANCH  33  34
HETATM   34  C   UNL     1     -10.221   5.436  71.563  1.00  0.00    -0.280 A  
HETATM   35  C   UNL     1      -8.660   4.096  69.662  1.00  0.00    -0.106 A  
HETATM   36  C   UNL     1     -10.537   5.520  70.200  1.00  0.00    -0.367 A  
HETATM   37  C   UNL     1      -9.759   4.852  69.254  1.00  0.00    -0.258 A  
HETATM   38  C   UNL     1      -8.332   4.018  71.014  1.00  0.00    -0.090 A  
HETATM   39  C   UNL     1      -9.108   4.685  71.962  1.00  0.00    -0.155 A  
ENDBRANCH  33  34
ENDBRANCH  32  33
ENDBRANCH  31  32
ENDBRANCH  29  31
ENDBRANCH  28  29
ENDBRANCH  27  28
ENDBRANCH  14  27
ENDBRANCH  13  14
ENDBRANCH  12  13
ENDBRANCH   2  12
TORSDOF 20
ENDMDL
MODEL      133
REMARK 921   NORMALIZED FREE ENERGY PREDICTED BY IDOCK:   -5.07 KCAL/MOL
REMARK 922        TOTAL FREE ENERGY PREDICTED BY IDOCK:  -15.68 KCAL/MOL
REMARK 923 INTER-LIGAND FREE ENERGY PREDICTED BY IDOCK:  -12.67 KCAL/MOL
REMARK 924 INTRA-LIGAND FREE ENERGY PREDICTED BY IDOCK:   -3.02 KCAL/MOL
REMARK 927      BINDING AFFINITY PREDICTED BY RF-SCORE:    0.00 PKD
ROOT
HETATM    1  O   UNL     1      -8.719   9.785  69.479  1.00  0.00    -0.154 OA 
HETATM    2  C   UNL     1      -9.387   9.965  68.470  1.00  0.00    -0.143 C  
ENDROOT
BRANCH   2   3
HETATM    3  C   UNL     1      -8.978   9.514  67.089  1.00  0.00    -0.148 C  
BRANCH   3   4
HETATM    4  C   UNL     1     -10.139   9.568  66.095  1.00  0.00    -0.326 C  
BRANCH   4   5
HETATM    5  C   UNL     1      -9.755  10.274  64.790  1.00  0.00    -0.397 C  
BRANCH   5   6
HETATM    6  C   UNL     1     -10.503  11.570  64.605  1.00  0.00    -0.356 A  
HETATM    7  C   UNL     1     -10.335  12.621  65.519  1.00  0.00    -0.305 A  
HETATM    8  C   UNL     1     -11.904  13.977  64.280  1.00  0.00    -0.435 A  
HETATM    9  C   UNL     1     -11.031  13.819  65.354  1.00  0.00    -0.309 A  
HETATM   10  C   UNL     1     -11.386  11.739  63.531  1.00  0.00    -0.496 A  
HETATM   11  C   UNL     1     -12.081  12.938  63.369  1.00  0.00    -0.610 A  
ENDBRANCH   5   6
ENDBRANCH   4   5
ENDBRANCH   3   4
ENDBRANCH   2   3
BRANCH   2  12
HETATM   12  O   UNL     1     -10.593  10.596  68.427  1.00  0.00    -0.177 OA 
BRANCH  12  13
HETATM   13  C   UNL     1     -11.628  10.063  69.275  1.00  0.00     0.018 C  
BRANCH  13  14
HETATM   14  C   UNL     1     -11.822  10.968  70.495  1.00  0.00    -0.367 C  
BRANCH  14  15
HETATM   15  O   UNL     1     -13.035  10.583  71.176  1.00  0.00    -0.372 OA 
BRANCH  15  16
HETATM   16  C   UNL     1     -13.155   9.264  71.482  1.00  0.00    -0.363 C  
HETATM   17  O   UNL     1     -14.168   8.592  71.356  1.00  0.00    -0.386 OA 
BRANCH  16  18
HETATM   18  C   UNL     1     -11.852   8.745  72.036  1.00  0.00    -0.442 C  
BRANCH  18  19
HETATM   19  C   UNL     1     -11.667   7.258  71.750  1.00  0.00    -0.321 C  
BRANCH  19  20
HETATM   20  C   UNL     1     -10.209   6.879  71.468  1.00  0.00    -0.210 C  
BRANCH  20  21
HETATM   21  C   UNL     1     -10.031   6.605  69.996  1.00  0.00    -0.189 A  
HETATM   22  C   UNL     1      -9.743   5.868  67.311  1.00  0.00    -0.137 A  
HETATM   23  C   UNL     1      -8.771   6.270  69.485  1.00  0.00    -0.132 A  
HETATM   24  C   UNL     1     -11.142   6.588  69.142  1.00  0.00    -0.387 A  
HETATM   25  C   UNL     1      -8.630   5.903  68.145  1.00  0.00    -0.113 A  
HETATM   26  C   UNL     1     -10.998   6.220  67.805  1.00  0.00    -0.427 A  
ENDBRANCH  20  21
ENDBRANCH  19  20
ENDBRANCH  18  19
ENDBRANCH  16  18
ENDBRANCH  15  16
ENDBRANCH  14  15
BRANCH  14  27
HETATM   27  C   UNL     1     -11.967  12.436  70.077  1.00  0.00    -0.299 C  
BRANCH  27  28
HETATM   28  O   UNL     1     -12.751  13.176  71.024  1.00  0.00    -0.337 OA 
BRANCH  28  29
HETATM   29  C   UNL     1     -12.876  14.504  70.747  1.00  0.00    -0.361 C  
HETATM   30  O   UNL     1     -13.888  15.164  70.929  1.00  0.00    -0.364 OA 
BRANCH  29  31
HETATM   31  C   UNL     1     -11.581  15.042  70.191  1.00  0.00    -0.326 C  
BRANCH  31  32
HETATM   32  C   UNL     1     -11.807  15.882  68.939  1.00  0.00    -0.314 C  
BRANCH  32  33
HETATM   33  C   UNL     1     -10.509  16.177  68.176  1.00  0.00    -0.279 C  
BRANCH  33  34
HETATM   34  C   UNL     1     -10.391  17.654  67.900  1.00  0.00    -0.371 A  
HETATM   35  C   UNL     1      -9.990  20.373  67.361  1.00  0.00    -0.556 A  
HETATM   36  C   UNL     1     -10.448  18.132  66.583  1.00  0.00    -0.354 A  
HETATM   37  C   UNL     1     -10.248  19.486  66.317  1.00  0.00    -0.582 A  
HETATM   38  C   UNL     1      -9.945  19.908  68.674  1.00  0.00    -0.492 A  
HETATM   39  C   UNL     1     -10.145  18.554  68.944  1.00  0.00    -0.348 A  
ENDBRANCH  33  34
ENDBRANCH  32  33
ENDBRANCH  31  32
ENDBRANCH  29  31
ENDBRANCH  28  29
ENDBRANCH  27  28
ENDBRANCH  14  27
ENDBRANCH  13  14
ENDBRANCH  12  13
ENDBRANCH   2  12
TORSDOF 20
ENDMDL
MODEL      134
REMARK 921   NORMALIZED FREE ENERGY PREDICTED BY IDOCK:   -5.07 KCAL/MOL
REMARK 922        TOTAL FREE ENERGY PREDICTED BY IDOCK:  -15.67 KCAL/MOL
REMARK 923 INTER-LIGAND FREE ENERGY PREDICTED BY IDOCK:  -12.46 KCAL/MOL
REMARK 924 INTRA-LIGAND FREE ENERGY PREDICTED BY IDOCK:   -3.21 KCAL/MOL
REMARK 927      BINDING AFFINITY PREDICTED BY RF-SCORE:    0.00 PKD
ROOT
HETATM    1  O   UNL     1     -10.981  12.672  63.434  1.00  0.00    -0.428 OA 
HETATM    2  C   UNL     1     -11.345  13.055  64.537  1.00  0.00    -0.339 C  
ENDROOT
BRANCH   2   3
HETATM    3  C   UNL     1     -11.789  14.465  64.843  1.00  0.00    -0.419 C  
BRANCH   3   4
HETATM    4  C   UNL     1     -10.615  15.445  64.884  1.00  0.00    -0.380 C  
BRANCH   4   5
HETATM    5  C   UNL     1     -11.078  16.903  64.971  1.00  0.00     0.004 C  
BRANCH   5   6
HETATM    6  C   UNL     1     -10.284  17.690  65.984  1.00  0.00    -0.301 A  
HETATM    7  C   UNL     1      -8.947  17.357  66.247  1.00  0.00    -0.239 A  
HETATM    8  C   UNL     1      -8.805  19.135  67.878  1.00  0.00    -0.345 A  
HETATM    9  C   UNL     1      -8.212  18.079  67.188  1.00  0.00    -0.231 A  
HETATM   10  C   UNL     1     -10.871  18.750  66.686  1.00  0.00    -0.214 A  
HETATM   11  C   UNL     1     -10.135  19.470  67.626  1.00  0.00    -0.526 A  
ENDBRANCH   5   6
ENDBRANCH   4   5
ENDBRANCH   3   4
ENDBRANCH   2   3
BRANCH   2  12
HETATM   12  O   UNL     1     -11.406  12.283  65.657  1.00  0.00    -0.323 OA 
BRANCH  12  13
HETATM   13  C   UNL     1     -12.007  12.883  66.820  1.00  0.00    -0.350 C  
BRANCH  13  14
HETATM   14  C   UNL     1     -11.278  12.417  68.084  1.00  0.00    -0.265 C  
BRANCH  14  15
HETATM   15  O   UNL     1      -9.856  12.434  67.837  1.00  0.00    -0.191 OA 
BRANCH  15  16
HETATM   16  C   UNL     1      -9.252  13.650  67.910  1.00  0.00    -0.203 C  
HETATM   17  O   UNL     1      -8.444  14.093  67.108  1.00  0.00    -0.206 OA 
BRANCH  16  18
HETATM   18  C   UNL     1      -9.702  14.373  69.154  1.00  0.00    -0.011 C  
BRANCH  18  19
HETATM   19  C   UNL     1     -10.579  15.576  68.823  1.00  0.00    -0.242 C  
BRANCH  19  20
HETATM   20  C   UNL     1     -10.906  16.435  70.050  1.00  0.00    -0.306 C  
BRANCH  20  21
HETATM   21  C   UNL     1     -11.849  15.687  70.957  1.00  0.00    -0.442 A  
HETATM   22  C   UNL     1     -13.700  14.508  72.695  1.00  0.00    -0.543 A  
HETATM   23  C   UNL     1     -11.528  15.490  72.306  1.00  0.00    -0.496 A  
HETATM   24  C   UNL     1     -13.100  15.268  70.484  1.00  0.00    -0.334 A  
HETATM   25  C   UNL     1     -12.452  14.901  73.171  1.00  0.00    -0.520 A  
HETATM   26  C   UNL     1     -14.022  14.682  71.350  1.00  0.00    -0.470 A  
ENDBRANCH  20  21
ENDBRANCH  19  20
ENDBRANCH  18  19
ENDBRANCH  16  18
ENDBRANCH  15  16
ENDBRANCH  14  15
BRANCH  14  27
HETATM   27  C   UNL     1     -11.670  10.980  68.450  1.00  0.00    -0.259 C  
BRANCH  27  28
HETATM   28  O   UNL     1     -11.110  10.589  69.712  1.00  0.00    -0.254 OA 
BRANCH  28  29
HETATM   29  C   UNL     1     -11.984  10.614  70.757  1.00  0.00    -0.374 C  
HETATM   30  O   UNL     1     -12.451  11.630  71.253  1.00  0.00    -0.339 OA 
BRANCH  29  31
HETATM   31  C   UNL     1     -12.298   9.210  71.206  1.00  0.00    -0.382 C  
BRANCH  31  32
HETATM   32  C   UNL     1     -11.127   8.263  70.964  1.00  0.00    -0.284 C  
BRANCH  32  33
HETATM   33  C   UNL     1     -11.524   6.785  71.072  1.00  0.00    -0.372 C  
BRANCH  33  34
HETATM   34  C   UNL     1     -10.965   6.009  69.907  1.00  0.00    -0.458 A  
HETATM   35  C   UNL     1      -9.774   4.669  67.755  1.00  0.00    -0.205 A  
HETATM   36  C   UNL     1     -10.166   4.880  70.130  1.00  0.00    -0.310 A  
HETATM   37  C   UNL     1      -9.573   4.213  69.057  1.00  0.00    -0.232 A  
HETATM   38  C   UNL     1     -10.577   5.784  67.524  1.00  0.00    -0.327 A  
HETATM   39  C   UNL     1     -11.172   6.451  68.594  1.00  0.00    -0.338 A  
ENDBRANCH  33  34
ENDBRANCH  32  33
ENDBRANCH  31  32
ENDBRANCH  29  31
ENDBRANCH  28  29
ENDBRANCH  27  28
ENDBRANCH  14  27
ENDBRANCH  13  14
ENDBRANCH  12  13
ENDBRANCH   2  12
TORSDOF 20
ENDMDL
MODEL      135
REMARK 921   NORMALIZED FREE ENERGY PREDICTED BY IDOCK:   -5.06 KCAL/MOL
REMARK 922        TOTAL FREE ENERGY PREDICTED BY IDOCK:  -15.67 KCAL/MOL
REMARK 923 INTER-LIGAND FREE ENERGY PREDICTED BY IDOCK:  -12.66 KCAL/MOL
REMARK 924 INTRA-LIGAND FREE ENERGY PREDICTED BY IDOCK:   -3.00 KCAL/MOL
REMARK 927      BINDING AFFINITY PREDICTED BY RF-SCORE:    0.00 PKD
ROOT
HETATM    1  O   UNL     1     -12.999  11.935  71.464  1.00  0.00    -0.409 OA 
HETATM    2  C   UNL     1     -12.280  11.447  70.603  1.00  0.00    -0.389 C  
ENDROOT
BRANCH   2   3
HETATM    3  C   UNL     1     -11.865   9.995  70.567  1.00  0.00    -0.387 C  
BRANCH   3   4
HETATM    4  C   UNL     1     -12.894   9.083  71.236  1.00  0.00    -0.296 C  
BRANCH   4   5
HETATM    5  C   UNL     1     -12.389   8.514  72.566  1.00  0.00    -0.372 C  
BRANCH   5   6
HETATM    6  C   UNL     1     -11.179   7.632  72.381  1.00  0.00    -0.372 A  
HETATM    7  C   UNL     1     -11.266   6.465  71.608  1.00  0.00    -0.327 A  
HETATM    8  C   UNL     1      -8.941   5.976  72.048  1.00  0.00    -0.140 A  
HETATM    9  C   UNL     1     -10.150   5.644  71.440  1.00  0.00    -0.254 A  
HETATM   10  C   UNL     1      -9.960   7.954  72.991  1.00  0.00    -0.362 A  
HETATM   11  C   UNL     1      -8.846   7.131  72.822  1.00  0.00    -0.145 A  
ENDBRANCH   5   6
ENDBRANCH   4   5
ENDBRANCH   3   4
ENDBRANCH   2   3
BRANCH   2  12
HETATM   12  O   UNL     1     -11.740  12.123  69.552  1.00  0.00    -0.300 OA 
BRANCH  12  13
HETATM   13  C   UNL     1     -10.529  11.581  68.991  1.00  0.00    -0.145 C  
BRANCH  13  14
HETATM   14  C   UNL     1     -10.539  11.744  67.469  1.00  0.00    -0.214 C  
BRANCH  14  15
HETATM   15  O   UNL     1      -9.479  12.646  67.088  1.00  0.00    -0.202 OA 
BRANCH  15  16
HETATM   16  C   UNL     1      -8.773  13.203  68.108  1.00  0.00    -0.193 C  
HETATM   17  O   UNL     1      -8.008  12.609  68.853  1.00  0.00     0.012 OA 
BRANCH  16  18
HETATM   18  C   UNL     1      -9.094  14.673  68.212  1.00  0.00    -0.189 C  
BRANCH  18  19
HETATM   19  C   UNL     1      -9.525  15.060  69.622  1.00  0.00    -0.026 C  
BRANCH  19  20
HETATM   20  C   UNL     1     -10.698  16.047  69.641  1.00  0.00    -0.316 C  
BRANCH  20  21
HETATM   21  C   UNL     1     -11.688  15.639  70.702  1.00  0.00    -0.398 A  
HETATM   22  C   UNL     1     -13.575  15.113  72.702  1.00  0.00    -0.594 A  
HETATM   23  C   UNL     1     -11.292  15.540  72.042  1.00  0.00    -0.445 A  
HETATM   24  C   UNL     1     -13.037  15.451  70.372  1.00  0.00    -0.223 A  
HETATM   25  C   UNL     1     -12.234  15.277  73.037  1.00  0.00    -0.527 A  
HETATM   26  C   UNL     1     -13.977  15.190  71.369  1.00  0.00    -0.595 A  
ENDBRANCH  20  21
ENDBRANCH  19  20
ENDBRANCH  18  19
ENDBRANCH  16  18
ENDBRANCH  15  16
ENDBRANCH  14  15
BRANCH  14  27
HETATM   27  C   UNL     1     -11.862  12.351  66.987  1.00  0.00    -0.297 C  
BRANCH  27  28
HETATM   28  O   UNL     1     -11.665  13.650  66.410  1.00  0.00    -0.338 OA 
BRANCH  28  29
HETATM   29  C   UNL     1     -12.317  13.855  65.231  1.00  0.00    -0.464 C  
HETATM   30  O   UNL     1     -13.239  13.169  64.813  1.00  0.00    -0.670 OA 
BRANCH  29  31
HETATM   31  C   UNL     1     -11.743  15.056  64.522  1.00  0.00    -0.372 C  
BRANCH  31  32
HETATM   32  C   UNL     1     -10.677  15.752  65.361  1.00  0.00    -0.420 C  
BRANCH  32  33
HETATM   33  C   UNL     1     -10.694  17.278  65.200  1.00  0.00     0.053 C  
BRANCH  33  34
HETATM   34  C   UNL     1     -10.030  17.934  66.383  1.00  0.00    -0.358 A  
HETATM   35  C   UNL     1      -8.746  19.291  68.470  1.00  0.00    -0.405 A  
HETATM   36  C   UNL     1     -10.720  18.895  67.134  1.00  0.00    -0.506 A  
HETATM   37  C   UNL     1     -10.079  19.570  68.173  1.00  0.00    -0.537 A  
HETATM   38  C   UNL     1      -8.056  18.328  67.735  1.00  0.00    -0.256 A  
HETATM   39  C   UNL     1      -8.695  17.651  66.697  1.00  0.00    -0.286 A  
ENDBRANCH  33  34
ENDBRANCH  32  33
ENDBRANCH  31  32
ENDBRANCH  29  31
ENDBRANCH  28  29
ENDBRANCH  27  28
ENDBRANCH  14  27
ENDBRANCH  13  14
ENDBRANCH  12  13
ENDBRANCH   2  12
TORSDOF 20
ENDMDL
MODEL      136
REMARK 921   NORMALIZED FREE ENERGY PREDICTED BY IDOCK:   -5.06 KCAL/MOL
REMARK 922        TOTAL FREE ENERGY PREDICTED BY IDOCK:  -15.66 KCAL/MOL
REMARK 923 INTER-LIGAND FREE ENERGY PREDICTED BY IDOCK:  -13.10 KCAL/MOL
REMARK 924 INTRA-LIGAND FREE ENERGY PREDICTED BY IDOCK:   -2.56 KCAL/MOL
REMARK 927      BINDING AFFINITY PREDICTED BY RF-SCORE:    0.00 PKD
ROOT
HETATM    1  O   UNL     1     -12.633  12.571  65.275  1.00  0.00    -0.645 OA 
HETATM    2  C   UNL     1     -12.152  12.757  66.384  1.00  0.00    -0.300 C  
ENDROOT
BRANCH   2   3
HETATM    3  C   UNL     1     -11.872  14.121  66.970  1.00  0.00    -0.458 C  
BRANCH   3   4
HETATM    4  C   UNL     1     -11.099  15.018  66.001  1.00  0.00    -0.329 C  
BRANCH   4   5
HETATM    5  C   UNL     1      -9.708  15.382  66.531  1.00  0.00    -0.292 C  
BRANCH   5   6
HETATM    6  C   UNL     1      -9.567  16.861  66.784  1.00  0.00    -0.273 A  
HETATM    7  C   UNL     1     -10.508  17.537  67.575  1.00  0.00    -0.355 A  
HETATM    8  C   UNL     1      -9.324  19.617  67.245  1.00  0.00    -0.429 A  
HETATM    9  C   UNL     1     -10.384  18.907  67.805  1.00  0.00    -0.490 A  
HETATM   10  C   UNL     1      -8.507  17.585  66.223  1.00  0.00    -0.247 A  
HETATM   11  C   UNL     1      -8.385  18.955  66.454  1.00  0.00    -0.306 A  
ENDBRANCH   5   6
ENDBRANCH   4   5
ENDBRANCH   3   4
ENDBRANCH   2   3
BRANCH   2  12
HETATM   12  O   UNL     1     -11.794  11.780  67.262  1.00  0.00    -0.596 OA 
BRANCH  12  13
HETATM   13  C   UNL     1     -10.873  10.785  66.776  1.00  0.00    -0.194 C  
BRANCH  13  14
HETATM   14  C   UNL     1     -10.457   9.856  67.921  1.00  0.00    -0.236 C  
BRANCH  14  15
HETATM   15  O   UNL     1     -10.321  10.633  69.128  1.00  0.00    -0.202 OA 
BRANCH  15  16
HETATM   16  C   UNL     1     -10.261   9.928  70.289  1.00  0.00    -0.264 C  
HETATM   17  O   UNL     1      -9.275   9.348  70.721  1.00  0.00    -0.247 OA 
BRANCH  16  18
HETATM   18  C   UNL     1     -11.608   9.936  70.965  1.00  0.00    -0.470 C  
BRANCH  18  19
HETATM   19  C   UNL     1     -12.480  11.088  70.477  1.00  0.00    -0.432 C  
BRANCH  19  20
HETATM   20  C   UNL     1     -13.267  11.765  71.605  1.00  0.00    -0.368 C  
BRANCH  20  21
HETATM   21  C   UNL     1     -12.828  13.201  71.740  1.00  0.00    -0.358 A  
HETATM   22  C   UNL     1     -12.208  15.928  71.872  1.00  0.00    -0.558 A  
HETATM   23  C   UNL     1     -12.037  13.796  70.749  1.00  0.00    -0.395 A  
HETATM   24  C   UNL     1     -13.287  13.981  72.810  1.00  0.00    -0.603 A  
HETATM   25  C   UNL     1     -11.729  15.156  70.818  1.00  0.00    -0.370 A  
HETATM   26  C   UNL     1     -12.979  15.340  72.874  1.00  0.00    -0.564 A  
ENDBRANCH  20  21
ENDBRANCH  19  20
ENDBRANCH  18  19
ENDBRANCH  16  18
ENDBRANCH  15  16
ENDBRANCH  14  15
BRANCH  14  27
HETATM   27  C   UNL     1      -9.103   9.198  67.634  1.00  0.00    -0.122 C  
BRANCH  27  28
HETATM   28  O   UNL     1      -9.114   7.803  67.972  1.00  0.00    -0.130 OA 
BRANCH  28  29
HETATM   29  C   UNL     1      -9.376   6.966  66.929  1.00  0.00    -0.148 C  
HETATM   30  O   UNL     1      -8.638   6.791  65.971  1.00  0.00    -0.137 OA 
BRANCH  29  31
HETATM   31  C   UNL     1     -10.702   6.280  67.135  1.00  0.00    -0.432 C  
BRANCH  31  32
HETATM   32  C   UNL     1     -11.168   6.369  68.584  1.00  0.00    -0.338 C  
BRANCH  32  33
HETATM   33  C   UNL     1     -10.515   5.314  69.487  1.00  0.00    -0.304 C  
BRANCH  33  34
HETATM   34  C   UNL     1     -10.386   5.839  70.893  1.00  0.00    -0.299 A  
HETATM   35  C   UNL     1     -10.097   6.980  73.435  1.00  0.00    -0.320 A  
HETATM   36  C   UNL     1     -11.465   6.492  71.504  1.00  0.00    -0.351 A  
HETATM   37  C   UNL     1     -11.320   7.059  72.771  1.00  0.00    -0.256 A  
HETATM   38  C   UNL     1      -9.022   6.322  72.839  1.00  0.00    -0.124 A  
HETATM   39  C   UNL     1      -9.165   5.753  71.574  1.00  0.00    -0.159 A  
ENDBRANCH  33  34
ENDBRANCH  32  33
ENDBRANCH  31  32
ENDBRANCH  29  31
ENDBRANCH  28  29
ENDBRANCH  27  28
ENDBRANCH  14  27
ENDBRANCH  13  14
ENDBRANCH  12  13
ENDBRANCH   2  12
TORSDOF 20
ENDMDL
MODEL      137
REMARK 921   NORMALIZED FREE ENERGY PREDICTED BY IDOCK:   -5.06 KCAL/MOL
REMARK 922        TOTAL FREE ENERGY PREDICTED BY IDOCK:  -15.66 KCAL/MOL
REMARK 923 INTER-LIGAND FREE ENERGY PREDICTED BY IDOCK:  -12.80 KCAL/MOL
REMARK 924 INTRA-LIGAND FREE ENERGY PREDICTED BY IDOCK:   -2.86 KCAL/MOL
REMARK 927      BINDING AFFINITY PREDICTED BY RF-SCORE:    0.00 PKD
ROOT
HETATM    1  O   UNL     1     -12.219  11.831  67.153  1.00  0.00    -0.446 OA 
HETATM    2  C   UNL     1     -11.855  12.651  66.322  1.00  0.00    -0.410 C  
ENDROOT
BRANCH   2   3
HETATM    3  C   UNL     1     -12.536  12.875  64.994  1.00  0.00    -0.538 C  
BRANCH   3   4
HETATM    4  C   UNL     1     -11.950  11.998  63.887  1.00  0.00    -0.542 C  
BRANCH   4   5
HETATM    5  C   UNL     1     -10.447  12.230  63.697  1.00  0.00    -0.483 C  
BRANCH   5   6
HETATM    6  C   UNL     1      -9.661  10.945  63.773  1.00  0.00    -0.331 A  
HETATM    7  C   UNL     1      -9.516  10.276  64.996  1.00  0.00    -0.314 A  
HETATM    8  C   UNL     1      -8.186   8.565  63.927  1.00  0.00    -0.128 A  
HETATM    9  C   UNL     1      -8.784   9.090  65.071  1.00  0.00    -0.217 A  
HETATM   10  C   UNL     1      -9.053  10.411  62.630  1.00  0.00    -0.305 A  
HETATM   11  C   UNL     1      -8.321   9.225  62.706  1.00  0.00    -0.188 A  
ENDBRANCH   5   6
ENDBRANCH   4   5
ENDBRANCH   3   4
ENDBRANCH   2   3
BRANCH   2  12
HETATM   12  O   UNL     1     -10.786  13.485  66.456  1.00  0.00    -0.281 OA 
BRANCH  12  13
HETATM   13  C   UNL     1     -10.034  13.376  67.680  1.00  0.00    -0.229 C  
BRANCH  13  14
HETATM   14  C   UNL     1      -8.534  13.415  67.375  1.00  0.00    -0.196 C  
BRANCH  14  15
HETATM   15  O   UNL     1      -7.805  13.048  68.565  1.00  0.00    -0.137 OA 
BRANCH  15  16
HETATM   16  C   UNL     1      -6.893  12.049  68.423  1.00  0.00    -0.072 C  
HETATM   17  O   UNL     1      -5.679  12.186  68.428  1.00  0.00    -0.052 OA 
BRANCH  16  18
HETATM   18  C   UNL     1      -7.601  10.733  68.224  1.00  0.00    -0.098 C  
BRANCH  18  19
HETATM   19  C   UNL     1      -8.308  10.273  69.494  1.00  0.00    -0.162 C  
BRANCH  19  20
HETATM   20  C   UNL     1      -9.836  10.286  69.368  1.00  0.00    -0.247 C  
BRANCH  20  21
HETATM   21  C   UNL     1     -10.445   9.474  70.482  1.00  0.00    -0.358 A  
HETATM   22  C   UNL     1     -11.530   8.149  72.696  1.00  0.00    -0.454 A  
HETATM   23  C   UNL     1      -9.642   8.644  71.275  1.00  0.00    -0.292 A  
HETATM   24  C   UNL     1     -11.803   9.615  70.798  1.00  0.00    -0.378 A  
HETATM   25  C   UNL     1     -10.185   7.984  72.378  1.00  0.00    -0.347 A  
HETATM   26  C   UNL     1     -12.342   8.956  71.902  1.00  0.00    -0.445 A  
ENDBRANCH  20  21
ENDBRANCH  19  20
ENDBRANCH  18  19
ENDBRANCH  16  18
ENDBRANCH  15  16
ENDBRANCH  14  15
BRANCH  14  27
HETATM   27  C   UNL     1      -8.088  14.826  66.973  1.00  0.00    -0.144 C  
BRANCH  27  28
HETATM   28  O   UNL     1      -8.780  15.831  67.729  1.00  0.00    -0.168 OA 
BRANCH  28  29
HETATM   29  C   UNL     1      -9.397  16.786  66.977  1.00  0.00    -0.233 C  
HETATM   30  O   UNL     1      -9.037  17.140  65.864  1.00  0.00    -0.513 OA 
BRANCH  29  31
HETATM   31  C   UNL     1     -10.592  17.334  67.714  1.00  0.00    -0.367 C  
BRANCH  31  32
HETATM   32  C   UNL     1     -10.772  16.670  69.075  1.00  0.00    -0.343 C  
BRANCH  32  33
HETATM   33  C   UNL     1     -12.024  15.786  69.146  1.00  0.00    -0.312 C  
BRANCH  33  34
HETATM   34  C   UNL     1     -12.432  15.574  70.582  1.00  0.00    -0.483 A  
HETATM   35  C   UNL     1     -13.146  15.003  73.229  1.00  0.00    -0.607 A  
HETATM   36  C   UNL     1     -11.472  15.624  71.602  1.00  0.00    -0.506 A  
HETATM   37  C   UNL     1     -11.829  15.340  72.920  1.00  0.00    -0.510 A  
HETATM   38  C   UNL     1     -14.109  14.963  72.222  1.00  0.00    -0.600 A  
HETATM   39  C   UNL     1     -13.755  15.248  70.904  1.00  0.00    -0.363 A  
ENDBRANCH  33  34
ENDBRANCH  32  33
ENDBRANCH  31  32
ENDBRANCH  29  31
ENDBRANCH  28  29
ENDBRANCH  27  28
ENDBRANCH  14  27
ENDBRANCH  13  14
ENDBRANCH  12  13
ENDBRANCH   2  12
TORSDOF 20
ENDMDL
MODEL      138
REMARK 921   NORMALIZED FREE ENERGY PREDICTED BY IDOCK:   -5.06 KCAL/MOL
REMARK 922        TOTAL FREE ENERGY PREDICTED BY IDOCK:  -15.65 KCAL/MOL
REMARK 923 INTER-LIGAND FREE ENERGY PREDICTED BY IDOCK:  -10.31 KCAL/MOL
REMARK 924 INTRA-LIGAND FREE ENERGY PREDICTED BY IDOCK:   -5.35 KCAL/MOL
REMARK 927      BINDING AFFINITY PREDICTED BY RF-SCORE:    0.00 PKD
ROOT
HETATM    1  O   UNL     1     -13.916  13.171  72.680  1.00  0.00    -0.708 OA 
HETATM    2  C   UNL     1     -13.203  12.960  71.709  1.00  0.00    -0.384 C  
ENDROOT
BRANCH   2   3
HETATM    3  C   UNL     1     -12.282  13.987  71.094  1.00  0.00    -0.417 C  
BRANCH   3   4
HETATM    4  C   UNL     1     -12.399  14.028  69.569  1.00  0.00    -0.275 C  
BRANCH   4   5
HETATM    5  C   UNL     1     -11.030  14.084  68.882  1.00  0.00    -0.283 C  
BRANCH   5   6
HETATM    6  C   UNL     1     -11.143  13.961  67.384  1.00  0.00    -0.313 A  
HETATM    7  C   UNL     1     -12.402  13.868  66.774  1.00  0.00    -0.370 A  
HETATM    8  C   UNL     1     -11.361  13.714  64.599  1.00  0.00    -0.380 A  
HETATM    9  C   UNL     1     -12.509  13.748  65.388  1.00  0.00    -0.532 A  
HETATM   10  C   UNL     1      -9.995  13.922  66.582  1.00  0.00    -0.279 A  
HETATM   11  C   UNL     1     -10.105  13.801  65.196  1.00  0.00    -0.314 A  
ENDBRANCH   5   6
ENDBRANCH   4   5
ENDBRANCH   3   4
ENDBRANCH   2   3
BRANCH   2  12
HETATM   12  O   UNL     1     -13.125  11.783  71.030  1.00  0.00    -0.182 OA 
BRANCH  12  13
HETATM   13  C   UNL     1     -12.743  10.623  71.795  1.00  0.00    -0.383 C  
BRANCH  13  14
HETATM   14  C   UNL     1     -11.781   9.754  70.981  1.00  0.00    -0.370 C  
BRANCH  14  15
HETATM   15  O   UNL     1     -10.736   9.271  71.851  1.00  0.00    -0.339 OA 
BRANCH  15  16
HETATM   16  C   UNL     1     -10.814   7.961  72.208  1.00  0.00    -0.293 C  
HETATM   17  O   UNL     1     -11.434   7.519  73.164  1.00  0.00    -0.282 OA 
BRANCH  16  18
HETATM   18  C   UNL     1      -9.993   7.121  71.263  1.00  0.00    -0.192 C  
BRANCH  18  19
HETATM   19  C   UNL     1     -10.848   6.097  70.525  1.00  0.00    -0.364 C  
BRANCH  19  20
HETATM   20  C   UNL     1     -11.067   6.451  69.050  1.00  0.00    -0.424 C  
BRANCH  20  21
HETATM   21  C   UNL     1     -10.528   5.346  68.177  1.00  0.00    -0.188 A  
HETATM   22  C   UNL     1      -9.317   3.407  66.561  1.00  0.00    -0.173 A  
HETATM   23  C   UNL     1     -10.565   5.464  66.782  1.00  0.00    -0.339 A  
HETATM   24  C   UNL     1      -9.898   4.235  68.754  1.00  0.00    -0.120 A  
HETATM   25  C   UNL     1      -9.961   4.495  65.979  1.00  0.00    -0.265 A  
HETATM   26  C   UNL     1      -9.293   3.271  67.948  1.00  0.00    -0.246 A  
ENDBRANCH  20  21
ENDBRANCH  19  20
ENDBRANCH  18  19
ENDBRANCH  16  18
ENDBRANCH  15  16
ENDBRANCH  14  15
BRANCH  14  27
HETATM   27  C   UNL     1     -11.117  10.565  69.861  1.00  0.00    -0.307 C  
BRANCH  27  28
HETATM   28  O   UNL     1     -10.438   9.712  68.928  1.00  0.00    -0.203 OA 
BRANCH  28  29
HETATM   29  C   UNL     1     -10.792   9.898  67.625  1.00  0.00    -0.257 C  
HETATM   30  O   UNL     1     -11.720  10.597  67.245  1.00  0.00    -0.317 OA 
BRANCH  29  31
HETATM   31  C   UNL     1      -9.866   9.125  66.720  1.00  0.00    -0.291 C  
BRANCH  31  32
HETATM   32  C   UNL     1      -8.675   8.555  67.483  1.00  0.00    -0.135 C  
BRANCH  32  33
HETATM   33  C   UNL     1      -7.659   7.858  66.568  1.00  0.00    -0.092 C  
BRANCH  33  34
HETATM   34  C   UNL     1      -7.061   6.665  67.268  1.00  0.00    -0.080 A  
HETATM   35  C   UNL     1      -5.791   4.543  68.585  1.00  0.00    -0.025 A  
HETATM   36  C   UNL     1      -7.080   6.585  68.667  1.00  0.00    -0.083 A  
HETATM   37  C   UNL     1      -6.448   5.528  69.322  1.00  0.00    -0.038 A  
HETATM   38  C   UNL     1      -5.778   4.609  67.193  1.00  0.00    -0.022 A  
HETATM   39  C   UNL     1      -6.410   5.664  66.536  1.00  0.00    -0.039 A  
ENDBRANCH  33  34
ENDBRANCH  32  33
ENDBRANCH  31  32
ENDBRANCH  29  31
ENDBRANCH  28  29
ENDBRANCH  27  28
ENDBRANCH  14  27
ENDBRANCH  13  14
ENDBRANCH  12  13
ENDBRANCH   2  12
TORSDOF 20
ENDMDL
MODEL      139
REMARK 921   NORMALIZED FREE ENERGY PREDICTED BY IDOCK:   -5.05 KCAL/MOL
REMARK 922        TOTAL FREE ENERGY PREDICTED BY IDOCK:  -15.64 KCAL/MOL
REMARK 923 INTER-LIGAND FREE ENERGY PREDICTED BY IDOCK:  -10.85 KCAL/MOL
REMARK 924 INTRA-LIGAND FREE ENERGY PREDICTED BY IDOCK:   -4.79 KCAL/MOL
REMARK 927      BINDING AFFINITY PREDICTED BY RF-SCORE:    0.00 PKD
ROOT
HETATM    1  O   UNL     1     -13.568  13.457  72.717  1.00  0.00    -0.656 OA 
HETATM    2  C   UNL     1     -13.005  13.900  71.726  1.00  0.00    -0.358 C  
ENDROOT
BRANCH   2   3
HETATM    3  C   UNL     1     -12.644  15.354  71.534  1.00  0.00    -0.462 C  
BRANCH   3   4
HETATM    4  C   UNL     1     -12.163  15.647  70.112  1.00  0.00    -0.387 C  
BRANCH   4   5
HETATM    5  C   UNL     1     -10.759  16.263  70.089  1.00  0.00    -0.246 C  
BRANCH   5   6
HETATM    6  C   UNL     1     -10.107  16.136  68.736  1.00  0.00    -0.237 A  
HETATM    7  C   UNL     1      -8.723  15.934  68.634  1.00  0.00    -0.199 A  
HETATM    8  C   UNL     1      -8.883  15.917  66.223  1.00  0.00    -0.386 A  
HETATM    9  C   UNL     1      -8.116  15.822  67.382  1.00  0.00    -0.193 A  
HETATM   10  C   UNL     1     -10.868  16.234  67.564  1.00  0.00    -0.268 A  
HETATM   11  C   UNL     1     -10.258  16.123  66.314  1.00  0.00    -0.333 A  
ENDBRANCH   5   6
ENDBRANCH   4   5
ENDBRANCH   3   4
ENDBRANCH   2   3
BRANCH   2  12
HETATM   12  O   UNL     1     -12.618  13.167  70.646  1.00  0.00    -0.290 OA 
BRANCH  12  13
HETATM   13  C   UNL     1     -12.456  11.751  70.854  1.00  0.00    -0.318 C  
BRANCH  13  14
HETATM   14  C   UNL     1     -11.460  11.185  69.838  1.00  0.00    -0.306 C  
BRANCH  14  15
HETATM   15  O   UNL     1     -12.117  11.055  68.560  1.00  0.00    -0.573 OA 
BRANCH  15  16
HETATM   16  C   UNL     1     -11.640  11.843  67.560  1.00  0.00    -0.304 C  
HETATM   17  O   UNL     1     -12.143  11.973  66.454  1.00  0.00    -0.610 OA 
BRANCH  16  18
HETATM   18  C   UNL     1     -10.368  12.520  68.003  1.00  0.00    -0.226 C  
BRANCH  18  19
HETATM   19  C   UNL     1      -9.255  12.364  66.973  1.00  0.00    -0.208 C  
BRANCH  19  20
HETATM   20  C   UNL     1      -7.894  12.045  67.603  1.00  0.00    -0.149 C  
BRANCH  20  21
HETATM   21  C   UNL     1      -7.911  10.646  68.165  1.00  0.00    -0.110 A  
HETATM   22  C   UNL     1      -7.718   8.024  69.129  1.00  0.00    -0.099 A  
HETATM   23  C   UNL     1      -8.308   9.566  67.365  1.00  0.00    -0.125 A  
HETATM   24  C   UNL     1      -7.437  10.399  69.460  1.00  0.00    -0.148 A  
HETATM   25  C   UNL     1      -8.212   8.260  67.849  1.00  0.00    -0.128 A  
HETATM   26  C   UNL     1      -7.340   9.093  69.939  1.00  0.00    -0.064 A  
ENDBRANCH  20  21
ENDBRANCH  19  20
ENDBRANCH  18  19
ENDBRANCH  16  18
ENDBRANCH  15  16
ENDBRANCH  14  15
BRANCH  14  27
HETATM   27  C   UNL     1     -10.975   9.792  70.256  1.00  0.00    -0.298 C  
BRANCH  27  28
HETATM   28  O   UNL     1     -11.069   9.607  71.676  1.00  0.00    -0.348 OA 
BRANCH  28  29
HETATM   29  C   UNL     1     -10.599   8.411  72.129  1.00  0.00    -0.329 C  
HETATM   30  O   UNL     1      -9.451   8.204  72.495  1.00  0.00    -0.212 OA 
BRANCH  29  31
HETATM   31  C   UNL     1     -11.702   7.383  72.120  1.00  0.00    -0.328 C  
BRANCH  31  32
HETATM   32  C   UNL     1     -11.340   6.171  71.268  1.00  0.00    -0.335 C  
BRANCH  32  33
HETATM   33  C   UNL     1     -11.601   6.394  69.773  1.00  0.00    -0.397 C  
BRANCH  33  34
HETATM   34  C   UNL     1     -10.614   5.608  68.949  1.00  0.00    -0.303 A  
HETATM   35  C   UNL     1      -8.670   4.296  67.418  1.00  0.00    -0.113 A  
HETATM   36  C   UNL     1      -9.566   4.917  69.574  1.00  0.00    -0.240 A  
HETATM   37  C   UNL     1      -8.599   4.264  68.810  1.00  0.00    -0.105 A  
HETATM   38  C   UNL     1      -9.715   4.970  66.789  1.00  0.00    -0.188 A  
HETATM   39  C   UNL     1     -10.684   5.623  67.550  1.00  0.00    -0.272 A  
ENDBRANCH  33  34
ENDBRANCH  32  33
ENDBRANCH  31  32
ENDBRANCH  29  31
ENDBRANCH  28  29
ENDBRANCH  27  28
ENDBRANCH  14  27
ENDBRANCH  13  14
ENDBRANCH  12  13
ENDBRANCH   2  12
TORSDOF 20
ENDMDL
MODEL      140
REMARK 921   NORMALIZED FREE ENERGY PREDICTED BY IDOCK:   -5.04 KCAL/MOL
REMARK 922        TOTAL FREE ENERGY PREDICTED BY IDOCK:  -15.62 KCAL/MOL
REMARK 923 INTER-LIGAND FREE ENERGY PREDICTED BY IDOCK:  -10.80 KCAL/MOL
REMARK 924 INTRA-LIGAND FREE ENERGY PREDICTED BY IDOCK:   -4.82 KCAL/MOL
REMARK 927      BINDING AFFINITY PREDICTED BY RF-SCORE:    0.00 PKD
ROOT
HETATM    1  O   UNL     1     -11.235  11.520  63.254  1.00  0.00    -0.329 OA 
HETATM    2  C   UNL     1     -10.835  12.048  64.282  1.00  0.00    -0.339 C  
ENDROOT
BRANCH   2   3
HETATM    3  C   UNL     1     -11.369  13.349  64.831  1.00  0.00    -0.345 C  
BRANCH   3   4
HETATM    4  C   UNL     1     -10.268  14.396  65.011  1.00  0.00    -0.406 C  
BRANCH   4   5
HETATM    5  C   UNL     1     -10.815  15.827  64.969  1.00  0.00    -0.461 C  
BRANCH   5   6
HETATM    6  C   UNL     1     -10.081  16.742  65.916  1.00  0.00    -0.324 A  
HETATM    7  C   UNL     1      -8.686  16.661  66.039  1.00  0.00    -0.239 A  
HETATM    8  C   UNL     1      -8.709  18.426  67.690  1.00  0.00    -0.268 A  
HETATM    9  C   UNL     1      -8.005  17.502  66.920  1.00  0.00    -0.254 A  
HETATM   10  C   UNL     1     -10.779  17.671  66.697  1.00  0.00    -0.117 A  
HETATM   11  C   UNL     1     -10.096  18.511  67.578  1.00  0.00    -0.383 A  
ENDBRANCH   5   6
ENDBRANCH   4   5
ENDBRANCH   3   4
ENDBRANCH   2   3
BRANCH   2  12
HETATM   12  O   UNL     1      -9.854  11.557  65.089  1.00  0.00    -0.244 OA 
BRANCH  12  13
HETATM   13  C   UNL     1     -10.223  10.475  65.965  1.00  0.00    -0.245 C  
BRANCH  13  14
HETATM   14  C   UNL     1      -9.004  10.018  66.772  1.00  0.00    -0.135 C  
BRANCH  14  15
HETATM   15  O   UNL     1      -7.806  10.347  66.037  1.00  0.00    -0.130 OA 
BRANCH  15  16
HETATM   16  C   UNL     1      -6.896  11.117  66.691  1.00  0.00    -0.137 C  
HETATM   17  O   UNL     1      -5.706  11.195  66.425  1.00  0.00    -0.119 OA 
BRANCH  16  18
HETATM   18  C   UNL     1      -7.565  11.849  67.826  1.00  0.00    -0.130 C  
BRANCH  18  19
HETATM   19  C   UNL     1      -7.876  13.297  67.462  1.00  0.00    -0.173 C  
BRANCH  19  20
HETATM   20  C   UNL     1      -7.926  14.225  68.681  1.00  0.00    -0.139 C  
BRANCH  20  21
HETATM   21  C   UNL     1      -9.355  14.614  68.964  1.00  0.00    -0.118 A  
HETATM   22  C   UNL     1     -11.993  15.488  69.306  1.00  0.00    -0.338 A  
HETATM   23  C   UNL     1      -9.641  15.682  69.824  1.00  0.00    -0.192 A  
HETATM   24  C   UNL     1     -10.407  13.975  68.294  1.00  0.00    -0.247 A  
HETATM   25  C   UNL     1     -10.957  16.115  69.994  1.00  0.00    -0.364 A  
HETATM   26  C   UNL     1     -11.720  14.411  68.464  1.00  0.00    -0.370 A  
ENDBRANCH  20  21
ENDBRANCH  19  20
ENDBRANCH  18  19
ENDBRANCH  16  18
ENDBRANCH  15  16
ENDBRANCH  14  15
BRANCH  14  27
HETATM   27  C   UNL     1      -9.018   8.500  66.984  1.00  0.00    -0.137 C  
BRANCH  27  28
HETATM   28  O   UNL     1      -9.958   8.121  68.000  1.00  0.00    -0.169 OA 
BRANCH  28  29
HETATM   29  C   UNL     1     -10.592   6.935  67.778  1.00  0.00    -0.244 C  
HETATM   30  O   UNL     1     -11.382   6.725  66.869  1.00  0.00    -0.318 OA 
BRANCH  29  31
HETATM   31  C   UNL     1     -10.170   5.920  68.809  1.00  0.00    -0.243 C  
BRANCH  31  32
HETATM   32  C   UNL     1      -9.980   6.553  70.183  1.00  0.00    -0.190 C  
BRANCH  32  33
HETATM   33  C   UNL     1     -11.132   6.241  71.148  1.00  0.00    -0.356 C  
BRANCH  33  34
HETATM   34  C   UNL     1     -12.021   7.448  71.304  1.00  0.00    -0.343 A  
HETATM   35  C   UNL     1     -13.642   9.683  71.776  1.00  0.00    -0.424 A  
HETATM   36  C   UNL     1     -11.467   8.735  71.319  1.00  0.00    -0.355 A  
HETATM   37  C   UNL     1     -12.276   9.848  71.553  1.00  0.00    -0.505 A  
HETATM   38  C   UNL     1     -14.203   8.407  71.750  1.00  0.00    -0.536 A  
HETATM   39  C   UNL     1     -13.397   7.294  71.515  1.00  0.00    -0.435 A  
ENDBRANCH  33  34
ENDBRANCH  32  33
ENDBRANCH  31  32
ENDBRANCH  29  31
ENDBRANCH  28  29
ENDBRANCH  27  28
ENDBRANCH  14  27
ENDBRANCH  13  14
ENDBRANCH  12  13
ENDBRANCH   2  12
TORSDOF 20
ENDMDL
MODEL      141
REMARK 921   NORMALIZED FREE ENERGY PREDICTED BY IDOCK:   -5.04 KCAL/MOL
REMARK 922        TOTAL FREE ENERGY PREDICTED BY IDOCK:  -15.61 KCAL/MOL
REMARK 923 INTER-LIGAND FREE ENERGY PREDICTED BY IDOCK:  -11.57 KCAL/MOL
REMARK 924 INTRA-LIGAND FREE ENERGY PREDICTED BY IDOCK:   -4.04 KCAL/MOL
REMARK 927      BINDING AFFINITY PREDICTED BY RF-SCORE:    0.00 PKD
ROOT
HETATM    1  O   UNL     1      -7.394  10.371  68.719  1.00  0.00    -0.079 OA 
HETATM    2  C   UNL     1      -8.559  10.740  68.661  1.00  0.00    -0.151 C  
ENDROOT
BRANCH   2   3
HETATM    3  C   UNL     1      -9.652  10.248  69.579  1.00  0.00    -0.225 C  
BRANCH   3   4
HETATM    4  C   UNL     1      -9.202   9.059  70.430  1.00  0.00    -0.243 C  
BRANCH   4   5
HETATM    5  C   UNL     1      -9.857   9.055  71.815  1.00  0.00    -0.330 C  
BRANCH   5   6
HETATM    6  C   UNL     1     -11.330   8.738  71.744  1.00  0.00    -0.409 A  
HETATM    7  C   UNL     1     -11.764   7.407  71.679  1.00  0.00    -0.311 A  
HETATM    8  C   UNL     1     -14.065   8.140  71.593  1.00  0.00    -0.504 A  
HETATM    9  C   UNL     1     -13.126   7.111  71.607  1.00  0.00    -0.410 A  
HETATM   10  C   UNL     1     -12.282   9.765  71.725  1.00  0.00    -0.449 A  
HETATM   11  C   UNL     1     -13.643   9.467  71.652  1.00  0.00    -0.426 A  
ENDBRANCH   5   6
ENDBRANCH   4   5
ENDBRANCH   3   4
ENDBRANCH   2   3
BRANCH   2  12
HETATM   12  O   UNL     1      -9.056  11.640  67.768  1.00  0.00    -0.164 OA 
BRANCH  12  13
HETATM   13  C   UNL     1     -10.363  11.360  67.231  1.00  0.00    -0.198 C  
BRANCH  13  14
HETATM   14  C   UNL     1     -10.327  11.441  65.702  1.00  0.00    -0.257 C  
BRANCH  14  15
HETATM   15  O   UNL     1      -8.970  11.241  65.255  1.00  0.00    -0.169 OA 
BRANCH  15  16
HETATM   16  C   UNL     1      -8.732  10.095  64.562  1.00  0.00    -0.196 C  
HETATM   17  O   UNL     1      -9.169   9.830  63.452  1.00  0.00    -0.258 OA 
BRANCH  16  18
HETATM   18  C   UNL     1      -7.865   9.171  65.379  1.00  0.00    -0.100 C  
BRANCH  18  19
HETATM   19  C   UNL     1      -8.471   7.776  65.491  1.00  0.00    -0.146 C  
BRANCH  19  20
HETATM   20  C   UNL     1      -9.719   7.734  66.380  1.00  0.00    -0.219 C  
BRANCH  20  21
HETATM   21  C   UNL     1      -9.442   6.899  67.604  1.00  0.00    -0.133 A  
HETATM   22  C   UNL     1      -8.929   5.157  69.735  1.00  0.00    -0.141 A  
HETATM   23  C   UNL     1     -10.500   6.354  68.344  1.00  0.00    -0.266 A  
HETATM   24  C   UNL     1      -8.125   6.579  67.958  1.00  0.00    -0.113 A  
HETATM   25  C   UNL     1     -10.241   5.486  69.406  1.00  0.00    -0.329 A  
HETATM   26  C   UNL     1      -7.870   5.710  69.018  1.00  0.00    -0.096 A  
ENDBRANCH  20  21
ENDBRANCH  19  20
ENDBRANCH  18  19
ENDBRANCH  16  18
ENDBRANCH  15  16
ENDBRANCH  14  15
BRANCH  14  27
HETATM   27  C   UNL     1     -10.781  12.820  65.211  1.00  0.00    -0.294 C  
BRANCH  27  28
HETATM   28  O   UNL     1     -10.428  13.852  66.143  1.00  0.00    -0.286 OA 
BRANCH  28  29
HETATM   29  C   UNL     1     -11.486  14.517  66.686  1.00  0.00    -0.366 C  
HETATM   30  O   UNL     1     -12.658  14.196  66.550  1.00  0.00    -0.394 OA 
BRANCH  29  31
HETATM   31  C   UNL     1     -11.002  15.699  67.487  1.00  0.00    -0.309 C  
BRANCH  31  32
HETATM   32  C   UNL     1     -10.466  15.278  68.851  1.00  0.00    -0.241 C  
BRANCH  32  33
HETATM   33  C   UNL     1     -11.171  14.036  69.411  1.00  0.00    -0.283 C  
BRANCH  33  34
HETATM   34  C   UNL     1     -11.983  14.401  70.627  1.00  0.00    -0.393 A  
HETATM   35  C   UNL     1     -13.355  15.014  72.991  1.00  0.00    -0.568 A  
HETATM   36  C   UNL     1     -11.779  15.632  71.267  1.00  0.00    -0.478 A  
HETATM   37  C   UNL     1     -12.463  15.936  72.444  1.00  0.00    -0.558 A  
HETATM   38  C   UNL     1     -13.572  13.793  72.355  1.00  0.00    -0.690 A  
HETATM   39  C   UNL     1     -12.890  13.487  71.177  1.00  0.00    -0.387 A  
ENDBRANCH  33  34
ENDBRANCH  32  33
ENDBRANCH  31  32
ENDBRANCH  29  31
ENDBRANCH  28  29
ENDBRANCH  27  28
ENDBRANCH  14  27
ENDBRANCH  13  14
ENDBRANCH  12  13
ENDBRANCH   2  12
TORSDOF 20
ENDMDL
MODEL      142
REMARK 921   NORMALIZED FREE ENERGY PREDICTED BY IDOCK:   -5.03 KCAL/MOL
REMARK 922        TOTAL FREE ENERGY PREDICTED BY IDOCK:  -15.59 KCAL/MOL
REMARK 923 INTER-LIGAND FREE ENERGY PREDICTED BY IDOCK:   -9.41 KCAL/MOL
REMARK 924 INTRA-LIGAND FREE ENERGY PREDICTED BY IDOCK:   -6.18 KCAL/MOL
REMARK 927      BINDING AFFINITY PREDICTED BY RF-SCORE:    0.00 PKD
ROOT
HETATM    1  O   UNL     1      -5.785   8.004  69.220  1.00  0.00    -0.032 OA 
HETATM    2  C   UNL     1      -6.756   8.329  68.551  1.00  0.00    -0.063 C  
ENDROOT
BRANCH   2   3
HETATM    3  C   UNL     1      -8.098   8.709  69.129  1.00  0.00    -0.116 C  
BRANCH   3   4
HETATM    4  C   UNL     1      -8.953   9.499  68.137  1.00  0.00    -0.123 C  
BRANCH   4   5
HETATM    5  C   UNL     1      -8.501  10.959  68.015  1.00  0.00    -0.130 C  
BRANCH   5   6
HETATM    6  C   UNL     1      -9.639  11.924  68.235  1.00  0.00    -0.201 A  
HETATM    7  C   UNL     1      -9.406  13.307  68.219  1.00  0.00    -0.205 A  
HETATM    8  C   UNL     1     -11.745  13.726  68.661  1.00  0.00    -0.391 A  
HETATM    9  C   UNL     1     -10.456  14.202  68.428  1.00  0.00    -0.254 A  
HETATM   10  C   UNL     1     -10.937  11.456  68.474  1.00  0.00    -0.267 A  
HETATM   11  C   UNL     1     -11.985  12.353  68.683  1.00  0.00    -0.272 A  
ENDBRANCH   5   6
ENDBRANCH   4   5
ENDBRANCH   3   4
ENDBRANCH   2   3
BRANCH   2  12
HETATM   12  O   UNL     1      -6.787   8.400  67.191  1.00  0.00    -0.068 OA 
BRANCH  12  13
HETATM   13  C   UNL     1      -6.290   7.253  66.476  1.00  0.00    -0.044 C  
BRANCH  13  14
HETATM   14  C   UNL     1      -7.337   6.775  65.464  1.00  0.00    -0.079 C  
BRANCH  14  15
HETATM   15  O   UNL     1      -8.282   7.840  65.231  1.00  0.00    -0.133 OA 
BRANCH  15  16
HETATM   16  C   UNL     1      -8.132   8.528  64.068  1.00  0.00    -0.156 C  
HETATM   17  O   UNL     1      -8.187   8.050  62.945  1.00  0.00    -0.161 OA 
BRANCH  16  18
HETATM   18  C   UNL     1      -7.855   9.981  64.364  1.00  0.00    -0.144 C  
BRANCH  18  19
HETATM   19  C   UNL     1      -8.953  10.888  63.821  1.00  0.00    -0.121 C  
BRANCH  19  20
HETATM   20  C   UNL     1     -10.239  10.840  64.655  1.00  0.00    -0.419 C  
BRANCH  20  21
HETATM   21  C   UNL     1     -10.860  12.212  64.710  1.00  0.00    -0.351 A  
HETATM   22  C   UNL     1     -11.973  14.758  65.048  1.00  0.00    -0.318 A  
HETATM   23  C   UNL     1     -12.232  12.359  64.954  1.00  0.00    -0.485 A  
HETATM   24  C   UNL     1     -10.056  13.355  64.616  1.00  0.00    -0.256 A  
HETATM   25  C   UNL     1     -12.784  13.630  65.121  1.00  0.00    -0.443 A  
HETATM   26  C   UNL     1     -10.611  14.624  64.786  1.00  0.00    -0.379 A  
ENDBRANCH  20  21
ENDBRANCH  19  20
ENDBRANCH  18  19
ENDBRANCH  16  18
ENDBRANCH  15  16
ENDBRANCH  14  15
BRANCH  14  27
HETATM   27  C   UNL     1      -8.116   5.569  66.003  1.00  0.00    -0.108 C  
BRANCH  27  28
HETATM   28  O   UNL     1      -9.005   5.950  67.062  1.00  0.00    -0.115 OA 
BRANCH  28  29
HETATM   29  C   UNL     1      -8.873   5.222  68.207  1.00  0.00    -0.104 C  
HETATM   30  O   UNL     1      -7.807   4.903  68.713  1.00  0.00    -0.076 OA 
BRANCH  29  31
HETATM   31  C   UNL     1     -10.231   4.876  68.762  1.00  0.00    -0.119 C  
BRANCH  31  32
HETATM   32  C   UNL     1     -10.986   6.118  69.225  1.00  0.00    -0.450 C  
BRANCH  32  33
HETATM   33  C   UNL     1     -10.715   6.468  70.694  1.00  0.00    -0.297 C  
BRANCH  33  34
HETATM   34  C   UNL     1     -11.654   7.554  71.153  1.00  0.00    -0.304 A  
HETATM   35  C   UNL     1     -13.457   9.587  71.831  1.00  0.00    -0.502 A  
HETATM   36  C   UNL     1     -12.976   7.243  71.499  1.00  0.00    -0.434 A  
HETATM   37  C   UNL     1     -13.873   8.256  71.836  1.00  0.00    -0.438 A  
HETATM   38  C   UNL     1     -12.140   9.903  71.501  1.00  0.00    -0.496 A  
HETATM   39  C   UNL     1     -11.241   8.892  71.164  1.00  0.00    -0.352 A  
ENDBRANCH  33  34
ENDBRANCH  32  33
ENDBRANCH  31  32
ENDBRANCH  29  31
ENDBRANCH  28  29
ENDBRANCH  27  28
ENDBRANCH  14  27
ENDBRANCH  13  14
ENDBRANCH  12  13
ENDBRANCH   2  12
TORSDOF 20
ENDMDL
MODEL      143
REMARK 921   NORMALIZED FREE ENERGY PREDICTED BY IDOCK:   -5.03 KCAL/MOL
REMARK 922        TOTAL FREE ENERGY PREDICTED BY IDOCK:  -15.59 KCAL/MOL
REMARK 923 INTER-LIGAND FREE ENERGY PREDICTED BY IDOCK:  -10.84 KCAL/MOL
REMARK 924 INTRA-LIGAND FREE ENERGY PREDICTED BY IDOCK:   -4.75 KCAL/MOL
REMARK 927      BINDING AFFINITY PREDICTED BY RF-SCORE:    0.00 PKD
ROOT
HETATM    1  O   UNL     1      -8.761  10.240  68.994  1.00  0.00    -0.143 OA 
HETATM    2  C   UNL     1      -9.964  10.435  68.883  1.00  0.00    -0.199 C  
ENDROOT
BRANCH   2   3
HETATM    3  C   UNL     1     -10.832   9.802  67.823  1.00  0.00    -0.306 C  
BRANCH   3   4
HETATM    4  C   UNL     1     -10.060   8.799  66.964  1.00  0.00    -0.335 C  
BRANCH   4   5
HETATM    5  C   UNL     1     -10.786   7.455  66.846  1.00  0.00    -0.324 C  
BRANCH   5   6
HETATM    6  C   UNL     1      -9.861   6.289  67.087  1.00  0.00    -0.173 A  
HETATM    7  C   UNL     1     -10.365   4.980  67.118  1.00  0.00    -0.217 A  
HETATM    8  C   UNL     1      -8.151   4.115  67.553  1.00  0.00    -0.095 A  
HETATM    9  C   UNL     1      -9.513   3.900  67.347  1.00  0.00    -0.236 A  
HETATM   10  C   UNL     1      -8.492   6.494  67.299  1.00  0.00    -0.112 A  
HETATM   11  C   UNL     1      -7.641   5.412  67.529  1.00  0.00    -0.088 A  
ENDBRANCH   5   6
ENDBRANCH   4   5
ENDBRANCH   3   4
ENDBRANCH   2   3
BRANCH   2  12
HETATM   12  O   UNL     1     -10.707  11.244  69.687  1.00  0.00    -0.164 OA 
BRANCH  12  13
HETATM   13  C   UNL     1     -12.135  11.063  69.639  1.00  0.00    -0.340 C  
BRANCH  13  14
HETATM   14  C   UNL     1     -12.668  10.740  71.039  1.00  0.00    -0.415 C  
BRANCH  14  15
HETATM   15  O   UNL     1     -13.778   9.827  70.918  1.00  0.00    -0.238 OA 
BRANCH  15  16
HETATM   16  C   UNL     1     -13.794   8.787  71.794  1.00  0.00    -0.423 C  
HETATM   17  O   UNL     1     -14.176   8.838  72.954  1.00  0.00    -0.479 OA 
BRANCH  16  18
HETATM   18  C   UNL     1     -13.238   7.551  71.134  1.00  0.00    -0.232 C  
BRANCH  18  19
HETATM   19  C   UNL     1     -11.861   7.188  71.678  1.00  0.00    -0.340 C  
BRANCH  19  20
HETATM   20  C   UNL     1     -10.765   7.218  70.606  1.00  0.00    -0.252 C  
BRANCH  20  21
HETATM   21  C   UNL     1      -9.746   6.145  70.891  1.00  0.00    -0.203 A  
HETATM   22  C   UNL     1      -7.830   4.125  71.185  1.00  0.00    -0.071 A  
HETATM   23  C   UNL     1     -10.140   4.805  70.997  1.00  0.00    -0.269 A  
HETATM   24  C   UNL     1      -8.384   6.464  70.955  1.00  0.00    -0.126 A  
HETATM   25  C   UNL     1      -9.183   3.800  71.145  1.00  0.00    -0.201 A  
HETATM   26  C   UNL     1      -7.429   5.458  71.100  1.00  0.00    -0.085 A  
ENDBRANCH  20  21
ENDBRANCH  19  20
ENDBRANCH  18  19
ENDBRANCH  16  18
ENDBRANCH  15  16
ENDBRANCH  14  15
BRANCH  14  27
HETATM   27  C   UNL     1     -13.178  12.004  71.741  1.00  0.00    -0.317 C  
BRANCH  27  28
HETATM   28  O   UNL     1     -12.828  13.188  71.010  1.00  0.00    -0.296 OA 
BRANCH  28  29
HETATM   29  C   UNL     1     -12.483  14.256  71.784  1.00  0.00    -0.316 C  
HETATM   30  O   UNL     1     -12.752  14.375  72.970  1.00  0.00    -0.414 OA 
BRANCH  29  31
HETATM   31  C   UNL     1     -11.715  15.263  70.966  1.00  0.00    -0.394 C  
BRANCH  31  32
HETATM   32  C   UNL     1     -12.037  15.151  69.480  1.00  0.00    -0.316 C  
BRANCH  32  33
HETATM   33  C   UNL     1     -10.789  14.946  68.612  1.00  0.00    -0.253 C  
BRANCH  33  34
HETATM   34  C   UNL     1     -11.183  14.755  67.170  1.00  0.00    -0.346 A  
HETATM   35  C   UNL     1     -11.775  14.278  64.474  1.00  0.00    -0.431 A  
HETATM   36  C   UNL     1     -12.050  13.715  66.808  1.00  0.00    -0.445 A  
HETATM   37  C   UNL     1     -12.345  13.479  65.465  1.00  0.00    -0.524 A  
HETATM   38  C   UNL     1     -10.921  15.322  64.827  1.00  0.00    -0.403 A  
HETATM   39  C   UNL     1     -10.626  15.560  66.168  1.00  0.00    -0.321 A  
ENDBRANCH  33  34
ENDBRANCH  32  33
ENDBRANCH  31  32
ENDBRANCH  29  31
ENDBRANCH  28  29
ENDBRANCH  27  28
ENDBRANCH  14  27
ENDBRANCH  13  14
ENDBRANCH  12  13
ENDBRANCH   2  12
TORSDOF 20
ENDMDL
MODEL      144
REMARK 921   NORMALIZED FREE ENERGY PREDICTED BY IDOCK:   -5.03 KCAL/MOL
REMARK 922        TOTAL FREE ENERGY PREDICTED BY IDOCK:  -15.59 KCAL/MOL
REMARK 923 INTER-LIGAND FREE ENERGY PREDICTED BY IDOCK:  -11.17 KCAL/MOL
REMARK 924 INTRA-LIGAND FREE ENERGY PREDICTED BY IDOCK:   -4.42 KCAL/MOL
REMARK 927      BINDING AFFINITY PREDICTED BY RF-SCORE:    0.00 PKD
ROOT
HETATM    1  O   UNL     1      -8.787  13.091  68.252  1.00  0.00    -0.189 OA 
HETATM    2  C   UNL     1      -8.984  12.049  67.643  1.00  0.00    -0.172 C  
ENDROOT
BRANCH   2   3
HETATM    3  C   UNL     1      -9.687  10.845  68.223  1.00  0.00    -0.171 C  
BRANCH   3   4
HETATM    4  C   UNL     1     -11.199  11.055  68.331  1.00  0.00    -0.337 C  
BRANCH   4   5
HETATM    5  C   UNL     1     -11.614  11.590  69.706  1.00  0.00    -0.401 C  
BRANCH   5   6
HETATM    6  C   UNL     1     -11.944  10.479  70.670  1.00  0.00    -0.455 A  
HETATM    7  C   UNL     1     -10.926   9.666  71.188  1.00  0.00    -0.430 A  
HETATM    8  C   UNL     1     -12.551   8.399  72.451  1.00  0.00    -0.372 A  
HETATM    9  C   UNL     1     -11.229   8.633  72.076  1.00  0.00    -0.434 A  
HETATM   10  C   UNL     1     -13.270  10.233  71.050  1.00  0.00    -0.399 A  
HETATM   11  C   UNL     1     -13.571   9.199  71.938  1.00  0.00    -0.493 A  
ENDBRANCH   5   6
ENDBRANCH   4   5
ENDBRANCH   3   4
ENDBRANCH   2   3
BRANCH   2  12
HETATM   12  O   UNL     1      -8.605  11.804  66.358  1.00  0.00    -0.179 OA 
BRANCH  12  13
HETATM   13  C   UNL     1      -7.897  10.572  66.119  1.00  0.00    -0.145 C  
BRANCH  13  14
HETATM   14  C   UNL     1      -8.475   9.869  64.887  1.00  0.00    -0.161 C  
BRANCH  14  15
HETATM   15  O   UNL     1      -9.799  10.383  64.633  1.00  0.00    -0.299 OA 
BRANCH  15  16
HETATM   16  C   UNL     1      -9.951  11.104  63.491  1.00  0.00    -0.379 C  
HETATM   17  O   UNL     1      -9.143  11.170  62.577  1.00  0.00    -0.330 OA 
BRANCH  16  18
HETATM   18  C   UNL     1     -11.263  11.847  63.524  1.00  0.00    -0.501 C  
BRANCH  18  19
HETATM   19  C   UNL     1     -11.827  11.938  64.937  1.00  0.00    -0.236 C  
BRANCH  19  20
HETATM   20  C   UNL     1     -12.563  13.256  65.205  1.00  0.00    -0.528 C  
BRANCH  20  21
HETATM   21  C   UNL     1     -11.683  14.174  66.015  1.00  0.00    -0.389 A  
HETATM   22  C   UNL     1     -10.175  16.061  67.430  1.00  0.00    -0.273 A  
HETATM   23  C   UNL     1     -10.517  14.712  65.456  1.00  0.00    -0.374 A  
HETATM   24  C   UNL     1     -12.074  14.575  67.299  1.00  0.00    -0.298 A  
HETATM   25  C   UNL     1      -9.766  15.652  66.164  1.00  0.00    -0.348 A  
HETATM   26  C   UNL     1     -11.323  15.516  68.003  1.00  0.00    -0.332 A  
ENDBRANCH  20  21
ENDBRANCH  19  20
ENDBRANCH  18  19
ENDBRANCH  16  18
ENDBRANCH  15  16
ENDBRANCH  14  15
BRANCH  14  27
HETATM   27  C   UNL     1      -8.598   8.358  65.120  1.00  0.00    -0.132 C  
BRANCH  27  28
HETATM   28  O   UNL     1      -9.212   8.071  66.385  1.00  0.00    -0.174 OA 
BRANCH  28  29
HETATM   29  C   UNL     1      -9.661   6.791  66.523  1.00  0.00    -0.125 C  
HETATM   30  O   UNL     1      -9.245   5.832  65.889  1.00  0.00    -0.161 OA 
BRANCH  29  31
HETATM   31  C   UNL     1     -10.738   6.730  67.576  1.00  0.00    -0.381 C  
BRANCH  31  32
HETATM   32  C   UNL     1     -10.400   5.727  68.674  1.00  0.00    -0.283 C  
BRANCH  32  33
HETATM   33  C   UNL     1      -9.211   6.166  69.538  1.00  0.00    -0.143 C  
BRANCH  33  34
HETATM   34  C   UNL     1      -9.459   5.815  70.982  1.00  0.00    -0.195 A  
HETATM   35  C   UNL     1     -10.003   5.329  73.687  1.00  0.00    -0.194 A  
HETATM   36  C   UNL     1     -10.672   5.228  71.367  1.00  0.00    -0.203 A  
HETATM   37  C   UNL     1     -10.941   4.986  72.714  1.00  0.00    -0.312 A  
HETATM   38  C   UNL     1      -8.790   5.903  73.311  1.00  0.00    -0.127 A  
HETATM   39  C   UNL     1      -8.517   6.145  71.965  1.00  0.00    -0.121 A  
ENDBRANCH  33  34
ENDBRANCH  32  33
ENDBRANCH  31  32
ENDBRANCH  29  31
ENDBRANCH  28  29
ENDBRANCH  27  28
ENDBRANCH  14  27
ENDBRANCH  13  14
ENDBRANCH  12  13
ENDBRANCH   2  12
TORSDOF 20
ENDMDL
MODEL      145
REMARK 921   NORMALIZED FREE ENERGY PREDICTED BY IDOCK:   -5.02 KCAL/MOL
REMARK 922        TOTAL FREE ENERGY PREDICTED BY IDOCK:  -15.57 KCAL/MOL
REMARK 923 INTER-LIGAND FREE ENERGY PREDICTED BY IDOCK:  -11.37 KCAL/MOL
REMARK 924 INTRA-LIGAND FREE ENERGY PREDICTED BY IDOCK:   -4.20 KCAL/MOL
REMARK 927      BINDING AFFINITY PREDICTED BY RF-SCORE:    0.00 PKD
ROOT
HETATM    1  O   UNL     1     -12.557  12.938  64.207  1.00  0.00    -0.604 OA 
HETATM    2  C   UNL     1     -11.344  12.934  64.056  1.00  0.00    -0.415 C  
ENDROOT
BRANCH   2   3
HETATM    3  C   UNL     1     -10.567  11.785  63.459  1.00  0.00    -0.499 C  
BRANCH   3   4
HETATM    4  C   UNL     1     -10.450  10.602  64.422  1.00  0.00    -0.247 C  
BRANCH   4   5
HETATM    5  C   UNL     1      -9.509  10.899  65.595  1.00  0.00    -0.252 C  
BRANCH   5   6
HETATM    6  C   UNL     1      -9.560   9.821  66.648  1.00  0.00    -0.239 A  
HETATM    7  C   UNL     1      -8.755   9.912  67.793  1.00  0.00    -0.129 A  
HETATM    8  C   UNL     1      -9.634   7.812  68.603  1.00  0.00    -0.154 A  
HETATM    9  C   UNL     1      -8.795   8.913  68.766  1.00  0.00    -0.137 A  
HETATM   10  C   UNL     1     -10.396   8.708  66.492  1.00  0.00    -0.237 A  
HETATM   11  C   UNL     1     -10.434   7.710  67.466  1.00  0.00    -0.336 A  
ENDBRANCH   5   6
ENDBRANCH   4   5
ENDBRANCH   3   4
ENDBRANCH   2   3
BRANCH   2  12
HETATM   12  O   UNL     1     -10.504  13.949  64.399  1.00  0.00    -0.397 OA 
BRANCH  12  13
HETATM   13  C   UNL     1     -11.107  15.102  65.018  1.00  0.00    -0.419 C  
BRANCH  13  14
HETATM   14  C   UNL     1     -10.742  15.146  66.505  1.00  0.00    -0.310 C  
BRANCH  14  15
HETATM   15  O   UNL     1      -9.640  14.247  66.744  1.00  0.00    -0.259 OA 
BRANCH  15  16
HETATM   16  C   UNL     1      -8.704  14.672  67.634  1.00  0.00    -0.177 C  
HETATM   17  O   UNL     1      -8.081  13.961  68.408  1.00  0.00    -0.137 OA 
BRANCH  16  18
HETATM   18  C   UNL     1      -8.561  16.171  67.551  1.00  0.00    -0.189 C  
BRANCH  18  19
HETATM   19  C   UNL     1      -7.807  16.735  68.751  1.00  0.00    -0.243 C  
BRANCH  19  20
HETATM   20  C   UNL     1      -6.389  17.201  68.403  1.00  0.00    -0.156 C  
BRANCH  20  21
HETATM   21  C   UNL     1      -6.453  18.505  67.650  1.00  0.00    -0.204 A  
HETATM   22  C   UNL     1      -6.360  20.981  66.347  1.00  0.00    -0.318 A  
HETATM   23  C   UNL     1      -7.012  19.642  68.249  1.00  0.00    -0.333 A  
HETATM   24  C   UNL     1      -5.866  18.618  66.383  1.00  0.00    -0.181 A  
HETATM   25  C   UNL     1      -6.965  20.875  67.597  1.00  0.00    -0.368 A  
HETATM   26  C   UNL     1      -5.819  19.852  65.735  1.00  0.00    -0.197 A  
ENDBRANCH  20  21
ENDBRANCH  19  20
ENDBRANCH  18  19
ENDBRANCH  16  18
ENDBRANCH  15  16
ENDBRANCH  14  15
BRANCH  14  27
HETATM   27  C   UNL     1     -11.917  14.686  67.376  1.00  0.00    -0.279 C  
BRANCH  27  28
HETATM   28  O   UNL     1     -11.922  13.260  67.539  1.00  0.00    -0.356 OA 
BRANCH  28  29
HETATM   29  C   UNL     1     -12.023  12.834  68.830  1.00  0.00    -0.244 C  
HETATM   30  O   UNL     1     -12.185  13.565  69.797  1.00  0.00    -0.313 OA 
BRANCH  29  31
HETATM   31  C   UNL     1     -11.915  11.332  68.891  1.00  0.00    -0.378 C  
BRANCH  31  32
HETATM   32  C   UNL     1     -11.634  10.841  70.306  1.00  0.00    -0.427 C  
BRANCH  32  33
HETATM   33  C   UNL     1     -12.590   9.727  70.752  1.00  0.00    -0.276 C  
BRANCH  33  34
HETATM   34  C   UNL     1     -11.815   8.591  71.371  1.00  0.00    -0.345 A  
HETATM   35  C   UNL     1     -10.278   6.471  72.363  1.00  0.00    -0.204 A  
HETATM   36  C   UNL     1     -10.604   8.842  72.030  1.00  0.00    -0.414 A  
HETATM   37  C   UNL     1      -9.839   7.785  72.524  1.00  0.00    -0.271 A  
HETATM   38  C   UNL     1     -11.487   6.215  71.719  1.00  0.00    -0.342 A  
HETATM   39  C   UNL     1     -12.254   7.269  71.225  1.00  0.00    -0.389 A  
ENDBRANCH  33  34
ENDBRANCH  32  33
ENDBRANCH  31  32
ENDBRANCH  29  31
ENDBRANCH  28  29
ENDBRANCH  27  28
ENDBRANCH  14  27
ENDBRANCH  13  14
ENDBRANCH  12  13
ENDBRANCH   2  12
TORSDOF 20
ENDMDL
MODEL      146
REMARK 921   NORMALIZED FREE ENERGY PREDICTED BY IDOCK:   -5.01 KCAL/MOL
REMARK 922        TOTAL FREE ENERGY PREDICTED BY IDOCK:  -15.56 KCAL/MOL
REMARK 923 INTER-LIGAND FREE ENERGY PREDICTED BY IDOCK:  -12.06 KCAL/MOL
REMARK 924 INTRA-LIGAND FREE ENERGY PREDICTED BY IDOCK:   -3.50 KCAL/MOL
REMARK 927      BINDING AFFINITY PREDICTED BY RF-SCORE:    0.00 PKD
ROOT
HETATM    1  O   UNL     1     -13.321  12.127  72.120  1.00  0.00    -0.522 OA 
HETATM    2  C   UNL     1     -12.834  11.355  71.306  1.00  0.00    -0.379 C  
ENDROOT
BRANCH   2   3
HETATM    3  C   UNL     1     -13.203   9.895  71.194  1.00  0.00    -0.424 C  
BRANCH   3   4
HETATM    4  C   UNL     1     -12.268   8.998  72.009  1.00  0.00    -0.446 C  
BRANCH   4   5
HETATM    5  C   UNL     1     -11.606   7.916  71.148  1.00  0.00    -0.302 C  
BRANCH   5   6
HETATM    6  C   UNL     1     -10.101   7.988  71.209  1.00  0.00    -0.222 A  
HETATM    7  C   UNL     1      -9.430   9.145  70.789  1.00  0.00    -0.334 A  
HETATM    8  C   UNL     1      -7.302   8.123  71.300  1.00  0.00    -0.072 A  
HETATM    9  C   UNL     1      -8.037   9.212  70.837  1.00  0.00    -0.201 A  
HETATM   10  C   UNL     1      -9.352   6.897  71.668  1.00  0.00    -0.154 A  
HETATM   11  C   UNL     1      -7.959   6.966  71.715  1.00  0.00    -0.100 A  
ENDBRANCH   5   6
ENDBRANCH   4   5
ENDBRANCH   3   4
ENDBRANCH   2   3
BRANCH   2  12
HETATM   12  O   UNL     1     -11.890  11.680  70.380  1.00  0.00    -0.343 OA 
BRANCH  12  13
HETATM   13  C   UNL     1     -12.116  11.206  69.038  1.00  0.00    -0.246 C  
BRANCH  13  14
HETATM   14  C   UNL     1     -11.379  12.103  68.038  1.00  0.00    -0.295 C  
BRANCH  14  15
HETATM   15  O   UNL     1     -12.048  12.029  66.762  1.00  0.00    -0.613 OA 
BRANCH  15  16
HETATM   16  C   UNL     1     -12.318  13.218  66.160  1.00  0.00    -0.358 C  
HETATM   17  O   UNL     1     -12.814  13.359  65.052  1.00  0.00    -0.685 OA 
BRANCH  16  18
HETATM   18  C   UNL     1     -11.887  14.355  67.051  1.00  0.00    -0.437 C  
BRANCH  18  19
HETATM   19  C   UNL     1     -11.149  15.438  66.271  1.00  0.00    -0.226 C  
BRANCH  19  20
HETATM   20  C   UNL     1      -9.893  15.943  66.989  1.00  0.00    -0.236 C  
BRANCH  20  21
HETATM   21  C   UNL     1      -9.994  17.432  67.201  1.00  0.00    -0.291 A  
HETATM   22  C   UNL     1      -9.951  20.212  67.535  1.00  0.00    -0.571 A  
HETATM   23  C   UNL     1      -9.704  17.991  68.453  1.00  0.00    -0.348 A  
HETATM   24  C   UNL     1     -10.282  18.281  66.124  1.00  0.00    -0.393 A  
HETATM   25  C   UNL     1      -9.685  19.377  68.617  1.00  0.00    -0.504 A  
HETATM   26  C   UNL     1     -10.260  19.665  66.291  1.00  0.00    -0.598 A  
ENDBRANCH  20  21
ENDBRANCH  19  20
ENDBRANCH  18  19
ENDBRANCH  16  18
ENDBRANCH  15  16
ENDBRANCH  14  15
BRANCH  14  27
HETATM   27  C   UNL     1      -9.934  11.633  67.835  1.00  0.00    -0.182 C  
BRANCH  27  28
HETATM   28  O   UNL     1      -9.882  10.389  67.122  1.00  0.00    -0.170 OA 
BRANCH  28  29
HETATM   29  C   UNL     1      -8.721   9.692  67.273  1.00  0.00    -0.132 C  
HETATM   30  O   UNL     1      -7.606  10.192  67.307  1.00  0.00    -0.094 OA 
BRANCH  29  31
HETATM   31  C   UNL     1      -9.012   8.219  67.402  1.00  0.00    -0.142 C  
BRANCH  31  32
HETATM   32  C   UNL     1     -10.431   7.881  66.960  1.00  0.00    -0.419 C  
BRANCH  32  33
HETATM   33  C   UNL     1     -11.074   6.775  67.808  1.00  0.00    -0.285 C  
BRANCH  33  34
HETATM   34  C   UNL     1     -10.400   5.454  67.539  1.00  0.00    -0.246 A  
HETATM   35  C   UNL     1      -8.988   3.091  67.021  1.00  0.00    -0.176 A  
HETATM   36  C   UNL     1      -9.807   4.739  68.588  1.00  0.00    -0.208 A  
HETATM   37  C   UNL     1      -9.104   3.562  68.328  1.00  0.00    -0.201 A  
HETATM   38  C   UNL     1      -9.585   3.791  65.974  1.00  0.00    -0.168 A  
HETATM   39  C   UNL     1     -10.289   4.967  66.230  1.00  0.00    -0.336 A  
ENDBRANCH  33  34
ENDBRANCH  32  33
ENDBRANCH  31  32
ENDBRANCH  29  31
ENDBRANCH  28  29
ENDBRANCH  27  28
ENDBRANCH  14  27
ENDBRANCH  13  14
ENDBRANCH  12  13
ENDBRANCH   2  12
TORSDOF 20
ENDMDL
MODEL      147
REMARK 921   NORMALIZED FREE ENERGY PREDICTED BY IDOCK:   -4.99 KCAL/MOL
REMARK 922        TOTAL FREE ENERGY PREDICTED BY IDOCK:  -15.51 KCAL/MOL
REMARK 923 INTER-LIGAND FREE ENERGY PREDICTED BY IDOCK:  -11.99 KCAL/MOL
REMARK 924 INTRA-LIGAND FREE ENERGY PREDICTED BY IDOCK:   -3.52 KCAL/MOL
REMARK 927      BINDING AFFINITY PREDICTED BY RF-SCORE:    0.00 PKD
ROOT
HETATM    1  O   UNL     1     -10.964  12.404  63.643  1.00  0.00    -0.410 OA 
HETATM    2  C   UNL     1     -11.301  12.910  64.704  1.00  0.00    -0.323 C  
ENDROOT
BRANCH   2   3
HETATM    3  C   UNL     1     -11.727  14.350  64.862  1.00  0.00    -0.408 C  
BRANCH   3   4
HETATM    4  C   UNL     1     -10.533  15.303  64.921  1.00  0.00    -0.334 C  
BRANCH   4   5
HETATM    5  C   UNL     1     -10.963  16.764  65.096  1.00  0.00    -0.109 C  
BRANCH   5   6
HETATM    6  C   UNL     1     -10.100  17.493  66.094  1.00  0.00    -0.317 A  
HETATM    7  C   UNL     1     -10.636  18.532  66.868  1.00  0.00    -0.406 A  
HETATM    8  C   UNL     1      -8.497  18.866  67.941  1.00  0.00    -0.318 A  
HETATM    9  C   UNL     1      -9.838  19.213  67.788  1.00  0.00    -0.412 A  
HETATM   10  C   UNL     1      -8.750  17.155  66.254  1.00  0.00    -0.268 A  
HETATM   11  C   UNL     1      -7.954  17.837  67.174  1.00  0.00    -0.229 A  
ENDBRANCH   5   6
ENDBRANCH   4   5
ENDBRANCH   3   4
ENDBRANCH   2   3
BRANCH   2  12
HETATM   12  O   UNL     1     -11.345  12.266  65.903  1.00  0.00    -0.328 OA 
BRANCH  12  13
HETATM   13  C   UNL     1     -12.066  12.926  66.962  1.00  0.00    -0.230 C  
BRANCH  13  14
HETATM   14  C   UNL     1     -11.464  12.547  68.318  1.00  0.00    -0.308 C  
BRANCH  14  15
HETATM   15  O   UNL     1     -10.037  12.392  68.170  1.00  0.00    -0.211 OA 
BRANCH  15  16
HETATM   16  C   UNL     1      -9.325  13.540  68.016  1.00  0.00    -0.213 C  
HETATM   17  O   UNL     1      -8.588  13.800  67.077  1.00  0.00    -0.214 OA 
BRANCH  16  18
HETATM   18  C   UNL     1      -9.551  14.448  69.198  1.00  0.00     0.020 C  
BRANCH  18  19
HETATM   19  C   UNL     1     -10.595  15.519  68.898  1.00  0.00    -0.240 C  
BRANCH  19  20
HETATM   20  C   UNL     1     -10.786  16.509  70.052  1.00  0.00    -0.258 C  
BRANCH  20  21
HETATM   21  C   UNL     1     -11.893  16.028  70.956  1.00  0.00    -0.435 A  
HETATM   22  C   UNL     1     -13.814  14.946  72.681  1.00  0.00    -0.516 A  
HETATM   23  C   UNL     1     -12.897  15.186  70.459  1.00  0.00    -0.395 A  
HETATM   24  C   UNL     1     -11.875  16.339  72.322  1.00  0.00    -0.601 A  
HETATM   25  C   UNL     1     -13.854  14.649  71.322  1.00  0.00    -0.420 A  
HETATM   26  C   UNL     1     -12.831  15.799  73.181  1.00  0.00    -0.631 A  
ENDBRANCH  20  21
ENDBRANCH  19  20
ENDBRANCH  18  19
ENDBRANCH  16  18
ENDBRANCH  15  16
ENDBRANCH  14  15
BRANCH  14  27
HETATM   27  C   UNL     1     -12.029  11.213  68.821  1.00  0.00    -0.268 C  
BRANCH  27  28
HETATM   28  O   UNL     1     -11.562  10.911  70.143  1.00  0.00    -0.289 OA 
BRANCH  28  29
HETATM   29  C   UNL     1     -12.544  10.601  71.037  1.00  0.00    -0.416 C  
HETATM   30  O   UNL     1     -13.272  11.415  71.585  1.00  0.00    -0.419 OA 
BRANCH  29  31
HETATM   31  C   UNL     1     -12.605   9.109  71.243  1.00  0.00    -0.351 C  
BRANCH  31  32
HETATM   32  C   UNL     1     -11.481   8.615  72.147  1.00  0.00    -0.443 C  
BRANCH  32  33
HETATM   33  C   UNL     1     -10.602   7.549  71.479  1.00  0.00    -0.236 C  
BRANCH  33  34
HETATM   34  C   UNL     1      -9.665   8.193  70.490  1.00  0.00    -0.181 A  
HETATM   35  C   UNL     1      -8.043   9.529  68.638  1.00  0.00    -0.097 A  
HETATM   36  C   UNL     1      -8.719   9.132  70.923  1.00  0.00    -0.277 A  
HETATM   37  C   UNL     1      -7.912   9.796  70.000  1.00  0.00    -0.196 A  
HETATM   38  C   UNL     1      -8.974   8.588  68.200  1.00  0.00    -0.142 A  
HETATM   39  C   UNL     1      -9.781   7.922  69.121  1.00  0.00    -0.162 A  
ENDBRANCH  33  34
ENDBRANCH  32  33
ENDBRANCH  31  32
ENDBRANCH  29  31
ENDBRANCH  28  29
ENDBRANCH  27  28
ENDBRANCH  14  27
ENDBRANCH  13  14
ENDBRANCH  12  13
ENDBRANCH   2  12
TORSDOF 20
ENDMDL
MODEL      148
REMARK 921   NORMALIZED FREE ENERGY PREDICTED BY IDOCK:   -4.99 KCAL/MOL
REMARK 922        TOTAL FREE ENERGY PREDICTED BY IDOCK:  -15.50 KCAL/MOL
REMARK 923 INTER-LIGAND FREE ENERGY PREDICTED BY IDOCK:  -11.08 KCAL/MOL
REMARK 924 INTRA-LIGAND FREE ENERGY PREDICTED BY IDOCK:   -4.43 KCAL/MOL
REMARK 927      BINDING AFFINITY PREDICTED BY RF-SCORE:    0.00 PKD
ROOT
HETATM    1  O   UNL     1     -13.465  10.355  72.097  1.00  0.00    -0.396 OA 
HETATM    2  C   UNL     1     -12.339  10.078  71.707  1.00  0.00    -0.345 C  
ENDROOT
BRANCH   2   3
HETATM    3  C   UNL     1     -11.512   8.934  72.241  1.00  0.00    -0.307 C  
BRANCH   3   4
HETATM    4  C   UNL     1     -12.207   7.583  72.058  1.00  0.00    -0.314 C  
BRANCH   4   5
HETATM    5  C   UNL     1     -12.351   7.199  70.582  1.00  0.00    -0.201 C  
BRANCH   5   6
HETATM    6  C   UNL     1     -11.248   6.277  70.126  1.00  0.00    -0.470 A  
HETATM    7  C   UNL     1     -10.392   5.682  71.064  1.00  0.00    -0.297 A  
HETATM    8  C   UNL     1      -9.184   4.575  69.288  1.00  0.00    -0.195 A  
HETATM    9  C   UNL     1      -9.366   4.833  70.645  1.00  0.00    -0.218 A  
HETATM   10  C   UNL     1     -11.054   6.014  68.764  1.00  0.00    -0.329 A  
HETATM   11  C   UNL     1     -10.028   5.165  68.348  1.00  0.00    -0.214 A  
ENDBRANCH   5   6
ENDBRANCH   4   5
ENDBRANCH   3   4
ENDBRANCH   2   3
BRANCH   2  12
HETATM   12  O   UNL     1     -11.654  10.750  70.740  1.00  0.00    -0.322 OA 
BRANCH  12  13
HETATM   13  C   UNL     1     -12.442  11.354  69.696  1.00  0.00    -0.067 C  
BRANCH  13  14
HETATM   14  C   UNL     1     -11.974  12.793  69.456  1.00  0.00    -0.276 C  
BRANCH  14  15
HETATM   15  O   UNL     1     -12.890  13.697  70.107  1.00  0.00    -0.126 OA 
BRANCH  15  16
HETATM   16  C   UNL     1     -12.337  14.587  70.975  1.00  0.00    -0.347 C  
HETATM   17  O   UNL     1     -11.942  14.331  72.102  1.00  0.00    -0.107 OA 
BRANCH  16  18
HETATM   18  C   UNL     1     -12.306  15.959  70.351  1.00  0.00    -0.253 C  
BRANCH  18  19
HETATM   19  C   UNL     1     -10.918  16.311  69.826  1.00  0.00    -0.354 C  
BRANCH  19  20
HETATM   20  C   UNL     1     -10.914  16.666  68.335  1.00  0.00    -0.345 C  
BRANCH  20  21
HETATM   21  C   UNL     1     -10.137  17.940  68.118  1.00  0.00    -0.368 A  
HETATM   22  C   UNL     1      -8.623  20.214  67.508  1.00  0.00    -0.404 A  
HETATM   23  C   UNL     1      -8.804  18.037  68.537  1.00  0.00    -0.304 A  
HETATM   24  C   UNL     1     -10.710  19.004  67.409  1.00  0.00    -0.559 A  
HETATM   25  C   UNL     1      -8.051  19.172  68.232  1.00  0.00    -0.367 A  
HETATM   26  C   UNL     1      -9.955  20.136  67.104  1.00  0.00    -0.595 A  
ENDBRANCH  20  21
ENDBRANCH  19  20
ENDBRANCH  18  19
ENDBRANCH  16  18
ENDBRANCH  15  16
ENDBRANCH  14  15
BRANCH  14  27
HETATM   27  C   UNL     1     -11.969  13.131  67.961  1.00  0.00    -0.304 C  
BRANCH  27  28
HETATM   28  O   UNL     1     -11.893  11.946  67.155  1.00  0.00    -0.588 OA 
BRANCH  28  29
HETATM   29  C   UNL     1     -11.239  12.103  65.970  1.00  0.00    -0.336 C  
HETATM   30  O   UNL     1     -11.412  13.031  65.193  1.00  0.00    -0.295 OA 
BRANCH  29  31
HETATM   31  C   UNL     1     -10.264  10.972  65.761  1.00  0.00    -0.316 C  
BRANCH  31  32
HETATM   32  C   UNL     1     -10.533   9.810  66.710  1.00  0.00    -0.259 C  
BRANCH  32  33
HETATM   33  C   UNL     1      -9.650   8.589  66.424  1.00  0.00    -0.314 C  
BRANCH  33  34
HETATM   34  C   UNL     1      -8.674   8.375  67.553  1.00  0.00    -0.136 A  
HETATM   35  C   UNL     1      -6.952   7.822  69.691  1.00  0.00    -0.048 A  
HETATM   36  C   UNL     1      -7.530   7.590  67.356  1.00  0.00    -0.104 A  
HETATM   37  C   UNL     1      -6.673   7.315  68.422  1.00  0.00    -0.054 A  
HETATM   38  C   UNL     1      -8.081   8.613  69.891  1.00  0.00    -0.111 A  
HETATM   39  C   UNL     1      -8.939   8.890  68.828  1.00  0.00    -0.134 A  
ENDBRANCH  33  34
ENDBRANCH  32  33
ENDBRANCH  31  32
ENDBRANCH  29  31
ENDBRANCH  28  29
ENDBRANCH  27  28
ENDBRANCH  14  27
ENDBRANCH  13  14
ENDBRANCH  12  13
ENDBRANCH   2  12
TORSDOF 20
ENDMDL
MODEL      149
REMARK 921   NORMALIZED FREE ENERGY PREDICTED BY IDOCK:   -4.98 KCAL/MOL
REMARK 922        TOTAL FREE ENERGY PREDICTED BY IDOCK:  -15.49 KCAL/MOL
REMARK 923 INTER-LIGAND FREE ENERGY PREDICTED BY IDOCK:  -12.35 KCAL/MOL
REMARK 924 INTRA-LIGAND FREE ENERGY PREDICTED BY IDOCK:   -3.14 KCAL/MOL
REMARK 927      BINDING AFFINITY PREDICTED BY RF-SCORE:    0.00 PKD
ROOT
HETATM    1  O   UNL     1     -13.665   9.024  72.574  1.00  0.00    -0.472 OA 
HETATM    2  C   UNL     1     -12.890   9.462  71.736  1.00  0.00    -0.399 C  
ENDROOT
BRANCH   2   3
HETATM    3  C   UNL     1     -11.450   9.028  71.602  1.00  0.00    -0.431 C  
BRANCH   3   4
HETATM    4  C   UNL     1     -11.199   7.656  72.231  1.00  0.00    -0.343 C  
BRANCH   4   5
HETATM    5  C   UNL     1     -11.652   6.508  71.321  1.00  0.00    -0.381 C  
BRANCH   5   6
HETATM    6  C   UNL     1     -10.663   6.238  70.216  1.00  0.00    -0.339 A  
HETATM    7  C   UNL     1      -9.338   5.894  70.521  1.00  0.00    -0.185 A  
HETATM    8  C   UNL     1      -8.812   5.749  68.167  1.00  0.00    -0.105 A  
HETATM    9  C   UNL     1      -8.419   5.649  69.500  1.00  0.00    -0.110 A  
HETATM   10  C   UNL     1     -11.047   6.340  68.873  1.00  0.00    -0.434 A  
HETATM   11  C   UNL     1     -10.126   6.095  67.854  1.00  0.00    -0.179 A  
ENDBRANCH   5   6
ENDBRANCH   4   5
ENDBRANCH   3   4
ENDBRANCH   2   3
BRANCH   2  12
HETATM   12  O   UNL     1     -13.192  10.404  70.800  1.00  0.00    -0.375 OA 
BRANCH  12  13
HETATM   13  C   UNL     1     -12.106  11.236  70.350  1.00  0.00    -0.384 C  
BRANCH  13  14
HETATM   14  C   UNL     1     -12.144  11.365  68.825  1.00  0.00    -0.189 C  
BRANCH  14  15
HETATM   15  O   UNL     1     -11.643  10.145  68.240  1.00  0.00    -0.193 OA 
BRANCH  15  16
HETATM   16  C   UNL     1     -10.292  10.056  68.108  1.00  0.00    -0.194 C  
HETATM   17  O   UNL     1      -9.471  10.382  68.951  1.00  0.00    -0.168 OA 
BRANCH  16  18
HETATM   18  C   UNL     1      -9.944   9.519  66.742  1.00  0.00    -0.297 C  
BRANCH  18  19
HETATM   19  C   UNL     1      -9.435  10.617  65.815  1.00  0.00    -0.244 C  
BRANCH  19  20
HETATM   20  C   UNL     1     -10.357  10.863  64.615  1.00  0.00    -0.407 C  
BRANCH  20  21
HETATM   21  C   UNL     1     -10.907  12.265  64.676  1.00  0.00    -0.349 A  
HETATM   22  C   UNL     1     -11.911  14.855  65.027  1.00  0.00    -0.258 A  
HETATM   23  C   UNL     1     -12.287  12.481  64.790  1.00  0.00    -0.544 A  
HETATM   24  C   UNL     1     -10.038  13.363  64.718  1.00  0.00    -0.262 A  
HETATM   25  C   UNL     1     -12.785  13.773  64.964  1.00  0.00    -0.379 A  
HETATM   26  C   UNL     1     -10.538  14.653  64.894  1.00  0.00    -0.446 A  
ENDBRANCH  20  21
ENDBRANCH  19  20
ENDBRANCH  18  19
ENDBRANCH  16  18
ENDBRANCH  15  16
ENDBRANCH  14  15
BRANCH  14  27
HETATM   27  C   UNL     1     -11.250  12.514  68.344  1.00  0.00    -0.272 C  
BRANCH  27  28
HETATM   28  O   UNL     1     -11.986  13.740  68.232  1.00  0.00    -0.357 OA 
BRANCH  28  29
HETATM   29  C   UNL     1     -11.357  14.832  68.751  1.00  0.00    -0.282 C  
HETATM   30  O   UNL     1     -11.900  15.898  69.004  1.00  0.00    -0.389 OA 
BRANCH  29  31
HETATM   31  C   UNL     1      -9.896  14.532  68.976  1.00  0.00    -0.142 C  
BRANCH  31  32
HETATM   32  C   UNL     1      -9.058  15.804  69.031  1.00  0.00    -0.245 C  
BRANCH  32  33
HETATM   33  C   UNL     1      -8.586  16.268  67.647  1.00  0.00    -0.181 C  
BRANCH  33  34
HETATM   34  C   UNL     1      -9.081  17.664  67.368  1.00  0.00    -0.239 A  
HETATM   35  C   UNL     1      -9.904  20.255  66.694  1.00  0.00    -0.562 A  
HETATM   36  C   UNL     1     -10.219  17.862  66.574  1.00  0.00    -0.379 A  
HETATM   37  C   UNL     1     -10.628  19.153  66.239  1.00  0.00    -0.521 A  
HETATM   38  C   UNL     1      -8.779  20.066  67.494  1.00  0.00    -0.415 A  
HETATM   39  C   UNL     1      -8.369  18.777  67.831  1.00  0.00    -0.300 A  
ENDBRANCH  33  34
ENDBRANCH  32  33
ENDBRANCH  31  32
ENDBRANCH  29  31
ENDBRANCH  28  29
ENDBRANCH  27  28
ENDBRANCH  14  27
ENDBRANCH  13  14
ENDBRANCH  12  13
ENDBRANCH   2  12
TORSDOF 20
ENDMDL
MODEL      150
REMARK 921   NORMALIZED FREE ENERGY PREDICTED BY IDOCK:   -4.96 KCAL/MOL
REMARK 922        TOTAL FREE ENERGY PREDICTED BY IDOCK:  -15.44 KCAL/MOL
REMARK 923 INTER-LIGAND FREE ENERGY PREDICTED BY IDOCK:  -10.63 KCAL/MOL
REMARK 924 INTRA-LIGAND FREE ENERGY PREDICTED BY IDOCK:   -4.81 KCAL/MOL
REMARK 927      BINDING AFFINITY PREDICTED BY RF-SCORE:    0.00 PKD
ROOT
HETATM    1  O   UNL     1      -7.564   3.587  67.553  1.00  0.00    -0.069 OA 
HETATM    2  C   UNL     1      -7.611   4.806  67.637  1.00  0.00    -0.079 C  
ENDROOT
BRANCH   2   3
HETATM    3  C   UNL     1      -7.484   5.574  68.931  1.00  0.00    -0.082 C  
BRANCH   3   4
HETATM    4  C   UNL     1      -8.520   5.135  69.968  1.00  0.00    -0.098 C  
BRANCH   4   5
HETATM    5  C   UNL     1      -8.539   6.053  71.195  1.00  0.00    -0.129 C  
BRANCH   5   6
HETATM    6  C   UNL     1      -9.897   6.668  71.422  1.00  0.00    -0.191 A  
HETATM    7  C   UNL     1     -10.974   6.331  70.590  1.00  0.00    -0.370 A  
HETATM    8  C   UNL     1     -12.421   7.820  71.825  1.00  0.00    -0.348 A  
HETATM    9  C   UNL     1     -12.230   6.903  70.794  1.00  0.00    -0.364 A  
HETATM   10  C   UNL     1     -10.099   7.594  72.453  1.00  0.00    -0.265 A  
HETATM   11  C   UNL     1     -11.355   8.166  72.654  1.00  0.00    -0.450 A  
ENDBRANCH   5   6
ENDBRANCH   4   5
ENDBRANCH   3   4
ENDBRANCH   2   3
BRANCH   2  12
HETATM   12  O   UNL     1      -7.787   5.661  66.592  1.00  0.00    -0.099 OA 
BRANCH  12  13
HETATM   13  C   UNL     1      -9.143   6.044  66.294  1.00  0.00    -0.150 C  
BRANCH  13  14
HETATM   14  C   UNL     1      -9.251   7.570  66.221  1.00  0.00    -0.146 C  
BRANCH  14  15
HETATM   15  O   UNL     1      -7.923   8.132  66.195  1.00  0.00    -0.095 OA 
BRANCH  15  16
HETATM   16  C   UNL     1      -7.634   8.932  65.134  1.00  0.00    -0.099 C  
HETATM   17  O   UNL     1      -6.521   9.332  64.826  1.00  0.00    -0.073 OA 
BRANCH  16  18
HETATM   18  C   UNL     1      -8.901   9.285  64.397  1.00  0.00    -0.197 C  
BRANCH  18  19
HETATM   19  C   UNL     1      -9.192  10.781  64.456  1.00  0.00    -0.250 C  
BRANCH  19  20
HETATM   20  C   UNL     1      -9.133  11.347  65.880  1.00  0.00    -0.209 C  
BRANCH  20  21
HETATM   21  C   UNL     1     -10.187  12.412  66.047  1.00  0.00    -0.267 A  
HETATM   22  C   UNL     1     -12.095  14.458  66.136  1.00  0.00    -0.373 A  
HETATM   23  C   UNL     1      -9.841  13.683  66.522  1.00  0.00    -0.295 A  
HETATM   24  C   UNL     1     -11.505  12.171  65.637  1.00  0.00    -0.408 A  
HETATM   25  C   UNL     1     -10.794  14.702  66.566  1.00  0.00    -0.315 A  
HETATM   26  C   UNL     1     -12.455  13.191  65.680  1.00  0.00    -0.485 A  
ENDBRANCH  20  21
ENDBRANCH  19  20
ENDBRANCH  18  19
ENDBRANCH  16  18
ENDBRANCH  15  16
ENDBRANCH  14  15
BRANCH  14  27
HETATM   27  C   UNL     1      -9.972   8.132  67.452  1.00  0.00    -0.209 C  
BRANCH  27  28
HETATM   28  O   UNL     1      -9.043   8.504  68.480  1.00  0.00    -0.136 OA 
BRANCH  28  29
HETATM   29  C   UNL     1      -9.473   9.500  69.304  1.00  0.00    -0.169 C  
HETATM   30  O   UNL     1      -8.834   9.958  70.240  1.00  0.00    -0.187 OA 
BRANCH  29  31
HETATM   31  C   UNL     1     -10.846   9.962  68.887  1.00  0.00    -0.239 C  
BRANCH  31  32
HETATM   32  C   UNL     1     -11.462  10.906  69.914  1.00  0.00    -0.402 C  
BRANCH  32  33
HETATM   33  C   UNL     1     -11.639  12.334  69.380  1.00  0.00    -0.378 C  
BRANCH  33  34
HETATM   34  C   UNL     1     -12.340  13.189  70.404  1.00  0.00    -0.351 A  
HETATM   35  C   UNL     1     -13.803  14.747  72.215  1.00  0.00    -0.590 A  
HETATM   36  C   UNL     1     -12.936  12.599  71.526  1.00  0.00    -0.380 A  
HETATM   37  C   UNL     1     -13.664  13.376  72.428  1.00  0.00    -0.698 A  
HETATM   38  C   UNL     1     -13.203  15.343  71.108  1.00  0.00    -0.583 A  
HETATM   39  C   UNL     1     -12.474  14.569  70.206  1.00  0.00    -0.405 A  
ENDBRANCH  33  34
ENDBRANCH  32  33
ENDBRANCH  31  32
ENDBRANCH  29  31
ENDBRANCH  28  29
ENDBRANCH  27  28
ENDBRANCH  14  27
ENDBRANCH  13  14
ENDBRANCH  12  13
ENDBRANCH   2  12
TORSDOF 20
ENDMDL
MODEL      151
REMARK 921   NORMALIZED FREE ENERGY PREDICTED BY IDOCK:   -4.95 KCAL/MOL
REMARK 922        TOTAL FREE ENERGY PREDICTED BY IDOCK:  -15.43 KCAL/MOL
REMARK 923 INTER-LIGAND FREE ENERGY PREDICTED BY IDOCK:  -11.59 KCAL/MOL
REMARK 924 INTRA-LIGAND FREE ENERGY PREDICTED BY IDOCK:   -3.83 KCAL/MOL
REMARK 927      BINDING AFFINITY PREDICTED BY RF-SCORE:    0.00 PKD
ROOT
HETATM    1  O   UNL     1      -7.848  10.669  68.521  1.00  0.00    -0.102 OA 
HETATM    2  C   UNL     1      -8.983  11.075  68.728  1.00  0.00    -0.149 C  
ENDROOT
BRANCH   2   3
HETATM    3  C   UNL     1      -9.983  10.383  69.624  1.00  0.00    -0.209 C  
BRANCH   3   4
HETATM    4  C   UNL     1      -9.352   9.238  70.417  1.00  0.00    -0.295 C  
BRANCH   4   5
HETATM    5  C   UNL     1      -9.986   9.072  71.803  1.00  0.00    -0.359 C  
BRANCH   5   6
HETATM    6  C   UNL     1     -11.408   8.578  71.719  1.00  0.00    -0.377 A  
HETATM    7  C   UNL     1     -12.477   9.481  71.811  1.00  0.00    -0.484 A  
HETATM    8  C   UNL     1     -14.057   7.667  71.583  1.00  0.00    -0.547 A  
HETATM    9  C   UNL     1     -13.794   9.027  71.741  1.00  0.00    -0.453 A  
HETATM   10  C   UNL     1     -11.683   7.214  71.565  1.00  0.00    -0.324 A  
HETATM   11  C   UNL     1     -13.001   6.761  71.495  1.00  0.00    -0.281 A  
ENDBRANCH   5   6
ENDBRANCH   4   5
ENDBRANCH   3   4
ENDBRANCH   2   3
BRANCH   2  12
HETATM   12  O   UNL     1      -9.527  12.201  68.188  1.00  0.00    -0.194 OA 
BRANCH  12  13
HETATM   13  C   UNL     1     -10.956  12.202  68.007  1.00  0.00    -0.229 C  
BRANCH  13  14
HETATM   14  C   UNL     1     -11.293  12.317  66.517  1.00  0.00    -0.351 C  
BRANCH  14  15
HETATM   15  O   UNL     1     -10.068  12.278  65.756  1.00  0.00    -0.243 OA 
BRANCH  15  16
HETATM   16  C   UNL     1      -9.979  11.298  64.817  1.00  0.00    -0.277 C  
HETATM   17  O   UNL     1     -10.775  11.105  63.911  1.00  0.00    -0.376 OA 
BRANCH  16  18
HETATM   18  C   UNL     1      -8.757  10.452  65.073  1.00  0.00    -0.195 C  
BRANCH  18  19
HETATM   19  C   UNL     1      -9.117   8.985  65.279  1.00  0.00    -0.226 C  
BRANCH  19  20
HETATM   20  C   UNL     1     -10.198   8.777  66.347  1.00  0.00    -0.256 C  
BRANCH  20  21
HETATM   21  C   UNL     1      -9.881   7.546  67.157  1.00  0.00    -0.263 A  
HETATM   22  C   UNL     1      -9.267   5.403  68.850  1.00  0.00    -0.147 A  
HETATM   23  C   UNL     1      -8.557   7.112  67.298  1.00  0.00    -0.121 A  
HETATM   24  C   UNL     1     -10.897   6.881  67.857  1.00  0.00    -0.287 A  
HETATM   25  C   UNL     1      -8.253   6.043  68.142  1.00  0.00    -0.113 A  
HETATM   26  C   UNL     1     -10.590   5.814  68.701  1.00  0.00    -0.305 A  
ENDBRANCH  20  21
ENDBRANCH  19  20
ENDBRANCH  18  19
ENDBRANCH  16  18
ENDBRANCH  15  16
ENDBRANCH  14  15
BRANCH  14  27
HETATM   27  C   UNL     1     -11.991  13.648  66.209  1.00  0.00    -0.423 C  
BRANCH  27  28
HETATM   28  O   UNL     1     -11.606  14.670  67.140  1.00  0.00    -0.363 OA 
BRANCH  28  29
HETATM   29  C   UNL     1     -10.724  15.585  66.649  1.00  0.00    -0.306 C  
HETATM   30  O   UNL     1     -10.601  15.874  65.468  1.00  0.00    -0.363 OA 
BRANCH  29  31
HETATM   31  C   UNL     1      -9.929  16.196  67.775  1.00  0.00    -0.237 C  
BRANCH  31  32
HETATM   32  C   UNL     1     -10.647  17.391  68.392  1.00  0.00    -0.355 C  
BRANCH  32  33
HETATM   33  C   UNL     1     -10.532  18.662  67.540  1.00  0.00    -0.473 C  
BRANCH  33  34
HETATM   34  C   UNL     1      -9.103  19.142  67.512  1.00  0.00    -0.336 A  
HETATM   35  C   UNL     1      -6.396  19.857  67.467  1.00  0.00    -0.231 A  
HETATM   36  C   UNL     1      -8.414  19.231  66.295  1.00  0.00    -0.328 A  
HETATM   37  C   UNL     1      -7.065  19.588  66.274  1.00  0.00    -0.256 A  
HETATM   38  C   UNL     1      -7.077  19.782  68.680  1.00  0.00    -0.366 A  
HETATM   39  C   UNL     1      -8.426  19.427  68.704  1.00  0.00    -0.395 A  
ENDBRANCH  33  34
ENDBRANCH  32  33
ENDBRANCH  31  32
ENDBRANCH  29  31
ENDBRANCH  28  29
ENDBRANCH  27  28
ENDBRANCH  14  27
ENDBRANCH  13  14
ENDBRANCH  12  13
ENDBRANCH   2  12
TORSDOF 20
ENDMDL
MODEL      152
REMARK 921   NORMALIZED FREE ENERGY PREDICTED BY IDOCK:   -4.94 KCAL/MOL
REMARK 922        TOTAL FREE ENERGY PREDICTED BY IDOCK:  -15.40 KCAL/MOL
REMARK 923 INTER-LIGAND FREE ENERGY PREDICTED BY IDOCK:  -13.39 KCAL/MOL
REMARK 924 INTRA-LIGAND FREE ENERGY PREDICTED BY IDOCK:   -2.01 KCAL/MOL
REMARK 927      BINDING AFFINITY PREDICTED BY RF-SCORE:    0.00 PKD
ROOT
HETATM    1  O   UNL     1     -11.025  19.368  65.120  1.00  0.00    -0.430 OA 
HETATM    2  C   UNL     1     -10.540  19.025  66.189  1.00  0.00    -0.416 C  
ENDROOT
BRANCH   2   3
HETATM    3  C   UNL     1      -9.866  19.967  67.157  1.00  0.00    -0.563 C  
BRANCH   3   4
HETATM    4  C   UNL     1      -9.110  19.222  68.258  1.00  0.00    -0.394 C  
BRANCH   4   5
HETATM    5  C   UNL     1      -7.613  19.098  67.953  1.00  0.00    -0.301 C  
BRANCH   5   6
HETATM    6  C   UNL     1      -6.786  18.990  69.210  1.00  0.00    -0.318 A  
HETATM    7  C   UNL     1      -6.225  17.761  69.584  1.00  0.00    -0.214 A  
HETATM    8  C   UNL     1      -5.262  18.776  71.554  1.00  0.00    -0.272 A  
HETATM    9  C   UNL     1      -5.465  17.656  70.749  1.00  0.00    -0.145 A  
HETATM   10  C   UNL     1      -6.579  20.108  70.027  1.00  0.00    -0.260 A  
HETATM   11  C   UNL     1      -5.819  20.002  71.192  1.00  0.00    -0.336 A  
ENDBRANCH   5   6
ENDBRANCH   4   5
ENDBRANCH   3   4
ENDBRANCH   2   3
BRANCH   2  12
HETATM   12  O   UNL     1     -10.525  17.753  66.675  1.00  0.00    -0.344 OA 
BRANCH  12  13
HETATM   13  C   UNL     1     -10.219  16.707  65.732  1.00  0.00    -0.307 C  
BRANCH  13  14
HETATM   14  C   UNL     1     -11.154  15.514  65.954  1.00  0.00    -0.205 C  
BRANCH  14  15
HETATM   15  O   UNL     1     -10.822  14.888  67.211  1.00  0.00    -0.291 OA 
BRANCH  15  16
HETATM   16  C   UNL     1      -9.643  14.213  67.249  1.00  0.00    -0.234 C  
HETATM   17  O   UNL     1      -8.638  14.497  66.615  1.00  0.00    -0.188 OA 
BRANCH  16  18
HETATM   18  C   UNL     1      -9.759  13.028  68.175  1.00  0.00    -0.228 C  
BRANCH  18  19
HETATM   19  C   UNL     1     -11.193  12.520  68.267  1.00  0.00    -0.309 C  
BRANCH  19  20
HETATM   20  C   UNL     1     -11.799  12.683  69.666  1.00  0.00    -0.379 C  
BRANCH  20  21
HETATM   21  C   UNL     1     -11.887  11.338  70.341  1.00  0.00    -0.443 A  
HETATM   22  C   UNL     1     -11.936   8.937  71.780  1.00  0.00    -0.429 A  
HETATM   23  C   UNL     1     -10.860  10.399  70.186  1.00  0.00    -0.333 A  
HETATM   24  C   UNL     1     -12.950  11.053  71.209  1.00  0.00    -0.472 A  
HETATM   25  C   UNL     1     -10.887   9.202  70.903  1.00  0.00    -0.345 A  
HETATM   26  C   UNL     1     -12.973   9.857  71.926  1.00  0.00    -0.545 A  
ENDBRANCH  20  21
ENDBRANCH  19  20
ENDBRANCH  18  19
ENDBRANCH  16  18
ENDBRANCH  15  16
ENDBRANCH  14  15
BRANCH  14  27
HETATM   27  C   UNL     1     -10.982  14.464  64.850  1.00  0.00    -0.406 C  
BRANCH  27  28
HETATM   28  O   UNL     1     -12.251  13.986  64.379  1.00  0.00    -0.478 OA 
BRANCH  28  29
HETATM   29  C   UNL     1     -12.259  12.680  63.992  1.00  0.00    -0.463 C  
HETATM   30  O   UNL     1     -13.201  11.914  64.135  1.00  0.00    -0.645 OA 
BRANCH  29  31
HETATM   31  C   UNL     1     -10.941  12.319  63.354  1.00  0.00    -0.467 C  
BRANCH  31  32
HETATM   32  C   UNL     1     -10.416  10.979  63.857  1.00  0.00    -0.422 C  
BRANCH  32  33
HETATM   33  C   UNL     1      -9.721  11.085  65.221  1.00  0.00    -0.286 C  
BRANCH  33  34
HETATM   34  C   UNL     1      -9.665   9.732  65.884  1.00  0.00    -0.332 A  
HETATM   35  C   UNL     1      -9.666   7.154  66.977  1.00  0.00    -0.222 A  
HETATM   36  C   UNL     1      -8.693   8.799  65.498  1.00  0.00    -0.217 A  
HETATM   37  C   UNL     1      -8.694   7.515  66.043  1.00  0.00    -0.178 A  
HETATM   38  C   UNL     1     -10.628   8.080  67.374  1.00  0.00    -0.337 A  
HETATM   39  C   UNL     1     -10.628   9.364  66.832  1.00  0.00    -0.238 A  
ENDBRANCH  33  34
ENDBRANCH  32  33
ENDBRANCH  31  32
ENDBRANCH  29  31
ENDBRANCH  28  29
ENDBRANCH  27  28
ENDBRANCH  14  27
ENDBRANCH  13  14
ENDBRANCH  12  13
ENDBRANCH   2  12
TORSDOF 20
ENDMDL
MODEL      153
REMARK 921   NORMALIZED FREE ENERGY PREDICTED BY IDOCK:   -4.94 KCAL/MOL
REMARK 922        TOTAL FREE ENERGY PREDICTED BY IDOCK:  -15.40 KCAL/MOL
REMARK 923 INTER-LIGAND FREE ENERGY PREDICTED BY IDOCK:  -10.57 KCAL/MOL
REMARK 924 INTRA-LIGAND FREE ENERGY PREDICTED BY IDOCK:   -4.82 KCAL/MOL
REMARK 927      BINDING AFFINITY PREDICTED BY RF-SCORE:    0.00 PKD
ROOT
HETATM    1  O   UNL     1     -11.439   8.146  72.896  1.00  0.00    -0.389 OA 
HETATM    2  C   UNL     1     -12.208   7.814  72.005  1.00  0.00    -0.305 C  
ENDROOT
BRANCH   2   3
HETATM    3  C   UNL     1     -13.392   8.635  71.555  1.00  0.00    -0.340 C  
BRANCH   3   4
HETATM    4  C   UNL     1     -13.262  10.106  71.955  1.00  0.00    -0.557 C  
BRANCH   4   5
HETATM    5  C   UNL     1     -12.390  10.899  70.974  1.00  0.00    -0.498 C  
BRANCH   5   6
HETATM    6  C   UNL     1     -12.660  12.381  71.049  1.00  0.00    -0.349 A  
HETATM    7  C   UNL     1     -13.510  12.896  72.038  1.00  0.00    -0.568 A  
HETATM    8  C   UNL     1     -13.181  15.133  71.184  1.00  0.00    -0.535 A  
HETATM    9  C   UNL     1     -13.766  14.266  72.106  1.00  0.00    -0.569 A  
HETATM   10  C   UNL     1     -12.081  13.260  70.125  1.00  0.00    -0.403 A  
HETATM   11  C   UNL     1     -12.339  14.630  70.195  1.00  0.00    -0.390 A  
ENDBRANCH   5   6
ENDBRANCH   4   5
ENDBRANCH   3   4
ENDBRANCH   2   3
BRANCH   2  12
HETATM   12  O   UNL     1     -12.125   6.663  71.282  1.00  0.00    -0.348 OA 
BRANCH  12  13
HETATM   13  C   UNL     1     -10.886   5.933  71.373  1.00  0.00    -0.271 C  
BRANCH  13  14
HETATM   14  C   UNL     1     -10.050   6.164  70.111  1.00  0.00    -0.184 C  
BRANCH  14  15
HETATM   15  O   UNL     1     -10.699   7.163  69.296  1.00  0.00    -0.224 OA 
BRANCH  15  16
HETATM   16  C   UNL     1      -9.995   8.305  69.078  1.00  0.00    -0.189 C  
HETATM   17  O   UNL     1      -9.021   8.676  69.716  1.00  0.00    -0.140 OA 
BRANCH  16  18
HETATM   18  C   UNL     1     -10.612   9.078  67.939  1.00  0.00    -0.256 C  
BRANCH  18  19
HETATM   19  C   UNL     1     -10.385  10.579  68.085  1.00  0.00    -0.201 C  
BRANCH  19  20
HETATM   20  C   UNL     1     -11.191  11.408  67.078  1.00  0.00    -0.350 C  
BRANCH  20  21
HETATM   21  C   UNL     1     -10.447  12.678  66.754  1.00  0.00    -0.254 A  
HETATM   22  C   UNL     1      -9.221  15.152  66.291  1.00  0.00    -0.336 A  
HETATM   23  C   UNL     1     -10.832  13.466  65.662  1.00  0.00    -0.292 A  
HETATM   24  C   UNL     1      -9.426  13.133  67.600  1.00  0.00    -0.207 A  
HETATM   25  C   UNL     1     -10.219  14.699  65.433  1.00  0.00    -0.415 A  
HETATM   26  C   UNL     1      -8.817  14.366  67.369  1.00  0.00    -0.211 A  
ENDBRANCH  20  21
ENDBRANCH  19  20
ENDBRANCH  18  19
ENDBRANCH  16  18
ENDBRANCH  15  16
ENDBRANCH  14  15
BRANCH  14  27
HETATM   27  C   UNL     1      -9.940   4.882  69.278  1.00  0.00    -0.199 C  
BRANCH  27  28
HETATM   28  O   UNL     1     -10.393   5.090  67.932  1.00  0.00    -0.123 OA 
BRANCH  28  29
HETATM   29  C   UNL     1      -9.771   4.319  66.996  1.00  0.00    -0.206 C  
HETATM   30  O   UNL     1      -9.353   3.186  67.189  1.00  0.00    -0.188 OA 
BRANCH  29  31
HETATM   31  C   UNL     1      -9.683   5.062  65.687  1.00  0.00    -0.124 C  
BRANCH  31  32
HETATM   32  C   UNL     1      -8.266   5.549  65.407  1.00  0.00    -0.133 C  
BRANCH  32  33
HETATM   33  C   UNL     1      -7.699   6.418  66.538  1.00  0.00    -0.099 C  
BRANCH  33  34
HETATM   34  C   UNL     1      -7.676   7.866  66.120  1.00  0.00    -0.091 A  
HETATM   35  C   UNL     1      -7.777  10.586  65.457  1.00  0.00    -0.127 A  
HETATM   36  C   UNL     1      -6.973   8.809  66.884  1.00  0.00    -0.074 A  
HETATM   37  C   UNL     1      -7.024  10.163  66.552  1.00  0.00    -0.102 A  
HETATM   38  C   UNL     1      -8.468   9.653  64.686  1.00  0.00    -0.183 A  
HETATM   39  C   UNL     1      -8.418   8.299  65.014  1.00  0.00    -0.141 A  
ENDBRANCH  33  34
ENDBRANCH  32  33
ENDBRANCH  31  32
ENDBRANCH  29  31
ENDBRANCH  28  29
ENDBRANCH  27  28
ENDBRANCH  14  27
ENDBRANCH  13  14
ENDBRANCH  12  13
ENDBRANCH   2  12
TORSDOF 20
ENDMDL
MODEL      154
REMARK 921   NORMALIZED FREE ENERGY PREDICTED BY IDOCK:   -4.92 KCAL/MOL
REMARK 922        TOTAL FREE ENERGY PREDICTED BY IDOCK:  -15.36 KCAL/MOL
REMARK 923 INTER-LIGAND FREE ENERGY PREDICTED BY IDOCK:  -10.49 KCAL/MOL
REMARK 924 INTRA-LIGAND FREE ENERGY PREDICTED BY IDOCK:   -4.87 KCAL/MOL
REMARK 927      BINDING AFFINITY PREDICTED BY RF-SCORE:    0.00 PKD
ROOT
HETATM    1  O   UNL     1      -8.505  10.350  68.222  1.00  0.00    -0.117 OA 
HETATM    2  C   UNL     1      -9.706  10.315  68.449  1.00  0.00    -0.156 C  
ENDROOT
BRANCH   2   3
HETATM    3  C   UNL     1     -10.733   9.742  67.502  1.00  0.00    -0.327 C  
BRANCH   3   4
HETATM    4  C   UNL     1     -10.556   8.237  67.298  1.00  0.00    -0.335 C  
BRANCH   4   5
HETATM    5  C   UNL     1     -11.020   7.427  68.514  1.00  0.00     0.021 C  
BRANCH   5   6
HETATM    6  C   UNL     1     -10.084   6.287  68.826  1.00  0.00    -0.191 A  
HETATM    7  C   UNL     1      -8.771   6.295  68.333  1.00  0.00    -0.116 A  
HETATM    8  C   UNL     1      -8.341   4.164  69.388  1.00  0.00    -0.080 A  
HETATM    9  C   UNL     1      -7.904   5.239  68.616  1.00  0.00    -0.086 A  
HETATM   10  C   UNL     1     -10.514   5.200  69.598  1.00  0.00    -0.262 A  
HETATM   11  C   UNL     1      -9.645   4.145  69.878  1.00  0.00    -0.282 A  
ENDBRANCH   5   6
ENDBRANCH   4   5
ENDBRANCH   3   4
ENDBRANCH   2   3
BRANCH   2  12
HETATM   12  O   UNL     1     -10.307  10.783  69.578  1.00  0.00    -0.215 OA 
BRANCH  12  13
HETATM   13  C   UNL     1     -11.730  10.999  69.507  1.00  0.00    -0.329 C  
BRANCH  13  14
HETATM   14  C   UNL     1     -12.346  10.877  70.904  1.00  0.00    -0.400 C  
BRANCH  14  15
HETATM   15  O   UNL     1     -13.478   9.985  70.840  1.00  0.00    -0.352 OA 
BRANCH  15  16
HETATM   16  C   UNL     1     -13.578   9.073  71.843  1.00  0.00    -0.431 C  
HETATM   17  O   UNL     1     -14.143   9.248  72.912  1.00  0.00    -0.443 OA 
BRANCH  16  18
HETATM   18  C   UNL     1     -12.856   7.806  71.459  1.00  0.00    -0.357 C  
BRANCH  18  19
HETATM   19  C   UNL     1     -11.733   7.475  72.436  1.00  0.00    -0.335 C  
BRANCH  19  20
HETATM   20  C   UNL     1     -10.564   8.464  72.363  1.00  0.00    -0.405 C  
BRANCH  20  21
HETATM   21  C   UNL     1      -9.278   7.714  72.126  1.00  0.00    -0.182 A  
HETATM   22  C   UNL     1      -6.809   6.417  71.887  1.00  0.00    -0.068 A  
HETATM   23  C   UNL     1      -8.229   8.314  71.418  1.00  0.00    -0.158 A  
HETATM   24  C   UNL     1      -9.084   6.448  72.695  1.00  0.00    -0.135 A  
HETATM   25  C   UNL     1      -6.999   7.664  71.299  1.00  0.00    -0.050 A  
HETATM   26  C   UNL     1      -7.853   5.803  72.577  1.00  0.00    -0.102 A  
ENDBRANCH  20  21
ENDBRANCH  19  20
ENDBRANCH  18  19
ENDBRANCH  16  18
ENDBRANCH  15  16
ENDBRANCH  14  15
BRANCH  14  27
HETATM   27  C   UNL     1     -12.851  12.235  71.405  1.00  0.00    -0.271 C  
BRANCH  27  28
HETATM   28  O   UNL     1     -12.241  13.319  70.690  1.00  0.00    -0.360 OA 
BRANCH  28  29
HETATM   29  C   UNL     1     -12.353  14.535  71.294  1.00  0.00    -0.351 C  
HETATM   30  O   UNL     1     -12.465  14.710  72.498  1.00  0.00    -0.332 OA 
BRANCH  29  31
HETATM   31  C   UNL     1     -12.308  15.633  70.261  1.00  0.00    -0.402 C  
BRANCH  31  32
HETATM   32  C   UNL     1     -11.517  15.217  69.026  1.00  0.00    -0.338 C  
BRANCH  32  33
HETATM   33  C   UNL     1     -10.181  15.959  68.896  1.00  0.00    -0.226 C  
BRANCH  33  34
HETATM   34  C   UNL     1     -10.368  17.237  68.119  1.00  0.00    -0.357 A  
HETATM   35  C   UNL     1     -10.531  19.618  66.653  1.00  0.00    -0.610 A  
HETATM   36  C   UNL     1     -10.475  17.204  66.722  1.00  0.00    -0.263 A  
HETATM   37  C   UNL     1     -10.557  18.390  65.993  1.00  0.00    -0.339 A  
HETATM   38  C   UNL     1     -10.437  19.660  68.043  1.00  0.00    -0.537 A  
HETATM   39  C   UNL     1     -10.356  18.475  68.774  1.00  0.00    -0.210 A  
ENDBRANCH  33  34
ENDBRANCH  32  33
ENDBRANCH  31  32
ENDBRANCH  29  31
ENDBRANCH  28  29
ENDBRANCH  27  28
ENDBRANCH  14  27
ENDBRANCH  13  14
ENDBRANCH  12  13
ENDBRANCH   2  12
TORSDOF 20
ENDMDL
MODEL      155
REMARK 921   NORMALIZED FREE ENERGY PREDICTED BY IDOCK:   -4.90 KCAL/MOL
REMARK 922        TOTAL FREE ENERGY PREDICTED BY IDOCK:  -15.32 KCAL/MOL
REMARK 923 INTER-LIGAND FREE ENERGY PREDICTED BY IDOCK:   -7.59 KCAL/MOL
REMARK 924 INTRA-LIGAND FREE ENERGY PREDICTED BY IDOCK:   -7.72 KCAL/MOL
REMARK 927      BINDING AFFINITY PREDICTED BY RF-SCORE:    0.00 PKD
ROOT
HETATM    1  O   UNL     1     -13.496   9.616  71.382  1.00  0.00    -0.375 OA 
HETATM    2  C   UNL     1     -12.302   9.355  71.357  1.00  0.00    -0.357 C  
ENDROOT
BRANCH   2   3
HETATM    3  C   UNL     1     -11.279  10.131  70.563  1.00  0.00    -0.411 C  
BRANCH   3   4
HETATM    4  C   UNL     1     -11.780  11.525  70.180  1.00  0.00    -0.395 C  
BRANCH   4   5
HETATM    5  C   UNL     1     -12.161  11.619  68.699  1.00  0.00    -0.184 C  
BRANCH   5   6
HETATM    6  C   UNL     1     -11.226  12.516  67.929  1.00  0.00    -0.312 A  
HETATM    7  C   UNL     1     -10.032  12.963  68.515  1.00  0.00    -0.168 A  
HETATM    8  C   UNL     1      -9.489  14.201  66.512  1.00  0.00    -0.303 A  
HETATM    9  C   UNL     1      -9.168  13.799  67.807  1.00  0.00    -0.206 A  
HETATM   10  C   UNL     1     -11.540  12.930  66.628  1.00  0.00    -0.428 A  
HETATM   11  C   UNL     1     -10.675  13.766  65.923  1.00  0.00    -0.285 A  
ENDBRANCH   5   6
ENDBRANCH   4   5
ENDBRANCH   3   4
ENDBRANCH   2   3
BRANCH   2  12
HETATM   12  O   UNL     1     -11.706   8.332  72.031  1.00  0.00    -0.300 OA 
BRANCH  12  13
HETATM   13  C   UNL     1     -10.301   8.479  72.312  1.00  0.00    -0.332 C  
BRANCH  13  14
HETATM   14  C   UNL     1      -9.502   7.422  71.544  1.00  0.00    -0.151 C  
BRANCH  14  15
HETATM   15  O   UNL     1     -10.188   6.156  71.641  1.00  0.00    -0.192 OA 
BRANCH  15  16
HETATM   16  C   UNL     1     -10.150   5.369  70.533  1.00  0.00    -0.236 C  
HETATM   17  O   UNL     1     -10.029   4.153  70.525  1.00  0.00    -0.201 OA 
BRANCH  16  18
HETATM   18  C   UNL     1     -10.249   6.223  69.294  1.00  0.00    -0.236 C  
BRANCH  18  19
HETATM   19  C   UNL     1      -9.489   5.612  68.122  1.00  0.00    -0.125 C  
BRANCH  19  20
HETATM   20  C   UNL     1      -7.989   5.926  68.151  1.00  0.00    -0.109 C  
BRANCH  20  21
HETATM   21  C   UNL     1      -7.581   6.577  66.854  1.00  0.00    -0.095 A  
HETATM   22  C   UNL     1      -6.728   7.578  64.382  1.00  0.00    -0.048 A  
HETATM   23  C   UNL     1      -6.329   7.194  66.733  1.00  0.00    -0.050 A  
HETATM   24  C   UNL     1      -8.410   6.486  65.728  1.00  0.00    -0.143 A  
HETATM   25  C   UNL     1      -5.906   7.693  65.500  1.00  0.00    -0.038 A  
HETATM   26  C   UNL     1      -7.984   6.984  64.496  1.00  0.00    -0.104 A  
ENDBRANCH  20  21
ENDBRANCH  19  20
ENDBRANCH  18  19
ENDBRANCH  16  18
ENDBRANCH  15  16
ENDBRANCH  14  15
BRANCH  14  27
HETATM   27  C   UNL     1      -8.103   7.241  72.145  1.00  0.00    -0.094 C  
BRANCH  27  28
HETATM   28  O   UNL     1      -7.529   8.500  72.525  1.00  0.00    -0.238 OA 
BRANCH  28  29
HETATM   29  C   UNL     1      -6.503   8.921  71.733  1.00  0.00    -0.063 C  
HETATM   30  O   UNL     1      -5.351   8.519  71.808  1.00  0.00    -0.034 OA 
BRANCH  29  31
HETATM   31  C   UNL     1      -6.998   9.948  70.746  1.00  0.00    -0.009 C  
BRANCH  31  32
HETATM   32  C   UNL     1      -6.832   9.474  69.306  1.00  0.00    -0.049 C  
BRANCH  32  33
HETATM   33  C   UNL     1      -6.927  10.618  68.287  1.00  0.00    -0.072 C  
BRANCH  33  34
HETATM   34  C   UNL     1      -7.985  10.312  67.258  1.00  0.00    -0.107 A  
HETATM   35  C   UNL     1     -10.036   9.902  65.395  1.00  0.00    -0.349 A  
HETATM   36  C   UNL     1      -7.884  10.842  65.965  1.00  0.00    -0.121 A  
HETATM   37  C   UNL     1      -8.906  10.637  65.038  1.00  0.00    -0.212 A  
HETATM   38  C   UNL     1     -10.138   9.361  66.676  1.00  0.00    -0.332 A  
HETATM   39  C   UNL     1      -9.117   9.564  67.604  1.00  0.00    -0.131 A  
ENDBRANCH  33  34
ENDBRANCH  32  33
ENDBRANCH  31  32
ENDBRANCH  29  31
ENDBRANCH  28  29
ENDBRANCH  27  28
ENDBRANCH  14  27
ENDBRANCH  13  14
ENDBRANCH  12  13
ENDBRANCH   2  12
TORSDOF 20
ENDMDL
MODEL      156
REMARK 921   NORMALIZED FREE ENERGY PREDICTED BY IDOCK:   -4.89 KCAL/MOL
REMARK 922        TOTAL FREE ENERGY PREDICTED BY IDOCK:  -15.29 KCAL/MOL
REMARK 923 INTER-LIGAND FREE ENERGY PREDICTED BY IDOCK:  -13.53 KCAL/MOL
REMARK 924 INTRA-LIGAND FREE ENERGY PREDICTED BY IDOCK:   -1.76 KCAL/MOL
REMARK 927      BINDING AFFINITY PREDICTED BY RF-SCORE:    0.00 PKD
ROOT
HETATM    1  O   UNL     1      -8.601  12.835  68.532  1.00  0.00    -0.144 OA 
HETATM    2  C   UNL     1      -9.737  13.059  68.138  1.00  0.00    -0.228 C  
ENDROOT
BRANCH   2   3
HETATM    3  C   UNL     1     -10.915  12.147  68.383  1.00  0.00    -0.271 C  
BRANCH   3   4
HETATM    4  C   UNL     1     -11.768  12.610  69.566  1.00  0.00    -0.374 C  
BRANCH   4   5
HETATM    5  C   UNL     1     -12.301  14.035  69.375  1.00  0.00    -0.247 C  
BRANCH   5   6
HETATM    6  C   UNL     1     -12.595  14.710  70.691  1.00  0.00    -0.419 A  
HETATM    7  C   UNL     1     -13.882  14.649  71.245  1.00  0.00    -0.420 A  
HETATM    8  C   UNL     1     -13.156  15.978  73.128  1.00  0.00    -0.631 A  
HETATM    9  C   UNL     1     -14.158  15.278  72.460  1.00  0.00    -0.567 A  
HETATM   10  C   UNL     1     -11.596  15.420  71.369  1.00  0.00    -0.461 A  
HETATM   11  C   UNL     1     -11.875  16.049  72.582  1.00  0.00    -0.611 A  
ENDBRANCH   5   6
ENDBRANCH   4   5
ENDBRANCH   3   4
ENDBRANCH   2   3
BRANCH   2  12
HETATM   12  O   UNL     1     -10.120  14.151  67.421  1.00  0.00    -0.237 OA 
BRANCH  12  13
HETATM   13  C   UNL     1      -9.066  15.005  66.937  1.00  0.00    -0.247 C  
BRANCH  13  14
HETATM   14  C   UNL     1      -9.526  15.734  65.670  1.00  0.00    -0.217 C  
BRANCH  14  15
HETATM   15  O   UNL     1      -9.193  17.133  65.789  1.00  0.00    -0.524 OA 
BRANCH  15  16
HETATM   16  C   UNL     1     -10.222  17.968  66.097  1.00  0.00    -0.363 C  
HETATM   17  O   UNL     1     -10.934  18.548  65.292  1.00  0.00    -0.551 OA 
BRANCH  16  18
HETATM   18  C   UNL     1     -10.342  18.103  67.594  1.00  0.00    -0.411 C  
BRANCH  18  19
HETATM   19  C   UNL     1      -9.847  19.460  68.082  1.00  0.00    -0.485 C  
BRANCH  19  20
HETATM   20  C   UNL     1      -8.409  19.766  67.648  1.00  0.00    -0.355 C  
BRANCH  20  21
HETATM   21  C   UNL     1      -7.442  19.177  68.643  1.00  0.00    -0.370 A  
HETATM   22  C   UNL     1      -5.474  18.124  70.332  1.00  0.00    -0.251 A  
HETATM   23  C   UNL     1      -7.145  17.808  68.618  1.00  0.00    -0.257 A  
HETATM   24  C   UNL     1      -6.757  20.009  69.538  1.00  0.00    -0.306 A  
HETATM   25  C   UNL     1      -6.164  17.285  69.462  1.00  0.00    -0.251 A  
HETATM   26  C   UNL     1      -5.775  19.484  70.379  1.00  0.00    -0.283 A  
ENDBRANCH  20  21
ENDBRANCH  19  20
ENDBRANCH  18  19
ENDBRANCH  16  18
ENDBRANCH  15  16
ENDBRANCH  14  15
BRANCH  14  27
HETATM   27  C   UNL     1     -11.045  15.630  65.493  1.00  0.00    -0.226 C  
BRANCH  27  28
HETATM   28  O   UNL     1     -11.388  14.795  64.377  1.00  0.00    -0.313 OA 
BRANCH  28  29
HETATM   29  C   UNL     1     -12.338  13.854  64.640  1.00  0.00    -0.388 C  
HETATM   30  O   UNL     1     -13.317  14.028  65.351  1.00  0.00    -0.721 OA 
BRANCH  29  31
HETATM   31  C   UNL     1     -12.011  12.571  63.918  1.00  0.00    -0.563 C  
BRANCH  31  32
HETATM   32  C   UNL     1     -10.508  12.320  63.862  1.00  0.00    -0.458 C  
BRANCH  32  33
HETATM   33  C   UNL     1     -10.152  10.971  63.223  1.00  0.00    -0.400 C  
BRANCH  33  34
HETATM   34  C   UNL     1      -9.375  10.123  64.196  1.00  0.00    -0.340 A  
HETATM   35  C   UNL     1      -7.781   8.649  65.966  1.00  0.00    -0.100 A  
HETATM   36  C   UNL     1      -9.231  10.531  65.529  1.00  0.00    -0.223 A  
HETATM   37  C   UNL     1      -8.437   9.796  66.410  1.00  0.00    -0.128 A  
HETATM   38  C   UNL     1      -7.928   8.229  64.645  1.00  0.00    -0.145 A  
HETATM   39  C   UNL     1      -8.722   8.962  63.763  1.00  0.00    -0.049 A  
ENDBRANCH  33  34
ENDBRANCH  32  33
ENDBRANCH  31  32
ENDBRANCH  29  31
ENDBRANCH  28  29
ENDBRANCH  27  28
ENDBRANCH  14  27
ENDBRANCH  13  14
ENDBRANCH  12  13
ENDBRANCH   2  12
TORSDOF 20
ENDMDL
MODEL      157
REMARK 921   NORMALIZED FREE ENERGY PREDICTED BY IDOCK:   -4.89 KCAL/MOL
REMARK 922        TOTAL FREE ENERGY PREDICTED BY IDOCK:  -15.28 KCAL/MOL
REMARK 923 INTER-LIGAND FREE ENERGY PREDICTED BY IDOCK:  -10.81 KCAL/MOL
REMARK 924 INTRA-LIGAND FREE ENERGY PREDICTED BY IDOCK:   -4.48 KCAL/MOL
REMARK 927      BINDING AFFINITY PREDICTED BY RF-SCORE:    0.00 PKD
ROOT
HETATM    1  O   UNL     1      -7.260   9.149  68.628  1.00  0.00    -0.073 OA 
HETATM    2  C   UNL     1      -8.250   9.865  68.677  1.00  0.00    -0.108 C  
ENDROOT
BRANCH   2   3
HETATM    3  C   UNL     1      -8.747  10.707  67.526  1.00  0.00    -0.125 C  
BRANCH   3   4
HETATM    4  C   UNL     1     -10.086  10.207  66.980  1.00  0.00    -0.277 C  
BRANCH   4   5
HETATM    5  C   UNL     1     -10.190  10.370  65.460  1.00  0.00    -0.316 C  
BRANCH   5   6
HETATM    6  C   UNL     1     -11.008  11.577  65.075  1.00  0.00    -0.305 A  
HETATM    7  C   UNL     1     -11.200  11.899  63.723  1.00  0.00    -0.519 A  
HETATM    8  C   UNL     1     -12.513  13.829  64.349  1.00  0.00    -0.317 A  
HETATM    9  C   UNL     1     -11.952  13.019  63.364  1.00  0.00    -0.592 A  
HETATM   10  C   UNL     1     -11.574  12.400  66.056  1.00  0.00    -0.455 A  
HETATM   11  C   UNL     1     -12.325  13.519  65.695  1.00  0.00    -0.522 A  
ENDBRANCH   5   6
ENDBRANCH   4   5
ENDBRANCH   3   4
ENDBRANCH   2   3
BRANCH   2  12
HETATM   12  O   UNL     1      -9.056  10.021  69.764  1.00  0.00    -0.215 OA 
BRANCH  12  13
HETATM   13  C   UNL     1      -9.287   8.849  70.568  1.00  0.00    -0.202 C  
BRANCH  13  14
HETATM   14  C   UNL     1     -10.327   9.154  71.649  1.00  0.00    -0.318 C  
BRANCH  14  15
HETATM   15  O   UNL     1     -10.415   8.027  72.546  1.00  0.00    -0.265 OA 
BRANCH  15  16
HETATM   16  C   UNL     1      -9.267   7.683  73.188  1.00  0.00    -0.216 C  
HETATM   17  O   UNL     1      -8.514   8.454  73.763  1.00  0.00    -0.305 OA 
BRANCH  16  18
HETATM   18  C   UNL     1      -9.034   6.198  73.063  1.00  0.00    -0.131 C  
BRANCH  18  19
HETATM   19  C   UNL     1     -10.278   5.470  72.566  1.00  0.00    -0.229 C  
BRANCH  19  20
HETATM   20  C   UNL     1      -9.988   4.517  71.400  1.00  0.00    -0.259 C  
BRANCH  20  21
HETATM   21  C   UNL     1      -9.978   5.287  70.104  1.00  0.00    -0.313 A  
HETATM   22  C   UNL     1     -10.035   6.520  67.592  1.00  0.00    -0.157 A  
HETATM   23  C   UNL     1      -8.838   5.289  69.291  1.00  0.00    -0.115 A  
HETATM   24  C   UNL     1     -11.140   5.928  69.655  1.00  0.00    -0.414 A  
HETATM   25  C   UNL     1      -8.869   5.905  68.038  1.00  0.00    -0.109 A  
HETATM   26  C   UNL     1     -11.168   6.541  68.403  1.00  0.00    -0.274 A  
ENDBRANCH  20  21
ENDBRANCH  19  20
ENDBRANCH  18  19
ENDBRANCH  16  18
ENDBRANCH  15  16
ENDBRANCH  14  15
BRANCH  14  27
HETATM   27  C   UNL     1     -11.715   9.372  71.036  1.00  0.00    -0.323 C  
BRANCH  27  28
HETATM   28  O   UNL     1     -12.314  10.586  71.510  1.00  0.00    -0.371 OA 
BRANCH  28  29
HETATM   29  C   UNL     1     -12.410  11.576  70.578  1.00  0.00    -0.342 C  
HETATM   30  O   UNL     1     -12.165  11.442  69.388  1.00  0.00    -0.297 OA 
BRANCH  29  31
HETATM   31  C   UNL     1     -12.870  12.857  71.228  1.00  0.00    -0.361 C  
BRANCH  31  32
HETATM   32  C   UNL     1     -11.891  14.000  70.982  1.00  0.00    -0.198 C  
BRANCH  32  33
HETATM   33  C   UNL     1     -12.347  14.945  69.862  1.00  0.00    -0.322 C  
BRANCH  33  34
HETATM   34  C   UNL     1     -11.242  15.129  68.854  1.00  0.00    -0.292 A  
HETATM   35  C   UNL     1      -9.090  15.554  67.111  1.00  0.00    -0.233 A  
HETATM   36  C   UNL     1     -10.203  14.192  68.768  1.00  0.00    -0.216 A  
HETATM   37  C   UNL     1      -9.132  14.405  67.900  1.00  0.00    -0.187 A  
HETATM   38  C   UNL     1     -10.126  16.484  67.182  1.00  0.00    -0.274 A  
HETATM   39  C   UNL     1     -11.198  16.274  68.048  1.00  0.00    -0.260 A  
ENDBRANCH  33  34
ENDBRANCH  32  33
ENDBRANCH  31  32
ENDBRANCH  29  31
ENDBRANCH  28  29
ENDBRANCH  27  28
ENDBRANCH  14  27
ENDBRANCH  13  14
ENDBRANCH  12  13
ENDBRANCH   2  12
TORSDOF 20
ENDMDL
MODEL      158
REMARK 921   NORMALIZED FREE ENERGY PREDICTED BY IDOCK:   -4.88 KCAL/MOL
REMARK 922        TOTAL FREE ENERGY PREDICTED BY IDOCK:  -15.27 KCAL/MOL
REMARK 923 INTER-LIGAND FREE ENERGY PREDICTED BY IDOCK:  -10.79 KCAL/MOL
REMARK 924 INTRA-LIGAND FREE ENERGY PREDICTED BY IDOCK:   -4.48 KCAL/MOL
REMARK 927      BINDING AFFINITY PREDICTED BY RF-SCORE:    0.00 PKD
ROOT
HETATM    1  O   UNL     1     -12.402  12.441  66.488  1.00  0.00    -0.511 OA 
HETATM    2  C   UNL     1     -11.722  13.117  65.729  1.00  0.00    -0.374 C  
ENDROOT
BRANCH   2   3
HETATM    3  C   UNL     1     -11.907  13.159  64.231  1.00  0.00    -0.462 C  
BRANCH   3   4
HETATM    4  C   UNL     1     -11.486  11.850  63.560  1.00  0.00    -0.523 C  
BRANCH   4   5
HETATM    5  C   UNL     1      -9.964  11.671  63.541  1.00  0.00    -0.429 C  
BRANCH   5   6
HETATM    6  C   UNL     1      -9.533  10.414  64.255  1.00  0.00    -0.349 A  
HETATM    7  C   UNL     1     -10.163  10.027  65.447  1.00  0.00    -0.226 A  
HETATM    8  C   UNL     1      -8.728   8.089  65.600  1.00  0.00    -0.156 A  
HETATM    9  C   UNL     1      -9.763   8.868  66.113  1.00  0.00    -0.338 A  
HETATM   10  C   UNL     1      -8.491   9.627  63.750  1.00  0.00    -0.190 A  
HETATM   11  C   UNL     1      -8.092   8.469  64.419  1.00  0.00    -0.163 A  
ENDBRANCH   5   6
ENDBRANCH   4   5
ENDBRANCH   3   4
ENDBRANCH   2   3
BRANCH   2  12
HETATM   12  O   UNL     1     -10.697  13.932  66.104  1.00  0.00    -0.279 OA 
BRANCH  12  13
HETATM   13  C   UNL     1      -9.823  13.433  67.134  1.00  0.00    -0.237 C  
BRANCH  13  14
HETATM   14  C   UNL     1      -8.420  14.024  66.959  1.00  0.00    -0.147 C  
BRANCH  14  15
HETATM   15  O   UNL     1      -7.529  13.404  67.910  1.00  0.00    -0.116 OA 
BRANCH  15  16
HETATM   16  C   UNL     1      -6.599  12.557  67.393  1.00  0.00    -0.152 C  
HETATM   17  O   UNL     1      -5.492  12.876  66.988  1.00  0.00    -0.338 OA 
BRANCH  16  18
HETATM   18  C   UNL     1      -7.146  11.152  67.363  1.00  0.00    -0.102 C  
BRANCH  18  19
HETATM   19  C   UNL     1      -7.157  10.519  68.750  1.00  0.00    -0.073 C  
BRANCH  19  20
HETATM   20  C   UNL     1      -8.562  10.431  69.358  1.00  0.00    -0.143 C  
BRANCH  20  21
HETATM   21  C   UNL     1      -8.986   8.987  69.449  1.00  0.00    -0.145 A  
HETATM   22  C   UNL     1      -9.722   6.316  69.849  1.00  0.00    -0.191 A  
HETATM   23  C   UNL     1      -8.047   7.961  69.281  1.00  0.00    -0.126 A  
HETATM   24  C   UNL     1     -10.303   8.659  69.799  1.00  0.00    -0.212 A  
HETATM   25  C   UNL     1      -8.417   6.630  69.480  1.00  0.00    -0.132 A  
HETATM   26  C   UNL     1     -10.668   7.329  70.000  1.00  0.00    -0.261 A  
ENDBRANCH  20  21
ENDBRANCH  19  20
ENDBRANCH  18  19
ENDBRANCH  16  18
ENDBRANCH  15  16
ENDBRANCH  14  15
BRANCH  14  27
HETATM   27  C   UNL     1      -8.418  15.532  67.232  1.00  0.00    -0.193 C  
BRANCH  27  28
HETATM   28  O   UNL     1      -8.856  15.825  68.566  1.00  0.00    -0.178 OA 
BRANCH  28  29
HETATM   29  C   UNL     1      -9.436  17.049  68.720  1.00  0.00    -0.263 C  
HETATM   30  O   UNL     1      -9.020  18.087  68.227  1.00  0.00    -0.268 OA 
BRANCH  29  31
HETATM   31  C   UNL     1     -10.671  16.933  69.578  1.00  0.00    -0.205 C  
BRANCH  31  32
HETATM   32  C   UNL     1     -10.867  15.514  70.100  1.00  0.00    -0.346 C  
BRANCH  32  33
HETATM   33  C   UNL     1     -12.086  14.815  69.482  1.00  0.00    -0.328 C  
BRANCH  33  34
HETATM   34  C   UNL     1     -12.465  13.608  70.302  1.00  0.00    -0.335 A  
HETATM   35  C   UNL     1     -13.016  11.394  71.926  1.00  0.00    -0.466 A  
HETATM   36  C   UNL     1     -13.199  13.763  71.486  1.00  0.00    -0.417 A  
HETATM   37  C   UNL     1     -13.473  12.659  72.294  1.00  0.00    -0.541 A  
HETATM   38  C   UNL     1     -12.296  11.230  70.744  1.00  0.00    -0.495 A  
HETATM   39  C   UNL     1     -12.021  12.332  69.935  1.00  0.00    -0.377 A  
ENDBRANCH  33  34
ENDBRANCH  32  33
ENDBRANCH  31  32
ENDBRANCH  29  31
ENDBRANCH  28  29
ENDBRANCH  27  28
ENDBRANCH  14  27
ENDBRANCH  13  14
ENDBRANCH  12  13
ENDBRANCH   2  12
TORSDOF 20
ENDMDL
MODEL      159
REMARK 921   NORMALIZED FREE ENERGY PREDICTED BY IDOCK:   -4.87 KCAL/MOL
REMARK 922        TOTAL FREE ENERGY PREDICTED BY IDOCK:  -15.24 KCAL/MOL
REMARK 923 INTER-LIGAND FREE ENERGY PREDICTED BY IDOCK:  -10.87 KCAL/MOL
REMARK 924 INTRA-LIGAND FREE ENERGY PREDICTED BY IDOCK:   -4.37 KCAL/MOL
REMARK 927      BINDING AFFINITY PREDICTED BY RF-SCORE:    0.00 PKD
ROOT
HETATM    1  O   UNL     1      -9.540  13.382  68.267  1.00  0.00    -0.218 OA 
HETATM    2  C   UNL     1     -10.695  13.710  68.034  1.00  0.00    -0.247 C  
ENDROOT
BRANCH   2   3
HETATM    3  C   UNL     1     -11.096  15.030  67.420  1.00  0.00    -0.324 C  
BRANCH   3   4
HETATM    4  C   UNL     1     -11.584  16.031  68.469  1.00  0.00    -0.316 C  
BRANCH   4   5
HETATM    5  C   UNL     1     -10.426  16.741  69.178  1.00  0.00    -0.343 C  
BRANCH   5   6
HETATM    6  C   UNL     1      -9.977  17.973  68.435  1.00  0.00    -0.382 A  
HETATM    7  C   UNL     1     -10.886  18.694  67.646  1.00  0.00    -0.347 A  
HETATM    8  C   UNL     1      -9.147  20.256  67.034  1.00  0.00    -0.481 A  
HETATM    9  C   UNL     1     -10.472  19.831  66.951  1.00  0.00    -0.596 A  
HETATM   10  C   UNL     1      -8.648  18.407  68.507  1.00  0.00    -0.341 A  
HETATM   11  C   UNL     1      -8.236  19.544  67.811  1.00  0.00    -0.333 A  
ENDBRANCH   5   6
ENDBRANCH   4   5
ENDBRANCH   3   4
ENDBRANCH   2   3
BRANCH   2  12
HETATM   12  O   UNL     1     -11.795  12.950  68.289  1.00  0.00    -0.329 OA 
BRANCH  12  13
HETATM   13  C   UNL     1     -12.160  12.788  69.673  1.00  0.00    -0.222 C  
BRANCH  13  14
HETATM   14  C   UNL     1     -11.732  11.403  70.167  1.00  0.00    -0.328 C  
BRANCH  14  15
HETATM   15  O   UNL     1     -11.865  10.458  69.085  1.00  0.00    -0.186 OA 
BRANCH  15  16
HETATM   16  C   UNL     1     -10.705   9.967  68.574  1.00  0.00    -0.231 C  
HETATM   17  O   UNL     1     -10.583   9.399  67.500  1.00  0.00    -0.262 OA 
BRANCH  16  18
HETATM   18  C   UNL     1      -9.577  10.199  69.548  1.00  0.00    -0.243 C  
BRANCH  18  19
HETATM   19  C   UNL     1      -9.312   8.970  70.411  1.00  0.00    -0.244 C  
BRANCH  19  20
HETATM   20  C   UNL     1      -8.060   8.196  69.982  1.00  0.00    -0.114 C  
BRANCH  20  21
HETATM   21  C   UNL     1      -8.400   6.738  69.803  1.00  0.00    -0.132 A  
HETATM   22  C   UNL     1      -9.111   4.033  69.695  1.00  0.00    -0.186 A  
HETATM   23  C   UNL     1      -7.466   5.747  70.131  1.00  0.00    -0.081 A  
HETATM   24  C   UNL     1      -9.687   6.359  69.400  1.00  0.00    -0.160 A  
HETATM   25  C   UNL     1      -7.823   4.399  70.076  1.00  0.00    -0.053 A  
HETATM   26  C   UNL     1     -10.041   5.011  69.348  1.00  0.00    -0.288 A  
ENDBRANCH  20  21
ENDBRANCH  19  20
ENDBRANCH  18  19
ENDBRANCH  16  18
ENDBRANCH  15  16
ENDBRANCH  14  15
BRANCH  14  27
HETATM   27  C   UNL     1     -12.628  10.925  71.316  1.00  0.00    -0.421 C  
BRANCH  27  28
HETATM   28  O   UNL     1     -12.553   9.502  71.484  1.00  0.00    -0.326 OA 
BRANCH  28  29
HETATM   29  C   UNL     1     -13.644   8.939  72.075  1.00  0.00    -0.441 C  
HETATM   30  O   UNL     1     -14.394   9.515  72.850  1.00  0.00    -0.257 OA 
BRANCH  29  31
HETATM   31  C   UNL     1     -13.795   7.507  71.628  1.00  0.00    -0.486 C  
BRANCH  31  32
HETATM   32  C   UNL     1     -12.445   6.851  71.360  1.00  0.00    -0.413 C  
BRANCH  32  33
HETATM   33  C   UNL     1     -12.037   5.857  72.454  1.00  0.00    -0.135 C  
BRANCH  33  34
HETATM   34  C   UNL     1     -10.675   6.208  72.995  1.00  0.00    -0.276 A  
HETATM   35  C   UNL     1      -8.210   6.830  74.171  1.00  0.00    -0.148 A  
HETATM   36  C   UNL     1      -9.734   5.199  73.247  1.00  0.00    -0.160 A  
HETATM   37  C   UNL     1      -8.507   5.510  73.832  1.00  0.00    -0.113 A  
HETATM   38  C   UNL     1      -9.134   7.840  73.913  1.00  0.00    -0.298 A  
HETATM   39  C   UNL     1     -10.361   7.532  73.327  1.00  0.00    -0.412 A  
ENDBRANCH  33  34
ENDBRANCH  32  33
ENDBRANCH  31  32
ENDBRANCH  29  31
ENDBRANCH  28  29
ENDBRANCH  27  28
ENDBRANCH  14  27
ENDBRANCH  13  14
ENDBRANCH  12  13
ENDBRANCH   2  12
TORSDOF 20
ENDMDL
MODEL      160
REMARK 921   NORMALIZED FREE ENERGY PREDICTED BY IDOCK:   -4.86 KCAL/MOL
REMARK 922        TOTAL FREE ENERGY PREDICTED BY IDOCK:  -15.22 KCAL/MOL
REMARK 923 INTER-LIGAND FREE ENERGY PREDICTED BY IDOCK:  -11.48 KCAL/MOL
REMARK 924 INTRA-LIGAND FREE ENERGY PREDICTED BY IDOCK:   -3.74 KCAL/MOL
REMARK 927      BINDING AFFINITY PREDICTED BY RF-SCORE:    0.00 PKD
ROOT
HETATM    1  O   UNL     1      -6.072  13.187  67.138  1.00  0.00    -0.301 OA 
HETATM    2  C   UNL     1      -7.218  12.929  67.478  1.00  0.00    -0.148 C  
ENDROOT
BRANCH   2   3
HETATM    3  C   UNL     1      -8.352  13.926  67.466  1.00  0.00    -0.202 C  
BRANCH   3   4
HETATM    4  C   UNL     1      -7.883  15.331  67.086  1.00  0.00    -0.249 C  
BRANCH   4   5
HETATM    5  C   UNL     1      -8.892  16.058  66.189  1.00  0.00    -0.366 C  
BRANCH   5   6
HETATM    6  C   UNL     1      -9.365  17.352  66.802  1.00  0.00    -0.279 A  
HETATM    7  C   UNL     1      -8.930  17.730  68.081  1.00  0.00    -0.271 A  
HETATM    8  C   UNL     1     -10.253  19.748  67.958  1.00  0.00    -0.581 A  
HETATM    9  C   UNL     1      -9.370  18.923  68.653  1.00  0.00    -0.415 A  
HETATM   10  C   UNL     1     -10.255  18.185  66.114  1.00  0.00    -0.372 A  
HETATM   11  C   UNL     1     -10.695  19.378  66.688  1.00  0.00    -0.529 A  
ENDBRANCH   5   6
ENDBRANCH   4   5
ENDBRANCH   3   4
ENDBRANCH   2   3
BRANCH   2  12
HETATM   12  O   UNL     1      -7.654  11.717  67.920  1.00  0.00    -0.107 OA 
BRANCH  12  13
HETATM   13  C   UNL     1      -7.828  10.693  66.923  1.00  0.00    -0.121 C  
BRANCH  13  14
HETATM   14  C   UNL     1      -9.225  10.077  67.045  1.00  0.00    -0.146 C  
BRANCH  14  15
HETATM   15  O   UNL     1      -9.097   8.643  67.150  1.00  0.00    -0.129 OA 
BRANCH  15  16
HETATM   16  C   UNL     1     -10.216   7.969  67.527  1.00  0.00    -0.245 C  
HETATM   17  O   UNL     1     -10.833   7.171  66.838  1.00  0.00    -0.352 OA 
BRANCH  16  18
HETATM   18  C   UNL     1     -10.612   8.373  68.925  1.00  0.00    -0.162 C  
BRANCH  18  19
HETATM   19  C   UNL     1     -11.205   7.205  69.706  1.00  0.00    -0.206 C  
BRANCH  19  20
HETATM   20  C   UNL     1     -10.147   6.199  70.173  1.00  0.00    -0.233 C  
BRANCH  20  21
HETATM   21  C   UNL     1      -9.457   6.723  71.407  1.00  0.00    -0.160 A  
HETATM   22  C   UNL     1      -8.221   7.916  73.617  1.00  0.00    -0.264 A  
HETATM   23  C   UNL     1      -8.084   6.999  71.387  1.00  0.00    -0.108 A  
HETATM   24  C   UNL     1     -10.200   7.031  72.554  1.00  0.00    -0.207 A  
HETATM   25  C   UNL     1      -7.470   7.593  72.490  1.00  0.00    -0.092 A  
HETATM   26  C   UNL     1      -9.584   7.627  73.654  1.00  0.00    -0.333 A  
ENDBRANCH  20  21
ENDBRANCH  19  20
ENDBRANCH  18  19
ENDBRANCH  16  18
ENDBRANCH  15  16
ENDBRANCH  14  15
BRANCH  14  27
HETATM   27  C   UNL     1     -10.073  10.379  65.805  1.00  0.00    -0.262 C  
BRANCH  27  28
HETATM   28  O   UNL     1      -9.930  11.746  65.391  1.00  0.00    -0.241 OA 
BRANCH  28  29
HETATM   29  C   UNL     1     -10.931  12.207  64.590  1.00  0.00    -0.312 C  
HETATM   30  O   UNL     1     -10.850  12.344  63.378  1.00  0.00    -0.451 OA 
BRANCH  29  31
HETATM   31  C   UNL     1     -12.155  12.515  65.415  1.00  0.00    -0.494 C  
BRANCH  31  32
HETATM   32  C   UNL     1     -11.840  13.471  66.561  1.00  0.00    -0.441 C  
BRANCH  32  33
HETATM   33  C   UNL     1     -11.873  12.787  67.934  1.00  0.00    -0.392 C  
BRANCH  33  34
HETATM   34  C   UNL     1     -11.975  13.819  69.027  1.00  0.00    -0.399 A  
HETATM   35  C   UNL     1     -11.989  15.700  71.103  1.00  0.00    -0.457 A  
HETATM   36  C   UNL     1     -11.573  15.141  68.789  1.00  0.00    -0.369 A  
HETATM   37  C   UNL     1     -11.581  16.077  69.823  1.00  0.00    -0.297 A  
HETATM   38  C   UNL     1     -12.401  14.391  71.345  1.00  0.00    -0.433 A  
HETATM   39  C   UNL     1     -12.395  13.454  70.312  1.00  0.00    -0.354 A  
ENDBRANCH  33  34
ENDBRANCH  32  33
ENDBRANCH  31  32
ENDBRANCH  29  31
ENDBRANCH  28  29
ENDBRANCH  27  28
ENDBRANCH  14  27
ENDBRANCH  13  14
ENDBRANCH  12  13
ENDBRANCH   2  12
TORSDOF 20
ENDMDL
MODEL      161
REMARK 921   NORMALIZED FREE ENERGY PREDICTED BY IDOCK:   -4.84 KCAL/MOL
REMARK 922        TOTAL FREE ENERGY PREDICTED BY IDOCK:  -15.19 KCAL/MOL
REMARK 923 INTER-LIGAND FREE ENERGY PREDICTED BY IDOCK:  -11.55 KCAL/MOL
REMARK 924 INTRA-LIGAND FREE ENERGY PREDICTED BY IDOCK:   -3.64 KCAL/MOL
REMARK 927      BINDING AFFINITY PREDICTED BY RF-SCORE:    0.00 PKD
ROOT
HETATM    1  O   UNL     1      -6.840  13.728  69.574  1.00  0.00    -0.089 OA 
HETATM    2  C   UNL     1      -6.995  13.876  68.370  1.00  0.00    -0.102 C  
ENDROOT
BRANCH   2   3
HETATM    3  C   UNL     1      -7.676  15.069  67.742  1.00  0.00    -0.168 C  
BRANCH   3   4
HETATM    4  C   UNL     1      -8.948  15.469  68.491  1.00  0.00    -0.191 C  
BRANCH   4   5
HETATM    5  C   UNL     1     -10.036  15.995  67.548  1.00  0.00    -0.240 C  
BRANCH   5   6
HETATM    6  C   UNL     1     -10.081  17.502  67.520  1.00  0.00    -0.326 A  
HETATM    7  C   UNL     1     -10.296  18.181  66.312  1.00  0.00    -0.407 A  
HETATM    8  C   UNL     1     -10.149  20.304  67.455  1.00  0.00    -0.519 A  
HETATM    9  C   UNL     1     -10.332  19.575  66.282  1.00  0.00    -0.601 A  
HETATM   10  C   UNL     1      -9.894  18.244  68.693  1.00  0.00    -0.400 A  
HETATM   11  C   UNL     1      -9.930  19.639  68.660  1.00  0.00    -0.553 A  
ENDBRANCH   5   6
ENDBRANCH   4   5
ENDBRANCH   3   4
ENDBRANCH   2   3
BRANCH   2  12
HETATM   12  O   UNL     1      -6.588  13.000  67.410  1.00  0.00    -0.164 OA 
BRANCH  12  13
HETATM   13  C   UNL     1      -7.525  11.971  67.039  1.00  0.00    -0.106 C  
BRANCH  13  14
HETATM   14  C   UNL     1      -6.828  10.607  67.035  1.00  0.00    -0.091 C  
BRANCH  14  15
HETATM   15  O   UNL     1      -7.629   9.675  66.279  1.00  0.00    -0.099 OA 
BRANCH  15  16
HETATM   16  C   UNL     1      -7.374   9.612  64.945  1.00  0.00    -0.118 C  
HETATM   17  O   UNL     1      -6.265   9.571  64.433  1.00  0.00    -0.077 OA 
BRANCH  16  18
HETATM   18  C   UNL     1      -8.669   9.630  64.173  1.00  0.00    -0.238 C  
BRANCH  18  19
HETATM   19  C   UNL     1      -8.984  11.019  63.628  1.00  0.00    -0.090 C  
BRANCH  19  20
HETATM   20  C   UNL     1     -10.425  11.151  63.120  1.00  0.00    -0.243 C  
BRANCH  20  21
HETATM   21  C   UNL     1     -11.197  12.083  64.019  1.00  0.00    -0.468 A  
HETATM   22  C   UNL     1     -12.426  13.930  65.727  1.00  0.00    -0.530 A  
HETATM   23  C   UNL     1     -11.303  11.818  65.391  1.00  0.00    -0.284 A  
HETATM   24  C   UNL     1     -11.732  13.273  63.509  1.00  0.00    -0.390 A  
HETATM   25  C   UNL     1     -11.917  12.740  66.240  1.00  0.00    -0.460 A  
HETATM   26  C   UNL     1     -12.343  14.193  64.361  1.00  0.00    -0.410 A  
ENDBRANCH  20  21
ENDBRANCH  19  20
ENDBRANCH  18  19
ENDBRANCH  16  18
ENDBRANCH  15  16
ENDBRANCH  14  15
BRANCH  14  27
HETATM   27  C   UNL     1      -6.687  10.054  68.458  1.00  0.00    -0.054 C  
BRANCH  27  28
HETATM   28  O   UNL     1      -7.842  10.355  69.255  1.00  0.00    -0.122 OA 
BRANCH  28  29
HETATM   29  C   UNL     1      -8.692   9.306  69.444  1.00  0.00    -0.148 C  
HETATM   30  O   UNL     1      -8.729   8.301  68.749  1.00  0.00    -0.135 OA 
BRANCH  29  31
HETATM   31  C   UNL     1      -9.573   9.563  70.641  1.00  0.00    -0.292 C  
BRANCH  31  32
HETATM   32  C   UNL     1     -11.052   9.544  70.269  1.00  0.00    -0.317 C  
BRANCH  32  33
HETATM   33  C   UNL     1     -11.459  10.727  69.380  1.00  0.00    -0.366 C  
BRANCH  33  34
HETATM   34  C   UNL     1     -12.121  11.798  70.208  1.00  0.00    -0.426 A  
HETATM   35  C   UNL     1     -13.197  13.798  71.848  1.00  0.00    -0.486 A  
HETATM   36  C   UNL     1     -11.929  13.151  69.895  1.00  0.00    -0.387 A  
HETATM   37  C   UNL     1     -12.466  14.146  70.712  1.00  0.00    -0.436 A  
HETATM   38  C   UNL     1     -13.402  12.455  72.159  1.00  0.00    -0.508 A  
HETATM   39  C   UNL     1     -12.868  11.459  71.343  1.00  0.00    -0.502 A  
ENDBRANCH  33  34
ENDBRANCH  32  33
ENDBRANCH  31  32
ENDBRANCH  29  31
ENDBRANCH  28  29
ENDBRANCH  27  28
ENDBRANCH  14  27
ENDBRANCH  13  14
ENDBRANCH  12  13
ENDBRANCH   2  12
TORSDOF 20
ENDMDL
MODEL      162
REMARK 921   NORMALIZED FREE ENERGY PREDICTED BY IDOCK:   -4.84 KCAL/MOL
REMARK 922        TOTAL FREE ENERGY PREDICTED BY IDOCK:  -15.18 KCAL/MOL
REMARK 923 INTER-LIGAND FREE ENERGY PREDICTED BY IDOCK:   -9.12 KCAL/MOL
REMARK 924 INTRA-LIGAND FREE ENERGY PREDICTED BY IDOCK:   -6.05 KCAL/MOL
REMARK 927      BINDING AFFINITY PREDICTED BY RF-SCORE:    0.00 PKD
ROOT
HETATM    1  O   UNL     1      -7.863   5.939  73.751  1.00  0.00    -0.100 OA 
HETATM    2  C   UNL     1      -8.314   7.063  73.577  1.00  0.00    -0.117 C  
ENDROOT
BRANCH   2   3
HETATM    3  C   UNL     1      -7.523   8.216  73.006  1.00  0.00    -0.171 C  
BRANCH   3   4
HETATM    4  C   UNL     1      -6.691   7.802  71.791  1.00  0.00    -0.050 C  
BRANCH   4   5
HETATM    5  C   UNL     1      -7.549   7.620  70.534  1.00  0.00    -0.081 C  
BRANCH   5   6
HETATM    6  C   UNL     1      -7.471   8.816  69.619  1.00  0.00    -0.071 A  
HETATM    7  C   UNL     1      -8.291   9.932  69.842  1.00  0.00    -0.200 A  
HETATM    8  C   UNL     1      -7.348  11.038  67.912  1.00  0.00    -0.092 A  
HETATM    9  C   UNL     1      -8.227  11.037  68.993  1.00  0.00    -0.101 A  
HETATM   10  C   UNL     1      -6.594   8.825  68.527  1.00  0.00    -0.059 A  
HETATM   11  C   UNL     1      -6.532   9.931  67.679  1.00  0.00    -0.064 A  
ENDBRANCH   5   6
ENDBRANCH   4   5
ENDBRANCH   3   4
ENDBRANCH   2   3
BRANCH   2  12
HETATM   12  O   UNL     1      -9.585   7.455  73.867  1.00  0.00    -0.270 OA 
BRANCH  12  13
HETATM   13  C   UNL     1     -10.244   8.281  72.888  1.00  0.00    -0.190 C  
BRANCH  13  14
HETATM   14  C   UNL     1     -11.547   7.617  72.436  1.00  0.00    -0.336 C  
BRANCH  14  15
HETATM   15  O   UNL     1     -11.358   7.067  71.115  1.00  0.00    -0.259 OA 
BRANCH  15  16
HETATM   16  C   UNL     1     -11.001   5.756  71.058  1.00  0.00    -0.230 C  
HETATM   17  O   UNL     1     -11.031   4.969  71.992  1.00  0.00    -0.141 OA 
BRANCH  16  18
HETATM   18  C   UNL     1     -10.527   5.413  69.669  1.00  0.00    -0.361 C  
BRANCH  18  19
HETATM   19  C   UNL     1     -10.612   6.611  68.729  1.00  0.00    -0.271 C  
BRANCH  19  20
HETATM   20  C   UNL     1      -9.594   6.549  67.585  1.00  0.00    -0.131 C  
BRANCH  20  21
HETATM   21  C   UNL     1      -9.704   7.792  66.739  1.00  0.00    -0.296 A  
HETATM   22  C   UNL     1      -9.735  10.195  65.303  1.00  0.00    -0.365 A  
HETATM   23  C   UNL     1     -10.561   8.833  67.119  1.00  0.00    -0.303 A  
HETATM   24  C   UNL     1      -8.878   7.960  65.620  1.00  0.00    -0.121 A  
HETATM   25  C   UNL     1     -10.575  10.030  66.400  1.00  0.00    -0.138 A  
HETATM   26  C   UNL     1      -8.893   9.157  64.906  1.00  0.00    -0.215 A  
ENDBRANCH  20  21
ENDBRANCH  19  20
ENDBRANCH  18  19
ENDBRANCH  16  18
ENDBRANCH  15  16
ENDBRANCH  14  15
BRANCH  14  27
HETATM   27  C   UNL     1     -12.689   8.636  72.358  1.00  0.00    -0.362 C  
BRANCH  27  28
HETATM   28  O   UNL     1     -12.824   9.174  71.034  1.00  0.00    -0.237 OA 
BRANCH  28  29
HETATM   29  C   UNL     1     -12.774  10.534  70.963  1.00  0.00    -0.408 C  
HETATM   30  O   UNL     1     -13.266  11.295  71.784  1.00  0.00    -0.450 OA 
BRANCH  29  31
HETATM   31  C   UNL     1     -12.016  10.962  69.732  1.00  0.00    -0.423 C  
BRANCH  31  32
HETATM   32  C   UNL     1     -11.843  12.476  69.672  1.00  0.00    -0.382 C  
BRANCH  32  33
HETATM   33  C   UNL     1     -11.521  12.984  68.260  1.00  0.00    -0.347 C  
BRANCH  33  34
HETATM   34  C   UNL     1     -11.060  14.418  68.315  1.00  0.00    -0.275 A  
HETATM   35  C   UNL     1     -10.381  17.132  68.436  1.00  0.00    -0.362 A  
HETATM   36  C   UNL     1     -10.812  15.031  69.550  1.00  0.00    -0.272 A  
HETATM   37  C   UNL     1     -10.473  16.383  69.609  1.00  0.00    -0.278 A  
HETATM   38  C   UNL     1     -10.615  16.526  67.203  1.00  0.00    -0.270 A  
HETATM   39  C   UNL     1     -10.953  15.175  67.141  1.00  0.00    -0.326 A  
ENDBRANCH  33  34
ENDBRANCH  32  33
ENDBRANCH  31  32
ENDBRANCH  29  31
ENDBRANCH  28  29
ENDBRANCH  27  28
ENDBRANCH  14  27
ENDBRANCH  13  14
ENDBRANCH  12  13
ENDBRANCH   2  12
TORSDOF 20
ENDMDL
MODEL      163
REMARK 921   NORMALIZED FREE ENERGY PREDICTED BY IDOCK:   -4.84 KCAL/MOL
REMARK 922        TOTAL FREE ENERGY PREDICTED BY IDOCK:  -15.17 KCAL/MOL
REMARK 923 INTER-LIGAND FREE ENERGY PREDICTED BY IDOCK:  -11.26 KCAL/MOL
REMARK 924 INTRA-LIGAND FREE ENERGY PREDICTED BY IDOCK:   -3.91 KCAL/MOL
REMARK 927      BINDING AFFINITY PREDICTED BY RF-SCORE:    0.00 PKD
ROOT
HETATM    1  O   UNL     1      -8.576  12.305  66.835  1.00  0.00    -0.193 OA 
HETATM    2  C   UNL     1      -9.635  12.333  66.224  1.00  0.00    -0.242 C  
ENDROOT
BRANCH   2   3
HETATM    3  C   UNL     1      -9.958  11.450  65.043  1.00  0.00    -0.312 C  
BRANCH   3   4
HETATM    4  C   UNL     1      -9.296  10.075  65.151  1.00  0.00    -0.302 C  
BRANCH   4   5
HETATM    5  C   UNL     1      -9.941   9.203  66.234  1.00  0.00    -0.352 C  
BRANCH   5   6
HETATM    6  C   UNL     1      -8.912   8.548  67.120  1.00  0.00    -0.145 A  
HETATM    7  C   UNL     1      -8.124   7.495  66.631  1.00  0.00    -0.123 A  
HETATM    8  C   UNL     1      -7.008   7.311  68.766  1.00  0.00    -0.079 A  
HETATM    9  C   UNL     1      -7.176   6.882  67.450  1.00  0.00    -0.090 A  
HETATM   10  C   UNL     1      -8.738   8.967  68.445  1.00  0.00    -0.130 A  
HETATM   11  C   UNL     1      -7.789   8.353  69.263  1.00  0.00    -0.104 A  
ENDBRANCH   5   6
ENDBRANCH   4   5
ENDBRANCH   3   4
ENDBRANCH   2   3
BRANCH   2  12
HETATM   12  O   UNL     1     -10.683  13.157  66.503  1.00  0.00    -0.276 OA 
BRANCH  12  13
HETATM   13  C   UNL     1     -11.891  12.527  66.968  1.00  0.00    -0.323 C  
BRANCH  13  14
HETATM   14  C   UNL     1     -11.915  12.511  68.499  1.00  0.00    -0.219 C  
BRANCH  14  15
HETATM   15  O   UNL     1     -11.007  13.518  68.992  1.00  0.00    -0.252 OA 
BRANCH  15  16
HETATM   16  C   UNL     1     -11.533  14.425  69.858  1.00  0.00    -0.260 C  
HETATM   17  O   UNL     1     -12.668  14.402  70.311  1.00  0.00    -0.348 OA 
BRANCH  16  18
HETATM   18  C   UNL     1     -10.515  15.495  70.163  1.00  0.00    -0.317 C  
BRANCH  18  19
HETATM   19  C   UNL     1     -10.901  16.835  69.546  1.00  0.00    -0.225 C  
BRANCH  19  20
HETATM   20  C   UNL     1     -10.771  16.852  68.019  1.00  0.00    -0.364 C  
BRANCH  20  21
HETATM   21  C   UNL     1     -10.061  18.109  67.584  1.00  0.00    -0.367 A  
HETATM   22  C   UNL     1      -8.887  20.563  66.923  1.00  0.00    -0.304 A  
HETATM   23  C   UNL     1     -10.546  18.859  66.504  1.00  0.00    -0.462 A  
HETATM   24  C   UNL     1      -8.968  18.593  68.315  1.00  0.00    -0.344 A  
HETATM   25  C   UNL     1      -9.959  20.081  66.176  1.00  0.00    -0.580 A  
HETATM   26  C   UNL     1      -8.385  19.816  67.987  1.00  0.00    -0.332 A  
ENDBRANCH  20  21
ENDBRANCH  19  20
ENDBRANCH  18  19
ENDBRANCH  16  18
ENDBRANCH  15  16
ENDBRANCH  14  15
BRANCH  14  27
HETATM   27  C   UNL     1     -11.450  11.156  69.046  1.00  0.00    -0.296 C  
BRANCH  27  28
HETATM   28  O   UNL     1     -12.368  10.640  70.020  1.00  0.00    -0.311 OA 
BRANCH  28  29
HETATM   29  C   UNL     1     -11.792   9.904  71.012  1.00  0.00    -0.376 C  
HETATM   30  O   UNL     1     -10.589   9.827  71.217  1.00  0.00    -0.273 OA 
BRANCH  29  31
HETATM   31  C   UNL     1     -12.854   9.208  71.825  1.00  0.00    -0.448 C  
BRANCH  31  32
HETATM   32  C   UNL     1     -12.935   7.721  71.496  1.00  0.00    -0.357 C  
BRANCH  32  33
HETATM   33  C   UNL     1     -11.754   6.919  72.059  1.00  0.00    -0.336 C  
BRANCH  33  34
HETATM   34  C   UNL     1     -11.064   6.162  70.954  1.00  0.00    -0.371 A  
HETATM   35  C   UNL     1      -9.659   4.892  68.890  1.00  0.00    -0.224 A  
HETATM   36  C   UNL     1      -9.987   5.315  71.247  1.00  0.00    -0.256 A  
HETATM   37  C   UNL     1      -9.288   4.683  70.218  1.00  0.00    -0.218 A  
HETATM   38  C   UNL     1     -10.738   5.723  68.592  1.00  0.00    -0.303 A  
HETATM   39  C   UNL     1     -11.438   6.355  69.619  1.00  0.00    -0.446 A  
ENDBRANCH  33  34
ENDBRANCH  32  33
ENDBRANCH  31  32
ENDBRANCH  29  31
ENDBRANCH  28  29
ENDBRANCH  27  28
ENDBRANCH  14  27
ENDBRANCH  13  14
ENDBRANCH  12  13
ENDBRANCH   2  12
TORSDOF 20
ENDMDL
MODEL      164
REMARK 921   NORMALIZED FREE ENERGY PREDICTED BY IDOCK:   -4.84 KCAL/MOL
REMARK 922        TOTAL FREE ENERGY PREDICTED BY IDOCK:  -15.17 KCAL/MOL
REMARK 923 INTER-LIGAND FREE ENERGY PREDICTED BY IDOCK:   -9.30 KCAL/MOL
REMARK 924 INTRA-LIGAND FREE ENERGY PREDICTED BY IDOCK:   -5.87 KCAL/MOL
REMARK 927      BINDING AFFINITY PREDICTED BY RF-SCORE:    0.00 PKD
ROOT
HETATM    1  O   UNL     1     -12.765   6.647  70.878  1.00  0.00    -0.234 OA 
HETATM    2  C   UNL     1     -12.174   7.100  71.848  1.00  0.00    -0.323 C  
ENDROOT
BRANCH   2   3
HETATM    3  C   UNL     1     -12.359   8.501  72.378  1.00  0.00    -0.424 C  
BRANCH   3   4
HETATM    4  C   UNL     1     -12.898   9.456  71.311  1.00  0.00    -0.383 C  
BRANCH   4   5
HETATM    5  C   UNL     1     -12.892  10.915  71.781  1.00  0.00    -0.509 C  
BRANCH   5   6
HETATM    6  C   UNL     1     -12.515  11.866  70.673  1.00  0.00    -0.347 A  
HETATM    7  C   UNL     1     -12.609  13.251  70.868  1.00  0.00    -0.386 A  
HETATM    8  C   UNL     1     -11.834  13.641  68.612  1.00  0.00    -0.409 A  
HETATM    9  C   UNL     1     -12.267  14.133  69.842  1.00  0.00    -0.416 A  
HETATM   10  C   UNL     1     -12.083  11.381  69.432  1.00  0.00    -0.358 A  
HETATM   11  C   UNL     1     -11.742  12.265  68.408  1.00  0.00    -0.390 A  
ENDBRANCH   5   6
ENDBRANCH   4   5
ENDBRANCH   3   4
ENDBRANCH   2   3
BRANCH   2  12
HETATM   12  O   UNL     1     -11.261   6.423  72.599  1.00  0.00    -0.255 OA 
BRANCH  12  13
HETATM   13  C   UNL     1     -10.652   7.152  73.681  1.00  0.00    -0.333 C  
BRANCH  13  14
HETATM   14  C   UNL     1      -9.128   7.018  73.608  1.00  0.00    -0.166 C  
BRANCH  14  15
HETATM   15  O   UNL     1      -8.706   7.218  72.242  1.00  0.00    -0.119 OA 
BRANCH  15  16
HETATM   16  C   UNL     1      -8.125   8.416  71.965  1.00  0.00    -0.141 C  
HETATM   17  O   UNL     1      -7.047   8.800  72.391  1.00  0.00    -0.284 OA 
BRANCH  16  18
HETATM   18  C   UNL     1      -9.026   9.227  71.068  1.00  0.00    -0.225 C  
BRANCH  18  19
HETATM   19  C   UNL     1      -9.355   8.487  69.776  1.00  0.00    -0.161 C  
BRANCH  19  20
HETATM   20  C   UNL     1      -8.144   8.333  68.849  1.00  0.00    -0.115 C  
BRANCH  20  21
HETATM   21  C   UNL     1      -8.481   8.866  67.480  1.00  0.00    -0.116 A  
HETATM   22  C   UNL     1      -9.212   9.648  64.893  1.00  0.00    -0.306 A  
HETATM   23  C   UNL     1      -7.606   8.664  66.405  1.00  0.00    -0.091 A  
HETATM   24  C   UNL     1      -9.718   9.484  67.248  1.00  0.00    -0.215 A  
HETATM   25  C   UNL     1      -7.972   9.056  65.117  1.00  0.00    -0.119 A  
HETATM   26  C   UNL     1     -10.082   9.872  65.959  1.00  0.00    -0.314 A  
ENDBRANCH  20  21
ENDBRANCH  19  20
ENDBRANCH  18  19
ENDBRANCH  16  18
ENDBRANCH  15  16
ENDBRANCH  14  15
BRANCH  14  27
HETATM   27  C   UNL     1      -8.674   5.618  74.036  1.00  0.00    -0.120 C  
BRANCH  27  28
HETATM   28  O   UNL     1      -8.239   4.840  72.911  1.00  0.00    -0.100 OA 
BRANCH  28  29
HETATM   29  C   UNL     1      -8.938   3.687  72.711  1.00  0.00    -0.096 C  
HETATM   30  O   UNL     1      -9.797   3.250  73.463  1.00  0.00    -0.105 OA 
BRANCH  29  31
HETATM   31  C   UNL     1      -8.505   3.036  71.422  1.00  0.00    -0.092 C  
BRANCH  31  32
HETATM   32  C   UNL     1      -9.568   3.165  70.336  1.00  0.00    -0.192 C  
BRANCH  32  33
HETATM   33  C   UNL     1     -10.001   4.618  70.096  1.00  0.00    -0.304 C  
BRANCH  33  34
HETATM   34  C   UNL     1      -9.783   4.995  68.653  1.00  0.00    -0.221 A  
HETATM   35  C   UNL     1      -9.471   5.543  65.924  1.00  0.00    -0.115 A  
HETATM   36  C   UNL     1     -10.756   5.729  67.962  1.00  0.00    -0.290 A  
HETATM   37  C   UNL     1     -10.599   6.002  66.603  1.00  0.00    -0.312 A  
HETATM   38  C   UNL     1      -8.493   4.822  66.608  1.00  0.00    -0.106 A  
HETATM   39  C   UNL     1      -8.647   4.549  67.967  1.00  0.00    -0.109 A  
ENDBRANCH  33  34
ENDBRANCH  32  33
ENDBRANCH  31  32
ENDBRANCH  29  31
ENDBRANCH  28  29
ENDBRANCH  27  28
ENDBRANCH  14  27
ENDBRANCH  13  14
ENDBRANCH  12  13
ENDBRANCH   2  12
TORSDOF 20
ENDMDL
MODEL      165
REMARK 921   NORMALIZED FREE ENERGY PREDICTED BY IDOCK:   -4.83 KCAL/MOL
REMARK 922        TOTAL FREE ENERGY PREDICTED BY IDOCK:  -15.15 KCAL/MOL
REMARK 923 INTER-LIGAND FREE ENERGY PREDICTED BY IDOCK:  -12.29 KCAL/MOL
REMARK 924 INTRA-LIGAND FREE ENERGY PREDICTED BY IDOCK:   -2.86 KCAL/MOL
REMARK 927      BINDING AFFINITY PREDICTED BY RF-SCORE:    0.00 PKD
ROOT
HETATM    1  O   UNL     1     -12.229  13.279  68.019  1.00  0.00    -0.275 OA 
HETATM    2  C   UNL     1     -11.697  13.789  67.042  1.00  0.00    -0.390 C  
ENDROOT
BRANCH   2   3
HETATM    3  C   UNL     1     -12.409  14.076  65.742  1.00  0.00    -0.506 C  
BRANCH   3   4
HETATM    4  C   UNL     1     -12.626  12.811  64.910  1.00  0.00    -0.541 C  
BRANCH   4   5
HETATM    5  C   UNL     1     -11.600  12.675  63.780  1.00  0.00    -0.550 C  
BRANCH   5   6
HETATM    6  C   UNL     1     -10.645  11.532  64.016  1.00  0.00    -0.437 A  
HETATM    7  C   UNL     1      -9.798  11.094  62.988  1.00  0.00    -0.368 A  
HETATM    8  C   UNL     1      -8.879   9.396  64.441  1.00  0.00    -0.225 A  
HETATM    9  C   UNL     1      -8.918  10.032  63.202  1.00  0.00    -0.273 A  
HETATM   10  C   UNL     1     -10.601  10.882  65.256  1.00  0.00    -0.259 A  
HETATM   11  C   UNL     1      -9.721   9.821  65.468  1.00  0.00    -0.382 A  
ENDBRANCH   5   6
ENDBRANCH   4   5
ENDBRANCH   3   4
ENDBRANCH   2   3
BRANCH   2  12
HETATM   12  O   UNL     1     -10.393  14.174  66.967  1.00  0.00    -0.264 OA 
BRANCH  12  13
HETATM   13  C   UNL     1      -9.693  14.323  68.217  1.00  0.00    -0.221 C  
BRANCH  13  14
HETATM   14  C   UNL     1      -8.206  14.015  68.022  1.00  0.00    -0.155 C  
BRANCH  14  15
HETATM   15  O   UNL     1      -7.618  15.047  67.203  1.00  0.00    -0.202 OA 
BRANCH  15  16
HETATM   16  C   UNL     1      -6.524  15.668  67.718  1.00  0.00    -0.160 C  
HETATM   17  O   UNL     1      -5.393  15.620  67.258  1.00  0.00    -0.335 OA 
BRANCH  16  18
HETATM   18  C   UNL     1      -6.901  16.413  68.974  1.00  0.00    -0.198 C  
BRANCH  18  19
HETATM   19  C   UNL     1      -6.384  17.847  68.959  1.00  0.00    -0.232 C  
BRANCH  19  20
HETATM   20  C   UNL     1      -6.691  18.582  67.649  1.00  0.00    -0.200 C  
BRANCH  20  21
HETATM   21  C   UNL     1      -8.174  18.828  67.540  1.00  0.00    -0.278 A  
HETATM   22  C   UNL     1     -10.876  19.497  67.243  1.00  0.00    -0.557 A  
HETATM   23  C   UNL     1      -8.865  19.462  68.581  1.00  0.00    -0.417 A  
HETATM   24  C   UNL     1      -8.857  18.513  66.358  1.00  0.00    -0.267 A  
HETATM   25  C   UNL     1     -10.213  19.793  68.430  1.00  0.00    -0.568 A  
HETATM   26  C   UNL     1     -10.202  18.848  66.210  1.00  0.00    -0.491 A  
ENDBRANCH  20  21
ENDBRANCH  19  20
ENDBRANCH  18  19
ENDBRANCH  16  18
ENDBRANCH  15  16
ENDBRANCH  14  15
BRANCH  14  27
HETATM   27  C   UNL     1      -8.008  12.677  67.300  1.00  0.00    -0.166 C  
BRANCH  27  28
HETATM   28  O   UNL     1      -8.191  11.568  68.191  1.00  0.00    -0.134 OA 
BRANCH  28  29
HETATM   29  C   UNL     1      -7.311  10.543  68.014  1.00  0.00    -0.089 C  
HETATM   30  O   UNL     1      -6.447  10.505  67.150  1.00  0.00    -0.068 OA 
BRANCH  29  31
HETATM   31  C   UNL     1      -7.552   9.468  69.044  1.00  0.00    -0.075 C  
BRANCH  31  32
HETATM   32  C   UNL     1      -8.735   9.802  69.945  1.00  0.00    -0.238 C  
BRANCH  32  33
HETATM   33  C   UNL     1      -9.946   8.892  69.703  1.00  0.00    -0.193 C  
BRANCH  33  34
HETATM   34  C   UNL     1     -11.103   9.323  70.566  1.00  0.00    -0.317 A  
HETATM   35  C   UNL     1     -13.368  10.053  72.044  1.00  0.00    -0.513 A  
HETATM   36  C   UNL     1     -11.665   8.431  71.490  1.00  0.00    -0.341 A  
HETATM   37  C   UNL     1     -12.792   8.796  72.226  1.00  0.00    -0.465 A  
HETATM   38  C   UNL     1     -12.809  10.950  71.135  1.00  0.00    -0.508 A  
HETATM   39  C   UNL     1     -11.681  10.588  70.400  1.00  0.00    -0.434 A  
ENDBRANCH  33  34
ENDBRANCH  32  33
ENDBRANCH  31  32
ENDBRANCH  29  31
ENDBRANCH  28  29
ENDBRANCH  27  28
ENDBRANCH  14  27
ENDBRANCH  13  14
ENDBRANCH  12  13
ENDBRANCH   2  12
TORSDOF 20
ENDMDL
MODEL      166
REMARK 921   NORMALIZED FREE ENERGY PREDICTED BY IDOCK:   -4.82 KCAL/MOL
REMARK 922        TOTAL FREE ENERGY PREDICTED BY IDOCK:  -15.15 KCAL/MOL
REMARK 923 INTER-LIGAND FREE ENERGY PREDICTED BY IDOCK:  -11.49 KCAL/MOL
REMARK 924 INTRA-LIGAND FREE ENERGY PREDICTED BY IDOCK:   -3.65 KCAL/MOL
REMARK 927      BINDING AFFINITY PREDICTED BY RF-SCORE:    0.00 PKD
ROOT
HETATM    1  O   UNL     1     -13.549  10.324  71.655  1.00  0.00    -0.269 OA 
HETATM    2  C   UNL     1     -12.490  10.181  71.060  1.00  0.00    -0.375 C  
ENDROOT
BRANCH   2   3
HETATM    3  C   UNL     1     -11.326   9.372  71.579  1.00  0.00    -0.464 C  
BRANCH   3   4
HETATM    4  C   UNL     1     -11.782   8.169  72.408  1.00  0.00    -0.461 C  
BRANCH   4   5
HETATM    5  C   UNL     1     -12.444   7.088  71.548  1.00  0.00    -0.426 C  
BRANCH   5   6
HETATM    6  C   UNL     1     -11.432   6.281  70.774  1.00  0.00    -0.383 A  
HETATM    7  C   UNL     1     -11.411   6.331  69.372  1.00  0.00    -0.448 A  
HETATM    8  C   UNL     1      -9.566   4.771  69.325  1.00  0.00    -0.243 A  
HETATM    9  C   UNL     1     -10.480   5.580  68.653  1.00  0.00    -0.240 A  
HETATM   10  C   UNL     1     -10.512   5.462  71.439  1.00  0.00    -0.294 A  
HETATM   11  C   UNL     1      -9.582   4.712  70.718  1.00  0.00    -0.251 A  
ENDBRANCH   5   6
ENDBRANCH   4   5
ENDBRANCH   3   4
ENDBRANCH   2   3
BRANCH   2  12
HETATM   12  O   UNL     1     -12.190  10.723  69.847  1.00  0.00    -0.318 OA 
BRANCH  12  13
HETATM   13  C   UNL     1     -10.827  11.145  69.651  1.00  0.00    -0.142 C  
BRANCH  13  14
HETATM   14  C   UNL     1     -10.579  11.435  68.167  1.00  0.00    -0.189 C  
BRANCH  14  15
HETATM   15  O   UNL     1     -11.850  11.589  67.502  1.00  0.00    -0.605 OA 
BRANCH  15  16
HETATM   16  C   UNL     1     -11.959  12.653  66.662  1.00  0.00    -0.312 C  
HETATM   17  O   UNL     1     -12.558  12.662  65.597  1.00  0.00    -0.611 OA 
BRANCH  16  18
HETATM   18  C   UNL     1     -11.202  13.830  67.223  1.00  0.00    -0.329 C  
BRANCH  18  19
HETATM   19  C   UNL     1     -12.015  14.578  68.274  1.00  0.00    -0.303 C  
BRANCH  19  20
HETATM   20  C   UNL     1     -11.148  15.186  69.382  1.00  0.00    -0.283 C  
BRANCH  20  21
HETATM   21  C   UNL     1     -11.879  15.111  70.698  1.00  0.00    -0.371 A  
HETATM   22  C   UNL     1     -13.050  14.851  73.228  1.00  0.00    -0.585 A  
HETATM   23  C   UNL     1     -12.705  14.017  70.988  1.00  0.00    -0.431 A  
HETATM   24  C   UNL     1     -11.663  16.084  71.683  1.00  0.00    -0.583 A  
HETATM   25  C   UNL     1     -13.289  13.891  72.249  1.00  0.00    -0.599 A  
HETATM   26  C   UNL     1     -12.245  15.953  72.943  1.00  0.00    -0.605 A  
ENDBRANCH  20  21
ENDBRANCH  19  20
ENDBRANCH  18  19
ENDBRANCH  16  18
ENDBRANCH  15  16
ENDBRANCH  14  15
BRANCH  14  27
HETATM   27  C   UNL     1      -9.838  10.275  67.494  1.00  0.00    -0.173 C  
BRANCH  27  28
HETATM   28  O   UNL     1      -8.709   9.851  68.272  1.00  0.00    -0.118 OA 
BRANCH  28  29
HETATM   29  C   UNL     1      -8.381   8.536  68.130  1.00  0.00    -0.127 C  
HETATM   30  O   UNL     1      -7.998   7.809  69.036  1.00  0.00    -0.118 OA 
BRANCH  29  31
HETATM   31  C   UNL     1      -8.567   8.105  66.697  1.00  0.00    -0.140 C  
BRANCH  31  32
HETATM   32  C   UNL     1      -7.425   7.215  66.220  1.00  0.00    -0.087 C  
BRANCH  32  33
HETATM   33  C   UNL     1      -7.850   6.244  65.110  1.00  0.00    -0.109 C  
BRANCH  33  34
HETATM   34  C   UNL     1      -8.083   4.869  65.682  1.00  0.00    -0.112 A  
HETATM   35  C   UNL     1      -8.612   2.394  66.882  1.00  0.00    -0.120 A  
HETATM   36  C   UNL     1      -9.252   4.163  65.366  1.00  0.00    -0.151 A  
HETATM   37  C   UNL     1      -9.514   2.930  65.964  1.00  0.00     0.026 A  
HETATM   38  C   UNL     1      -7.442   3.084  67.193  1.00  0.00    -0.070 A  
HETATM   39  C   UNL     1      -7.177   4.316  66.596  1.00  0.00    -0.075 A  
ENDBRANCH  33  34
ENDBRANCH  32  33
ENDBRANCH  31  32
ENDBRANCH  29  31
ENDBRANCH  28  29
ENDBRANCH  27  28
ENDBRANCH  14  27
ENDBRANCH  13  14
ENDBRANCH  12  13
ENDBRANCH   2  12
TORSDOF 20
ENDMDL
MODEL      167
REMARK 921   NORMALIZED FREE ENERGY PREDICTED BY IDOCK:   -4.81 KCAL/MOL
REMARK 922        TOTAL FREE ENERGY PREDICTED BY IDOCK:  -15.12 KCAL/MOL
REMARK 923 INTER-LIGAND FREE ENERGY PREDICTED BY IDOCK:   -9.20 KCAL/MOL
REMARK 924 INTRA-LIGAND FREE ENERGY PREDICTED BY IDOCK:   -5.93 KCAL/MOL
REMARK 927      BINDING AFFINITY PREDICTED BY RF-SCORE:    0.00 PKD
ROOT
HETATM    1  O   UNL     1     -13.874   8.961  72.431  1.00  0.00    -0.447 OA 
HETATM    2  C   UNL     1     -12.668   8.950  72.225  1.00  0.00    -0.397 C  
ENDROOT
BRANCH   2   3
HETATM    3  C   UNL     1     -11.921  10.042  71.499  1.00  0.00    -0.438 C  
BRANCH   3   4
HETATM    4  C   UNL     1     -12.747  10.654  70.367  1.00  0.00    -0.340 C  
BRANCH   4   5
HETATM    5  C   UNL     1     -11.907  10.919  69.112  1.00  0.00    -0.389 C  
BRANCH   5   6
HETATM    6  C   UNL     1     -11.809  12.391  68.797  1.00  0.00    -0.358 A  
HETATM    7  C   UNL     1     -11.872  13.340  69.827  1.00  0.00    -0.394 A  
HETATM    8  C   UNL     1     -11.645  15.130  68.219  1.00  0.00    -0.357 A  
HETATM    9  C   UNL     1     -11.787  14.703  69.538  1.00  0.00    -0.374 A  
HETATM   10  C   UNL     1     -11.670  12.831  67.475  1.00  0.00    -0.422 A  
HETATM   11  C   UNL     1     -11.587  14.194  67.188  1.00  0.00    -0.400 A  
ENDBRANCH   5   6
ENDBRANCH   4   5
ENDBRANCH   3   4
ENDBRANCH   2   3
BRANCH   2  12
HETATM   12  O   UNL     1     -11.814   7.962  72.610  1.00  0.00    -0.353 OA 
BRANCH  12  13
HETATM   13  C   UNL     1     -10.467   8.364  72.927  1.00  0.00    -0.031 C  
BRANCH  13  14
HETATM   14  C   UNL     1      -9.582   7.127  73.108  1.00  0.00    -0.174 C  
BRANCH  14  15
HETATM   15  O   UNL     1     -10.251   6.197  73.984  1.00  0.00    -0.244 OA 
BRANCH  15  16
HETATM   16  C   UNL     1     -10.079   4.878  73.700  1.00  0.00    -0.171 C  
HETATM   17  O   UNL     1      -9.702   4.023  74.487  1.00  0.00    -0.111 OA 
BRANCH  16  18
HETATM   18  C   UNL     1     -10.393   4.621  72.248  1.00  0.00    -0.251 C  
BRANCH  18  19
HETATM   19  C   UNL     1      -9.201   4.023  71.508  1.00  0.00    -0.190 C  
BRANCH  19  20
HETATM   20  C   UNL     1      -9.593   3.343  70.191  1.00  0.00    -0.211 C  
BRANCH  20  21
HETATM   21  C   UNL     1      -8.747   3.887  69.068  1.00  0.00    -0.133 A  
HETATM   22  C   UNL     1      -7.332   5.076  66.966  1.00  0.00    -0.082 A  
HETATM   23  C   UNL     1      -9.020   3.532  67.740  1.00  0.00    -0.171 A  
HETATM   24  C   UNL     1      -7.743   4.827  69.332  1.00  0.00    -0.063 A  
HETATM   25  C   UNL     1      -8.312   4.126  66.694  1.00  0.00    -0.101 A  
HETATM   26  C   UNL     1      -7.039   5.420  68.284  1.00  0.00    -0.066 A  
ENDBRANCH  20  21
ENDBRANCH  19  20
ENDBRANCH  18  19
ENDBRANCH  16  18
ENDBRANCH  15  16
ENDBRANCH  14  15
BRANCH  14  27
HETATM   27  C   UNL     1      -8.242   7.496  73.755  1.00  0.00    -0.163 C  
BRANCH  27  28
HETATM   28  O   UNL     1      -7.538   8.478  72.980  1.00  0.00    -0.306 OA 
BRANCH  28  29
HETATM   29  C   UNL     1      -6.693   7.965  72.042  1.00  0.00    -0.061 C  
HETATM   30  O   UNL     1      -6.256   6.823  72.044  1.00  0.00    -0.038 OA 
BRANCH  29  31
HETATM   31  C   UNL     1      -6.384   9.007  70.998  1.00  0.00    -0.061 C  
BRANCH  31  32
HETATM   32  C   UNL     1      -7.148   8.756  69.702  1.00  0.00    -0.054 C  
BRANCH  32  33
HETATM   33  C   UNL     1      -8.639   9.102  69.812  1.00  0.00    -0.144 C  
BRANCH  33  34
HETATM   34  C   UNL     1      -9.454   8.173  68.950  1.00  0.00    -0.151 A  
HETATM   35  C   UNL     1     -11.104   6.575  67.346  1.00  0.00    -0.411 A  
HETATM   36  C   UNL     1      -9.413   8.289  67.554  1.00  0.00    -0.182 A  
HETATM   37  C   UNL     1     -10.234   7.492  66.756  1.00  0.00    -0.324 A  
HETATM   38  C   UNL     1     -11.142   6.446  68.734  1.00  0.00    -0.404 A  
HETATM   39  C   UNL     1     -10.321   7.240  69.533  1.00  0.00    -0.230 A  
ENDBRANCH  33  34
ENDBRANCH  32  33
ENDBRANCH  31  32
ENDBRANCH  29  31
ENDBRANCH  28  29
ENDBRANCH  27  28
ENDBRANCH  14  27
ENDBRANCH  13  14
ENDBRANCH  12  13
ENDBRANCH   2  12
TORSDOF 20
ENDMDL
MODEL      168
REMARK 921   NORMALIZED FREE ENERGY PREDICTED BY IDOCK:   -4.81 KCAL/MOL
REMARK 922        TOTAL FREE ENERGY PREDICTED BY IDOCK:  -15.11 KCAL/MOL
REMARK 923 INTER-LIGAND FREE ENERGY PREDICTED BY IDOCK:  -11.03 KCAL/MOL
REMARK 924 INTRA-LIGAND FREE ENERGY PREDICTED BY IDOCK:   -4.08 KCAL/MOL
REMARK 927      BINDING AFFINITY PREDICTED BY RF-SCORE:    0.00 PKD
ROOT
HETATM    1  O   UNL     1      -6.216  13.383  70.280  1.00  0.00    -0.125 OA 
HETATM    2  C   UNL     1      -6.767  13.287  69.192  1.00  0.00    -0.092 C  
ENDROOT
BRANCH   2   3
HETATM    3  C   UNL     1      -7.418  14.439  68.466  1.00  0.00    -0.122 C  
BRANCH   3   4
HETATM    4  C   UNL     1      -8.172  15.370  69.417  1.00  0.00    -0.250 C  
BRANCH   4   5
HETATM    5  C   UNL     1      -9.502  15.850  68.826  1.00  0.00    -0.221 C  
BRANCH   5   6
HETATM    6  C   UNL     1      -9.456  17.306  68.435  1.00  0.00    -0.283 A  
HETATM    7  C   UNL     1     -10.591  17.931  67.900  1.00  0.00    -0.387 A  
HETATM    8  C   UNL     1      -9.373  20.008  67.689  1.00  0.00    -0.476 A  
HETATM    9  C   UNL     1     -10.549  19.277  67.532  1.00  0.00    -0.581 A  
HETATM   10  C   UNL     1      -8.278  18.049  68.586  1.00  0.00    -0.287 A  
HETATM   11  C   UNL     1      -8.238  19.394  68.216  1.00  0.00    -0.372 A  
ENDBRANCH   5   6
ENDBRANCH   4   5
ENDBRANCH   3   4
ENDBRANCH   2   3
BRANCH   2  12
HETATM   12  O   UNL     1      -6.884  12.140  68.467  1.00  0.00    -0.074 OA 
BRANCH  12  13
HETATM   13  C   UNL     1      -7.971  11.264  68.821  1.00  0.00    -0.137 C  
BRANCH  13  14
HETATM   14  C   UNL     1      -7.484   9.812  68.847  1.00  0.00    -0.075 C  
BRANCH  14  15
HETATM   15  O   UNL     1      -8.542   8.955  68.370  1.00  0.00    -0.132 OA 
BRANCH  15  16
HETATM   16  C   UNL     1      -8.461   8.574  67.067  1.00  0.00    -0.114 C  
HETATM   17  O   UNL     1      -7.447   8.203  66.495  1.00  0.00    -0.085 OA 
BRANCH  16  18
HETATM   18  C   UNL     1      -9.811   8.705  66.409  1.00  0.00    -0.341 C  
BRANCH  18  19
HETATM   19  C   UNL     1     -10.024  10.098  65.825  1.00  0.00    -0.339 C  
BRANCH  19  20
HETATM   20  C   UNL     1     -11.140  10.878  66.528  1.00  0.00    -0.119 C  
BRANCH  20  21
HETATM   21  C   UNL     1     -11.131  12.311  66.059  1.00  0.00    -0.347 A  
HETATM   22  C   UNL     1     -11.136  15.036  65.416  1.00  0.00    -0.377 A  
HETATM   23  C   UNL     1     -12.332  12.965  65.755  1.00  0.00    -0.437 A  
HETATM   24  C   UNL     1      -9.930  13.032  66.017  1.00  0.00    -0.277 A  
HETATM   25  C   UNL     1     -12.332  14.323  65.434  1.00  0.00    -0.421 A  
HETATM   26  C   UNL     1      -9.934  14.390  65.698  1.00  0.00    -0.365 A  
ENDBRANCH  20  21
ENDBRANCH  19  20
ENDBRANCH  18  19
ENDBRANCH  16  18
ENDBRANCH  15  16
ENDBRANCH  14  15
BRANCH  14  27
HETATM   27  C   UNL     1      -7.135   9.371  70.273  1.00  0.00    -0.097 C  
BRANCH  27  28
HETATM   28  O   UNL     1      -8.272   9.459  71.143  1.00  0.00    -0.314 OA 
BRANCH  28  29
HETATM   29  C   UNL     1      -8.721   8.262  71.616  1.00  0.00    -0.163 C  
HETATM   30  O   UNL     1      -8.338   7.168  71.227  1.00  0.00    -0.112 OA 
BRANCH  29  31
HETATM   31  C   UNL     1      -9.751   8.484  72.695  1.00  0.00    -0.285 C  
BRANCH  31  32
HETATM   32  C   UNL     1     -11.137   8.019  72.260  1.00  0.00    -0.393 C  
BRANCH  32  33
HETATM   33  C   UNL     1     -11.504   8.484  70.844  1.00  0.00    -0.302 C  
BRANCH  33  34
HETATM   34  C   UNL     1     -11.974   9.915  70.871  1.00  0.00    -0.434 A  
HETATM   35  C   UNL     1     -12.701  12.616  71.027  1.00  0.00    -0.316 A  
HETATM   36  C   UNL     1     -11.478  10.838  69.940  1.00  0.00    -0.398 A  
HETATM   37  C   UNL     1     -11.841  12.182  70.018  1.00  0.00    -0.383 A  
HETATM   38  C   UNL     1     -13.208  11.702  71.949  1.00  0.00    -0.475 A  
HETATM   39  C   UNL     1     -12.848  10.357  71.872  1.00  0.00    -0.519 A  
ENDBRANCH  33  34
ENDBRANCH  32  33
ENDBRANCH  31  32
ENDBRANCH  29  31
ENDBRANCH  28  29
ENDBRANCH  27  28
ENDBRANCH  14  27
ENDBRANCH  13  14
ENDBRANCH  12  13
ENDBRANCH   2  12
TORSDOF 20
ENDMDL
MODEL      169
REMARK 921   NORMALIZED FREE ENERGY PREDICTED BY IDOCK:   -4.80 KCAL/MOL
REMARK 922        TOTAL FREE ENERGY PREDICTED BY IDOCK:  -15.09 KCAL/MOL
REMARK 923 INTER-LIGAND FREE ENERGY PREDICTED BY IDOCK:  -12.08 KCAL/MOL
REMARK 924 INTRA-LIGAND FREE ENERGY PREDICTED BY IDOCK:   -3.01 KCAL/MOL
REMARK 927      BINDING AFFINITY PREDICTED BY RF-SCORE:    0.00 PKD
ROOT
HETATM    1  O   UNL     1      -9.480   6.159  67.209  1.00  0.00    -0.113 OA 
HETATM    2  C   UNL     1      -8.794   7.165  67.101  1.00  0.00    -0.121 C  
ENDROOT
BRANCH   2   3
HETATM    3  C   UNL     1      -7.447   7.349  67.760  1.00  0.00    -0.101 C  
BRANCH   3   4
HETATM    4  C   UNL     1      -7.571   7.642  69.256  1.00  0.00    -0.096 C  
BRANCH   4   5
HETATM    5  C   UNL     1      -7.953   6.396  70.063  1.00  0.00    -0.112 C  
BRANCH   5   6
HETATM    6  C   UNL     1      -8.926   6.714  71.170  1.00  0.00    -0.145 A  
HETATM    7  C   UNL     1      -8.606   7.677  72.137  1.00  0.00    -0.148 A  
HETATM    8  C   UNL     1     -10.721   7.300  73.243  1.00  0.00    -0.428 A  
HETATM    9  C   UNL     1      -9.502   7.969  73.167  1.00  0.00    -0.349 A  
HETATM   10  C   UNL     1     -10.152   6.044  71.258  1.00  0.00    -0.237 A  
HETATM   11  C   UNL     1     -11.046   6.337  72.288  1.00  0.00    -0.311 A  
ENDBRANCH   5   6
ENDBRANCH   4   5
ENDBRANCH   3   4
ENDBRANCH   2   3
BRANCH   2  12
HETATM   12  O   UNL     1      -9.126   8.272  66.380  1.00  0.00    -0.160 OA 
BRANCH  12  13
HETATM   13  C   UNL     1     -10.444   8.810  66.599  1.00  0.00    -0.170 C  
BRANCH  13  14
HETATM   14  C   UNL     1     -10.343  10.275  67.035  1.00  0.00    -0.243 C  
BRANCH  14  15
HETATM   15  O   UNL     1     -11.229  10.493  68.153  1.00  0.00    -0.282 OA 
BRANCH  15  16
HETATM   16  C   UNL     1     -10.760  10.107  69.370  1.00  0.00    -0.238 C  
HETATM   17  O   UNL     1      -9.600  10.184  69.744  1.00  0.00    -0.222 OA 
BRANCH  16  18
HETATM   18  C   UNL     1     -11.885   9.534  70.195  1.00  0.00    -0.036 C  
BRANCH  18  19
HETATM   19  C   UNL     1     -12.045  10.267  71.522  1.00  0.00    -0.407 C  
BRANCH  19  20
HETATM   20  C   UNL     1     -13.338  11.088  71.601  1.00  0.00    -0.344 C  
BRANCH  20  21
HETATM   21  C   UNL     1     -13.006  12.558  71.601  1.00  0.00    -0.405 A  
HETATM   22  C   UNL     1     -12.187  15.233  71.709  1.00  0.00    -0.430 A  
HETATM   23  C   UNL     1     -13.361  13.364  72.691  1.00  0.00    -0.501 A  
HETATM   24  C   UNL     1     -12.256  13.113  70.556  1.00  0.00    -0.405 A  
HETATM   25  C   UNL     1     -12.952  14.698  72.741  1.00  0.00    -0.564 A  
HETATM   26  C   UNL     1     -11.846  14.445  70.611  1.00  0.00    -0.361 A  
ENDBRANCH  20  21
ENDBRANCH  19  20
ENDBRANCH  18  19
ENDBRANCH  16  18
ENDBRANCH  15  16
ENDBRANCH  14  15
BRANCH  14  27
HETATM   27  C   UNL     1     -10.777  11.218  65.907  1.00  0.00    -0.232 C  
BRANCH  27  28
HETATM   28  O   UNL     1     -12.009  11.883  66.222  1.00  0.00    -0.554 OA 
BRANCH  28  29
HETATM   29  C   UNL     1     -12.078  13.180  65.811  1.00  0.00    -0.447 C  
HETATM   30  O   UNL     1     -13.022  13.674  65.211  1.00  0.00    -0.719 OA 
BRANCH  29  31
HETATM   31  C   UNL     1     -10.827  13.919  66.212  1.00  0.00    -0.290 C  
BRANCH  31  32
HETATM   32  C   UNL     1     -11.069  15.420  66.332  1.00  0.00    -0.230 C  
BRANCH  32  33
HETATM   33  C   UNL     1      -9.961  16.257  65.679  1.00  0.00    -0.306 C  
BRANCH  33  34
HETATM   34  C   UNL     1      -9.804  17.569  66.404  1.00  0.00    -0.316 A  
HETATM   35  C   UNL     1      -9.388  20.057  67.621  1.00  0.00    -0.476 A  
HETATM   36  C   UNL     1     -10.568  18.680  66.024  1.00  0.00    -0.410 A  
HETATM   37  C   UNL     1     -10.361  19.919  66.632  1.00  0.00    -0.608 A  
HETATM   38  C   UNL     1      -8.632  18.954  68.012  1.00  0.00    -0.330 A  
HETATM   39  C   UNL     1      -8.838  17.715  67.407  1.00  0.00    -0.235 A  
ENDBRANCH  33  34
ENDBRANCH  32  33
ENDBRANCH  31  32
ENDBRANCH  29  31
ENDBRANCH  28  29
ENDBRANCH  27  28
ENDBRANCH  14  27
ENDBRANCH  13  14
ENDBRANCH  12  13
ENDBRANCH   2  12
TORSDOF 20
ENDMDL
MODEL      170
REMARK 921   NORMALIZED FREE ENERGY PREDICTED BY IDOCK:   -4.79 KCAL/MOL
REMARK 922        TOTAL FREE ENERGY PREDICTED BY IDOCK:  -15.07 KCAL/MOL
REMARK 923 INTER-LIGAND FREE ENERGY PREDICTED BY IDOCK:  -10.66 KCAL/MOL
REMARK 924 INTRA-LIGAND FREE ENERGY PREDICTED BY IDOCK:   -4.42 KCAL/MOL
REMARK 927      BINDING AFFINITY PREDICTED BY RF-SCORE:    0.00 PKD
ROOT
HETATM    1  O   UNL     1      -7.181   8.824  68.987  1.00  0.00    -0.070 OA 
HETATM    2  C   UNL     1      -8.146   9.516  69.279  1.00  0.00    -0.103 C  
ENDROOT
BRANCH   2   3
HETATM    3  C   UNL     1      -8.216  11.009  69.064  1.00  0.00    -0.101 C  
BRANCH   3   4
HETATM    4  C   UNL     1      -9.281  11.395  68.035  1.00  0.00    -0.171 C  
BRANCH   4   5
HETATM    5  C   UNL     1      -9.411  12.914  67.876  1.00  0.00    -0.208 C  
BRANCH   5   6
HETATM    6  C   UNL     1     -10.346  13.287  66.753  1.00  0.00    -0.257 A  
HETATM    7  C   UNL     1     -10.140  14.467  66.024  1.00  0.00    -0.336 A  
HETATM    8  C   UNL     1     -12.091  13.999  64.676  1.00  0.00    -0.462 A  
HETATM    9  C   UNL     1     -11.007  14.818  64.989  1.00  0.00    -0.426 A  
HETATM   10  C   UNL     1     -11.440  12.473  66.434  1.00  0.00    -0.418 A  
HETATM   11  C   UNL     1     -12.306  12.827  65.399  1.00  0.00    -0.528 A  
ENDBRANCH   5   6
ENDBRANCH   4   5
ENDBRANCH   3   4
ENDBRANCH   2   3
BRANCH   2  12
HETATM   12  O   UNL     1      -9.299   9.062  69.843  1.00  0.00    -0.158 OA 
BRANCH  12  13
HETATM   13  C   UNL     1     -10.058   8.108  69.075  1.00  0.00    -0.205 C  
BRANCH  13  14
HETATM   14  C   UNL     1     -10.218   6.808  69.869  1.00  0.00    -0.190 C  
BRANCH  14  15
HETATM   15  O   UNL     1      -9.630   5.726  69.118  1.00  0.00    -0.128 OA 
BRANCH  15  16
HETATM   16  C   UNL     1      -8.353   5.394  69.449  1.00  0.00    -0.096 C  
HETATM   17  O   UNL     1      -7.933   5.221  70.583  1.00  0.00    -0.098 OA 
BRANCH  16  18
HETATM   18  C   UNL     1      -7.509   5.297  68.203  1.00  0.00    -0.076 C  
BRANCH  18  19
HETATM   19  C   UNL     1      -8.291   5.697  66.957  1.00  0.00    -0.107 C  
BRANCH  19  20
HETATM   20  C   UNL     1      -7.401   6.279  65.852  1.00  0.00    -0.080 C  
BRANCH  20  21
HETATM   21  C   UNL     1      -7.745   7.730  65.634  1.00  0.00    -0.101 A  
HETATM   22  C   UNL     1      -8.380  10.381  64.996  1.00  0.00    -0.166 A  
HETATM   23  C   UNL     1      -6.731   8.683  65.480  1.00  0.00    -0.063 A  
HETATM   24  C   UNL     1      -9.082   8.124  65.487  1.00  0.00    -0.021 A  
HETATM   25  C   UNL     1      -7.050  10.005  65.163  1.00  0.00    -0.135 A  
HETATM   26  C   UNL     1      -9.397   9.444  65.168  1.00  0.00    -0.288 A  
ENDBRANCH  20  21
ENDBRANCH  19  20
ENDBRANCH  18  19
ENDBRANCH  16  18
ENDBRANCH  15  16
ENDBRANCH  14  15
BRANCH  14  27
HETATM   27  C   UNL     1     -11.698   6.473  70.087  1.00  0.00    -0.353 C  
BRANCH  27  28
HETATM   28  O   UNL     1     -12.093   6.700  71.448  1.00  0.00    -0.339 OA 
BRANCH  28  29
HETATM   29  C   UNL     1     -13.093   7.612  71.608  1.00  0.00    -0.353 C  
HETATM   30  O   UNL     1     -14.287   7.354  71.565  1.00  0.00    -0.448 OA 
BRANCH  29  31
HETATM   31  C   UNL     1     -12.512   8.981  71.854  1.00  0.00    -0.454 C  
BRANCH  31  32
HETATM   32  C   UNL     1     -12.959   9.984  70.796  1.00  0.00    -0.330 C  
BRANCH  32  33
HETATM   33  C   UNL     1     -11.924  11.089  70.546  1.00  0.00    -0.474 C  
BRANCH  33  34
HETATM   34  C   UNL     1     -12.484  12.429  70.950  1.00  0.00    -0.367 A  
HETATM   35  C   UNL     1     -13.668  14.885  71.589  1.00  0.00    -0.527 A  
HETATM   36  C   UNL     1     -13.403  12.520  72.004  1.00  0.00    -0.528 A  
HETATM   37  C   UNL     1     -13.992  13.744  72.321  1.00  0.00    -0.672 A  
HETATM   38  C   UNL     1     -12.745  14.805  70.548  1.00  0.00    -0.397 A  
HETATM   39  C   UNL     1     -12.154  13.583  70.229  1.00  0.00    -0.425 A  
ENDBRANCH  33  34
ENDBRANCH  32  33
ENDBRANCH  31  32
ENDBRANCH  29  31
ENDBRANCH  28  29
ENDBRANCH  27  28
ENDBRANCH  14  27
ENDBRANCH  13  14
ENDBRANCH  12  13
ENDBRANCH   2  12
TORSDOF 20
ENDMDL
MODEL      171
REMARK 921   NORMALIZED FREE ENERGY PREDICTED BY IDOCK:   -4.79 KCAL/MOL
REMARK 922        TOTAL FREE ENERGY PREDICTED BY IDOCK:  -15.07 KCAL/MOL
REMARK 923 INTER-LIGAND FREE ENERGY PREDICTED BY IDOCK:  -11.31 KCAL/MOL
REMARK 924 INTRA-LIGAND FREE ENERGY PREDICTED BY IDOCK:   -3.76 KCAL/MOL
REMARK 927      BINDING AFFINITY PREDICTED BY RF-SCORE:    0.00 PKD
ROOT
HETATM    1  O   UNL     1      -8.679  16.968  68.173  1.00  0.00    -0.219 OA 
HETATM    2  C   UNL     1      -9.034  15.814  67.978  1.00  0.00    -0.178 C  
ENDROOT
BRANCH   2   3
HETATM    3  C   UNL     1      -8.256  14.814  67.157  1.00  0.00    -0.239 C  
BRANCH   3   4
HETATM    4  C   UNL     1      -7.920  13.550  67.952  1.00  0.00    -0.162 C  
BRANCH   4   5
HETATM    5  C   UNL     1      -8.304  12.271  67.200  1.00  0.00    -0.183 C  
BRANCH   5   6
HETATM    6  C   UNL     1      -7.772  11.034  67.878  1.00  0.00    -0.104 A  
HETATM    7  C   UNL     1      -8.506  10.419  68.902  1.00  0.00    -0.144 A  
HETATM    8  C   UNL     1      -6.784   8.743  69.158  1.00  0.00    -0.051 A  
HETATM    9  C   UNL     1      -8.014   9.277  69.536  1.00  0.00    -0.098 A  
HETATM   10  C   UNL     1      -6.535  10.492  67.509  1.00  0.00    -0.058 A  
HETATM   11  C   UNL     1      -6.045   9.351  68.144  1.00  0.00    -0.052 A  
ENDBRANCH   5   6
ENDBRANCH   4   5
ENDBRANCH   3   4
ENDBRANCH   2   3
BRANCH   2  12
HETATM   12  O   UNL     1     -10.175  15.249  68.461  1.00  0.00    -0.216 OA 
BRANCH  12  13
HETATM   13  C   UNL     1     -11.300  15.203  67.563  1.00  0.00    -0.320 C  
BRANCH  13  14
HETATM   14  C   UNL     1     -11.983  13.835  67.651  1.00  0.00    -0.356 C  
BRANCH  14  15
HETATM   15  O   UNL     1     -11.361  13.069  68.704  1.00  0.00    -0.252 OA 
BRANCH  15  16
HETATM   16  C   UNL     1     -11.881  11.833  68.930  1.00  0.00    -0.320 C  
HETATM   17  O   UNL     1     -12.034  10.960  68.089  1.00  0.00    -0.581 OA 
BRANCH  16  18
HETATM   18  C   UNL     1     -12.274  11.698  70.380  1.00  0.00    -0.434 C  
BRANCH  18  19
HETATM   19  C   UNL     1     -11.578  10.518  71.049  1.00  0.00    -0.318 C  
BRANCH  19  20
HETATM   20  C   UNL     1     -12.408   9.230  71.006  1.00  0.00    -0.300 C  
BRANCH  20  21
HETATM   21  C   UNL     1     -11.630   8.104  71.638  1.00  0.00    -0.325 A  
HETATM   22  C   UNL     1     -10.062   5.998  72.610  1.00  0.00    -0.198 A  
HETATM   23  C   UNL     1     -12.051   6.777  71.482  1.00  0.00    -0.410 A  
HETATM   24  C   UNL     1     -10.426   8.365  72.306  1.00  0.00    -0.407 A  
HETATM   25  C   UNL     1     -11.268   5.729  71.968  1.00  0.00    -0.307 A  
HETATM   26  C   UNL     1      -9.645   7.316  72.788  1.00  0.00    -0.198 A  
ENDBRANCH  20  21
ENDBRANCH  19  20
ENDBRANCH  18  19
ENDBRANCH  16  18
ENDBRANCH  15  16
ENDBRANCH  14  15
BRANCH  14  27
HETATM   27  C   UNL     1     -11.819  13.050  66.345  1.00  0.00    -0.405 C  
BRANCH  27  28
HETATM   28  O   UNL     1     -12.837  13.395  65.394  1.00  0.00    -0.594 OA 
BRANCH  28  29
HETATM   29  C   UNL     1     -12.375  13.695  64.148  1.00  0.00    -0.330 C  
HETATM   30  O   UNL     1     -12.414  14.805  63.636  1.00  0.00    -0.726 OA 
BRANCH  29  31
HETATM   31  C   UNL     1     -11.801  12.463  63.496  1.00  0.00    -0.605 C  
BRANCH  31  32
HETATM   32  C   UNL     1     -10.285  12.396  63.645  1.00  0.00    -0.383 C  
BRANCH  32  33
HETATM   33  C   UNL     1      -9.673  11.162  62.970  1.00  0.00    -0.384 C  
BRANCH  33  34
HETATM   34  C   UNL     1      -9.298  10.134  64.006  1.00  0.00    -0.339 A  
HETATM   35  C   UNL     1      -8.710   8.103  65.844  1.00  0.00    -0.184 A  
HETATM   36  C   UNL     1      -8.235   9.251  63.771  1.00  0.00    -0.166 A  
HETATM   37  C   UNL     1      -7.943   8.240  64.687  1.00  0.00    -0.145 A  
HETATM   38  C   UNL     1      -9.761   8.984  66.091  1.00  0.00    -0.354 A  
HETATM   39  C   UNL     1     -10.054   9.996  65.177  1.00  0.00    -0.268 A  
ENDBRANCH  33  34
ENDBRANCH  32  33
ENDBRANCH  31  32
ENDBRANCH  29  31
ENDBRANCH  28  29
ENDBRANCH  27  28
ENDBRANCH  14  27
ENDBRANCH  13  14
ENDBRANCH  12  13
ENDBRANCH   2  12
TORSDOF 20
ENDMDL
MODEL      172
REMARK 921   NORMALIZED FREE ENERGY PREDICTED BY IDOCK:   -4.79 KCAL/MOL
REMARK 922        TOTAL FREE ENERGY PREDICTED BY IDOCK:  -15.07 KCAL/MOL
REMARK 923 INTER-LIGAND FREE ENERGY PREDICTED BY IDOCK:  -11.30 KCAL/MOL
REMARK 924 INTRA-LIGAND FREE ENERGY PREDICTED BY IDOCK:   -3.77 KCAL/MOL
REMARK 927      BINDING AFFINITY PREDICTED BY RF-SCORE:    0.00 PKD
ROOT
HETATM    1  O   UNL     1     -11.031   6.159  66.899  1.00  0.00    -0.343 OA 
HETATM    2  C   UNL     1     -10.534   7.170  67.375  1.00  0.00    -0.284 C  
ENDROOT
BRANCH   2   3
HETATM    3  C   UNL     1      -9.719   8.167  66.587  1.00  0.00    -0.318 C  
BRANCH   3   4
HETATM    4  C   UNL     1     -10.416   9.524  66.475  1.00  0.00    -0.201 C  
BRANCH   4   5
HETATM    5  C   UNL     1     -10.026  10.274  65.196  1.00  0.00    -0.395 C  
BRANCH   5   6
HETATM    6  C   UNL     1     -10.864  11.510  64.987  1.00  0.00    -0.336 A  
HETATM    7  C   UNL     1     -11.250  11.893  63.694  1.00  0.00    -0.522 A  
HETATM    8  C   UNL     1     -12.406  13.818  64.586  1.00  0.00    -0.410 A  
HETATM    9  C   UNL     1     -12.019  13.040  63.497  1.00  0.00    -0.615 A  
HETATM   10  C   UNL     1     -11.255  12.301  66.075  1.00  0.00    -0.375 A  
HETATM   11  C   UNL     1     -12.024  13.448  65.875  1.00  0.00    -0.452 A  
ENDBRANCH   5   6
ENDBRANCH   4   5
ENDBRANCH   3   4
ENDBRANCH   2   3
BRANCH   2  12
HETATM   12  O   UNL     1     -10.630   7.556  68.677  1.00  0.00    -0.197 OA 
BRANCH  12  13
HETATM   13  C   UNL     1     -11.200   6.601  69.592  1.00  0.00    -0.340 C  
BRANCH  13  14
HETATM   14  C   UNL     1     -10.627   6.816  70.996  1.00  0.00    -0.222 C  
BRANCH  14  15
HETATM   15  O   UNL     1      -9.997   5.594  71.436  1.00  0.00    -0.175 OA 
BRANCH  15  16
HETATM   16  C   UNL     1      -8.638   5.586  71.428  1.00  0.00    -0.131 C  
HETATM   17  O   UNL     1      -7.931   4.591  71.361  1.00  0.00    -0.083 OA 
BRANCH  16  18
HETATM   18  C   UNL     1      -8.115   6.995  71.546  1.00  0.00    -0.104 C  
BRANCH  18  19
HETATM   19  C   UNL     1      -7.451   7.463  70.255  1.00  0.00    -0.083 C  
BRANCH  19  20
HETATM   20  C   UNL     1      -6.597   8.723  70.442  1.00  0.00    -0.042 C  
BRANCH  20  21
HETATM   21  C   UNL     1      -7.308   9.910  69.844  1.00  0.00    -0.147 A  
HETATM   22  C   UNL     1      -8.616  12.004  68.525  1.00  0.00    -0.093 A  
HETATM   23  C   UNL     1      -6.575  10.978  69.311  1.00  0.00    -0.091 A  
HETATM   24  C   UNL     1      -8.704   9.913  69.729  1.00  0.00    -0.229 A  
HETATM   25  C   UNL     1      -7.230  12.021  68.654  1.00  0.00    -0.110 A  
HETATM   26  C   UNL     1      -9.355  10.955  69.070  1.00  0.00    -0.144 A  
ENDBRANCH  20  21
ENDBRANCH  19  20
ENDBRANCH  18  19
ENDBRANCH  16  18
ENDBRANCH  15  16
ENDBRANCH  14  15
BRANCH  14  27
HETATM   27  C   UNL     1     -11.734   7.158  71.999  1.00  0.00    -0.289 C  
BRANCH  27  28
HETATM   28  O   UNL     1     -12.907   7.654  71.337  1.00  0.00    -0.337 OA 
BRANCH  28  29
HETATM   29  C   UNL     1     -13.434   8.786  71.885  1.00  0.00    -0.404 C  
HETATM   30  O   UNL     1     -13.871   8.873  73.023  1.00  0.00    -0.280 OA 
BRANCH  29  31
HETATM   31  C   UNL     1     -13.391   9.914  70.886  1.00  0.00    -0.256 C  
BRANCH  31  32
HETATM   32  C   UNL     1     -12.436  11.020  71.321  1.00  0.00    -0.475 C  
BRANCH  32  33
HETATM   33  C   UNL     1     -13.165  12.286  71.791  1.00  0.00    -0.428 C  
BRANCH  33  34
HETATM   34  C   UNL     1     -12.553  13.507  71.152  1.00  0.00    -0.438 A  
HETATM   35  C   UNL     1     -11.251  15.712  70.019  1.00  0.00    -0.332 A  
HETATM   36  C   UNL     1     -12.077  13.449  69.835  1.00  0.00    -0.389 A  
HETATM   37  C   UNL     1     -11.429  14.548  69.272  1.00  0.00    -0.322 A  
HETATM   38  C   UNL     1     -11.732  15.782  71.325  1.00  0.00    -0.496 A  
HETATM   39  C   UNL     1     -12.382  14.685  71.890  1.00  0.00    -0.410 A  
ENDBRANCH  33  34
ENDBRANCH  32  33
ENDBRANCH  31  32
ENDBRANCH  29  31
ENDBRANCH  28  29
ENDBRANCH  27  28
ENDBRANCH  14  27
ENDBRANCH  13  14
ENDBRANCH  12  13
ENDBRANCH   2  12
TORSDOF 20
ENDMDL
MODEL      173
REMARK 921   NORMALIZED FREE ENERGY PREDICTED BY IDOCK:   -4.79 KCAL/MOL
REMARK 922        TOTAL FREE ENERGY PREDICTED BY IDOCK:  -15.07 KCAL/MOL
REMARK 923 INTER-LIGAND FREE ENERGY PREDICTED BY IDOCK:  -10.98 KCAL/MOL
REMARK 924 INTRA-LIGAND FREE ENERGY PREDICTED BY IDOCK:   -4.09 KCAL/MOL
REMARK 927      BINDING AFFINITY PREDICTED BY RF-SCORE:    0.00 PKD
ROOT
HETATM    1  O   UNL     1     -13.269  10.575  70.593  1.00  0.00    -0.316 OA 
HETATM    2  C   UNL     1     -12.216  10.536  69.972  1.00  0.00    -0.250 C  
ENDROOT
BRANCH   2   3
HETATM    3  C   UNL     1     -10.927   9.974  70.522  1.00  0.00    -0.392 C  
BRANCH   3   4
HETATM    4  C   UNL     1     -11.170   8.870  71.552  1.00  0.00    -0.396 C  
BRANCH   4   5
HETATM    5  C   UNL     1     -12.048   7.742  70.999  1.00  0.00    -0.264 C  
BRANCH   5   6
HETATM    6  C   UNL     1     -11.240   6.525  70.630  1.00  0.00    -0.386 A  
HETATM    7  C   UNL     1     -10.784   5.649  71.626  1.00  0.00    -0.313 A  
HETATM    8  C   UNL     1      -9.720   4.267  69.954  1.00  0.00    -0.291 A  
HETATM    9  C   UNL     1     -10.030   4.525  71.288  1.00  0.00    -0.258 A  
HETATM   10  C   UNL     1     -10.919   6.258  69.293  1.00  0.00    -0.435 A  
HETATM   11  C   UNL     1     -10.165   5.133  68.957  1.00  0.00    -0.241 A  
ENDBRANCH   5   6
ENDBRANCH   4   5
ENDBRANCH   3   4
ENDBRANCH   2   3
BRANCH   2  12
HETATM   12  O   UNL     1     -12.034  10.990  68.701  1.00  0.00    -0.496 OA 
BRANCH  12  13
HETATM   13  C   UNL     1     -10.954  11.921  68.498  1.00  0.00    -0.235 C  
BRANCH  13  14
HETATM   14  C   UNL     1     -10.768  12.187  67.002  1.00  0.00    -0.238 C  
BRANCH  14  15
HETATM   15  O   UNL     1     -12.034  12.007  66.333  1.00  0.00    -0.611 OA 
BRANCH  15  16
HETATM   16  C   UNL     1     -12.449  13.040  65.552  1.00  0.00    -0.438 C  
HETATM   17  O   UNL     1     -13.018  12.936  64.476  1.00  0.00    -0.725 OA 
BRANCH  16  18
HETATM   18  C   UNL     1     -12.077  14.352  66.196  1.00  0.00    -0.373 C  
BRANCH  18  19
HETATM   19  C   UNL     1     -11.160  15.180  65.303  1.00  0.00    -0.389 C  
BRANCH  19  20
HETATM   20  C   UNL     1      -9.888  15.649  66.020  1.00  0.00    -0.362 C  
BRANCH  20  21
HETATM   21  C   UNL     1     -10.153  16.960  66.717  1.00  0.00    -0.294 A  
HETATM   22  C   UNL     1     -10.413  19.444  67.980  1.00  0.00    -0.512 A  
HETATM   23  C   UNL     1      -9.996  17.068  68.105  1.00  0.00    -0.287 A  
HETATM   24  C   UNL     1     -10.462  18.106  65.972  1.00  0.00    -0.346 A  
HETATM   25  C   UNL     1     -10.128  18.308  68.732  1.00  0.00    -0.393 A  
HETATM   26  C   UNL     1     -10.590  19.343  66.602  1.00  0.00    -0.566 A  
ENDBRANCH  20  21
ENDBRANCH  19  20
ENDBRANCH  18  19
ENDBRANCH  16  18
ENDBRANCH  15  16
ENDBRANCH  14  15
BRANCH  14  27
HETATM   27  C   UNL     1      -9.771  11.199  66.385  1.00  0.00    -0.204 C  
BRANCH  27  28
HETATM   28  O   UNL     1      -8.418  11.544  66.714  1.00  0.00    -0.159 OA 
BRANCH  28  29
HETATM   29  C   UNL     1      -7.586  10.481  66.895  1.00  0.00    -0.110 C  
HETATM   30  O   UNL     1      -7.040   9.858  65.995  1.00  0.00    -0.096 OA 
BRANCH  29  31
HETATM   31  C   UNL     1      -7.428  10.190  68.366  1.00  0.00    -0.086 C  
BRANCH  31  32
HETATM   32  C   UNL     1      -8.159   8.914  68.773  1.00  0.00    -0.114 C  
BRANCH  32  33
HETATM   33  C   UNL     1      -7.826   8.465  70.202  1.00  0.00    -0.102 C  
BRANCH  33  34
HETATM   34  C   UNL     1      -7.225   7.083  70.187  1.00  0.00    -0.075 A  
HETATM   35  C   UNL     1      -5.942   4.593  70.174  1.00  0.00    -0.017 A  
HETATM   36  C   UNL     1      -6.954   6.420  71.391  1.00  0.00    -0.076 A  
HETATM   37  C   UNL     1      -6.315   5.180  71.384  1.00  0.00    -0.030 A  
HETATM   38  C   UNL     1      -6.220   5.241  68.972  1.00  0.00    -0.033 A  
HETATM   39  C   UNL     1      -6.859   6.480  68.977  1.00  0.00    -0.066 A  
ENDBRANCH  33  34
ENDBRANCH  32  33
ENDBRANCH  31  32
ENDBRANCH  29  31
ENDBRANCH  28  29
ENDBRANCH  27  28
ENDBRANCH  14  27
ENDBRANCH  13  14
ENDBRANCH  12  13
ENDBRANCH   2  12
TORSDOF 20
ENDMDL
MODEL      174
REMARK 921   NORMALIZED FREE ENERGY PREDICTED BY IDOCK:   -4.79 KCAL/MOL
REMARK 922        TOTAL FREE ENERGY PREDICTED BY IDOCK:  -15.07 KCAL/MOL
REMARK 923 INTER-LIGAND FREE ENERGY PREDICTED BY IDOCK:  -10.85 KCAL/MOL
REMARK 924 INTRA-LIGAND FREE ENERGY PREDICTED BY IDOCK:   -4.21 KCAL/MOL
REMARK 927      BINDING AFFINITY PREDICTED BY RF-SCORE:    0.00 PKD
ROOT
HETATM    1  O   UNL     1      -6.774   8.003  68.841  1.00  0.00    -0.050 OA 
HETATM    2  C   UNL     1      -7.985   8.037  69.009  1.00  0.00    -0.114 C  
ENDROOT
BRANCH   2   3
HETATM    3  C   UNL     1      -8.784   6.931  69.656  1.00  0.00    -0.141 C  
BRANCH   3   4
HETATM    4  C   UNL     1     -10.283   7.063  69.382  1.00  0.00    -0.197 C  
BRANCH   4   5
HETATM    5  C   UNL     1     -11.132   6.705  70.607  1.00  0.00    -0.349 C  
BRANCH   5   6
HETATM    6  C   UNL     1     -11.964   7.870  71.079  1.00  0.00    -0.268 A  
HETATM    7  C   UNL     1     -11.463   9.177  70.994  1.00  0.00    -0.372 A  
HETATM    8  C   UNL     1     -13.497  10.042  71.970  1.00  0.00    -0.448 A  
HETATM    9  C   UNL     1     -12.228  10.257  71.436  1.00  0.00    -0.481 A  
HETATM   10  C   UNL     1     -13.239   7.665  71.621  1.00  0.00    -0.395 A  
HETATM   11  C   UNL     1     -14.002   8.746  72.063  1.00  0.00    -0.511 A  
ENDBRANCH   5   6
ENDBRANCH   4   5
ENDBRANCH   3   4
ENDBRANCH   2   3
BRANCH   2  12
HETATM   12  O   UNL     1      -8.803   9.062  68.642  1.00  0.00    -0.135 OA 
BRANCH  12  13
HETATM   13  C   UNL     1      -8.453  10.371  69.132  1.00  0.00    -0.164 C  
BRANCH  13  14
HETATM   14  C   UNL     1      -8.720  11.422  68.051  1.00  0.00    -0.148 C  
BRANCH  14  15
HETATM   15  O   UNL     1      -9.977  11.122  67.408  1.00  0.00    -0.176 OA 
BRANCH  15  16
HETATM   16  C   UNL     1     -11.078  11.714  67.943  1.00  0.00    -0.247 C  
HETATM   17  O   UNL     1     -12.171  11.188  68.086  1.00  0.00    -0.612 OA 
BRANCH  16  18
HETATM   18  C   UNL     1     -10.764  13.142  68.313  1.00  0.00    -0.261 C  
BRANCH  18  19
HETATM   19  C   UNL     1     -12.031  13.954  68.560  1.00  0.00    -0.394 C  
BRANCH  19  20
HETATM   20  C   UNL     1     -11.762  15.279  69.282  1.00  0.00    -0.359 C  
BRANCH  20  21
HETATM   21  C   UNL     1     -12.225  15.181  70.713  1.00  0.00    -0.392 A  
HETATM   22  C   UNL     1     -12.884  14.877  73.417  1.00  0.00    -0.638 A  
HETATM   23  C   UNL     1     -12.989  14.086  71.137  1.00  0.00    -0.402 A  
HETATM   24  C   UNL     1     -11.813  16.133  71.655  1.00  0.00    -0.557 A  
HETATM   25  C   UNL     1     -13.317  13.938  72.486  1.00  0.00    -0.656 A  
HETATM   26  C   UNL     1     -12.141  15.981  73.002  1.00  0.00    -0.628 A  
ENDBRANCH  20  21
ENDBRANCH  19  20
ENDBRANCH  18  19
ENDBRANCH  16  18
ENDBRANCH  15  16
ENDBRANCH  14  15
BRANCH  14  27
HETATM   27  C   UNL     1      -7.628  11.398  66.975  1.00  0.00    -0.151 C  
BRANCH  27  28
HETATM   28  O   UNL     1      -8.026  10.614  65.840  1.00  0.00    -0.154 OA 
BRANCH  28  29
HETATM   29  C   UNL     1      -7.002   9.999  65.185  1.00  0.00    -0.134 C  
HETATM   30  O   UNL     1      -5.816  10.240  65.359  1.00  0.00    -0.087 OA 
BRANCH  29  31
HETATM   31  C   UNL     1      -7.544   8.972  64.223  1.00  0.00    -0.117 C  
BRANCH  31  32
HETATM   32  C   UNL     1      -8.221   7.816  64.950  1.00  0.00    -0.111 C  
BRANCH  32  33
HETATM   33  C   UNL     1      -7.220   6.824  65.556  1.00  0.00    -0.077 C  
BRANCH  33  34
HETATM   34  C   UNL     1      -7.951   5.675  66.201  1.00  0.00    -0.106 A  
HETATM   35  C   UNL     1      -9.358   3.654  67.538  1.00  0.00    -0.244 A  
HETATM   36  C   UNL     1      -9.320   5.489  65.966  1.00  0.00    -0.161 A  
HETATM   37  C   UNL     1     -10.020   4.482  66.632  1.00  0.00    -0.253 A  
HETATM   38  C   UNL     1      -7.994   3.825  67.768  1.00  0.00    -0.085 A  
HETATM   39  C   UNL     1      -7.292   4.829  67.103  1.00  0.00    -0.078 A  
ENDBRANCH  33  34
ENDBRANCH  32  33
ENDBRANCH  31  32
ENDBRANCH  29  31
ENDBRANCH  28  29
ENDBRANCH  27  28
ENDBRANCH  14  27
ENDBRANCH  13  14
ENDBRANCH  12  13
ENDBRANCH   2  12
TORSDOF 20
ENDMDL
MODEL      175
REMARK 921   NORMALIZED FREE ENERGY PREDICTED BY IDOCK:   -4.78 KCAL/MOL
REMARK 922        TOTAL FREE ENERGY PREDICTED BY IDOCK:  -15.05 KCAL/MOL
REMARK 923 INTER-LIGAND FREE ENERGY PREDICTED BY IDOCK:  -11.75 KCAL/MOL
REMARK 924 INTRA-LIGAND FREE ENERGY PREDICTED BY IDOCK:   -3.31 KCAL/MOL
REMARK 927      BINDING AFFINITY PREDICTED BY RF-SCORE:    0.00 PKD
ROOT
HETATM    1  O   UNL     1      -6.667   8.989  69.562  1.00  0.00    -0.046 OA 
HETATM    2  C   UNL     1      -7.635   8.275  69.783  1.00  0.00    -0.092 C  
ENDROOT
BRANCH   2   3
HETATM    3  C   UNL     1      -7.844   7.500  71.062  1.00  0.00    -0.091 C  
BRANCH   3   4
HETATM    4  C   UNL     1      -8.117   8.416  72.256  1.00  0.00    -0.186 C  
BRANCH   4   5
HETATM    5  C   UNL     1      -9.135   7.813  73.230  1.00  0.00    -0.303 C  
BRANCH   5   6
HETATM    6  C   UNL     1     -10.512   7.719  72.623  1.00  0.00    -0.363 A  
HETATM    7  C   UNL     1     -11.222   6.510  72.663  1.00  0.00    -0.284 A  
HETATM    8  C   UNL     1     -13.066   7.529  71.481  1.00  0.00    -0.402 A  
HETATM    9  C   UNL     1     -12.494   6.418  72.096  1.00  0.00    -0.173 A  
HETATM   10  C   UNL     1     -11.096   8.829  71.998  1.00  0.00    -0.441 A  
HETATM   11  C   UNL     1     -12.367   8.734  71.432  1.00  0.00    -0.353 A  
ENDBRANCH   5   6
ENDBRANCH   4   5
ENDBRANCH   3   4
ENDBRANCH   2   3
BRANCH   2  12
HETATM   12  O   UNL     1      -8.669   8.063  68.923  1.00  0.00    -0.130 OA 
BRANCH  12  13
HETATM   13  C   UNL     1      -8.573   8.696  67.632  1.00  0.00    -0.136 C  
BRANCH  13  14
HETATM   14  C   UNL     1      -9.172  10.103  67.695  1.00  0.00    -0.141 C  
BRANCH  14  15
HETATM   15  O   UNL     1     -10.277  10.183  66.770  1.00  0.00    -0.212 OA 
BRANCH  15  16
HETATM   16  C   UNL     1     -11.247  11.086  67.075  1.00  0.00    -0.181 C  
HETATM   17  O   UNL     1     -11.719  11.911  66.307  1.00  0.00    -0.506 OA 
BRANCH  16  18
HETATM   18  C   UNL     1     -11.644  10.944  68.522  1.00  0.00    -0.360 C  
BRANCH  18  19
HETATM   19  C   UNL     1     -11.850  12.300  69.188  1.00  0.00    -0.355 C  
BRANCH  19  20
HETATM   20  C   UNL     1     -12.121  12.194  70.694  1.00  0.00    -0.344 C  
BRANCH  20  21
HETATM   21  C   UNL     1     -12.437  13.559  71.250  1.00  0.00    -0.388 A  
HETATM   22  C   UNL     1     -12.864  16.050  72.454  1.00  0.00    -0.470 A  
HETATM   23  C   UNL     1     -13.431  13.713  72.226  1.00  0.00    -0.652 A  
HETATM   24  C   UNL     1     -11.675  14.671  70.869  1.00  0.00    -0.335 A  
HETATM   25  C   UNL     1     -13.642  14.956  72.824  1.00  0.00    -0.537 A  
HETATM   26  C   UNL     1     -11.887  15.911  71.470  1.00  0.00    -0.536 A  
ENDBRANCH  20  21
ENDBRANCH  19  20
ENDBRANCH  18  19
ENDBRANCH  16  18
ENDBRANCH  15  16
ENDBRANCH  14  15
BRANCH  14  27
HETATM   27  C   UNL     1      -8.142  11.162  67.283  1.00  0.00    -0.137 C  
BRANCH  27  28
HETATM   28  O   UNL     1      -7.920  12.115  68.332  1.00  0.00    -0.147 OA 
BRANCH  28  29
HETATM   29  C   UNL     1      -7.789  13.405  67.913  1.00  0.00    -0.152 C  
HETATM   30  O   UNL     1      -6.875  13.825  67.219  1.00  0.00    -0.194 OA 
BRANCH  29  31
HETATM   31  C   UNL     1      -8.940  14.235  68.422  1.00  0.00    -0.189 C  
BRANCH  31  32
HETATM   32  C   UNL     1      -8.902  15.656  67.870  1.00  0.00    -0.171 C  
BRANCH  32  33
HETATM   33  C   UNL     1      -9.277  16.713  68.917  1.00  0.00    -0.244 C  
BRANCH  33  34
HETATM   34  C   UNL     1      -9.475  18.053  68.256  1.00  0.00    -0.305 A  
HETATM   35  C   UNL     1      -9.738  20.483  66.888  1.00  0.00    -0.516 A  
HETATM   36  C   UNL     1     -10.502  18.232  67.319  1.00  0.00    -0.419 A  
HETATM   37  C   UNL     1     -10.633  19.442  66.639  1.00  0.00    -0.566 A  
HETATM   38  C   UNL     1      -8.722  20.317  67.827  1.00  0.00    -0.292 A  
HETATM   39  C   UNL     1      -8.590  19.108  68.509  1.00  0.00    -0.398 A  
ENDBRANCH  33  34
ENDBRANCH  32  33
ENDBRANCH  31  32
ENDBRANCH  29  31
ENDBRANCH  28  29
ENDBRANCH  27  28
ENDBRANCH  14  27
ENDBRANCH  13  14
ENDBRANCH  12  13
ENDBRANCH   2  12
TORSDOF 20
ENDMDL
MODEL      176
REMARK 921   NORMALIZED FREE ENERGY PREDICTED BY IDOCK:   -4.78 KCAL/MOL
REMARK 922        TOTAL FREE ENERGY PREDICTED BY IDOCK:  -15.05 KCAL/MOL
REMARK 923 INTER-LIGAND FREE ENERGY PREDICTED BY IDOCK:  -10.49 KCAL/MOL
REMARK 924 INTRA-LIGAND FREE ENERGY PREDICTED BY IDOCK:   -4.55 KCAL/MOL
REMARK 927      BINDING AFFINITY PREDICTED BY RF-SCORE:    0.00 PKD
ROOT
HETATM    1  O   UNL     1      -6.770  12.807  69.071  1.00  0.00    -0.095 OA 
HETATM    2  C   UNL     1      -7.622  13.274  68.329  1.00  0.00    -0.139 C  
ENDROOT
BRANCH   2   3
HETATM    3  C   UNL     1      -7.358  14.353  67.306  1.00  0.00    -0.070 C  
BRANCH   3   4
HETATM    4  C   UNL     1      -6.292  15.345  67.774  1.00  0.00    -0.182 C  
BRANCH   4   5
HETATM    5  C   UNL     1      -6.899  16.547  68.505  1.00  0.00    -0.151 C  
BRANCH   5   6
HETATM    6  C   UNL     1      -6.790  17.816  67.697  1.00  0.00    -0.189 A  
HETATM    7  C   UNL     1      -6.628  19.052  68.339  1.00  0.00    -0.272 A  
HETATM    8  C   UNL     1      -6.604  20.182  66.203  1.00  0.00    -0.252 A  
HETATM    9  C   UNL     1      -6.533  20.228  67.594  1.00  0.00    -0.281 A  
HETATM   10  C   UNL     1      -6.864  17.781  66.299  1.00  0.00    -0.308 A  
HETATM   11  C   UNL     1      -6.770  18.958  65.556  1.00  0.00    -0.292 A  
ENDBRANCH   5   6
ENDBRANCH   4   5
ENDBRANCH   3   4
ENDBRANCH   2   3
BRANCH   2  12
HETATM   12  O   UNL     1      -8.933  12.905  68.305  1.00  0.00    -0.194 OA 
BRANCH  12  13
HETATM   13  C   UNL     1      -9.215  11.562  67.866  1.00  0.00    -0.168 C  
BRANCH  13  14
HETATM   14  C   UNL     1     -10.591  11.124  68.376  1.00  0.00    -0.193 C  
BRANCH  14  15
HETATM   15  O   UNL     1     -10.946   9.873  67.751  1.00  0.00    -0.282 OA 
BRANCH  15  16
HETATM   16  C   UNL     1     -10.286   8.773  68.201  1.00  0.00    -0.205 C  
HETATM   17  O   UNL     1      -9.973   8.553  69.361  1.00  0.00    -0.185 OA 
BRANCH  16  18
HETATM   18  C   UNL     1      -9.962   7.861  67.044  1.00  0.00    -0.322 C  
BRANCH  18  19
HETATM   19  C   UNL     1     -10.931   6.686  66.960  1.00  0.00    -0.463 C  
BRANCH  19  20
HETATM   20  C   UNL     1     -10.357   5.392  67.546  1.00  0.00    -0.246 C  
BRANCH  20  21
HETATM   21  C   UNL     1      -9.173   4.945  66.727  1.00  0.00    -0.122 A  
HETATM   22  C   UNL     1      -7.037   3.892  65.256  1.00  0.00    -0.063 A  
HETATM   23  C   UNL     1      -7.928   4.738  67.335  1.00  0.00    -0.094 A  
HETATM   24  C   UNL     1      -9.330   4.639  65.369  1.00  0.00    -0.160 A  
HETATM   25  C   UNL     1      -6.864   4.214  66.599  1.00  0.00    -0.055 A  
HETATM   26  C   UNL     1      -8.266   4.113  64.637  1.00  0.00    -0.098 A  
ENDBRANCH  20  21
ENDBRANCH  19  20
ENDBRANCH  18  19
ENDBRANCH  16  18
ENDBRANCH  15  16
ENDBRANCH  14  15
BRANCH  14  27
HETATM   27  C   UNL     1     -11.669  12.151  68.010  1.00  0.00    -0.344 C  
BRANCH  27  28
HETATM   28  O   UNL     1     -12.150  11.952  66.673  1.00  0.00    -0.587 OA 
BRANCH  28  29
HETATM   29  C   UNL     1     -12.026  13.036  65.855  1.00  0.00    -0.435 C  
HETATM   30  O   UNL     1     -11.853  12.983  64.647  1.00  0.00    -0.338 OA 
BRANCH  29  31
HETATM   31  C   UNL     1     -12.144  14.307  66.658  1.00  0.00    -0.448 C  
BRANCH  31  32
HETATM   32  C   UNL     1     -10.974  15.250  66.399  1.00  0.00    -0.299 C  
BRANCH  32  33
HETATM   33  C   UNL     1     -10.493  15.966  67.668  1.00  0.00    -0.289 C  
BRANCH  33  34
HETATM   34  C   UNL     1     -10.468  17.457  67.447  1.00  0.00    -0.336 A  
HETATM   35  C   UNL     1     -10.239  20.215  67.017  1.00  0.00    -0.558 A  
HETATM   36  C   UNL     1     -10.517  17.978  66.147  1.00  0.00    -0.336 A  
HETATM   37  C   UNL     1     -10.403  19.352  65.934  1.00  0.00    -0.536 A  
HETATM   38  C   UNL     1     -10.202  19.706  68.314  1.00  0.00    -0.567 A  
HETATM   39  C   UNL     1     -10.317  18.333  68.529  1.00  0.00    -0.341 A  
ENDBRANCH  33  34
ENDBRANCH  32  33
ENDBRANCH  31  32
ENDBRANCH  29  31
ENDBRANCH  28  29
ENDBRANCH  27  28
ENDBRANCH  14  27
ENDBRANCH  13  14
ENDBRANCH  12  13
ENDBRANCH   2  12
TORSDOF 20
ENDMDL
MODEL      177
REMARK 921   NORMALIZED FREE ENERGY PREDICTED BY IDOCK:   -4.77 KCAL/MOL
REMARK 922        TOTAL FREE ENERGY PREDICTED BY IDOCK:  -15.04 KCAL/MOL
REMARK 923 INTER-LIGAND FREE ENERGY PREDICTED BY IDOCK:  -12.18 KCAL/MOL
REMARK 924 INTRA-LIGAND FREE ENERGY PREDICTED BY IDOCK:   -2.86 KCAL/MOL
REMARK 927      BINDING AFFINITY PREDICTED BY RF-SCORE:    0.00 PKD
ROOT
HETATM    1  O   UNL     1     -10.540   7.879  69.194  1.00  0.00    -0.219 OA 
HETATM    2  C   UNL     1     -10.354   9.030  69.561  1.00  0.00    -0.209 C  
ENDROOT
BRANCH   2   3
HETATM    3  C   UNL     1     -10.402   9.481  71.001  1.00  0.00    -0.353 C  
BRANCH   3   4
HETATM    4  C   UNL     1     -11.832   9.545  71.540  1.00  0.00    -0.478 C  
BRANCH   4   5
HETATM    5  C   UNL     1     -12.751  10.386  70.647  1.00  0.00    -0.417 C  
BRANCH   5   6
HETATM    6  C   UNL     1     -12.702  11.850  71.003  1.00  0.00    -0.354 A  
HETATM    7  C   UNL     1     -13.339  12.318  72.162  1.00  0.00    -0.473 A  
HETATM    8  C   UNL     1     -12.632  14.575  71.664  1.00  0.00    -0.419 A  
HETATM    9  C   UNL     1     -13.301  13.674  72.491  1.00  0.00    -0.638 A  
HETATM   10  C   UNL     1     -12.036  12.765  70.178  1.00  0.00    -0.370 A  
HETATM   11  C   UNL     1     -12.000  14.120  70.508  1.00  0.00    -0.393 A  
ENDBRANCH   5   6
ENDBRANCH   4   5
ENDBRANCH   3   4
ENDBRANCH   2   3
BRANCH   2  12
HETATM   12  O   UNL     1     -10.078  10.083  68.742  1.00  0.00    -0.170 OA 
BRANCH  12  13
HETATM   13  C   UNL     1     -10.966  10.278  67.624  1.00  0.00    -0.294 C  
BRANCH  13  14
HETATM   14  C   UNL     1     -10.159  10.350  66.324  1.00  0.00    -0.231 C  
BRANCH  14  15
HETATM   15  O   UNL     1      -8.802  10.727  66.635  1.00  0.00    -0.140 OA 
BRANCH  15  16
HETATM   16  C   UNL     1      -7.826   9.993  66.037  1.00  0.00    -0.119 C  
HETATM   17  O   UNL     1      -6.803  10.438  65.539  1.00  0.00    -0.129 OA 
BRANCH  16  18
HETATM   18  C   UNL     1      -8.202   8.532  66.048  1.00  0.00    -0.118 C  
BRANCH  18  19
HETATM   19  C   UNL     1      -7.004   7.641  66.358  1.00  0.00    -0.066 C  
BRANCH  19  20
HETATM   20  C   UNL     1      -7.401   6.301  66.989  1.00  0.00    -0.083 C  
BRANCH  20  21
HETATM   21  C   UNL     1      -8.360   5.576  66.080  1.00  0.00    -0.122 A  
HETATM   22  C   UNL     1     -10.069   4.027  64.494  1.00  0.00    -0.209 A  
HETATM   23  C   UNL     1      -7.933   5.103  64.832  1.00  0.00    -0.102 A  
HETATM   24  C   UNL     1      -9.660   5.284  66.514  1.00  0.00    -0.166 A  
HETATM   25  C   UNL     1      -8.788   4.331  64.043  1.00  0.00    -0.138 A  
HETATM   26  C   UNL     1     -10.510   4.511  65.724  1.00  0.00    -0.268 A  
ENDBRANCH  20  21
ENDBRANCH  19  20
ENDBRANCH  18  19
ENDBRANCH  16  18
ENDBRANCH  15  16
ENDBRANCH  14  15
BRANCH  14  27
HETATM   27  C   UNL     1     -10.732  11.411  65.376  1.00  0.00    -0.253 C  
BRANCH  27  28
HETATM   28  O   UNL     1     -11.938  11.986  65.900  1.00  0.00    -0.540 OA 
BRANCH  28  29
HETATM   29  C   UNL     1     -12.629  12.761  65.018  1.00  0.00    -0.468 C  
HETATM   30  O   UNL     1     -13.154  12.355  63.992  1.00  0.00    -0.763 OA 
BRANCH  29  31
HETATM   31  C   UNL     1     -12.659  14.191  65.496  1.00  0.00    -0.501 C  
BRANCH  31  32
HETATM   32  C   UNL     1     -11.927  14.359  66.824  1.00  0.00    -0.423 C  
BRANCH  32  33
HETATM   33  C   UNL     1     -10.500  14.894  66.654  1.00  0.00    -0.292 C  
BRANCH  33  34
HETATM   34  C   UNL     1     -10.462  16.375  66.932  1.00  0.00    -0.289 A  
HETATM   35  C   UNL     1     -10.207  19.118  67.439  1.00  0.00    -0.490 A  
HETATM   36  C   UNL     1     -10.415  17.291  65.872  1.00  0.00    -0.267 A  
HETATM   37  C   UNL     1     -10.289  18.656  66.126  1.00  0.00    -0.481 A  
HETATM   38  C   UNL     1     -10.266  18.215  68.499  1.00  0.00    -0.399 A  
HETATM   39  C   UNL     1     -10.393  16.850  68.248  1.00  0.00    -0.335 A  
ENDBRANCH  33  34
ENDBRANCH  32  33
ENDBRANCH  31  32
ENDBRANCH  29  31
ENDBRANCH  28  29
ENDBRANCH  27  28
ENDBRANCH  14  27
ENDBRANCH  13  14
ENDBRANCH  12  13
ENDBRANCH   2  12
TORSDOF 20
ENDMDL
MODEL      178
REMARK 921   NORMALIZED FREE ENERGY PREDICTED BY IDOCK:   -4.77 KCAL/MOL
REMARK 922        TOTAL FREE ENERGY PREDICTED BY IDOCK:  -15.03 KCAL/MOL
REMARK 923 INTER-LIGAND FREE ENERGY PREDICTED BY IDOCK:  -10.62 KCAL/MOL
REMARK 924 INTRA-LIGAND FREE ENERGY PREDICTED BY IDOCK:   -4.41 KCAL/MOL
REMARK 927      BINDING AFFINITY PREDICTED BY RF-SCORE:    0.00 PKD
ROOT
HETATM    1  O   UNL     1     -13.216  11.324  71.941  1.00  0.00    -0.482 OA 
HETATM    2  C   UNL     1     -12.600  10.555  71.216  1.00  0.00    -0.426 C  
ENDROOT
BRANCH   2   3
HETATM    3  C   UNL     1     -11.790   9.382  71.715  1.00  0.00    -0.452 C  
BRANCH   3   4
HETATM    4  C   UNL     1     -12.434   8.041  71.359  1.00  0.00    -0.320 C  
BRANCH   4   5
HETATM    5  C   UNL     1     -11.467   7.111  70.618  1.00  0.00    -0.346 C  
BRANCH   5   6
HETATM    6  C   UNL     1     -10.531   6.399  71.562  1.00  0.00    -0.256 A  
HETATM    7  C   UNL     1      -9.224   6.872  71.752  1.00  0.00    -0.143 A  
HETATM    8  C   UNL     1      -8.777   5.072  73.301  1.00  0.00    -0.111 A  
HETATM    9  C   UNL     1      -8.354   6.211  72.620  1.00  0.00    -0.121 A  
HETATM   10  C   UNL     1     -10.945   5.251  72.248  1.00  0.00    -0.249 A  
HETATM   11  C   UNL     1     -10.072   4.592  73.115  1.00  0.00    -0.204 A  
ENDBRANCH   5   6
ENDBRANCH   4   5
ENDBRANCH   3   4
ENDBRANCH   2   3
BRANCH   2  12
HETATM   12  O   UNL     1     -12.542  10.630  69.858  1.00  0.00    -0.277 OA 
BRANCH  12  13
HETATM   13  C   UNL     1     -11.258  10.944  69.285  1.00  0.00    -0.265 C  
BRANCH  13  14
HETATM   14  C   UNL     1     -11.230  10.534  67.810  1.00  0.00    -0.273 C  
BRANCH  14  15
HETATM   15  O   UNL     1      -9.914  10.041  67.485  1.00  0.00    -0.174 OA 
BRANCH  15  16
HETATM   16  C   UNL     1      -9.856   9.077  66.527  1.00  0.00    -0.268 C  
HETATM   17  O   UNL     1      -9.310   9.185  65.440  1.00  0.00    -0.234 OA 
BRANCH  16  18
HETATM   18  C   UNL     1     -10.598   7.849  66.990  1.00  0.00    -0.381 C  
BRANCH  18  19
HETATM   19  C   UNL     1      -9.741   6.593  66.873  1.00  0.00    -0.209 C  
BRANCH  19  20
HETATM   20  C   UNL     1      -8.516   6.615  67.794  1.00  0.00    -0.122 C  
BRANCH  20  21
HETATM   21  C   UNL     1      -8.427   5.316  68.553  1.00  0.00    -0.092 A  
HETATM   22  C   UNL     1      -8.331   3.023  70.157  1.00  0.00    -0.076 A  
HETATM   23  C   UNL     1      -7.240   4.956  69.204  1.00  0.00    -0.053 A  
HETATM   24  C   UNL     1      -9.559   4.504  68.697  1.00  0.00    -0.222 A  
HETATM   25  C   UNL     1      -7.194   3.812  70.002  1.00  0.00    -0.042 A  
HETATM   26  C   UNL     1      -9.511   3.362  69.497  1.00  0.00    -0.219 A  
ENDBRANCH  20  21
ENDBRANCH  19  20
ENDBRANCH  18  19
ENDBRANCH  16  18
ENDBRANCH  15  16
ENDBRANCH  14  15
BRANCH  14  27
HETATM   27  C   UNL     1     -11.517  11.733  66.898  1.00  0.00    -0.293 C  
BRANCH  27  28
HETATM   28  O   UNL     1     -10.680  12.852  67.223  1.00  0.00    -0.242 OA 
BRANCH  28  29
HETATM   29  C   UNL     1     -11.294  14.066  67.140  1.00  0.00    -0.331 C  
HETATM   30  O   UNL     1     -12.371  14.269  66.599  1.00  0.00    -0.446 OA 
BRANCH  29  31
HETATM   31  C   UNL     1     -10.455  15.119  67.818  1.00  0.00    -0.247 C  
BRANCH  31  32
HETATM   32  C   UNL     1     -11.307  16.267  68.348  1.00  0.00    -0.312 C  
BRANCH  32  33
HETATM   33  C   UNL     1     -10.515  17.240  69.232  1.00  0.00    -0.220 C  
BRANCH  33  34
HETATM   34  C   UNL     1      -9.872  18.308  68.385  1.00  0.00    -0.386 A  
HETATM   35  C   UNL     1      -8.627  20.161  66.693  1.00  0.00    -0.352 A  
HETATM   36  C   UNL     1     -10.583  18.893  67.329  1.00  0.00    -0.529 A  
HETATM   37  C   UNL     1      -9.962  19.816  66.487  1.00  0.00    -0.570 A  
HETATM   38  C   UNL     1      -7.916  19.592  67.749  1.00  0.00    -0.337 A  
HETATM   39  C   UNL     1      -8.535  18.671  68.593  1.00  0.00    -0.337 A  
ENDBRANCH  33  34
ENDBRANCH  32  33
ENDBRANCH  31  32
ENDBRANCH  29  31
ENDBRANCH  28  29
ENDBRANCH  27  28
ENDBRANCH  14  27
ENDBRANCH  13  14
ENDBRANCH  12  13
ENDBRANCH   2  12
TORSDOF 20
ENDMDL
MODEL      179
REMARK 921   NORMALIZED FREE ENERGY PREDICTED BY IDOCK:   -4.77 KCAL/MOL
REMARK 922        TOTAL FREE ENERGY PREDICTED BY IDOCK:  -15.02 KCAL/MOL
REMARK 923 INTER-LIGAND FREE ENERGY PREDICTED BY IDOCK:  -11.08 KCAL/MOL
REMARK 924 INTRA-LIGAND FREE ENERGY PREDICTED BY IDOCK:   -3.94 KCAL/MOL
REMARK 927      BINDING AFFINITY PREDICTED BY RF-SCORE:    0.00 PKD
ROOT
HETATM    1  O   UNL     1      -7.664  11.099  67.235  1.00  0.00    -0.118 OA 
HETATM    2  C   UNL     1      -7.290  11.579  68.296  1.00  0.00    -0.091 C  
ENDROOT
BRANCH   2   3
HETATM    3  C   UNL     1      -7.217  13.060  68.580  1.00  0.00    -0.104 C  
BRANCH   3   4
HETATM    4  C   UNL     1      -7.654  13.901  67.379  1.00  0.00    -0.160 C  
BRANCH   4   5
HETATM    5  C   UNL     1      -7.223  15.366  67.507  1.00  0.00    -0.224 C  
BRANCH   5   6
HETATM    6  C   UNL     1      -8.400  16.308  67.467  1.00  0.00    -0.174 A  
HETATM    7  C   UNL     1      -8.884  16.782  66.239  1.00  0.00    -0.334 A  
HETATM    8  C   UNL     1     -10.577  18.074  67.382  1.00  0.00    -0.378 A  
HETATM    9  C   UNL     1      -9.969  17.659  66.198  1.00  0.00    -0.281 A  
HETATM   10  C   UNL     1      -9.016  16.734  68.650  1.00  0.00    -0.251 A  
HETATM   11  C   UNL     1     -10.100  17.611  68.607  1.00  0.00    -0.377 A  
ENDBRANCH   5   6
ENDBRANCH   4   5
ENDBRANCH   3   4
ENDBRANCH   2   3
BRANCH   2  12
HETATM   12  O   UNL     1      -6.882  10.866  69.382  1.00  0.00    -0.088 OA 
BRANCH  12  13
HETATM   13  C   UNL     1      -7.376   9.517  69.490  1.00  0.00    -0.077 C  
BRANCH  13  14
HETATM   14  C   UNL     1      -8.629   9.489  70.370  1.00  0.00    -0.206 C  
BRANCH  14  15
HETATM   15  O   UNL     1      -8.709   8.209  71.031  1.00  0.00    -0.127 OA 
BRANCH  15  16
HETATM   16  C   UNL     1      -8.656   8.234  72.389  1.00  0.00    -0.206 C  
HETATM   17  O   UNL     1      -7.662   8.470  73.059  1.00  0.00    -0.320 OA 
BRANCH  16  18
HETATM   18  C   UNL     1     -10.009   7.895  72.962  1.00  0.00    -0.362 C  
BRANCH  18  19
HETATM   19  C   UNL     1     -10.101   6.428  73.367  1.00  0.00    -0.222 C  
BRANCH  19  20
HETATM   20  C   UNL     1     -11.225   5.675  72.644  1.00  0.00    -0.350 C  
BRANCH  20  21
HETATM   21  C   UNL     1     -10.870   5.510  71.188  1.00  0.00    -0.243 A  
HETATM   22  C   UNL     1     -10.040   5.365  68.518  1.00  0.00    -0.242 A  
HETATM   23  C   UNL     1     -11.456   6.333  70.218  1.00  0.00    -0.428 A  
HETATM   24  C   UNL     1      -9.878   4.598  70.802  1.00  0.00    -0.284 A  
HETATM   25  C   UNL     1     -11.041   6.258  68.887  1.00  0.00    -0.434 A  
HETATM   26  C   UNL     1      -9.464   4.528  69.472  1.00  0.00    -0.244 A  
ENDBRANCH  20  21
ENDBRANCH  19  20
ENDBRANCH  18  19
ENDBRANCH  16  18
ENDBRANCH  15  16
ENDBRANCH  14  15
BRANCH  14  27
HETATM   27  C   UNL     1      -9.899   9.660  69.528  1.00  0.00    -0.206 C  
BRANCH  27  28
HETATM   28  O   UNL     1     -10.755  10.677  70.069  1.00  0.00    -0.251 OA 
BRANCH  28  29
HETATM   29  C   UNL     1     -11.536  11.312  69.150  1.00  0.00    -0.297 C  
HETATM   30  O   UNL     1     -12.625  10.914  68.763  1.00  0.00    -0.317 OA 
BRANCH  29  31
HETATM   31  C   UNL     1     -10.865  12.582  68.689  1.00  0.00    -0.280 C  
BRANCH  31  32
HETATM   32  C   UNL     1     -11.881  13.658  68.322  1.00  0.00    -0.404 C  
BRANCH  32  33
HETATM   33  C   UNL     1     -11.437  14.517  67.131  1.00  0.00    -0.383 C  
BRANCH  33  34
HETATM   34  C   UNL     1     -11.463  13.702  65.863  1.00  0.00    -0.329 A  
HETATM   35  C   UNL     1     -11.480  12.039  63.609  1.00  0.00    -0.556 A  
HETATM   36  C   UNL     1     -12.650  13.082  65.448  1.00  0.00    -0.481 A  
HETATM   37  C   UNL     1     -12.657  12.254  64.326  1.00  0.00    -0.470 A  
HETATM   38  C   UNL     1     -10.298  12.662  64.008  1.00  0.00    -0.414 A  
HETATM   39  C   UNL     1     -10.289  13.491  65.129  1.00  0.00    -0.368 A  
ENDBRANCH  33  34
ENDBRANCH  32  33
ENDBRANCH  31  32
ENDBRANCH  29  31
ENDBRANCH  28  29
ENDBRANCH  27  28
ENDBRANCH  14  27
ENDBRANCH  13  14
ENDBRANCH  12  13
ENDBRANCH   2  12
TORSDOF 20
ENDMDL
MODEL      180
REMARK 921   NORMALIZED FREE ENERGY PREDICTED BY IDOCK:   -4.76 KCAL/MOL
REMARK 922        TOTAL FREE ENERGY PREDICTED BY IDOCK:  -15.01 KCAL/MOL
REMARK 923 INTER-LIGAND FREE ENERGY PREDICTED BY IDOCK:  -10.27 KCAL/MOL
REMARK 924 INTRA-LIGAND FREE ENERGY PREDICTED BY IDOCK:   -4.74 KCAL/MOL
REMARK 927      BINDING AFFINITY PREDICTED BY RF-SCORE:    0.00 PKD
ROOT
HETATM    1  O   UNL     1     -13.283  10.586  71.058  1.00  0.00    -0.363 OA 
HETATM    2  C   UNL     1     -12.142  10.208  70.831  1.00  0.00    -0.356 C  
ENDROOT
BRANCH   2   3
HETATM    3  C   UNL     1     -11.468   9.062  71.547  1.00  0.00    -0.407 C  
BRANCH   3   4
HETATM    4  C   UNL     1     -12.200   7.736  71.333  1.00  0.00    -0.343 C  
BRANCH   4   5
HETATM    5  C   UNL     1     -11.304   6.526  71.618  1.00  0.00    -0.332 C  
BRANCH   5   6
HETATM    6  C   UNL     1     -10.823   5.866  70.351  1.00  0.00    -0.378 A  
HETATM    7  C   UNL     1     -10.016   4.720  70.413  1.00  0.00    -0.315 A  
HETATM    8  C   UNL     1      -9.908   4.642  68.000  1.00  0.00    -0.174 A  
HETATM    9  C   UNL     1      -9.564   4.111  69.242  1.00  0.00    -0.256 A  
HETATM   10  C   UNL     1     -11.159   6.393  69.098  1.00  0.00    -0.428 A  
HETATM   11  C   UNL     1     -10.705   5.783  67.929  1.00  0.00    -0.295 A  
ENDBRANCH   5   6
ENDBRANCH   4   5
ENDBRANCH   3   4
ENDBRANCH   2   3
BRANCH   2  12
HETATM   12  O   UNL     1     -11.302  10.753  69.908  1.00  0.00    -0.265 OA 
BRANCH  12  13
HETATM   13  C   UNL     1     -11.268  10.119  68.615  1.00  0.00    -0.168 C  
BRANCH  13  14
HETATM   14  C   UNL     1     -11.208  11.182  67.514  1.00  0.00    -0.301 C  
BRANCH  14  15
HETATM   15  O   UNL     1      -9.923  11.109  66.862  1.00  0.00    -0.190 OA 
BRANCH  15  16
HETATM   16  C   UNL     1      -9.922  10.609  65.598  1.00  0.00    -0.268 C  
HETATM   17  O   UNL     1     -10.659  10.964  64.690  1.00  0.00    -0.334 OA 
BRANCH  16  18
HETATM   18  C   UNL     1      -8.889   9.517  65.479  1.00  0.00    -0.201 C  
BRANCH  18  19
HETATM   19  C   UNL     1      -8.968   8.534  66.642  1.00  0.00    -0.178 C  
BRANCH  19  20
HETATM   20  C   UNL     1      -7.648   7.794  66.892  1.00  0.00    -0.099 C  
BRANCH  20  21
HETATM   21  C   UNL     1      -7.457   7.584  68.372  1.00  0.00    -0.108 A  
HETATM   22  C   UNL     1      -7.296   7.059  71.117  1.00  0.00    -0.076 A  
HETATM   23  C   UNL     1      -8.071   8.441  69.295  1.00  0.00    -0.115 A  
HETATM   24  C   UNL     1      -6.743   6.473  68.841  1.00  0.00    -0.057 A  
HETATM   25  C   UNL     1      -7.988   8.178  70.663  1.00  0.00    -0.096 A  
HETATM   26  C   UNL     1      -6.665   6.211  70.209  1.00  0.00    -0.050 A  
ENDBRANCH  20  21
ENDBRANCH  19  20
ENDBRANCH  18  19
ENDBRANCH  16  18
ENDBRANCH  15  16
ENDBRANCH  14  15
BRANCH  14  27
HETATM   27  C   UNL     1     -11.356  12.591  68.098  1.00  0.00    -0.295 C  
BRANCH  27  28
HETATM   28  O   UNL     1     -10.745  13.577  67.253  1.00  0.00    -0.264 OA 
BRANCH  28  29
HETATM   29  C   UNL     1     -11.554  14.066  66.271  1.00  0.00    -0.369 C  
HETATM   30  O   UNL     1     -12.774  13.981  66.263  1.00  0.00    -0.414 OA 
BRANCH  29  31
HETATM   31  C   UNL     1     -10.727  14.736  65.203  1.00  0.00    -0.433 C  
BRANCH  31  32
HETATM   32  C   UNL     1      -9.593  15.562  65.800  1.00  0.00    -0.367 C  
BRANCH  32  33
HETATM   33  C   UNL     1     -10.031  16.977  66.200  1.00  0.00    -0.314 C  
BRANCH  33  34
HETATM   34  C   UNL     1      -9.042  17.574  67.168  1.00  0.00    -0.247 A  
HETATM   35  C   UNL     1      -7.099  18.729  68.821  1.00  0.00    -0.335 A  
HETATM   36  C   UNL     1      -9.091  18.942  67.471  1.00  0.00    -0.307 A  
HETATM   37  C   UNL     1      -8.123  19.516  68.295  1.00  0.00    -0.369 A  
HETATM   38  C   UNL     1      -7.050  17.366  68.534  1.00  0.00    -0.219 A  
HETATM   39  C   UNL     1      -8.018  16.790  67.712  1.00  0.00    -0.187 A  
ENDBRANCH  33  34
ENDBRANCH  32  33
ENDBRANCH  31  32
ENDBRANCH  29  31
ENDBRANCH  28  29
ENDBRANCH  27  28
ENDBRANCH  14  27
ENDBRANCH  13  14
ENDBRANCH  12  13
ENDBRANCH   2  12
TORSDOF 20
ENDMDL
MODEL      181
REMARK 921   NORMALIZED FREE ENERGY PREDICTED BY IDOCK:   -4.76 KCAL/MOL
REMARK 922        TOTAL FREE ENERGY PREDICTED BY IDOCK:  -15.00 KCAL/MOL
REMARK 923 INTER-LIGAND FREE ENERGY PREDICTED BY IDOCK:  -11.54 KCAL/MOL
REMARK 924 INTRA-LIGAND FREE ENERGY PREDICTED BY IDOCK:   -3.47 KCAL/MOL
REMARK 927      BINDING AFFINITY PREDICTED BY RF-SCORE:    0.00 PKD
ROOT
HETATM    1  O   UNL     1      -6.632  14.769  67.109  1.00  0.00    -0.253 OA 
HETATM    2  C   UNL     1      -7.362  13.951  67.651  1.00  0.00    -0.174 C  
ENDROOT
BRANCH   2   3
HETATM    3  C   UNL     1      -8.836  14.162  67.900  1.00  0.00    -0.182 C  
BRANCH   3   4
HETATM    4  C   UNL     1      -9.460  15.132  66.895  1.00  0.00    -0.253 C  
BRANCH   4   5
HETATM    5  C   UNL     1     -10.629  15.919  67.496  1.00  0.00    -0.315 C  
BRANCH   5   6
HETATM    6  C   UNL     1     -10.370  17.405  67.499  1.00  0.00    -0.351 A  
HETATM    7  C   UNL     1     -10.047  18.064  68.693  1.00  0.00    -0.401 A  
HETATM    8  C   UNL     1      -9.904  20.170  67.516  1.00  0.00    -0.574 A  
HETATM    9  C   UNL     1      -9.813  19.440  68.700  1.00  0.00    -0.522 A  
HETATM   10  C   UNL     1     -10.462  18.148  66.315  1.00  0.00    -0.374 A  
HETATM   11  C   UNL     1     -10.228  19.523  66.324  1.00  0.00    -0.582 A  
ENDBRANCH   5   6
ENDBRANCH   4   5
ENDBRANCH   3   4
ENDBRANCH   2   3
BRANCH   2  12
HETATM   12  O   UNL     1      -6.970  12.733  68.117  1.00  0.00    -0.076 OA 
BRANCH  12  13
HETATM   13  C   UNL     1      -7.079  11.628  67.199  1.00  0.00    -0.143 C  
BRANCH  13  14
HETATM   14  C   UNL     1      -7.937  10.520  67.816  1.00  0.00    -0.106 C  
BRANCH  14  15
HETATM   15  O   UNL     1      -7.998  10.716  69.244  1.00  0.00    -0.147 OA 
BRANCH  15  16
HETATM   16  C   UNL     1      -8.964  10.020  69.902  1.00  0.00    -0.146 C  
HETATM   17  O   UNL     1      -8.809   9.392  70.938  1.00  0.00    -0.212 OA 
BRANCH  16  18
HETATM   18  C   UNL     1     -10.266  10.111  69.146  1.00  0.00    -0.229 C  
BRANCH  18  19
HETATM   19  C   UNL     1     -11.317  10.896  69.922  1.00  0.00    -0.381 C  
BRANCH  19  20
HETATM   20  C   UNL     1     -11.497  12.329  69.407  1.00  0.00    -0.341 C  
BRANCH  20  21
HETATM   21  C   UNL     1     -12.256  13.143  70.423  1.00  0.00    -0.389 A  
HETATM   22  C   UNL     1     -13.859  14.627  72.175  1.00  0.00    -0.569 A  
HETATM   23  C   UNL     1     -12.358  14.533  70.284  1.00  0.00    -0.408 A  
HETATM   24  C   UNL     1     -12.948  12.507  71.462  1.00  0.00    -0.379 A  
HETATM   25  C   UNL     1     -13.157  15.271  71.159  1.00  0.00    -0.546 A  
HETATM   26  C   UNL     1     -13.748  13.247  72.333  1.00  0.00    -0.678 A  
ENDBRANCH  20  21
ENDBRANCH  19  20
ENDBRANCH  18  19
ENDBRANCH  16  18
ENDBRANCH  15  16
ENDBRANCH  14  15
BRANCH  14  27
HETATM   27  C   UNL     1      -7.322   9.138  67.561  1.00  0.00    -0.084 C  
BRANCH  27  28
HETATM   28  O   UNL     1      -8.198   8.310  66.783  1.00  0.00    -0.101 OA 
BRANCH  28  29
HETATM   29  C   UNL     1      -8.128   6.979  67.070  1.00  0.00    -0.117 C  
HETATM   30  O   UNL     1      -7.829   6.106  66.268  1.00  0.00    -0.100 OA 
BRANCH  29  31
HETATM   31  C   UNL     1      -8.465   6.743  68.520  1.00  0.00    -0.123 C  
BRANCH  31  32
HETATM   32  C   UNL     1      -9.026   5.344  68.751  1.00  0.00    -0.127 C  
BRANCH  32  33
HETATM   33  C   UNL     1     -10.523   5.350  69.089  1.00  0.00    -0.277 C  
BRANCH  33  34
HETATM   34  C   UNL     1     -10.753   6.014  70.422  1.00  0.00    -0.358 A  
HETATM   35  C   UNL     1     -11.051   7.370  72.855  1.00  0.00    -0.397 A  
HETATM   36  C   UNL     1     -11.643   7.091  70.529  1.00  0.00    -0.364 A  
HETATM   37  C   UNL     1     -11.791   7.766  71.741  1.00  0.00    -0.328 A  
HETATM   38  C   UNL     1     -10.173   6.292  72.760  1.00  0.00    -0.202 A  
HETATM   39  C   UNL     1     -10.025   5.615  71.550  1.00  0.00    -0.230 A  
ENDBRANCH  33  34
ENDBRANCH  32  33
ENDBRANCH  31  32
ENDBRANCH  29  31
ENDBRANCH  28  29
ENDBRANCH  27  28
ENDBRANCH  14  27
ENDBRANCH  13  14
ENDBRANCH  12  13
ENDBRANCH   2  12
TORSDOF 20
ENDMDL
MODEL      182
REMARK 921   NORMALIZED FREE ENERGY PREDICTED BY IDOCK:   -4.73 KCAL/MOL
REMARK 922        TOTAL FREE ENERGY PREDICTED BY IDOCK:  -14.93 KCAL/MOL
REMARK 923 INTER-LIGAND FREE ENERGY PREDICTED BY IDOCK:  -11.24 KCAL/MOL
REMARK 924 INTRA-LIGAND FREE ENERGY PREDICTED BY IDOCK:   -3.69 KCAL/MOL
REMARK 927      BINDING AFFINITY PREDICTED BY RF-SCORE:    0.00 PKD
ROOT
HETATM    1  O   UNL     1     -13.751  13.408  72.593  1.00  0.00    -0.687 OA 
HETATM    2  C   UNL     1     -13.075  13.771  71.641  1.00  0.00    -0.375 C  
ENDROOT
BRANCH   2   3
HETATM    3  C   UNL     1     -12.983  15.199  71.160  1.00  0.00    -0.488 C  
BRANCH   3   4
HETATM    4  C   UNL     1     -12.155  15.326  69.880  1.00  0.00    -0.375 C  
BRANCH   4   5
HETATM    5  C   UNL     1     -10.982  16.300  70.040  1.00  0.00    -0.356 C  
BRANCH   5   6
HETATM    6  C   UNL     1     -10.149  16.395  68.787  1.00  0.00    -0.247 A  
HETATM    7  C   UNL     1     -10.732  16.809  67.580  1.00  0.00    -0.305 A  
HETATM    8  C   UNL     1      -8.612  16.557  66.447  1.00  0.00    -0.347 A  
HETATM    9  C   UNL     1      -9.965  16.891  66.417  1.00  0.00    -0.321 A  
HETATM   10  C   UNL     1      -8.790  16.057  68.805  1.00  0.00    -0.227 A  
HETATM   11  C   UNL     1      -8.025  16.140  67.641  1.00  0.00    -0.162 A  
ENDBRANCH   5   6
ENDBRANCH   4   5
ENDBRANCH   3   4
ENDBRANCH   2   3
BRANCH   2  12
HETATM   12  O   UNL     1     -12.306  12.957  70.866  1.00  0.00    -0.370 OA 
BRANCH  12  13
HETATM   13  C   UNL     1     -12.889  11.697  70.480  1.00  0.00     0.037 C  
BRANCH  13  14
HETATM   14  C   UNL     1     -12.034  10.543  71.011  1.00  0.00    -0.364 C  
BRANCH  14  15
HETATM   15  O   UNL     1     -11.534   9.778  69.894  1.00  0.00    -0.222 OA 
BRANCH  15  16
HETATM   16  C   UNL     1     -11.236  10.485  68.772  1.00  0.00    -0.262 C  
HETATM   17  O   UNL     1     -11.971  10.634  67.807  1.00  0.00    -0.359 OA 
BRANCH  16  18
HETATM   18  C   UNL     1      -9.839  11.044  68.873  1.00  0.00    -0.189 C  
BRANCH  18  19
HETATM   19  C   UNL     1      -9.231  11.299  67.498  1.00  0.00    -0.159 C  
BRANCH  19  20
HETATM   20  C   UNL     1      -9.251  12.779  67.099  1.00  0.00    -0.219 C  
BRANCH  20  21
HETATM   21  C   UNL     1     -10.317  13.010  66.058  1.00  0.00    -0.293 A  
HETATM   22  C   UNL     1     -12.388  13.229  64.188  1.00  0.00    -0.408 A  
HETATM   23  C   UNL     1     -10.144  12.535  64.751  1.00  0.00    -0.251 A  
HETATM   24  C   UNL     1     -11.530  13.615  66.411  1.00  0.00    -0.358 A  
HETATM   25  C   UNL     1     -11.179  12.646  63.820  1.00  0.00    -0.519 A  
HETATM   26  C   UNL     1     -12.562  13.722  65.479  1.00  0.00    -0.551 A  
ENDBRANCH  20  21
ENDBRANCH  19  20
ENDBRANCH  18  19
ENDBRANCH  16  18
ENDBRANCH  15  16
ENDBRANCH  14  15
BRANCH  14  27
HETATM   27  C   UNL     1     -12.865   9.599  71.888  1.00  0.00    -0.425 C  
BRANCH  27  28
HETATM   28  O   UNL     1     -12.031   8.669  72.595  1.00  0.00    -0.340 OA 
BRANCH  28  29
HETATM   29  C   UNL     1     -11.884   7.458  71.987  1.00  0.00    -0.298 C  
HETATM   30  O   UNL     1     -12.720   6.931  71.268  1.00  0.00    -0.370 OA 
BRANCH  29  31
HETATM   31  C   UNL     1     -10.537   6.869  72.324  1.00  0.00    -0.244 C  
BRANCH  31  32
HETATM   32  C   UNL     1      -9.532   7.944  72.721  1.00  0.00    -0.304 C  
BRANCH  32  33
HETATM   33  C   UNL     1      -8.862   8.610  71.512  1.00  0.00    -0.285 C  
BRANCH  33  34
HETATM   34  C   UNL     1      -8.371   7.563  70.545  1.00  0.00    -0.131 A  
HETATM   35  C   UNL     1      -7.333   5.739  68.690  1.00  0.00    -0.084 A  
HETATM   36  C   UNL     1      -7.300   6.728  70.894  1.00  0.00    -0.082 A  
HETATM   37  C   UNL     1      -6.785   5.820  69.970  1.00  0.00    -0.051 A  
HETATM   38  C   UNL     1      -8.406   6.557  68.340  1.00  0.00    -0.117 A  
HETATM   39  C   UNL     1      -8.924   7.465  69.262  1.00  0.00    -0.136 A  
ENDBRANCH  33  34
ENDBRANCH  32  33
ENDBRANCH  31  32
ENDBRANCH  29  31
ENDBRANCH  28  29
ENDBRANCH  27  28
ENDBRANCH  14  27
ENDBRANCH  13  14
ENDBRANCH  12  13
ENDBRANCH   2  12
TORSDOF 20
ENDMDL
MODEL      183
REMARK 921   NORMALIZED FREE ENERGY PREDICTED BY IDOCK:   -4.71 KCAL/MOL
REMARK 922        TOTAL FREE ENERGY PREDICTED BY IDOCK:  -14.91 KCAL/MOL
REMARK 923 INTER-LIGAND FREE ENERGY PREDICTED BY IDOCK:  -11.20 KCAL/MOL
REMARK 924 INTRA-LIGAND FREE ENERGY PREDICTED BY IDOCK:   -3.71 KCAL/MOL
REMARK 927      BINDING AFFINITY PREDICTED BY RF-SCORE:    0.00 PKD
ROOT
HETATM    1  O   UNL     1     -13.388  10.050  71.397  1.00  0.00    -0.377 OA 
HETATM    2  C   UNL     1     -12.179   9.921  71.265  1.00  0.00    -0.387 C  
ENDROOT
BRANCH   2   3
HETATM    3  C   UNL     1     -11.368   8.819  71.903  1.00  0.00    -0.431 C  
BRANCH   3   4
HETATM    4  C   UNL     1     -11.111   7.658  70.940  1.00  0.00    -0.275 C  
BRANCH   4   5
HETATM    5  C   UNL     1     -11.789   6.362  71.398  1.00  0.00    -0.340 C  
BRANCH   5   6
HETATM    6  C   UNL     1     -10.845   5.469  72.162  1.00  0.00    -0.293 A  
HETATM    7  C   UNL     1     -10.886   5.429  73.563  1.00  0.00    -0.342 A  
HETATM    8  C   UNL     1      -9.081   3.824  73.593  1.00  0.00    -0.096 A  
HETATM    9  C   UNL     1     -10.010   4.608  74.273  1.00  0.00    -0.216 A  
HETATM   10  C   UNL     1      -9.904   4.679  71.488  1.00  0.00    -0.259 A  
HETATM   11  C   UNL     1      -9.029   3.860  72.200  1.00  0.00    -0.146 A  
ENDBRANCH   5   6
ENDBRANCH   4   5
ENDBRANCH   3   4
ENDBRANCH   2   3
BRANCH   2  12
HETATM   12  O   UNL     1     -11.375  10.740  70.532  1.00  0.00    -0.307 OA 
BRANCH  12  13
HETATM   13  C   UNL     1     -11.876  11.151  69.246  1.00  0.00    -0.352 C  
BRANCH  13  14
HETATM   14  C   UNL     1     -11.848  12.679  69.138  1.00  0.00    -0.297 C  
BRANCH  14  15
HETATM   15  O   UNL     1     -12.894  13.225  69.968  1.00  0.00     0.056 OA 
BRANCH  15  16
HETATM   16  C   UNL     1     -12.498  14.111  70.922  1.00  0.00    -0.365 C  
HETATM   17  O   UNL     1     -12.037  13.822  72.016  1.00  0.00     0.068 OA 
BRANCH  16  18
HETATM   18  C   UNL     1     -12.738  15.521  70.444  1.00  0.00    -0.382 C  
BRANCH  18  19
HETATM   19  C   UNL     1     -11.442  16.206  70.026  1.00  0.00    -0.294 C  
BRANCH  19  20
HETATM   20  C   UNL     1     -11.286  16.317  68.505  1.00  0.00    -0.359 C  
BRANCH  20  21
HETATM   21  C   UNL     1     -10.679  17.651  68.152  1.00  0.00    -0.312 A  
HETATM   22  C   UNL     1      -9.761  20.227  67.557  1.00  0.00    -0.575 A  
HETATM   23  C   UNL     1     -10.805  18.166  66.855  1.00  0.00    -0.115 A  
HETATM   24  C   UNL     1     -10.069  18.432  69.142  1.00  0.00    -0.174 A  
HETATM   25  C   UNL     1     -10.346  19.450  66.561  1.00  0.00    -0.564 A  
HETATM   26  C   UNL     1      -9.612  19.716  68.845  1.00  0.00    -0.421 A  
ENDBRANCH  20  21
ENDBRANCH  19  20
ENDBRANCH  18  19
ENDBRANCH  16  18
ENDBRANCH  15  16
ENDBRANCH  14  15
BRANCH  14  27
HETATM   27  C   UNL     1     -12.109  13.136  67.698  1.00  0.00    -0.232 C  
BRANCH  27  28
HETATM   28  O   UNL     1     -11.999  12.045  66.773  1.00  0.00    -0.616 OA 
BRANCH  28  29
HETATM   29  C   UNL     1     -12.040  12.406  65.459  1.00  0.00    -0.351 C  
HETATM   30  O   UNL     1     -13.043  12.781  64.868  1.00  0.00    -0.833 OA 
BRANCH  29  31
HETATM   31  C   UNL     1     -10.669  12.283  64.844  1.00  0.00    -0.335 C  
BRANCH  31  32
HETATM   32  C   UNL     1      -9.594  12.905  65.729  1.00  0.00    -0.086 C  
BRANCH  32  33
HETATM   33  C   UNL     1      -9.521  14.432  65.596  1.00  0.00    -0.045 C  
BRANCH  33  34
HETATM   34  C   UNL     1      -8.606  15.003  66.648  1.00  0.00    -0.246 A  
HETATM   35  C   UNL     1      -7.053  16.156  68.674  1.00  0.00    -0.147 A  
HETATM   36  C   UNL     1      -8.486  14.374  67.895  1.00  0.00    -0.165 A  
HETATM   37  C   UNL     1      -7.712  14.948  68.903  1.00  0.00    -0.148 A  
HETATM   38  C   UNL     1      -7.158  16.782  67.433  1.00  0.00    -0.185 A  
HETATM   39  C   UNL     1      -7.930  16.209  66.424  1.00  0.00    -0.252 A  
ENDBRANCH  33  34
ENDBRANCH  32  33
ENDBRANCH  31  32
ENDBRANCH  29  31
ENDBRANCH  28  29
ENDBRANCH  27  28
ENDBRANCH  14  27
ENDBRANCH  13  14
ENDBRANCH  12  13
ENDBRANCH   2  12
TORSDOF 20
ENDMDL
MODEL      184
REMARK 921   NORMALIZED FREE ENERGY PREDICTED BY IDOCK:   -4.68 KCAL/MOL
REMARK 922        TOTAL FREE ENERGY PREDICTED BY IDOCK:  -14.84 KCAL/MOL
REMARK 923 INTER-LIGAND FREE ENERGY PREDICTED BY IDOCK:  -12.33 KCAL/MOL
REMARK 924 INTRA-LIGAND FREE ENERGY PREDICTED BY IDOCK:   -2.51 KCAL/MOL
REMARK 927      BINDING AFFINITY PREDICTED BY RF-SCORE:    0.00 PKD
ROOT
HETATM    1  O   UNL     1     -13.283  12.519  64.816  1.00  0.00    -0.839 OA 
HETATM    2  C   UNL     1     -12.172  13.029  64.855  1.00  0.00    -0.441 C  
ENDROOT
BRANCH   2   3
HETATM    3  C   UNL     1     -11.052  12.695  63.899  1.00  0.00    -0.476 C  
BRANCH   3   4
HETATM    4  C   UNL     1     -10.587  11.244  64.037  1.00  0.00    -0.450 C  
BRANCH   4   5
HETATM    5  C   UNL     1      -9.575  11.064  65.173  1.00  0.00    -0.281 C  
BRANCH   5   6
HETATM    6  C   UNL     1      -9.616   9.672  65.752  1.00  0.00    -0.329 A  
HETATM    7  C   UNL     1      -8.705   8.698  65.317  1.00  0.00    -0.200 A  
HETATM    8  C   UNL     1      -9.696   7.076  66.810  1.00  0.00    -0.241 A  
HETATM    9  C   UNL     1      -8.745   7.407  65.846  1.00  0.00    -0.161 A  
HETATM   10  C   UNL     1     -10.570   9.327  66.717  1.00  0.00    -0.207 A  
HETATM   11  C   UNL     1     -10.608   8.036  67.245  1.00  0.00    -0.360 A  
ENDBRANCH   5   6
ENDBRANCH   4   5
ENDBRANCH   3   4
ENDBRANCH   2   3
BRANCH   2  12
HETATM   12  O   UNL     1     -11.767  13.967  65.755  1.00  0.00    -0.336 OA 
BRANCH  12  13
HETATM   13  C   UNL     1     -12.104  13.723  67.134  1.00  0.00    -0.378 C  
BRANCH  13  14
HETATM   14  C   UNL     1     -10.829  13.494  67.951  1.00  0.00    -0.247 C  
BRANCH  14  15
HETATM   15  O   UNL     1     -11.053  13.942  69.304  1.00  0.00    -0.249 OA 
BRANCH  15  16
HETATM   16  C   UNL     1     -11.884  15.008  69.451  1.00  0.00    -0.329 C  
HETATM   17  O   UNL     1     -11.731  16.106  68.938  1.00  0.00    -0.357 OA 
BRANCH  16  18
HETATM   18  C   UNL     1     -13.021  14.649  70.373  1.00  0.00    -0.249 C  
BRANCH  18  19
HETATM   19  C   UNL     1     -12.579  13.686  71.469  1.00  0.00    -0.385 C  
BRANCH  19  20
HETATM   20  C   UNL     1     -13.569  12.536  71.692  1.00  0.00     0.019 C  
BRANCH  20  21
HETATM   21  C   UNL     1     -12.858  11.216  71.531  1.00  0.00    -0.542 A  
HETATM   22  C   UNL     1     -11.705   8.707  71.073  1.00  0.00    -0.319 A  
HETATM   23  C   UNL     1     -13.226  10.114  72.314  1.00  0.00    -0.359 A  
HETATM   24  C   UNL     1     -11.891  11.052  70.531  1.00  0.00    -0.464 A  
HETATM   25  C   UNL     1     -12.648   8.864  72.084  1.00  0.00    -0.467 A  
HETATM   26  C   UNL     1     -11.318   9.802  70.302  1.00  0.00    -0.333 A  
ENDBRANCH  20  21
ENDBRANCH  19  20
ENDBRANCH  18  19
ENDBRANCH  16  18
ENDBRANCH  15  16
ENDBRANCH  14  15
BRANCH  14  27
HETATM   27  C   UNL     1      -9.656  14.300  67.381  1.00  0.00    -0.214 C  
BRANCH  27  28
HETATM   28  O   UNL     1      -8.774  14.749  68.420  1.00  0.00    -0.156 OA 
BRANCH  28  29
HETATM   29  C   UNL     1      -7.447  14.627  68.134  1.00  0.00    -0.123 C  
HETATM   30  O   UNL     1      -6.640  14.006  68.810  1.00  0.00    -0.085 OA 
BRANCH  29  31
HETATM   31  C   UNL     1      -7.122  15.362  66.858  1.00  0.00     0.189 C  
BRANCH  31  32
HETATM   32  C   UNL     1      -6.770  16.823  67.120  1.00  0.00    -0.224 C  
BRANCH  32  33
HETATM   33  C   UNL     1      -7.473  17.787  66.156  1.00  0.00    -0.322 C  
BRANCH  33  34
HETATM   34  C   UNL     1      -8.487  18.618  66.898  1.00  0.00    -0.277 A  
HETATM   35  C   UNL     1     -10.505  20.054  68.207  1.00  0.00    -0.409 A  
HETATM   36  C   UNL     1      -8.931  18.221  68.167  1.00  0.00    -0.314 A  
HETATM   37  C   UNL     1      -9.936  18.937  68.818  1.00  0.00    -0.466 A  
HETATM   38  C   UNL     1     -10.061  20.462  66.950  1.00  0.00    -0.503 A  
HETATM   39  C   UNL     1      -9.056  19.749  66.298  1.00  0.00    -0.444 A  
ENDBRANCH  33  34
ENDBRANCH  32  33
ENDBRANCH  31  32
ENDBRANCH  29  31
ENDBRANCH  28  29
ENDBRANCH  27  28
ENDBRANCH  14  27
ENDBRANCH  13  14
ENDBRANCH  12  13
ENDBRANCH   2  12
TORSDOF 20
ENDMDL
MODEL      185
REMARK 921   NORMALIZED FREE ENERGY PREDICTED BY IDOCK:   -4.67 KCAL/MOL
REMARK 922        TOTAL FREE ENERGY PREDICTED BY IDOCK:  -14.82 KCAL/MOL
REMARK 923 INTER-LIGAND FREE ENERGY PREDICTED BY IDOCK:  -11.61 KCAL/MOL
REMARK 924 INTRA-LIGAND FREE ENERGY PREDICTED BY IDOCK:   -3.21 KCAL/MOL
REMARK 927      BINDING AFFINITY PREDICTED BY RF-SCORE:    0.00 PKD
ROOT
HETATM    1  O   UNL     1      -5.553  13.979  67.419  1.00  0.00    -0.345 OA 
HETATM    2  C   UNL     1      -6.334  14.751  67.959  1.00  0.00    -0.154 C  
ENDROOT
BRANCH   2   3
HETATM    3  C   UNL     1      -5.985  16.162  68.369  1.00  0.00    -0.107 C  
BRANCH   3   4
HETATM    4  C   UNL     1      -7.069  16.794  69.244  1.00  0.00    -0.198 C  
BRANCH   4   5
HETATM    5  C   UNL     1      -7.153  18.313  69.058  1.00  0.00    -0.249 C  
BRANCH   5   6
HETATM    6  C   UNL     1      -8.386  18.723  68.293  1.00  0.00    -0.360 A  
HETATM    7  C   UNL     1      -8.460  19.990  67.696  1.00  0.00    -0.378 A  
HETATM    8  C   UNL     1     -10.682  19.500  66.883  1.00  0.00    -0.576 A  
HETATM    9  C   UNL     1      -9.602  20.374  66.993  1.00  0.00    -0.571 A  
HETATM   10  C   UNL     1      -9.479  17.854  68.180  1.00  0.00    -0.288 A  
HETATM   11  C   UNL     1     -10.620  18.241  67.477  1.00  0.00    -0.432 A  
ENDBRANCH   5   6
ENDBRANCH   4   5
ENDBRANCH   3   4
ENDBRANCH   2   3
BRANCH   2  12
HETATM   12  O   UNL     1      -7.627  14.468  68.276  1.00  0.00    -0.106 OA 
BRANCH  12  13
HETATM   13  C   UNL     1      -8.479  14.049  67.193  1.00  0.00    -0.190 C  
BRANCH  13  14
HETATM   14  C   UNL     1      -9.094  12.683  67.512  1.00  0.00    -0.192 C  
BRANCH  14  15
HETATM   15  O   UNL     1     -10.490  12.861  67.832  1.00  0.00    -0.215 OA 
BRANCH  15  16
HETATM   16  C   UNL     1     -11.340  11.920  67.342  1.00  0.00    -0.324 C  
HETATM   17  O   UNL     1     -11.897  11.959  66.256  1.00  0.00    -0.546 OA 
BRANCH  16  18
HETATM   18  C   UNL     1     -11.525  10.818  68.355  1.00  0.00    -0.358 C  
BRANCH  18  19
HETATM   19  C   UNL     1     -12.611  11.157  69.369  1.00  0.00     0.094 C  
BRANCH  19  20
HETATM   20  C   UNL     1     -12.050  11.675  70.699  1.00  0.00    -0.432 C  
BRANCH  20  21
HETATM   21  C   UNL     1     -12.687  12.998  71.038  1.00  0.00    -0.347 A  
HETATM   22  C   UNL     1     -13.690  15.492  71.819  1.00  0.00    -0.582 A  
HETATM   23  C   UNL     1     -13.597  13.095  72.099  1.00  0.00    -0.637 A  
HETATM   24  C   UNL     1     -12.302  14.162  70.359  1.00  0.00    -0.428 A  
HETATM   25  C   UNL     1     -14.096  14.340  72.486  1.00  0.00    -0.437 A  
HETATM   26  C   UNL     1     -12.800  15.404  70.750  1.00  0.00    -0.524 A  
ENDBRANCH  20  21
ENDBRANCH  19  20
ENDBRANCH  18  19
ENDBRANCH  16  18
ENDBRANCH  15  16
ENDBRANCH  14  15
BRANCH  14  27
HETATM   27  C   UNL     1      -8.415  12.041  68.728  1.00  0.00     0.068 C  
BRANCH  27  28
HETATM   28  O   UNL     1      -7.750  10.820  68.374  1.00  0.00    -0.101 OA 
BRANCH  28  29
HETATM   29  C   UNL     1      -7.691   9.893  69.372  1.00  0.00    -0.119 C  
HETATM   30  O   UNL     1      -7.644  10.153  70.565  1.00  0.00    -0.269 OA 
BRANCH  29  31
HETATM   31  C   UNL     1      -7.702   8.502  68.789  1.00  0.00    -0.102 C  
BRANCH  31  32
HETATM   32  C   UNL     1      -9.104   7.903  68.780  1.00  0.00    -0.140 C  
BRANCH  32  33
HETATM   33  C   UNL     1      -9.359   6.963  69.965  1.00  0.00    -0.158 C  
BRANCH  33  34
HETATM   34  C   UNL     1     -10.609   7.375  70.698  1.00  0.00    -0.234 A  
HETATM   35  C   UNL     1     -12.968   8.260  71.922  1.00  0.00    -0.371 A  
HETATM   36  C   UNL     1     -11.835   6.764  70.400  1.00  0.00    -0.395 A  
HETATM   37  C   UNL     1     -13.009   7.206  71.010  1.00  0.00    -0.231 A  
HETATM   38  C   UNL     1     -11.751   8.864  72.233  1.00  0.00    -0.351 A  
HETATM   39  C   UNL     1     -10.576   8.424  71.625  1.00  0.00    -0.327 A  
ENDBRANCH  33  34
ENDBRANCH  32  33
ENDBRANCH  31  32
ENDBRANCH  29  31
ENDBRANCH  28  29
ENDBRANCH  27  28
ENDBRANCH  14  27
ENDBRANCH  13  14
ENDBRANCH  12  13
ENDBRANCH   2  12
TORSDOF 20
ENDMDL
MODEL      186
REMARK 921   NORMALIZED FREE ENERGY PREDICTED BY IDOCK:   -4.66 KCAL/MOL
REMARK 922        TOTAL FREE ENERGY PREDICTED BY IDOCK:  -14.79 KCAL/MOL
REMARK 923 INTER-LIGAND FREE ENERGY PREDICTED BY IDOCK:  -10.93 KCAL/MOL
REMARK 924 INTRA-LIGAND FREE ENERGY PREDICTED BY IDOCK:   -3.85 KCAL/MOL
REMARK 927      BINDING AFFINITY PREDICTED BY RF-SCORE:    0.00 PKD
ROOT
HETATM    1  O   UNL     1      -6.406  14.017  67.529  1.00  0.00    -0.284 OA 
HETATM    2  C   UNL     1      -7.591  14.254  67.344  1.00  0.00    -0.163 C  
ENDROOT
BRANCH   2   3
HETATM    3  C   UNL     1      -8.127  15.581  66.863  1.00  0.00    -0.284 C  
BRANCH   3   4
HETATM    4  C   UNL     1      -9.498  15.444  66.198  1.00  0.00    -0.371 C  
BRANCH   4   5
HETATM    5  C   UNL     1     -10.610  16.107  67.018  1.00  0.00    -0.292 C  
BRANCH   5   6
HETATM    6  C   UNL     1     -10.402  17.593  67.158  1.00  0.00    -0.343 A  
HETATM    7  C   UNL     1     -10.386  18.415  66.022  1.00  0.00    -0.397 A  
HETATM    8  C   UNL     1      -9.998  20.357  67.407  1.00  0.00    -0.556 A  
HETATM    9  C   UNL     1     -10.187  19.791  66.148  1.00  0.00    -0.618 A  
HETATM   10  C   UNL     1     -10.206  18.172  68.418  1.00  0.00    -0.401 A  
HETATM   11  C   UNL     1     -10.007  19.548  68.542  1.00  0.00    -0.538 A  
ENDBRANCH   5   6
ENDBRANCH   4   5
ENDBRANCH   3   4
ENDBRANCH   2   3
BRANCH   2  12
HETATM   12  O   UNL     1      -8.610  13.373  67.542  1.00  0.00    -0.176 OA 
BRANCH  12  13
HETATM   13  C   UNL     1      -8.421  12.043  67.022  1.00  0.00    -0.183 C  
BRANCH  13  14
HETATM   14  C   UNL     1      -9.651  11.183  67.325  1.00  0.00    -0.165 C  
BRANCH  14  15
HETATM   15  O   UNL     1     -10.207  11.592  68.592  1.00  0.00    -0.204 OA 
BRANCH  15  16
HETATM   16  C   UNL     1     -11.527  11.323  68.780  1.00  0.00    -0.293 C  
HETATM   17  O   UNL     1     -12.380  11.298  67.907  1.00  0.00    -0.363 OA 
BRANCH  16  18
HETATM   18  C   UNL     1     -11.798  11.086  70.244  1.00  0.00    -0.456 C  
BRANCH  18  19
HETATM   19  C   UNL     1     -11.727   9.605  70.601  1.00  0.00    -0.353 C  
BRANCH  19  20
HETATM   20  C   UNL     1     -12.026   9.329  72.079  1.00  0.00    -0.391 C  
BRANCH  20  21
HETATM   21  C   UNL     1     -11.601   7.926  72.430  1.00  0.00    -0.436 A  
HETATM   22  C   UNL     1     -10.943   5.340  73.277  1.00  0.00    -0.369 A  
HETATM   23  C   UNL     1     -10.466   7.707  73.222  1.00  0.00    -0.414 A  
HETATM   24  C   UNL     1     -12.390   6.833  72.049  1.00  0.00    -0.311 A  
HETATM   25  C   UNL     1     -10.140   6.417  73.643  1.00  0.00    -0.256 A  
HETATM   26  C   UNL     1     -12.063   5.545  72.473  1.00  0.00     0.007 A  
ENDBRANCH  20  21
ENDBRANCH  19  20
ENDBRANCH  18  19
ENDBRANCH  16  18
ENDBRANCH  15  16
ENDBRANCH  14  15
BRANCH  14  27
HETATM   27  C   UNL     1      -9.277   9.701  67.436  1.00  0.00    -0.130 C  
BRANCH  27  28
HETATM   28  O   UNL     1     -10.168   8.875  66.673  1.00  0.00    -0.275 OA 
BRANCH  28  29
HETATM   29  C   UNL     1     -10.475   7.680  67.252  1.00  0.00    -0.326 C  
HETATM   30  O   UNL     1     -11.217   6.839  66.767  1.00  0.00    -0.312 OA 
BRANCH  29  31
HETATM   31  C   UNL     1      -9.760   7.545  68.573  1.00  0.00    -0.159 C  
BRANCH  31  32
HETATM   32  C   UNL     1     -10.205   6.299  69.332  1.00  0.00    -0.238 C  
BRANCH  32  33
HETATM   33  C   UNL     1      -9.394   5.052  68.958  1.00  0.00    -0.176 C  
BRANCH  33  34
HETATM   34  C   UNL     1      -8.833   4.404  70.198  1.00  0.00    -0.126 A  
HETATM   35  C   UNL     1      -7.923   3.286  72.599  1.00  0.00    -0.068 A  
HETATM   36  C   UNL     1      -9.367   3.194  70.664  1.00  0.00    -0.225 A  
HETATM   37  C   UNL     1      -8.912   2.639  71.860  1.00  0.00    -0.130 A  
HETATM   38  C   UNL     1      -7.378   4.482  72.136  1.00  0.00    -0.072 A  
HETATM   39  C   UNL     1      -7.830   5.039  70.940  1.00  0.00    -0.087 A  
ENDBRANCH  33  34
ENDBRANCH  32  33
ENDBRANCH  31  32
ENDBRANCH  29  31
ENDBRANCH  28  29
ENDBRANCH  27  28
ENDBRANCH  14  27
ENDBRANCH  13  14
ENDBRANCH  12  13
ENDBRANCH   2  12
TORSDOF 20
ENDMDL
MODEL      187
REMARK 921   NORMALIZED FREE ENERGY PREDICTED BY IDOCK:   -4.66 KCAL/MOL
REMARK 922        TOTAL FREE ENERGY PREDICTED BY IDOCK:  -14.79 KCAL/MOL
REMARK 923 INTER-LIGAND FREE ENERGY PREDICTED BY IDOCK:  -10.40 KCAL/MOL
REMARK 924 INTRA-LIGAND FREE ENERGY PREDICTED BY IDOCK:   -4.39 KCAL/MOL
REMARK 927      BINDING AFFINITY PREDICTED BY RF-SCORE:    0.00 PKD
ROOT
HETATM    1  O   UNL     1     -13.243  13.784  73.208  1.00  0.00    -0.482 OA 
HETATM    2  C   UNL     1     -13.044  14.033  72.027  1.00  0.00    -0.401 C  
ENDROOT
BRANCH   2   3
HETATM    3  C   UNL     1     -13.142  15.413  71.422  1.00  0.00    -0.563 C  
BRANCH   3   4
HETATM    4  C   UNL     1     -12.459  15.495  70.056  1.00  0.00    -0.293 C  
BRANCH   4   5
HETATM    5  C   UNL     1     -11.013  15.993  70.159  1.00  0.00    -0.369 C  
BRANCH   5   6
HETATM    6  C   UNL     1     -10.386  16.197  68.803  1.00  0.00    -0.248 A  
HETATM    7  C   UNL     1     -10.575  17.402  68.111  1.00  0.00    -0.376 A  
HETATM    8  C   UNL     1      -9.239  16.579  66.272  1.00  0.00    -0.345 A  
HETATM    9  C   UNL     1     -10.001  17.591  66.853  1.00  0.00    -0.313 A  
HETATM   10  C   UNL     1      -9.622  15.184  68.209  1.00  0.00    -0.211 A  
HETATM   11  C   UNL     1      -9.050  15.375  66.951  1.00  0.00    -0.265 A  
ENDBRANCH   5   6
ENDBRANCH   4   5
ENDBRANCH   3   4
ENDBRANCH   2   3
BRANCH   2  12
HETATM   12  O   UNL     1     -12.706  13.119  71.076  1.00  0.00    -0.337 OA 
BRANCH  12  13
HETATM   13  C   UNL     1     -12.814  11.732  71.450  1.00  0.00    -0.335 C  
BRANCH  13  14
HETATM   14  C   UNL     1     -12.456  10.840  70.257  1.00  0.00    -0.317 C  
BRANCH  14  15
HETATM   15  O   UNL     1     -11.347   9.992  70.623  1.00  0.00    -0.297 OA 
BRANCH  15  16
HETATM   16  C   UNL     1     -11.649   8.691  70.877  1.00  0.00    -0.269 C  
HETATM   17  O   UNL     1     -12.674   8.287  71.405  1.00  0.00    -0.308 OA 
BRANCH  16  18
HETATM   18  C   UNL     1     -10.511   7.805  70.438  1.00  0.00    -0.221 C  
BRANCH  18  19
HETATM   19  C   UNL     1     -10.994   6.411  70.054  1.00  0.00    -0.397 C  
BRANCH  19  20
HETATM   20  C   UNL     1     -10.322   5.298  70.867  1.00  0.00    -0.303 C  
BRANCH  20  21
HETATM   21  C   UNL     1      -9.349   4.548  69.994  1.00  0.00    -0.223 A  
HETATM   22  C   UNL     1      -7.452   3.060  68.570  1.00  0.00    -0.049 A  
HETATM   23  C   UNL     1      -8.096   5.099  69.694  1.00  0.00    -0.089 A  
HETATM   24  C   UNL     1      -9.649   3.253  69.553  1.00  0.00    -0.127 A  
HETATM   25  C   UNL     1      -7.152   4.355  68.984  1.00  0.00    -0.051 A  
HETATM   26  C   UNL     1      -8.703   2.511  68.845  1.00  0.00    -0.131 A  
ENDBRANCH  20  21
ENDBRANCH  19  20
ENDBRANCH  18  19
ENDBRANCH  16  18
ENDBRANCH  15  16
ENDBRANCH  14  15
BRANCH  14  27
HETATM   27  C   UNL     1     -12.022  11.680  69.050  1.00  0.00    -0.305 C  
BRANCH  27  28
HETATM   28  O   UNL     1     -11.683  10.852  67.929  1.00  0.00    -0.557 OA 
BRANCH  28  29
HETATM   29  C   UNL     1     -10.589  11.262  67.227  1.00  0.00    -0.233 C  
HETATM   30  O   UNL     1     -10.547  12.253  66.513  1.00  0.00    -0.227 OA 
BRANCH  29  31
HETATM   31  C   UNL     1      -9.436  10.320  67.468  1.00  0.00    -0.171 C  
BRANCH  31  32
HETATM   32  C   UNL     1      -9.781   8.889  67.070  1.00  0.00    -0.249 C  
BRANCH  32  33
HETATM   33  C   UNL     1      -8.555   7.967  67.039  1.00  0.00    -0.128 C  
BRANCH  33  34
HETATM   34  C   UNL     1      -8.933   6.618  66.484  1.00  0.00    -0.155 A  
HETATM   35  C   UNL     1      -9.704   4.197  65.304  1.00  0.00    -0.200 A  
HETATM   36  C   UNL     1      -8.068   5.950  65.606  1.00  0.00    -0.124 A  
HETATM   37  C   UNL     1      -8.453   4.744  65.019  1.00  0.00    -0.137 A  
HETATM   38  C   UNL     1     -10.564   4.849  66.185  1.00  0.00    -0.322 A  
HETATM   39  C   UNL     1     -10.181   6.054  66.774  1.00  0.00    -0.268 A  
ENDBRANCH  33  34
ENDBRANCH  32  33
ENDBRANCH  31  32
ENDBRANCH  29  31
ENDBRANCH  28  29
ENDBRANCH  27  28
ENDBRANCH  14  27
ENDBRANCH  13  14
ENDBRANCH  12  13
ENDBRANCH   2  12
TORSDOF 20
ENDMDL
MODEL      188
REMARK 921   NORMALIZED FREE ENERGY PREDICTED BY IDOCK:   -4.65 KCAL/MOL
REMARK 922        TOTAL FREE ENERGY PREDICTED BY IDOCK:  -14.76 KCAL/MOL
REMARK 923 INTER-LIGAND FREE ENERGY PREDICTED BY IDOCK:  -11.15 KCAL/MOL
REMARK 924 INTRA-LIGAND FREE ENERGY PREDICTED BY IDOCK:   -3.62 KCAL/MOL
REMARK 927      BINDING AFFINITY PREDICTED BY RF-SCORE:    0.00 PKD
ROOT
HETATM    1  O   UNL     1     -10.269   8.591  66.335  1.00  0.00    -0.273 OA 
HETATM    2  C   UNL     1      -9.370   9.290  65.889  1.00  0.00    -0.236 C  
ENDROOT
BRANCH   2   3
HETATM    3  C   UNL     1      -9.174   9.590  64.423  1.00  0.00    -0.192 C  
BRANCH   3   4
HETATM    4  C   UNL     1      -9.414  11.066  64.097  1.00  0.00    -0.274 C  
BRANCH   4   5
HETATM    5  C   UNL     1     -10.905  11.423  64.086  1.00  0.00    -0.431 C  
BRANCH   5   6
HETATM    6  C   UNL     1     -11.221  12.564  65.020  1.00  0.00    -0.344 A  
HETATM    7  C   UNL     1     -11.050  13.891  64.600  1.00  0.00    -0.389 A  
HETATM    8  C   UNL     1     -11.788  14.691  66.757  1.00  0.00    -0.334 A  
HETATM    9  C   UNL     1     -11.335  14.948  65.465  1.00  0.00    -0.339 A  
HETATM   10  C   UNL     1     -11.673  12.316  66.323  1.00  0.00    -0.431 A  
HETATM   11  C   UNL     1     -11.957  13.375  67.186  1.00  0.00    -0.415 A  
ENDBRANCH   5   6
ENDBRANCH   4   5
ENDBRANCH   3   4
ENDBRANCH   2   3
BRANCH   2  12
HETATM   12  O   UNL     1      -8.407   9.903  66.633  1.00  0.00    -0.123 OA 
BRANCH  12  13
HETATM   13  C   UNL     1      -8.849  10.576  67.828  1.00  0.00    -0.125 C  
BRANCH  13  14
HETATM   14  C   UNL     1      -7.651  11.211  68.541  1.00  0.00    -0.120 C  
BRANCH  14  15
HETATM   15  O   UNL     1      -6.927  12.031  67.600  1.00  0.00    -0.096 OA 
BRANCH  15  16
HETATM   16  C   UNL     1      -6.942  13.370  67.839  1.00  0.00    -0.141 C  
HETATM   17  O   UNL     1      -6.096  13.992  68.463  1.00  0.00    -0.082 OA 
BRANCH  16  18
HETATM   18  C   UNL     1      -8.184  13.984  67.243  1.00  0.00    -0.187 C  
BRANCH  18  19
HETATM   19  C   UNL     1      -8.099  15.506  67.201  1.00  0.00    -0.249 C  
BRANCH  19  20
HETATM   20  C   UNL     1      -8.930  16.182  68.298  1.00  0.00    -0.189 C  
BRANCH  20  21
HETATM   21  C   UNL     1      -9.240  17.602  67.897  1.00  0.00    -0.267 A  
HETATM   22  C   UNL     1      -9.629  20.305  67.280  1.00  0.00    -0.581 A  
HETATM   23  C   UNL     1     -10.068  18.399  68.697  1.00  0.00    -0.407 A  
HETATM   24  C   UNL     1      -8.626  18.168  66.772  1.00  0.00    -0.272 A  
HETATM   25  C   UNL     1     -10.261  19.746  68.387  1.00  0.00    -0.568 A  
HETATM   26  C   UNL     1      -8.819  19.515  66.466  1.00  0.00    -0.395 A  
ENDBRANCH  20  21
ENDBRANCH  19  20
ENDBRANCH  18  19
ENDBRANCH  16  18
ENDBRANCH  15  16
ENDBRANCH  14  15
BRANCH  14  27
HETATM   27  C   UNL     1      -6.687  10.140  69.064  1.00  0.00    -0.054 C  
BRANCH  27  28
HETATM   28  O   UNL     1      -7.394   9.054  69.680  1.00  0.00    -0.060 OA 
BRANCH  28  29
HETATM   29  C   UNL     1      -7.480   9.127  71.038  1.00  0.00    -0.097 C  
HETATM   30  O   UNL     1      -6.570   9.470  71.779  1.00  0.00    -0.302 OA 
BRANCH  29  31
HETATM   31  C   UNL     1      -8.863   8.733  71.493  1.00  0.00    -0.295 C  
BRANCH  31  32
HETATM   32  C   UNL     1      -9.410   7.559  70.688  1.00  0.00    -0.163 C  
BRANCH  32  33
HETATM   33  C   UNL     1     -10.631   7.935  69.838  1.00  0.00    -0.242 C  
BRANCH  33  34
HETATM   34  C   UNL     1     -11.501   8.916  70.582  1.00  0.00    -0.280 A  
HETATM   35  C   UNL     1     -13.232  10.737  71.820  1.00  0.00    -0.523 A  
HETATM   36  C   UNL     1     -12.566   8.458  71.370  1.00  0.00    -0.299 A  
HETATM   37  C   UNL     1     -13.427   9.366  71.986  1.00  0.00    -0.522 A  
HETATM   38  C   UNL     1     -12.168  11.200  71.048  1.00  0.00    -0.438 A  
HETATM   39  C   UNL     1     -11.305  10.295  70.432  1.00  0.00    -0.410 A  
ENDBRANCH  33  34
ENDBRANCH  32  33
ENDBRANCH  31  32
ENDBRANCH  29  31
ENDBRANCH  28  29
ENDBRANCH  27  28
ENDBRANCH  14  27
ENDBRANCH  13  14
ENDBRANCH  12  13
ENDBRANCH   2  12
TORSDOF 20
ENDMDL
MODEL      189
REMARK 921   NORMALIZED FREE ENERGY PREDICTED BY IDOCK:   -4.64 KCAL/MOL
REMARK 922        TOTAL FREE ENERGY PREDICTED BY IDOCK:  -14.75 KCAL/MOL
REMARK 923 INTER-LIGAND FREE ENERGY PREDICTED BY IDOCK:  -10.36 KCAL/MOL
REMARK 924 INTRA-LIGAND FREE ENERGY PREDICTED BY IDOCK:   -4.39 KCAL/MOL
REMARK 927      BINDING AFFINITY PREDICTED BY RF-SCORE:    0.00 PKD
ROOT
HETATM    1  O   UNL     1     -11.348   4.858  73.448  1.00  0.00    -0.333 OA 
HETATM    2  C   UNL     1     -10.998   5.346  72.382  1.00  0.00    -0.240 C  
ENDROOT
BRANCH   2   3
HETATM    3  C   UNL     1      -9.925   4.765  71.493  1.00  0.00    -0.263 C  
BRANCH   3   4
HETATM    4  C   UNL     1     -10.124   5.144  70.024  1.00  0.00    -0.345 C  
BRANCH   4   5
HETATM    5  C   UNL     1      -9.747   4.002  69.074  1.00  0.00    -0.161 C  
BRANCH   5   6
HETATM    6  C   UNL     1      -9.182   4.511  67.772  1.00  0.00    -0.158 A  
HETATM    7  C   UNL     1      -8.247   5.556  67.768  1.00  0.00    -0.100 A  
HETATM    8  C   UNL     1      -8.140   5.477  65.355  1.00  0.00    -0.123 A  
HETATM    9  C   UNL     1      -7.727   6.034  66.564  1.00  0.00    -0.103 A  
HETATM   10  C   UNL     1      -9.593   3.961  66.551  1.00  0.00    -0.211 A  
HETATM   11  C   UNL     1      -9.072   4.441  65.349  1.00  0.00    -0.143 A  
ENDBRANCH   5   6
ENDBRANCH   4   5
ENDBRANCH   3   4
ENDBRANCH   2   3
BRANCH   2  12
HETATM   12  O   UNL     1     -11.512   6.480  71.830  1.00  0.00    -0.270 OA 
BRANCH  12  13
HETATM   13  C   UNL     1     -11.491   7.663  72.653  1.00  0.00    -0.349 C  
BRANCH  13  14
HETATM   14  C   UNL     1     -10.923   8.842  71.857  1.00  0.00    -0.369 C  
BRANCH  14  15
HETATM   15  O   UNL     1     -11.760   9.076  70.706  1.00  0.00    -0.281 OA 
BRANCH  15  16
HETATM   16  C   UNL     1     -12.229  10.344  70.555  1.00  0.00    -0.323 C  
HETATM   17  O   UNL     1     -12.685  11.045  71.445  1.00  0.00    -0.401 OA 
BRANCH  16  18
HETATM   18  C   UNL     1     -12.131  10.758  69.109  1.00  0.00    -0.227 C  
BRANCH  18  19
HETATM   19  C   UNL     1     -11.266  12.002  68.933  1.00  0.00    -0.315 C  
BRANCH  19  20
HETATM   20  C   UNL     1     -12.072  13.240  68.525  1.00  0.00    -0.256 C  
BRANCH  20  21
HETATM   21  C   UNL     1     -11.621  13.716  67.167  1.00  0.00    -0.392 A  
HETATM   22  C   UNL     1     -10.828  14.820  64.720  1.00  0.00    -0.395 A  
HETATM   23  C   UNL     1     -12.548  13.877  66.129  1.00  0.00    -0.426 A  
HETATM   24  C   UNL     1     -10.288  14.093  66.959  1.00  0.00    -0.267 A  
HETATM   25  C   UNL     1     -12.150  14.427  64.910  1.00  0.00    -0.442 A  
HETATM   26  C   UNL     1      -9.894  14.644  65.740  1.00  0.00    -0.359 A  
ENDBRANCH  20  21
ENDBRANCH  19  20
ENDBRANCH  18  19
ENDBRANCH  16  18
ENDBRANCH  15  16
ENDBRANCH  14  15
BRANCH  14  27
HETATM   27  C   UNL     1      -9.508   8.538  71.352  1.00  0.00    -0.213 C  
BRANCH  27  28
HETATM   28  O   UNL     1      -8.827   9.733  70.945  1.00  0.00    -0.134 OA 
BRANCH  28  29
HETATM   29  C   UNL     1      -7.992   9.579  69.879  1.00  0.00    -0.149 C  
HETATM   30  O   UNL     1      -6.821   9.929  69.853  1.00  0.00    -0.068 OA 
BRANCH  29  31
HETATM   31  C   UNL     1      -8.720   8.908  68.742  1.00  0.00    -0.137 C  
BRANCH  31  32
HETATM   32  C   UNL     1      -8.827   9.817  67.523  1.00  0.00    -0.129 C  
BRANCH  32  33
HETATM   33  C   UNL     1      -9.921   9.373  66.543  1.00  0.00    -0.339 C  
BRANCH  33  34
HETATM   34  C   UNL     1      -9.669   9.963  65.179  1.00  0.00    -0.376 A  
HETATM   35  C   UNL     1      -9.359  10.981  62.588  1.00  0.00    -0.348 A  
HETATM   36  C   UNL     1     -10.219  11.205  64.835  1.00  0.00    -0.361 A  
HETATM   37  C   UNL     1     -10.063  11.712  63.544  1.00  0.00    -0.455 A  
HETATM   38  C   UNL     1      -8.798   9.751  62.926  1.00  0.00    -0.255 A  
HETATM   39  C   UNL     1      -8.951   9.243  64.215  1.00  0.00    -0.142 A  
ENDBRANCH  33  34
ENDBRANCH  32  33
ENDBRANCH  31  32
ENDBRANCH  29  31
ENDBRANCH  28  29
ENDBRANCH  27  28
ENDBRANCH  14  27
ENDBRANCH  13  14
ENDBRANCH  12  13
ENDBRANCH   2  12
TORSDOF 20
ENDMDL
MODEL      190
REMARK 921   NORMALIZED FREE ENERGY PREDICTED BY IDOCK:   -4.63 KCAL/MOL
REMARK 922        TOTAL FREE ENERGY PREDICTED BY IDOCK:  -14.72 KCAL/MOL
REMARK 923 INTER-LIGAND FREE ENERGY PREDICTED BY IDOCK:  -10.68 KCAL/MOL
REMARK 924 INTRA-LIGAND FREE ENERGY PREDICTED BY IDOCK:   -4.03 KCAL/MOL
REMARK 927      BINDING AFFINITY PREDICTED BY RF-SCORE:    0.00 PKD
ROOT
HETATM    1  O   UNL     1     -11.026  12.529  66.156  1.00  0.00    -0.268 OA 
HETATM    2  C   UNL     1     -11.444  12.741  67.286  1.00  0.00    -0.337 C  
ENDROOT
BRANCH   2   3
HETATM    3  C   UNL     1     -11.853  14.101  67.798  1.00  0.00    -0.414 C  
BRANCH   3   4
HETATM    4  C   UNL     1     -11.319  15.234  66.920  1.00  0.00    -0.209 C  
BRANCH   4   5
HETATM    5  C   UNL     1     -10.074  15.897  67.520  1.00  0.00    -0.247 C  
BRANCH   5   6
HETATM    6  C   UNL     1     -10.139  17.401  67.440  1.00  0.00    -0.321 A  
HETATM    7  C   UNL     1     -10.032  18.177  68.604  1.00  0.00    -0.409 A  
HETATM    8  C   UNL     1     -10.278  20.199  67.305  1.00  0.00    -0.540 A  
HETATM    9  C   UNL     1     -10.098  19.569  68.534  1.00  0.00    -0.543 A  
HETATM   10  C   UNL     1     -10.324  18.045  66.210  1.00  0.00    -0.384 A  
HETATM   11  C   UNL     1     -10.390  19.437  66.143  1.00  0.00    -0.595 A  
ENDBRANCH   5   6
ENDBRANCH   4   5
ENDBRANCH   3   4
ENDBRANCH   2   3
BRANCH   2  12
HETATM   12  O   UNL     1     -11.605  11.799  68.255  1.00  0.00    -0.269 OA 
BRANCH  12  13
HETATM   13  C   UNL     1     -10.533  10.849  68.415  1.00  0.00    -0.183 C  
BRANCH  13  14
HETATM   14  C   UNL     1     -10.540  10.288  69.840  1.00  0.00    -0.276 C  
BRANCH  14  15
HETATM   15  O   UNL     1      -9.825   9.036  69.853  1.00  0.00    -0.171 OA 
BRANCH  15  16
HETATM   16  C   UNL     1      -8.791   8.948  70.732  1.00  0.00    -0.208 C  
HETATM   17  O   UNL     1      -8.829   9.264  71.911  1.00  0.00    -0.274 OA 
BRANCH  16  18
HETATM   18  C   UNL     1      -7.563   8.426  70.029  1.00  0.00    -0.068 C  
BRANCH  18  19
HETATM   19  C   UNL     1      -7.871   7.990  68.601  1.00  0.00    -0.118 C  
BRANCH  19  20
HETATM   20  C   UNL     1      -6.782   7.092  68.000  1.00  0.00    -0.065 C  
BRANCH  20  21
HETATM   21  C   UNL     1      -7.144   6.735  66.581  1.00  0.00    -0.072 A  
HETATM   22  C   UNL     1      -7.614   6.177  63.878  1.00  0.00    -0.089 A  
HETATM   23  C   UNL     1      -7.875   7.630  65.790  1.00  0.00    -0.106 A  
HETATM   24  C   UNL     1      -6.669   5.547  66.009  1.00  0.00    -0.056 A  
HETATM   25  C   UNL     1      -8.109   7.349  64.443  1.00  0.00    -0.070 A  
HETATM   26  C   UNL     1      -6.903   5.270  64.663  1.00  0.00    -0.048 A  
ENDBRANCH  20  21
ENDBRANCH  19  20
ENDBRANCH  18  19
ENDBRANCH  16  18
ENDBRANCH  15  16
ENDBRANCH  14  15
BRANCH  14  27
HETATM   27  C   UNL     1     -11.971  10.013  70.318  1.00  0.00    -0.187 C  
BRANCH  27  28
HETATM   28  O   UNL     1     -12.025   9.848  71.743  1.00  0.00    -0.381 OA 
BRANCH  28  29
HETATM   29  C   UNL     1     -12.759   8.780  72.165  1.00  0.00    -0.400 C  
HETATM   30  O   UNL     1     -13.967   8.793  72.354  1.00  0.00    -0.435 OA 
BRANCH  29  31
HETATM   31  C   UNL     1     -11.867   7.579  72.355  1.00  0.00    -0.305 C  
BRANCH  31  32
HETATM   32  C   UNL     1     -11.948   6.620  71.173  1.00  0.00    -0.412 C  
BRANCH  32  33
HETATM   33  C   UNL     1     -10.607   5.945  70.859  1.00  0.00    -0.319 C  
BRANCH  33  34
HETATM   34  C   UNL     1     -10.529   5.595  69.395  1.00  0.00    -0.367 A  
HETATM   35  C   UNL     1     -10.229   5.043  66.666  1.00  0.00    -0.299 A  
HETATM   36  C   UNL     1      -9.777   4.489  68.974  1.00  0.00    -0.235 A  
HETATM   37  C   UNL     1      -9.629   4.216  67.614  1.00  0.00    -0.213 A  
HETATM   38  C   UNL     1     -10.988   6.137  67.077  1.00  0.00    -0.414 A  
HETATM   39  C   UNL     1     -11.139   6.412  68.436  1.00  0.00    -0.374 A  
ENDBRANCH  33  34
ENDBRANCH  32  33
ENDBRANCH  31  32
ENDBRANCH  29  31
ENDBRANCH  28  29
ENDBRANCH  27  28
ENDBRANCH  14  27
ENDBRANCH  13  14
ENDBRANCH  12  13
ENDBRANCH   2  12
TORSDOF 20
ENDMDL
MODEL      191
REMARK 921   NORMALIZED FREE ENERGY PREDICTED BY IDOCK:   -4.62 KCAL/MOL
REMARK 922        TOTAL FREE ENERGY PREDICTED BY IDOCK:  -14.70 KCAL/MOL
REMARK 923 INTER-LIGAND FREE ENERGY PREDICTED BY IDOCK:  -11.55 KCAL/MOL
REMARK 924 INTRA-LIGAND FREE ENERGY PREDICTED BY IDOCK:   -3.15 KCAL/MOL
REMARK 927      BINDING AFFINITY PREDICTED BY RF-SCORE:    0.00 PKD
ROOT
HETATM    1  O   UNL     1     -11.017   9.122  68.520  1.00  0.00    -0.096 OA 
HETATM    2  C   UNL     1     -10.444   9.822  69.343  1.00  0.00    -0.223 C  
ENDROOT
BRANCH   2   3
HETATM    3  C   UNL     1     -10.591   9.668  70.838  1.00  0.00    -0.386 C  
BRANCH   3   4
HETATM    4  C   UNL     1     -11.945  10.170  71.342  1.00  0.00    -0.447 C  
BRANCH   4   5
HETATM    5  C   UNL     1     -12.620  11.118  70.344  1.00  0.00    -0.328 C  
BRANCH   5   6
HETATM    6  C   UNL     1     -12.639  12.542  70.840  1.00  0.00    -0.331 A  
HETATM    7  C   UNL     1     -12.082  13.569  70.064  1.00  0.00    -0.411 A  
HETATM    8  C   UNL     1     -12.655  15.190  71.762  1.00  0.00    -0.418 A  
HETATM    9  C   UNL     1     -12.092  14.886  70.523  1.00  0.00    -0.378 A  
HETATM   10  C   UNL     1     -13.198  12.858  72.085  1.00  0.00    -0.552 A  
HETATM   11  C   UNL     1     -13.207  14.176  72.542  1.00  0.00    -0.596 A  
ENDBRANCH   5   6
ENDBRANCH   4   5
ENDBRANCH   3   4
ENDBRANCH   2   3
BRANCH   2  12
HETATM   12  O   UNL     1      -9.594  10.845  69.051  1.00  0.00    -0.200 OA 
BRANCH  12  13
HETATM   13  C   UNL     1      -9.983  11.719  67.975  1.00  0.00    -0.188 C  
BRANCH  13  14
HETATM   14  C   UNL     1      -9.538  11.127  66.635  1.00  0.00    -0.190 C  
BRANCH  14  15
HETATM   15  O   UNL     1      -8.338  11.801  66.202  1.00  0.00    -0.055 OA 
BRANCH  15  16
HETATM   16  C   UNL     1      -7.163  11.250  66.610  1.00  0.00    -0.126 C  
HETATM   17  O   UNL     1      -6.261  11.841  67.183  1.00  0.00    -0.116 OA 
BRANCH  16  18
HETATM   18  C   UNL     1      -7.118   9.794  66.223  1.00  0.00    -0.095 C  
BRANCH  18  19
HETATM   19  C   UNL     1      -7.002   8.887  67.444  1.00  0.00    -0.075 C  
BRANCH  19  20
HETATM   20  C   UNL     1      -7.718   7.544  67.263  1.00  0.00    -0.116 C  
BRANCH  20  21
HETATM   21  C   UNL     1      -8.194   7.038  68.601  1.00  0.00    -0.122 A  
HETATM   22  C   UNL     1      -8.908   5.935  71.073  1.00  0.00    -0.141 A  
HETATM   23  C   UNL     1      -9.161   6.027  68.673  1.00  0.00    -0.115 A  
HETATM   24  C   UNL     1      -7.605   7.506  69.783  1.00  0.00    -0.094 A  
HETATM   25  C   UNL     1      -9.516   5.479  69.907  1.00  0.00    -0.203 A  
HETATM   26  C   UNL     1      -7.959   6.955  71.014  1.00  0.00    -0.102 A  
ENDBRANCH  20  21
ENDBRANCH  19  20
ENDBRANCH  18  19
ENDBRANCH  16  18
ENDBRANCH  15  16
ENDBRANCH  14  15
BRANCH  14  27
HETATM   27  C   UNL     1     -10.606  11.338  65.555  1.00  0.00    -0.246 C  
BRANCH  27  28
HETATM   28  O   UNL     1     -10.810  12.732  65.283  1.00  0.00    -0.281 OA 
BRANCH  28  29
HETATM   29  C   UNL     1     -12.115  13.124  65.263  1.00  0.00    -0.429 C  
HETATM   30  O   UNL     1     -13.018  12.519  64.703  1.00  0.00    -0.803 OA 
BRANCH  29  31
HETATM   31  C   UNL     1     -12.284  14.407  66.037  1.00  0.00    -0.352 C  
BRANCH  31  32
HETATM   32  C   UNL     1     -10.947  14.956  66.522  1.00  0.00    -0.327 C  
BRANCH  32  33
HETATM   33  C   UNL     1     -10.461  16.156  65.698  1.00  0.00    -0.402 C  
BRANCH  33  34
HETATM   34  C   UNL     1     -10.374  17.384  66.567  1.00  0.00    -0.312 A  
HETATM   35  C   UNL     1     -10.029  19.663  68.159  1.00  0.00    -0.547 A  
HETATM   36  C   UNL     1     -10.364  18.659  65.986  1.00  0.00    -0.436 A  
HETATM   37  C   UNL     1     -10.192  19.794  66.780  1.00  0.00    -0.582 A  
HETATM   38  C   UNL     1     -10.050  18.399  68.745  1.00  0.00    -0.393 A  
HETATM   39  C   UNL     1     -10.223  17.263  67.954  1.00  0.00    -0.332 A  
ENDBRANCH  33  34
ENDBRANCH  32  33
ENDBRANCH  31  32
ENDBRANCH  29  31
ENDBRANCH  28  29
ENDBRANCH  27  28
ENDBRANCH  14  27
ENDBRANCH  13  14
ENDBRANCH  12  13
ENDBRANCH   2  12
TORSDOF 20
ENDMDL
MODEL      192
REMARK 921   NORMALIZED FREE ENERGY PREDICTED BY IDOCK:   -4.60 KCAL/MOL
REMARK 922        TOTAL FREE ENERGY PREDICTED BY IDOCK:  -14.65 KCAL/MOL
REMARK 923 INTER-LIGAND FREE ENERGY PREDICTED BY IDOCK:   -9.60 KCAL/MOL
REMARK 924 INTRA-LIGAND FREE ENERGY PREDICTED BY IDOCK:   -5.06 KCAL/MOL
REMARK 927      BINDING AFFINITY PREDICTED BY RF-SCORE:    0.00 PKD
ROOT
HETATM    1  O   UNL     1     -14.070  13.719  72.761  1.00  0.00    -0.694 OA 
HETATM    2  C   UNL     1     -13.141  14.157  72.098  1.00  0.00    -0.401 C  
ENDROOT
BRANCH   2   3
HETATM    3  C   UNL     1     -12.758  15.616  72.032  1.00  0.00    -0.508 C  
BRANCH   3   4
HETATM    4  C   UNL     1     -11.586  15.864  71.081  1.00  0.00    -0.481 C  
BRANCH   4   5
HETATM    5  C   UNL     1     -12.032  15.949  69.618  1.00  0.00    -0.272 C  
BRANCH   5   6
HETATM    6  C   UNL     1     -10.860  15.988  68.669  1.00  0.00    -0.301 A  
HETATM    7  C   UNL     1     -10.728  17.040  67.751  1.00  0.00    -0.318 A  
HETATM    8  C   UNL     1      -8.694  16.059  66.890  1.00  0.00    -0.259 A  
HETATM    9  C   UNL     1      -9.648  17.075  66.869  1.00  0.00    -0.263 A  
HETATM   10  C   UNL     1      -9.898  14.970  68.680  1.00  0.00    -0.222 A  
HETATM   11  C   UNL     1      -8.820  15.007  67.796  1.00  0.00    -0.172 A  
ENDBRANCH   5   6
ENDBRANCH   4   5
ENDBRANCH   3   4
ENDBRANCH   2   3
BRANCH   2  12
HETATM   12  O   UNL     1     -12.309  13.411  71.319  1.00  0.00    -0.321 OA 
BRANCH  12  13
HETATM   13  C   UNL     1     -12.898  12.280  70.649  1.00  0.00     0.066 C  
BRANCH  13  14
HETATM   14  C   UNL     1     -11.797  11.375  70.087  1.00  0.00    -0.355 C  
BRANCH  14  15
HETATM   15  O   UNL     1     -12.148  10.991  68.741  1.00  0.00    -0.518 OA 
BRANCH  15  16
HETATM   16  C   UNL     1     -11.606  11.741  67.745  1.00  0.00    -0.304 C  
HETATM   17  O   UNL     1     -12.224  12.467  66.982  1.00  0.00    -0.508 OA 
BRANCH  16  18
HETATM   18  C   UNL     1     -10.114  11.525  67.695  1.00  0.00    -0.202 C  
BRANCH  18  19
HETATM   19  C   UNL     1      -9.584  11.567  66.266  1.00  0.00    -0.239 C  
BRANCH  19  20
HETATM   20  C   UNL     1     -10.225  10.512  65.357  1.00  0.00    -0.340 C  
BRANCH  20  21
HETATM   21  C   UNL     1      -9.265   9.369  65.149  1.00  0.00    -0.287 A  
HETATM   22  C   UNL     1      -7.346   7.342  64.933  1.00  0.00    -0.080 A  
HETATM   23  C   UNL     1      -8.202   9.493  64.244  1.00  0.00    -0.157 A  
HETATM   24  C   UNL     1      -9.368   8.210  65.929  1.00  0.00    -0.126 A  
HETATM   25  C   UNL     1      -7.248   8.480  64.138  1.00  0.00    -0.092 A  
HETATM   26  C   UNL     1      -8.411   7.201  65.822  1.00  0.00    -0.144 A  
ENDBRANCH  20  21
ENDBRANCH  19  20
ENDBRANCH  18  19
ENDBRANCH  16  18
ENDBRANCH  15  16
ENDBRANCH  14  15
BRANCH  14  27
HETATM   27  C   UNL     1     -11.658  10.093  70.917  1.00  0.00    -0.372 C  
BRANCH  27  28
HETATM   28  O   UNL     1     -10.293   9.656  70.983  1.00  0.00    -0.298 OA 
BRANCH  28  29
HETATM   29  C   UNL     1     -10.119   8.407  71.499  1.00  0.00    -0.226 C  
HETATM   30  O   UNL     1     -10.681   7.978  72.496  1.00  0.00    -0.288 OA 
BRANCH  29  31
HETATM   31  C   UNL     1      -9.140   7.629  70.656  1.00  0.00    -0.158 C  
BRANCH  31  32
HETATM   32  C   UNL     1      -8.610   8.460  69.492  1.00  0.00    -0.129 C  
BRANCH  32  33
HETATM   33  C   UNL     1      -7.135   8.848  69.659  1.00  0.00    -0.054 C  
BRANCH  33  34
HETATM   34  C   UNL     1      -6.821  10.068  68.832  1.00  0.00    -0.054 A  
HETATM   35  C   UNL     1      -6.058  12.312  67.338  1.00  0.00    -0.153 A  
HETATM   36  C   UNL     1      -6.445   9.931  67.488  1.00  0.00    -0.068 A  
HETATM   37  C   UNL     1      -6.066  11.049  66.746  1.00  0.00    -0.104 A  
HETATM   38  C   UNL     1      -6.443  12.457  68.670  1.00  0.00    -0.077 A  
HETATM   39  C   UNL     1      -6.823  11.341  69.414  1.00  0.00    -0.121 A  
ENDBRANCH  33  34
ENDBRANCH  32  33
ENDBRANCH  31  32
ENDBRANCH  29  31
ENDBRANCH  28  29
ENDBRANCH  27  28
ENDBRANCH  14  27
ENDBRANCH  13  14
ENDBRANCH  12  13
ENDBRANCH   2  12
TORSDOF 20
ENDMDL
MODEL      193
REMARK 921   NORMALIZED FREE ENERGY PREDICTED BY IDOCK:   -4.60 KCAL/MOL
REMARK 922        TOTAL FREE ENERGY PREDICTED BY IDOCK:  -14.65 KCAL/MOL
REMARK 923 INTER-LIGAND FREE ENERGY PREDICTED BY IDOCK:   -9.35 KCAL/MOL
REMARK 924 INTRA-LIGAND FREE ENERGY PREDICTED BY IDOCK:   -5.30 KCAL/MOL
REMARK 927      BINDING AFFINITY PREDICTED BY RF-SCORE:    0.00 PKD
ROOT
HETATM    1  O   UNL     1     -13.058   9.917  70.871  1.00  0.00    -0.348 OA 
HETATM    2  C   UNL     1     -11.911  10.314  70.726  1.00  0.00    -0.365 C  
ENDROOT
BRANCH   2   3
HETATM    3  C   UNL     1     -10.683   9.491  71.032  1.00  0.00    -0.411 C  
BRANCH   3   4
HETATM    4  C   UNL     1      -9.729   9.410  69.838  1.00  0.00    -0.236 C  
BRANCH   4   5
HETATM    5  C   UNL     1     -10.332   8.633  68.664  1.00  0.00    -0.219 C  
BRANCH   5   6
HETATM    6  C   UNL     1      -9.282   7.888  67.879  1.00  0.00    -0.139 A  
HETATM    7  C   UNL     1      -7.924   8.035  68.196  1.00  0.00    -0.128 A  
HETATM    8  C   UNL     1      -7.322   6.520  66.413  1.00  0.00    -0.074 A  
HETATM    9  C   UNL     1      -6.950   7.351  67.468  1.00  0.00    -0.079 A  
HETATM   10  C   UNL     1      -9.645   7.052  66.814  1.00  0.00    -0.221 A  
HETATM   11  C   UNL     1      -8.669   6.370  66.087  1.00  0.00    -0.151 A  
ENDBRANCH   5   6
ENDBRANCH   4   5
ENDBRANCH   3   4
ENDBRANCH   2   3
BRANCH   2  12
HETATM   12  O   UNL     1     -11.556  11.549  70.273  1.00  0.00    -0.304 OA 
BRANCH  12  13
HETATM   13  C   UNL     1     -12.145  11.972  69.029  1.00  0.00    -0.166 C  
BRANCH  13  14
HETATM   14  C   UNL     1     -11.745  13.419  68.728  1.00  0.00    -0.340 C  
BRANCH  14  15
HETATM   15  O   UNL     1     -12.377  14.289  69.689  1.00  0.00    -0.329 OA 
BRANCH  15  16
HETATM   16  C   UNL     1     -11.553  15.143  70.354  1.00  0.00    -0.292 C  
HETATM   17  O   UNL     1     -11.321  15.121  71.553  1.00  0.00    -0.365 OA 
BRANCH  16  18
HETATM   18  C   UNL     1     -10.981  16.156  69.394  1.00  0.00    -0.333 C  
BRANCH  18  19
HETATM   19  C   UNL     1      -9.457  16.191  69.450  1.00  0.00    -0.198 C  
BRANCH  19  20
HETATM   20  C   UNL     1      -8.797  15.571  68.213  1.00  0.00    -0.179 C  
BRANCH  20  21
HETATM   21  C   UNL     1      -8.051  14.322  68.608  1.00  0.00    -0.140 A  
HETATM   22  C   UNL     1      -6.541  12.026  69.142  1.00  0.00    -0.107 A  
HETATM   23  C   UNL     1      -8.498  13.065  68.181  1.00  0.00    -0.176 A  
HETATM   24  C   UNL     1      -6.851  14.414  69.325  1.00  0.00    -0.129 A  
HETATM   25  C   UNL     1      -7.743  11.922  68.449  1.00  0.00    -0.131 A  
HETATM   26  C   UNL     1      -6.098  13.270  69.590  1.00  0.00    -0.118 A  
ENDBRANCH  20  21
ENDBRANCH  19  20
ENDBRANCH  18  19
ENDBRANCH  16  18
ENDBRANCH  15  16
ENDBRANCH  14  15
BRANCH  14  27
HETATM   27  C   UNL     1     -12.218  13.844  67.333  1.00  0.00    -0.256 C  
BRANCH  27  28
HETATM   28  O   UNL     1     -12.296  12.723  66.440  1.00  0.00    -0.500 OA 
BRANCH  28  29
HETATM   29  C   UNL     1     -12.396  13.051  65.121  1.00  0.00    -0.484 C  
HETATM   30  O   UNL     1     -13.119  13.928  64.672  1.00  0.00    -0.527 OA 
BRANCH  29  31
HETATM   31  C   UNL     1     -11.480  12.180  64.299  1.00  0.00    -0.437 C  
BRANCH  31  32
HETATM   32  C   UNL     1     -10.166  11.900  65.020  1.00  0.00    -0.316 C  
BRANCH  32  33
HETATM   33  C   UNL     1      -9.980  10.418  65.369  1.00  0.00    -0.362 C  
BRANCH  33  34
HETATM   34  C   UNL     1      -8.695   9.900  64.776  1.00  0.00    -0.210 A  
HETATM   35  C   UNL     1      -6.289   9.100  63.585  1.00  0.00    -0.089 A  
HETATM   36  C   UNL     1      -7.469  10.182  65.395  1.00  0.00    -0.144 A  
HETATM   37  C   UNL     1      -6.272   9.783  64.801  1.00  0.00    -0.095 A  
HETATM   38  C   UNL     1      -7.505   8.805  62.970  1.00  0.00    -0.102 A  
HETATM   39  C   UNL     1      -8.703   9.202  63.562  1.00  0.00    -0.148 A  
ENDBRANCH  33  34
ENDBRANCH  32  33
ENDBRANCH  31  32
ENDBRANCH  29  31
ENDBRANCH  28  29
ENDBRANCH  27  28
ENDBRANCH  14  27
ENDBRANCH  13  14
ENDBRANCH  12  13
ENDBRANCH   2  12
TORSDOF 20
ENDMDL
MODEL      194
REMARK 921   NORMALIZED FREE ENERGY PREDICTED BY IDOCK:   -4.58 KCAL/MOL
REMARK 922        TOTAL FREE ENERGY PREDICTED BY IDOCK:  -14.62 KCAL/MOL
REMARK 923 INTER-LIGAND FREE ENERGY PREDICTED BY IDOCK:  -11.37 KCAL/MOL
REMARK 924 INTRA-LIGAND FREE ENERGY PREDICTED BY IDOCK:   -3.25 KCAL/MOL
REMARK 927      BINDING AFFINITY PREDICTED BY RF-SCORE:    0.00 PKD
ROOT
HETATM    1  O   UNL     1     -11.284  13.362  64.661  1.00  0.00    -0.330 OA 
HETATM    2  C   UNL     1     -11.176  12.303  65.264  1.00  0.00    -0.328 C  
ENDROOT
BRANCH   2   3
HETATM    3  C   UNL     1     -10.478  11.081  64.716  1.00  0.00    -0.384 C  
BRANCH   3   4
HETATM    4  C   UNL     1      -9.484  10.486  65.715  1.00  0.00    -0.249 C  
BRANCH   4   5
HETATM    5  C   UNL     1     -10.043   9.247  66.423  1.00  0.00    -0.337 C  
BRANCH   5   6
HETATM    6  C   UNL     1      -8.950   8.321  66.892  1.00  0.00    -0.169 A  
HETATM    7  C   UNL     1      -8.023   8.752  67.853  1.00  0.00    -0.107 A  
HETATM    8  C   UNL     1      -6.902   6.613  67.759  1.00  0.00    -0.080 A  
HETATM    9  C   UNL     1      -7.006   7.899  68.285  1.00  0.00    -0.073 A  
HETATM   10  C   UNL     1      -8.833   7.028  66.367  1.00  0.00    -0.158 A  
HETATM   11  C   UNL     1      -7.815   6.178  66.800  1.00  0.00    -0.104 A  
ENDBRANCH   5   6
ENDBRANCH   4   5
ENDBRANCH   3   4
ENDBRANCH   2   3
BRANCH   2  12
HETATM   12  O   UNL     1     -11.662  12.054  66.511  1.00  0.00    -0.523 OA 
BRANCH  12  13
HETATM   13  C   UNL     1     -12.026  13.203  67.301  1.00  0.00    -0.335 C  
BRANCH  13  14
HETATM   14  C   UNL     1     -11.151  13.272  68.556  1.00  0.00    -0.265 C  
BRANCH  14  15
HETATM   15  O   UNL     1      -9.955  12.496  68.336  1.00  0.00    -0.224 OA 
BRANCH  15  16
HETATM   16  C   UNL     1      -8.800  13.202  68.207  1.00  0.00    -0.175 C  
HETATM   17  O   UNL     1      -7.675  12.727  68.164  1.00  0.00    -0.116 OA 
BRANCH  16  18
HETATM   18  C   UNL     1      -9.104  14.678  68.153  1.00  0.00    -0.187 C  
BRANCH  18  19
HETATM   19  C   UNL     1      -8.553  15.324  66.887  1.00  0.00    -0.289 C  
BRANCH  19  20
HETATM   20  C   UNL     1      -7.554  16.451  67.175  1.00  0.00    -0.224 C  
BRANCH  20  21
HETATM   21  C   UNL     1      -8.291  17.757  67.323  1.00  0.00    -0.228 A  
HETATM   22  C   UNL     1      -9.862  20.058  67.596  1.00  0.00    -0.548 A  
HETATM   23  C   UNL     1      -8.709  18.468  66.191  1.00  0.00    -0.137 A  
HETATM   24  C   UNL     1      -8.651  18.223  68.595  1.00  0.00    -0.301 A  
HETATM   25  C   UNL     1      -9.491  19.615  66.330  1.00  0.00    -0.474 A  
HETATM   26  C   UNL     1      -9.435  19.369  68.730  1.00  0.00    -0.464 A  
ENDBRANCH  20  21
ENDBRANCH  19  20
ENDBRANCH  18  19
ENDBRANCH  16  18
ENDBRANCH  15  16
ENDBRANCH  14  15
BRANCH  14  27
HETATM   27  C   UNL     1     -11.877  12.676  69.769  1.00  0.00    -0.309 C  
BRANCH  27  28
HETATM   28  O   UNL     1     -12.212  11.298  69.555  1.00  0.00    -0.308 OA 
BRANCH  28  29
HETATM   29  C   UNL     1     -11.732  10.441  70.500  1.00  0.00    -0.344 C  
HETATM   30  O   UNL     1     -10.577  10.047  70.564  1.00  0.00    -0.292 OA 
BRANCH  29  31
HETATM   31  C   UNL     1     -12.831  10.058  71.459  1.00  0.00    -0.537 C  
BRANCH  31  32
HETATM   32  C   UNL     1     -12.542   8.730  72.151  1.00  0.00    -0.463 C  
BRANCH  32  33
HETATM   33  C   UNL     1     -12.951   7.516  71.307  1.00  0.00    -0.323 C  
BRANCH  33  34
HETATM   34  C   UNL     1     -11.759   6.627  71.060  1.00  0.00    -0.415 A  
HETATM   35  C   UNL     1      -9.435   5.124  70.628  1.00  0.00    -0.229 A  
HETATM   36  C   UNL     1     -11.089   6.031  72.138  1.00  0.00    -0.328 A  
HETATM   37  C   UNL     1      -9.932   5.282  71.921  1.00  0.00    -0.240 A  
HETATM   38  C   UNL     1     -10.102   5.704  69.550  1.00  0.00    -0.292 A  
HETATM   39  C   UNL     1     -11.259   6.452  69.764  1.00  0.00    -0.484 A  
ENDBRANCH  33  34
ENDBRANCH  32  33
ENDBRANCH  31  32
ENDBRANCH  29  31
ENDBRANCH  28  29
ENDBRANCH  27  28
ENDBRANCH  14  27
ENDBRANCH  13  14
ENDBRANCH  12  13
ENDBRANCH   2  12
TORSDOF 20
ENDMDL
MODEL      195
REMARK 921   NORMALIZED FREE ENERGY PREDICTED BY IDOCK:   -4.57 KCAL/MOL
REMARK 922        TOTAL FREE ENERGY PREDICTED BY IDOCK:  -14.59 KCAL/MOL
REMARK 923 INTER-LIGAND FREE ENERGY PREDICTED BY IDOCK:   -9.79 KCAL/MOL
REMARK 924 INTRA-LIGAND FREE ENERGY PREDICTED BY IDOCK:   -4.80 KCAL/MOL
REMARK 927      BINDING AFFINITY PREDICTED BY RF-SCORE:    0.00 PKD
ROOT
HETATM    1  O   UNL     1      -6.640  10.723  70.879  1.00  0.00    -0.296 OA 
HETATM    2  C   UNL     1      -6.692   9.649  70.296  1.00  0.00    -0.099 C  
ENDROOT
BRANCH   2   3
HETATM    3  C   UNL     1      -6.155   8.352  70.853  1.00  0.00    -0.034 C  
BRANCH   3   4
HETATM    4  C   UNL     1      -7.053   7.780  71.952  1.00  0.00    -0.067 C  
BRANCH   4   5
HETATM    5  C   UNL     1      -7.305   6.279  71.772  1.00  0.00    -0.093 C  
BRANCH   5   6
HETATM    6  C   UNL     1      -8.531   5.817  72.518  1.00  0.00    -0.117 A  
HETATM    7  C   UNL     1      -9.198   4.647  72.129  1.00  0.00    -0.159 A  
HETATM    8  C   UNL     1     -10.823   4.961  73.889  1.00  0.00    -0.355 A  
HETATM    9  C   UNL     1     -10.337   4.221  72.814  1.00  0.00    -0.243 A  
HETATM   10  C   UNL     1      -9.031   6.557  73.598  1.00  0.00    -0.140 A  
HETATM   11  C   UNL     1     -10.170   6.129  74.281  1.00  0.00    -0.326 A  
ENDBRANCH   5   6
ENDBRANCH   4   5
ENDBRANCH   3   4
ENDBRANCH   2   3
BRANCH   2  12
HETATM   12  O   UNL     1      -7.234   9.449  69.062  1.00  0.00    -0.069 OA 
BRANCH  12  13
HETATM   13  C   UNL     1      -7.175  10.558  68.146  1.00  0.00    -0.087 C  
BRANCH  13  14
HETATM   14  C   UNL     1      -8.549  11.229  68.050  1.00  0.00    -0.140 C  
BRANCH  14  15
HETATM   15  O   UNL     1      -9.242  10.714  66.895  1.00  0.00    -0.154 OA 
BRANCH  15  16
HETATM   16  C   UNL     1     -10.269   9.858  67.147  1.00  0.00    -0.228 C  
HETATM   17  O   UNL     1     -11.306  10.142  67.726  1.00  0.00    -0.274 OA 
BRANCH  16  18
HETATM   18  C   UNL     1      -9.930   8.483  66.629  1.00  0.00    -0.363 C  
BRANCH  18  19
HETATM   19  C   UNL     1     -10.513   7.386  67.513  1.00  0.00    -0.338 C  
BRANCH  19  20
HETATM   20  C   UNL     1      -9.697   7.147  68.789  1.00  0.00    -0.145 C  
BRANCH  20  21
HETATM   21  C   UNL     1     -10.534   7.484  69.997  1.00  0.00    -0.231 A  
HETATM   22  C   UNL     1     -12.230   8.230  72.095  1.00  0.00    -0.418 A  
HETATM   23  C   UNL     1     -10.284   8.652  70.729  1.00  0.00    -0.250 A  
HETATM   24  C   UNL     1     -11.630   6.682  70.342  1.00  0.00    -0.457 A  
HETATM   25  C   UNL     1     -11.130   9.021  71.775  1.00  0.00    -0.444 A  
HETATM   26  C   UNL     1     -12.475   7.055  71.386  1.00  0.00    -0.426 A  
ENDBRANCH  20  21
ENDBRANCH  19  20
ENDBRANCH  18  19
ENDBRANCH  16  18
ENDBRANCH  15  16
ENDBRANCH  14  15
BRANCH  14  27
HETATM   27  C   UNL     1      -8.412  12.746  67.873  1.00  0.00    -0.173 C  
BRANCH  27  28
HETATM   28  O   UNL     1      -7.494  13.305  68.824  1.00  0.00    -0.107 OA 
BRANCH  28  29
HETATM   29  C   UNL     1      -6.622  14.216  68.308  1.00  0.00    -0.114 C  
HETATM   30  O   UNL     1      -5.874  14.010  67.363  1.00  0.00    -0.352 OA 
BRANCH  29  31
HETATM   31  C   UNL     1      -6.720  15.515  69.066  1.00  0.00    -0.131 C  
BRANCH  31  32
HETATM   32  C   UNL     1      -6.765  16.716  68.127  1.00  0.00    -0.148 C  
BRANCH  32  33
HETATM   33  C   UNL     1      -7.123  18.023  68.847  1.00  0.00    -0.268 C  
BRANCH  33  34
HETATM   34  C   UNL     1      -8.352  18.638  68.230  1.00  0.00    -0.350 A  
HETATM   35  C   UNL     1     -10.578  19.720  66.918  1.00  0.00    -0.588 A  
HETATM   36  C   UNL     1      -9.504  17.864  68.031  1.00  0.00    -0.279 A  
HETATM   37  C   UNL     1     -10.612  18.404  67.378  1.00  0.00    -0.445 A  
HETATM   38  C   UNL     1      -9.441  20.500  67.122  1.00  0.00    -0.544 A  
HETATM   39  C   UNL     1      -8.333  19.963  67.776  1.00  0.00    -0.343 A  
ENDBRANCH  33  34
ENDBRANCH  32  33
ENDBRANCH  31  32
ENDBRANCH  29  31
ENDBRANCH  28  29
ENDBRANCH  27  28
ENDBRANCH  14  27
ENDBRANCH  13  14
ENDBRANCH  12  13
ENDBRANCH   2  12
TORSDOF 20
ENDMDL
MODEL      196
REMARK 921   NORMALIZED FREE ENERGY PREDICTED BY IDOCK:   -4.55 KCAL/MOL
REMARK 922        TOTAL FREE ENERGY PREDICTED BY IDOCK:  -14.56 KCAL/MOL
REMARK 923 INTER-LIGAND FREE ENERGY PREDICTED BY IDOCK:  -11.84 KCAL/MOL
REMARK 924 INTRA-LIGAND FREE ENERGY PREDICTED BY IDOCK:   -2.72 KCAL/MOL
REMARK 927      BINDING AFFINITY PREDICTED BY RF-SCORE:    0.00 PKD
ROOT
HETATM    1  O   UNL     1      -8.235   7.848  68.149  1.00  0.00    -0.121 OA 
HETATM    2  C   UNL     1      -9.433   8.086  68.081  1.00  0.00    -0.143 C  
ENDROOT
BRANCH   2   3
HETATM    3  C   UNL     1     -10.120   8.643  66.858  1.00  0.00    -0.355 C  
BRANCH   3   4
HETATM    4  C   UNL     1      -9.620  10.044  66.501  1.00  0.00    -0.237 C  
BRANCH   4   5
HETATM    5  C   UNL     1     -10.028  10.463  65.084  1.00  0.00    -0.390 C  
BRANCH   5   6
HETATM    6  C   UNL     1     -10.893  11.698  65.086  1.00  0.00    -0.346 A  
HETATM    7  C   UNL     1     -11.233  12.321  66.295  1.00  0.00    -0.367 A  
HETATM    8  C   UNL     1     -12.516  13.984  65.101  1.00  0.00    -0.472 A  
HETATM    9  C   UNL     1     -12.039  13.460  66.301  1.00  0.00    -0.475 A  
HETATM   10  C   UNL     1     -11.382  12.230  63.886  1.00  0.00    -0.501 A  
HETATM   11  C   UNL     1     -12.188  13.368  63.894  1.00  0.00    -0.478 A  
ENDBRANCH   5   6
ENDBRANCH   4   5
ENDBRANCH   3   4
ENDBRANCH   2   3
BRANCH   2  12
HETATM   12  O   UNL     1     -10.332   7.891  69.086  1.00  0.00    -0.213 OA 
BRANCH  12  13
HETATM   13  C   UNL     1     -10.939   6.587  69.162  1.00  0.00    -0.323 C  
BRANCH  13  14
HETATM   14  C   UNL     1     -10.585   5.925  70.497  1.00  0.00    -0.275 C  
BRANCH  14  15
HETATM   15  O   UNL     1     -10.420   4.507  70.286  1.00  0.00    -0.063 OA 
BRANCH  15  16
HETATM   16  C   UNL     1      -9.423   3.910  70.993  1.00  0.00    -0.166 C  
HETATM   17  O   UNL     1      -8.705   4.459  71.815  1.00  0.00    -0.111 OA 
BRANCH  16  18
HETATM   18  C   UNL     1      -9.307   2.461  70.593  1.00  0.00    -0.209 C  
BRANCH  18  19
HETATM   19  C   UNL     1      -9.500   2.271  69.093  1.00  0.00    -0.143 C  
BRANCH  19  20
HETATM   20  C   UNL     1      -8.195   2.397  68.299  1.00  0.00    -0.072 C  
BRANCH  20  21
HETATM   21  C   UNL     1      -8.342   3.466  67.246  1.00  0.00    -0.094 A  
HETATM   22  C   UNL     1      -8.653   5.277  65.134  1.00  0.00    -0.151 A  
HETATM   23  C   UNL     1      -7.229   3.897  66.513  1.00  0.00    -0.068 A  
HETATM   24  C   UNL     1      -9.609   3.970  66.924  1.00  0.00    -0.232 A  
HETATM   25  C   UNL     1      -7.386   4.800  65.461  1.00  0.00    -0.073 A  
HETATM   26  C   UNL     1      -9.764   4.871  65.871  1.00  0.00    -0.197 A  
ENDBRANCH  20  21
ENDBRANCH  19  20
ENDBRANCH  18  19
ENDBRANCH  16  18
ENDBRANCH  15  16
ENDBRANCH  14  15
BRANCH  14  27
HETATM   27  C   UNL     1     -11.708   6.116  71.523  1.00  0.00    -0.201 C  
BRANCH  27  28
HETATM   28  O   UNL     1     -12.399   7.357  71.321  1.00  0.00    -0.327 OA 
BRANCH  28  29
HETATM   29  C   UNL     1     -11.961   8.387  72.099  1.00  0.00    -0.374 C  
HETATM   30  O   UNL     1     -10.839   8.474  72.577  1.00  0.00    -0.337 OA 
BRANCH  29  31
HETATM   31  C   UNL     1     -13.058   9.405  72.278  1.00  0.00    -0.509 C  
BRANCH  31  32
HETATM   32  C   UNL     1     -13.281  10.225  71.011  1.00  0.00    -0.399 C  
BRANCH  32  33
HETATM   33  C   UNL     1     -12.123  11.187  70.712  1.00  0.00    -0.458 C  
BRANCH  33  34
HETATM   34  C   UNL     1     -12.545  12.609  70.980  1.00  0.00    -0.354 A  
HETATM   35  C   UNL     1     -13.480  15.219  71.375  1.00  0.00    -0.588 A  
HETATM   36  C   UNL     1     -13.408  12.899  72.045  1.00  0.00    -0.579 A  
HETATM   37  C   UNL     1     -13.873  14.200  72.241  1.00  0.00    -0.643 A  
HETATM   38  C   UNL     1     -12.613  14.941  70.320  1.00  0.00    -0.361 A  
HETATM   39  C   UNL     1     -12.146  13.642  70.123  1.00  0.00    -0.431 A  
ENDBRANCH  33  34
ENDBRANCH  32  33
ENDBRANCH  31  32
ENDBRANCH  29  31
ENDBRANCH  28  29
ENDBRANCH  27  28
ENDBRANCH  14  27
ENDBRANCH  13  14
ENDBRANCH  12  13
ENDBRANCH   2  12
TORSDOF 20
ENDMDL
MODEL      197
REMARK 921   NORMALIZED FREE ENERGY PREDICTED BY IDOCK:   -4.55 KCAL/MOL
REMARK 922        TOTAL FREE ENERGY PREDICTED BY IDOCK:  -14.56 KCAL/MOL
REMARK 923 INTER-LIGAND FREE ENERGY PREDICTED BY IDOCK:  -10.95 KCAL/MOL
REMARK 924 INTRA-LIGAND FREE ENERGY PREDICTED BY IDOCK:   -3.61 KCAL/MOL
REMARK 927      BINDING AFFINITY PREDICTED BY RF-SCORE:    0.00 PKD
ROOT
HETATM    1  O   UNL     1      -9.967   2.714  71.119  1.00  0.00    -0.094 OA 
HETATM    2  C   UNL     1      -9.521   3.850  71.040  1.00  0.00    -0.166 C  
ENDROOT
BRANCH   2   3
HETATM    3  C   UNL     1      -8.051   4.180  70.940  1.00  0.00    -0.070 C  
BRANCH   3   4
HETATM    4  C   UNL     1      -7.275   3.752  72.187  1.00  0.00    -0.051 C  
BRANCH   4   5
HETATM    5  C   UNL     1      -7.939   4.241  73.479  1.00  0.00    -0.090 C  
BRANCH   5   6
HETATM    6  C   UNL     1      -7.767   5.725  73.678  1.00  0.00    -0.101 A  
HETATM    7  C   UNL     1      -6.491   6.267  73.890  1.00  0.00    -0.070 A  
HETATM    8  C   UNL     1      -7.439   8.483  74.066  1.00  0.00    -0.135 A  
HETATM    9  C   UNL     1      -6.330   7.640  74.080  1.00  0.00    -0.084 A  
HETATM   10  C   UNL     1      -8.876   6.581  73.669  1.00  0.00    -0.137 A  
HETATM   11  C   UNL     1      -8.712   7.953  73.860  1.00  0.00    -0.332 A  
ENDBRANCH   5   6
ENDBRANCH   4   5
ENDBRANCH   3   4
ENDBRANCH   2   3
BRANCH   2  12
HETATM   12  O   UNL     1     -10.266   4.990  71.032  1.00  0.00    -0.217 OA 
BRANCH  12  13
HETATM   13  C   UNL     1     -10.660   5.492  69.740  1.00  0.00    -0.318 C  
BRANCH  13  14
HETATM   14  C   UNL     1     -10.441   7.006  69.680  1.00  0.00    -0.223 C  
BRANCH  14  15
HETATM   15  O   UNL     1     -11.643   7.671  70.122  1.00  0.00    -0.145 OA 
BRANCH  15  16
HETATM   16  C   UNL     1     -11.602   8.213  71.368  1.00  0.00    -0.278 C  
HETATM   17  O   UNL     1     -11.955   7.659  72.398  1.00  0.00    -0.299 OA 
BRANCH  16  18
HETATM   18  C   UNL     1     -11.080   9.626  71.296  1.00  0.00    -0.426 C  
BRANCH  18  19
HETATM   19  C   UNL     1     -12.103  10.577  70.684  1.00  0.00    -0.452 C  
BRANCH  19  20
HETATM   20  C   UNL     1     -12.996  11.253  71.731  1.00  0.00    -0.519 C  
BRANCH  20  21
HETATM   21  C   UNL     1     -13.034  12.740  71.482  1.00  0.00    -0.388 A  
HETATM   22  C   UNL     1     -13.282  15.459  70.866  1.00  0.00    -0.512 A  
HETATM   23  C   UNL     1     -12.269  13.305  70.454  1.00  0.00    -0.404 A  
HETATM   24  C   UNL     1     -13.909  13.555  72.212  1.00  0.00    -0.680 A  
HETATM   25  C   UNL     1     -12.394  14.662  70.150  1.00  0.00    -0.390 A  
HETATM   26  C   UNL     1     -14.033  14.909  71.903  1.00  0.00    -0.585 A  
ENDBRANCH  20  21
ENDBRANCH  19  20
ENDBRANCH  18  19
ENDBRANCH  16  18
ENDBRANCH  15  16
ENDBRANCH  14  15
BRANCH  14  27
HETATM   27  C   UNL     1     -10.153   7.466  68.246  1.00  0.00    -0.177 C  
BRANCH  27  28
HETATM   28  O   UNL     1      -9.251   8.582  68.224  1.00  0.00    -0.138 OA 
BRANCH  28  29
HETATM   29  C   UNL     1      -9.829   9.777  67.919  1.00  0.00    -0.149 C  
HETATM   30  O   UNL     1     -10.867   9.911  67.287  1.00  0.00    -0.267 OA 
BRANCH  29  31
HETATM   31  C   UNL     1      -9.009  10.909  68.483  1.00  0.00    -0.157 C  
BRANCH  31  32
HETATM   32  C   UNL     1      -8.856  12.051  67.484  1.00  0.00    -0.172 C  
BRANCH  32  33
HETATM   33  C   UNL     1      -9.593  13.325  67.916  1.00  0.00    -0.217 C  
BRANCH  33  34
HETATM   34  C   UNL     1     -10.494  13.807  66.808  1.00  0.00    -0.270 A  
HETATM   35  C   UNL     1     -12.078  14.587  64.634  1.00  0.00    -0.486 A  
HETATM   36  C   UNL     1     -11.667  13.106  66.498  1.00  0.00    -0.433 A  
HETATM   37  C   UNL     1     -12.456  13.495  65.415  1.00  0.00    -0.540 A  
HETATM   38  C   UNL     1     -10.920  15.297  64.943  1.00  0.00    -0.445 A  
HETATM   39  C   UNL     1     -10.130  14.910  66.026  1.00  0.00    -0.331 A  
ENDBRANCH  33  34
ENDBRANCH  32  33
ENDBRANCH  31  32
ENDBRANCH  29  31
ENDBRANCH  28  29
ENDBRANCH  27  28
ENDBRANCH  14  27
ENDBRANCH  13  14
ENDBRANCH  12  13
ENDBRANCH   2  12
TORSDOF 20
ENDMDL
MODEL      198
REMARK 921   NORMALIZED FREE ENERGY PREDICTED BY IDOCK:   -4.55 KCAL/MOL
REMARK 922        TOTAL FREE ENERGY PREDICTED BY IDOCK:  -14.55 KCAL/MOL
REMARK 923 INTER-LIGAND FREE ENERGY PREDICTED BY IDOCK:   -9.96 KCAL/MOL
REMARK 924 INTRA-LIGAND FREE ENERGY PREDICTED BY IDOCK:   -4.59 KCAL/MOL
REMARK 927      BINDING AFFINITY PREDICTED BY RF-SCORE:    0.00 PKD
ROOT
HETATM    1  O   UNL     1      -6.832  10.196  70.984  1.00  0.00    -0.341 OA 
HETATM    2  C   UNL     1      -7.069   9.389  70.096  1.00  0.00    -0.083 C  
ENDROOT
BRANCH   2   3
HETATM    3  C   UNL     1      -6.789   7.909  70.197  1.00  0.00    -0.045 C  
BRANCH   3   4
HETATM    4  C   UNL     1      -7.346   7.301  71.486  1.00  0.00    -0.080 C  
BRANCH   4   5
HETATM    5  C   UNL     1      -7.712   5.822  71.320  1.00  0.00    -0.109 C  
BRANCH   5   6
HETATM    6  C   UNL     1      -8.839   5.413  72.234  1.00  0.00    -0.131 A  
HETATM    7  C   UNL     1      -9.135   6.171  73.376  1.00  0.00    -0.131 A  
HETATM    8  C   UNL     1     -10.921   4.648  73.950  1.00  0.00    -0.333 A  
HETATM    9  C   UNL     1     -10.173   5.790  74.227  1.00  0.00    -0.294 A  
HETATM   10  C   UNL     1      -9.595   4.264  71.967  1.00  0.00    -0.209 A  
HETATM   11  C   UNL     1     -10.632   3.885  72.819  1.00  0.00    -0.206 A  
ENDBRANCH   5   6
ENDBRANCH   4   5
ENDBRANCH   3   4
ENDBRANCH   2   3
BRANCH   2  12
HETATM   12  O   UNL     1      -7.616   9.690  68.886  1.00  0.00    -0.073 OA 
BRANCH  12  13
HETATM   13  C   UNL     1      -7.518  11.062  68.458  1.00  0.00    -0.106 C  
BRANCH  13  14
HETATM   14  C   UNL     1      -8.919  11.645  68.252  1.00  0.00    -0.185 C  
BRANCH  14  15
HETATM   15  O   UNL     1      -9.451  11.154  67.003  1.00  0.00    -0.174 OA 
BRANCH  15  16
HETATM   16  C   UNL     1     -10.515  10.313  67.097  1.00  0.00    -0.254 C  
HETATM   17  O   UNL     1     -11.610  10.597  67.558  1.00  0.00    -0.482 OA 
BRANCH  16  18
HETATM   18  C   UNL     1     -10.141   8.950  66.570  1.00  0.00    -0.356 C  
BRANCH  18  19
HETATM   19  C   UNL     1     -10.890   7.837  67.295  1.00  0.00    -0.225 C  
BRANCH  19  20
HETATM   20  C   UNL     1     -10.076   7.208  68.432  1.00  0.00    -0.182 C  
BRANCH  20  21
HETATM   21  C   UNL     1     -10.740   7.499  69.753  1.00  0.00    -0.249 A  
HETATM   22  C   UNL     1     -12.152   8.136  72.085  1.00  0.00    -0.408 A  
HETATM   23  C   UNL     1     -10.520   8.720  70.403  1.00  0.00    -0.240 A  
HETATM   24  C   UNL     1     -11.660   6.591  70.296  1.00  0.00    -0.473 A  
HETATM   25  C   UNL     1     -11.224   9.035  71.566  1.00  0.00    -0.418 A  
HETATM   26  C   UNL     1     -12.364   6.910  71.457  1.00  0.00    -0.420 A  
ENDBRANCH  20  21
ENDBRANCH  19  20
ENDBRANCH  18  19
ENDBRANCH  16  18
ENDBRANCH  15  16
ENDBRANCH  14  15
BRANCH  14  27
HETATM   27  C   UNL     1      -8.875  13.175  68.170  1.00  0.00    -0.194 C  
BRANCH  27  28
HETATM   28  O   UNL     1     -10.113  13.711  67.681  1.00  0.00    -0.235 OA 
BRANCH  28  29
HETATM   29  C   UNL     1     -11.062  13.917  68.638  1.00  0.00    -0.265 C  
HETATM   30  O   UNL     1     -11.315  13.143  69.550  1.00  0.00    -0.234 OA 
BRANCH  29  31
HETATM   31  C   UNL     1     -11.745  15.242  68.413  1.00  0.00    -0.340 C  
BRANCH  31  32
HETATM   32  C   UNL     1     -10.823  16.415  68.725  1.00  0.00    -0.338 C  
BRANCH  32  33
HETATM   33  C   UNL     1     -10.824  17.484  67.623  1.00  0.00    -0.229 C  
BRANCH  33  34
HETATM   34  C   UNL     1      -9.518  18.237  67.627  1.00  0.00    -0.275 A  
HETATM   35  C   UNL     1      -7.134  19.696  67.805  1.00  0.00    -0.291 A  
HETATM   36  C   UNL     1      -8.370  17.654  68.180  1.00  0.00    -0.259 A  
HETATM   37  C   UNL     1      -7.183  18.382  68.268  1.00  0.00    -0.274 A  
HETATM   38  C   UNL     1      -8.269  20.279  67.243  1.00  0.00    -0.393 A  
HETATM   39  C   UNL     1      -9.456  19.553  67.153  1.00  0.00    -0.422 A  
ENDBRANCH  33  34
ENDBRANCH  32  33
ENDBRANCH  31  32
ENDBRANCH  29  31
ENDBRANCH  28  29
ENDBRANCH  27  28
ENDBRANCH  14  27
ENDBRANCH  13  14
ENDBRANCH  12  13
ENDBRANCH   2  12
TORSDOF 20
ENDMDL
MODEL      199
REMARK 921   NORMALIZED FREE ENERGY PREDICTED BY IDOCK:   -4.50 KCAL/MOL
REMARK 922        TOTAL FREE ENERGY PREDICTED BY IDOCK:  -14.45 KCAL/MOL
REMARK 923 INTER-LIGAND FREE ENERGY PREDICTED BY IDOCK:  -11.26 KCAL/MOL
REMARK 924 INTRA-LIGAND FREE ENERGY PREDICTED BY IDOCK:   -3.20 KCAL/MOL
REMARK 927      BINDING AFFINITY PREDICTED BY RF-SCORE:    0.00 PKD
ROOT
HETATM    1  O   UNL     1     -11.136  19.468  66.292  1.00  0.00    -0.265 OA 
HETATM    2  C   UNL     1     -10.519  19.172  67.306  1.00  0.00    -0.456 C  
ENDROOT
BRANCH   2   3
HETATM    3  C   UNL     1      -9.467  20.046  67.946  1.00  0.00    -0.467 C  
BRANCH   3   4
HETATM    4  C   UNL     1      -8.411  19.228  68.691  1.00  0.00    -0.407 C  
BRANCH   4   5
HETATM    5  C   UNL     1      -6.994  19.766  68.464  1.00  0.00    -0.345 C  
BRANCH   5   6
HETATM    6  C   UNL     1      -6.611  19.756  67.006  1.00  0.00    -0.215 A  
HETATM    7  C   UNL     1      -6.445  18.540  66.327  1.00  0.00    -0.238 A  
HETATM    8  C   UNL     1      -5.882  19.727  64.298  1.00  0.00    -0.310 A  
HETATM    9  C   UNL     1      -6.084  18.527  64.979  1.00  0.00    -0.218 A  
HETATM   10  C   UNL     1      -6.401  20.955  66.314  1.00  0.00    -0.305 A  
HETATM   11  C   UNL     1      -6.040  20.940  64.966  1.00  0.00    -0.291 A  
ENDBRANCH   5   6
ENDBRANCH   4   5
ENDBRANCH   3   4
ENDBRANCH   2   3
BRANCH   2  12
HETATM   12  O   UNL     1     -10.675  18.019  68.014  1.00  0.00    -0.376 OA 
BRANCH  12  13
HETATM   13  C   UNL     1     -10.684  16.794  67.256  1.00  0.00    -0.213 C  
BRANCH  13  14
HETATM   14  C   UNL     1     -10.404  15.606  68.181  1.00  0.00    -0.246 C  
BRANCH  14  15
HETATM   15  O   UNL     1      -9.110  15.056  67.859  1.00  0.00    -0.176 OA 
BRANCH  15  16
HETATM   16  C   UNL     1      -9.090  14.105  66.887  1.00  0.00    -0.245 C  
HETATM   17  O   UNL     1      -9.799  14.087  65.892  1.00  0.00    -0.304 OA 
BRANCH  16  18
HETATM   18  C   UNL     1      -8.076  13.042  67.230  1.00  0.00    -0.164 C  
BRANCH  18  19
HETATM   19  C   UNL     1      -8.718  11.853  67.936  1.00  0.00    -0.167 C  
BRANCH  19  20
HETATM   20  C   UNL     1      -9.159  10.748  66.970  1.00  0.00    -0.155 C  
BRANCH  20  21
HETATM   21  C   UNL     1      -9.252   9.436  67.707  1.00  0.00    -0.141 A  
HETATM   22  C   UNL     1      -9.565   7.110  69.232  1.00  0.00    -0.155 A  
HETATM   23  C   UNL     1      -8.343   9.131  68.727  1.00  0.00    -0.121 A  
HETATM   24  C   UNL     1     -10.307   8.553  67.444  1.00  0.00    -0.356 A  
HETATM   25  C   UNL     1      -8.500   7.970  69.486  1.00  0.00    -0.131 A  
HETATM   26  C   UNL     1     -10.464   7.395  68.206  1.00  0.00    -0.231 A  
ENDBRANCH  20  21
ENDBRANCH  19  20
ENDBRANCH  18  19
ENDBRANCH  16  18
ENDBRANCH  15  16
ENDBRANCH  14  15
BRANCH  14  27
HETATM   27  C   UNL     1     -11.444  14.497  67.985  1.00  0.00    -0.321 C  
BRANCH  27  28
HETATM   28  O   UNL     1     -11.768  13.855  69.227  1.00  0.00    -0.287 OA 
BRANCH  28  29
HETATM   29  C   UNL     1     -12.016  12.518  69.130  1.00  0.00    -0.236 C  
HETATM   30  O   UNL     1     -12.153  11.907  68.081  1.00  0.00    -0.516 OA 
BRANCH  29  31
HETATM   31  C   UNL     1     -12.088  11.903  70.505  1.00  0.00    -0.422 C  
BRANCH  31  32
HETATM   32  C   UNL     1     -11.518  10.489  70.523  1.00  0.00    -0.433 C  
BRANCH  32  33
HETATM   33  C   UNL     1     -12.547   9.437  70.957  1.00  0.00    -0.291 C  
BRANCH  33  34
HETATM   34  C   UNL     1     -11.867   8.321  71.708  1.00  0.00    -0.357 A  
HETATM   35  C   UNL     1     -10.493   6.224  72.956  1.00  0.00    -0.249 A  
HETATM   36  C   UNL     1     -10.705   8.577  72.450  1.00  0.00    -0.376 A  
HETATM   37  C   UNL     1     -10.022   7.531  73.071  1.00  0.00    -0.321 A  
HETATM   38  C   UNL     1     -11.654   5.963  72.230  1.00  0.00    -0.338 A  
HETATM   39  C   UNL     1     -12.339   7.006  71.609  1.00  0.00    -0.407 A  
ENDBRANCH  33  34
ENDBRANCH  32  33
ENDBRANCH  31  32
ENDBRANCH  29  31
ENDBRANCH  28  29
ENDBRANCH  27  28
ENDBRANCH  14  27
ENDBRANCH  13  14
ENDBRANCH  12  13
ENDBRANCH   2  12
TORSDOF 20
ENDMDL
MODEL      200
REMARK 921   NORMALIZED FREE ENERGY PREDICTED BY IDOCK:   -4.50 KCAL/MOL
REMARK 922        TOTAL FREE ENERGY PREDICTED BY IDOCK:  -14.44 KCAL/MOL
REMARK 923 INTER-LIGAND FREE ENERGY PREDICTED BY IDOCK:  -10.36 KCAL/MOL
REMARK 924 INTRA-LIGAND FREE ENERGY PREDICTED BY IDOCK:   -4.08 KCAL/MOL
REMARK 927      BINDING AFFINITY PREDICTED BY RF-SCORE:    0.00 PKD
ROOT
HETATM    1  O   UNL     1     -12.783  13.916  70.157  1.00  0.00    -0.275 OA 
HETATM    2  C   UNL     1     -12.026  13.786  69.205  1.00  0.00    -0.352 C  
ENDROOT
BRANCH   2   3
HETATM    3  C   UNL     1     -11.876  14.797  68.095  1.00  0.00    -0.318 C  
BRANCH   3   4
HETATM    4  C   UNL     1     -10.594  15.620  68.230  1.00  0.00    -0.262 C  
BRANCH   4   5
HETATM    5  C   UNL     1     -10.826  16.942  68.969  1.00  0.00    -0.255 C  
BRANCH   5   6
HETATM    6  C   UNL     1     -10.140  18.099  68.290  1.00  0.00    -0.398 A  
HETATM    7  C   UNL     1      -8.821  18.437  68.627  1.00  0.00    -0.306 A  
HETATM    8  C   UNL     1      -8.861  20.262  67.044  1.00  0.00    -0.427 A  
HETATM    9  C   UNL     1      -8.185  19.512  68.004  1.00  0.00    -0.352 A  
HETATM   10  C   UNL     1     -10.811  18.863  67.326  1.00  0.00    -0.448 A  
HETATM   11  C   UNL     1     -10.174  19.937  66.705  1.00  0.00    -0.609 A  
ENDBRANCH   5   6
ENDBRANCH   4   5
ENDBRANCH   3   4
ENDBRANCH   2   3
BRANCH   2  12
HETATM   12  O   UNL     1     -11.205  12.720  68.992  1.00  0.00    -0.254 OA 
BRANCH  12  13
HETATM   13  C   UNL     1     -11.835  11.427  68.917  1.00  0.00    -0.347 C  
BRANCH  13  14
HETATM   14  C   UNL     1     -10.842  10.337  69.331  1.00  0.00    -0.245 C  
BRANCH  14  15
HETATM   15  O   UNL     1     -10.919   9.251  68.385  1.00  0.00    -0.121 OA 
BRANCH  15  16
HETATM   16  C   UNL     1      -9.837   8.427  68.332  1.00  0.00    -0.176 C  
HETATM   17  O   UNL     1      -9.828   7.292  67.880  1.00  0.00    -0.137 OA 
BRANCH  16  18
HETATM   18  C   UNL     1      -8.641   9.111  68.944  1.00  0.00    -0.131 C  
BRANCH  18  19
HETATM   19  C   UNL     1      -7.934   8.216  69.956  1.00  0.00    -0.105 C  
BRANCH  19  20
HETATM   20  C   UNL     1      -7.407   8.987  71.173  1.00  0.00    -0.115 C  
BRANCH  20  21
HETATM   21  C   UNL     1      -7.430   8.094  72.388  1.00  0.00    -0.144 A  
HETATM   22  C   UNL     1      -7.574   6.272  74.507  1.00  0.00    -0.099 A  
HETATM   23  C   UNL     1      -8.545   8.082  73.236  1.00  0.00    -0.297 A  
HETATM   24  C   UNL     1      -6.379   7.199  72.626  1.00  0.00    -0.052 A  
HETATM   25  C   UNL     1      -8.614   7.172  74.293  1.00  0.00    -0.225 A  
HETATM   26  C   UNL     1      -6.452   6.290  73.681  1.00  0.00    -0.070 A  
ENDBRANCH  20  21
ENDBRANCH  19  20
ENDBRANCH  18  19
ENDBRANCH  16  18
ENDBRANCH  15  16
ENDBRANCH  14  15
BRANCH  14  27
HETATM   27  C   UNL     1     -11.184   9.775  70.715  1.00  0.00    -0.348 C  
BRANCH  27  28
HETATM   28  O   UNL     1     -12.580   9.924  71.012  1.00  0.00    -0.316 OA 
BRANCH  28  29
HETATM   29  C   UNL     1     -13.045   9.102  71.995  1.00  0.00    -0.429 C  
HETATM   30  O   UNL     1     -14.167   9.154  72.477  1.00  0.00    -0.512 OA 
BRANCH  29  31
HETATM   31  C   UNL     1     -11.977   8.115  72.394  1.00  0.00    -0.431 C  
BRANCH  31  32
HETATM   32  C   UNL     1     -12.304   6.704  71.919  1.00  0.00    -0.364 C  
BRANCH  32  33
HETATM   33  C   UNL     1     -11.390   6.230  70.781  1.00  0.00    -0.397 C  
BRANCH  33  34
HETATM   34  C   UNL     1     -10.307   5.333  71.322  1.00  0.00    -0.292 A  
HETATM   35  C   UNL     1      -8.367   3.527  72.229  1.00  0.00    -0.085 A  
HETATM   36  C   UNL     1      -9.122   5.143  70.598  1.00  0.00    -0.178 A  
HETATM   37  C   UNL     1      -8.156   4.243  71.051  1.00  0.00    -0.072 A  
HETATM   38  C   UNL     1      -9.537   3.720  72.961  1.00  0.00    -0.158 A  
HETATM   39  C   UNL     1     -10.503   4.619  72.511  1.00  0.00    -0.257 A  
ENDBRANCH  33  34
ENDBRANCH  32  33
ENDBRANCH  31  32
ENDBRANCH  29  31
ENDBRANCH  28  29
ENDBRANCH  27  28
ENDBRANCH  14  27
ENDBRANCH  13  14
ENDBRANCH  12  13
ENDBRANCH   2  12
TORSDOF 20
ENDMDL
MODEL      201
REMARK 921   NORMALIZED FREE ENERGY PREDICTED BY IDOCK:   -4.50 KCAL/MOL
REMARK 922        TOTAL FREE ENERGY PREDICTED BY IDOCK:  -14.44 KCAL/MOL
REMARK 923 INTER-LIGAND FREE ENERGY PREDICTED BY IDOCK:   -9.42 KCAL/MOL
REMARK 924 INTRA-LIGAND FREE ENERGY PREDICTED BY IDOCK:   -5.02 KCAL/MOL
REMARK 927      BINDING AFFINITY PREDICTED BY RF-SCORE:    0.00 PKD
ROOT
HETATM    1  O   UNL     1     -11.263   8.516  69.778  1.00  0.00    -0.129 OA 
HETATM    2  C   UNL     1     -11.557   8.394  70.959  1.00  0.00    -0.275 C  
ENDROOT
BRANCH   2   3
HETATM    3  C   UNL     1     -12.496   9.315  71.700  1.00  0.00    -0.448 C  
BRANCH   3   4
HETATM    4  C   UNL     1     -12.446  10.747  71.163  1.00  0.00    -0.519 C  
BRANCH   4   5
HETATM    5  C   UNL     1     -13.452  11.666  71.863  1.00  0.00    -0.269 C  
BRANCH   5   6
HETATM    6  C   UNL     1     -13.140  13.124  71.638  1.00  0.00    -0.444 A  
HETATM    7  C   UNL     1     -13.948  14.117  72.211  1.00  0.00    -0.646 A  
HETATM    8  C   UNL     1     -12.578  15.837  71.211  1.00  0.00    -0.504 A  
HETATM    9  C   UNL     1     -13.665  15.467  71.999  1.00  0.00    -0.613 A  
HETATM   10  C   UNL     1     -12.052  13.507  70.845  1.00  0.00    -0.301 A  
HETATM   11  C   UNL     1     -11.771  14.857  70.634  1.00  0.00    -0.357 A  
ENDBRANCH   5   6
ENDBRANCH   4   5
ENDBRANCH   3   4
ENDBRANCH   2   3
BRANCH   2  12
HETATM   12  O   UNL     1     -11.089   7.422  71.790  1.00  0.00    -0.233 OA 
BRANCH  12  13
HETATM   13  C   UNL     1     -11.157   7.695  73.203  1.00  0.00    -0.317 C  
BRANCH  13  14
HETATM   14  C   UNL     1      -9.863   7.241  73.885  1.00  0.00    -0.276 C  
BRANCH  14  15
HETATM   15  O   UNL     1      -8.804   7.208  72.906  1.00  0.00    -0.126 OA 
BRANCH  15  16
HETATM   16  C   UNL     1      -8.022   8.318  72.835  1.00  0.00    -0.141 C  
HETATM   17  O   UNL     1      -7.564   8.929  73.789  1.00  0.00    -0.400 OA 
BRANCH  16  18
HETATM   18  C   UNL     1      -7.818   8.711  71.394  1.00  0.00    -0.162 C  
BRANCH  18  19
HETATM   19  C   UNL     1      -8.055   7.539  70.448  1.00  0.00    -0.111 C  
BRANCH  19  20
HETATM   20  C   UNL     1      -6.791   7.111  69.694  1.00  0.00    -0.050 C  
BRANCH  20  21
HETATM   21  C   UNL     1      -7.044   7.159  68.209  1.00  0.00    -0.082 A  
HETATM   22  C   UNL     1      -7.338   7.409  65.436  1.00  0.00    -0.072 A  
HETATM   23  C   UNL     1      -7.940   8.093  67.673  1.00  0.00    -0.122 A  
HETATM   24  C   UNL     1      -6.313   6.337  67.341  1.00  0.00    -0.037 A  
HETATM   25  C   UNL     1      -8.085   8.215  66.290  1.00  0.00    -0.107 A  
HETATM   26  C   UNL     1      -6.459   6.462  65.960  1.00  0.00    -0.043 A  
ENDBRANCH  20  21
ENDBRANCH  19  20
ENDBRANCH  18  19
ENDBRANCH  16  18
ENDBRANCH  15  16
ENDBRANCH  14  15
BRANCH  14  27
HETATM   27  C   UNL     1     -10.009   5.828  74.462  1.00  0.00    -0.278 C  
BRANCH  27  28
HETATM   28  O   UNL     1      -9.313   4.861  73.663  1.00  0.00    -0.125 OA 
BRANCH  28  29
HETATM   29  C   UNL     1      -9.929   3.648  73.572  1.00  0.00    -0.117 C  
HETATM   30  O   UNL     1     -10.434   3.048  74.509  1.00  0.00    -0.166 OA 
BRANCH  29  31
HETATM   31  C   UNL     1      -9.903   3.159  72.146  1.00  0.00    -0.238 C  
BRANCH  31  32
HETATM   32  C   UNL     1      -9.112   4.096  71.240  1.00  0.00    -0.181 C  
BRANCH  32  33
HETATM   33  C   UNL     1      -8.690   3.436  69.921  1.00  0.00    -0.131 C  
BRANCH  33  34
HETATM   34  C   UNL     1      -9.279   4.183  68.752  1.00  0.00    -0.206 A  
HETATM   35  C   UNL     1     -10.511   5.449  66.578  1.00  0.00    -0.352 A  
HETATM   36  C   UNL     1     -10.251   5.170  68.964  1.00  0.00    -0.241 A  
HETATM   37  C   UNL     1     -10.864   5.800  67.881  1.00  0.00    -0.257 A  
HETATM   38  C   UNL     1      -9.536   4.477  66.359  1.00  0.00    -0.197 A  
HETATM   39  C   UNL     1      -8.921   3.847  67.440  1.00  0.00    -0.153 A  
ENDBRANCH  33  34
ENDBRANCH  32  33
ENDBRANCH  31  32
ENDBRANCH  29  31
ENDBRANCH  28  29
ENDBRANCH  27  28
ENDBRANCH  14  27
ENDBRANCH  13  14
ENDBRANCH  12  13
ENDBRANCH   2  12
TORSDOF 20
ENDMDL
MODEL      202
REMARK 921   NORMALIZED FREE ENERGY PREDICTED BY IDOCK:   -4.50 KCAL/MOL
REMARK 922        TOTAL FREE ENERGY PREDICTED BY IDOCK:  -14.44 KCAL/MOL
REMARK 923 INTER-LIGAND FREE ENERGY PREDICTED BY IDOCK:  -10.45 KCAL/MOL
REMARK 924 INTRA-LIGAND FREE ENERGY PREDICTED BY IDOCK:   -3.99 KCAL/MOL
REMARK 927      BINDING AFFINITY PREDICTED BY RF-SCORE:    0.00 PKD
ROOT
HETATM    1  O   UNL     1     -10.770   8.331  67.018  1.00  0.00    -0.307 OA 
HETATM    2  C   UNL     1     -10.549   9.201  67.849  1.00  0.00    -0.214 C  
ENDROOT
BRANCH   2   3
HETATM    3  C   UNL     1     -10.617  10.682  67.566  1.00  0.00    -0.297 C  
BRANCH   3   4
HETATM    4  C   UNL     1     -10.581  10.987  66.067  1.00  0.00    -0.275 C  
BRANCH   4   5
HETATM    5  C   UNL     1      -9.204  11.481  65.608  1.00  0.00    -0.184 C  
BRANCH   5   6
HETATM    6  C   UNL     1      -8.340  10.356  65.097  1.00  0.00    -0.165 A  
HETATM    7  C   UNL     1      -7.087  10.108  65.675  1.00  0.00    -0.133 A  
HETATM    8  C   UNL     1      -6.719   8.277  64.141  1.00  0.00    -0.067 A  
HETATM    9  C   UNL     1      -6.283   9.071  65.199  1.00  0.00    -0.060 A  
HETATM   10  C   UNL     1      -8.768   9.554  64.031  1.00  0.00    -0.239 A  
HETATM   11  C   UNL     1      -7.962   8.518  63.557  1.00  0.00    -0.161 A  
ENDBRANCH   5   6
ENDBRANCH   4   5
ENDBRANCH   3   4
ENDBRANCH   2   3
BRANCH   2  12
HETATM   12  O   UNL     1     -10.206   8.979  69.148  1.00  0.00    -0.194 OA 
BRANCH  12  13
HETATM   13  C   UNL     1     -10.386  10.082  70.058  1.00  0.00    -0.272 C  
BRANCH  13  14
HETATM   14  C   UNL     1     -11.481   9.747  71.074  1.00  0.00    -0.383 C  
BRANCH  14  15
HETATM   15  O   UNL     1     -11.861   8.364  70.915  1.00  0.00    -0.283 OA 
BRANCH  15  16
HETATM   16  C   UNL     1     -11.664   7.562  71.995  1.00  0.00    -0.294 C  
HETATM   17  O   UNL     1     -11.511   7.942  73.146  1.00  0.00    -0.323 OA 
BRANCH  16  18
HETATM   18  C   UNL     1     -11.631   6.117  71.563  1.00  0.00    -0.304 C  
BRANCH  18  19
HETATM   19  C   UNL     1     -11.283   5.976  70.085  1.00  0.00    -0.412 C  
BRANCH  19  20
HETATM   20  C   UNL     1     -10.126   5.002  69.833  1.00  0.00    -0.344 C  
BRANCH  20  21
HETATM   21  C   UNL     1      -9.566   5.226  68.451  1.00  0.00    -0.176 A  
HETATM   22  C   UNL     1      -8.649   5.846  65.880  1.00  0.00    -0.145 A  
HETATM   23  C   UNL     1     -10.253   4.761  67.323  1.00  0.00    -0.157 A  
HETATM   24  C   UNL     1      -8.402   5.987  68.277  1.00  0.00    -0.113 A  
HETATM   25  C   UNL     1      -9.794   5.070  66.042  1.00  0.00    -0.206 A  
HETATM   26  C   UNL     1      -7.947   6.297  66.996  1.00  0.00    -0.109 A  
ENDBRANCH  20  21
ENDBRANCH  19  20
ENDBRANCH  18  19
ENDBRANCH  16  18
ENDBRANCH  15  16
ENDBRANCH  14  15
BRANCH  14  27
HETATM   27  C   UNL     1     -12.731  10.603  70.842  1.00  0.00    -0.404 C  
BRANCH  27  28
HETATM   28  O   UNL     1     -13.148  11.261  72.047  1.00  0.00    -0.495 OA 
BRANCH  28  29
HETATM   29  C   UNL     1     -13.266  12.615  71.945  1.00  0.00    -0.403 C  
HETATM   30  O   UNL     1     -14.047  13.299  72.591  1.00  0.00    -0.744 OA 
BRANCH  29  31
HETATM   31  C   UNL     1     -12.289  13.146  70.928  1.00  0.00    -0.393 C  
BRANCH  31  32
HETATM   32  C   UNL     1     -12.072  14.648  71.081  1.00  0.00    -0.403 C  
BRANCH  32  33
HETATM   33  C   UNL     1     -12.169  15.403  69.749  1.00  0.00    -0.336 C  
BRANCH  33  34
HETATM   34  C   UNL     1     -10.881  15.270  68.979  1.00  0.00    -0.244 A  
HETATM   35  C   UNL     1      -8.504  15.198  67.498  1.00  0.00    -0.185 A  
HETATM   36  C   UNL     1      -9.663  15.626  69.575  1.00  0.00    -0.287 A  
HETATM   37  C   UNL     1      -8.480  15.589  68.837  1.00  0.00    -0.207 A  
HETATM   38  C   UNL     1      -9.709  14.831  66.902  1.00  0.00    -0.247 A  
HETATM   39  C   UNL     1     -10.892  14.865  67.638  1.00  0.00    -0.286 A  
ENDBRANCH  33  34
ENDBRANCH  32  33
ENDBRANCH  31  32
ENDBRANCH  29  31
ENDBRANCH  28  29
ENDBRANCH  27  28
ENDBRANCH  14  27
ENDBRANCH  13  14
ENDBRANCH  12  13
ENDBRANCH   2  12
TORSDOF 20
ENDMDL
MODEL      203
REMARK 921   NORMALIZED FREE ENERGY PREDICTED BY IDOCK:   -4.49 KCAL/MOL
REMARK 922        TOTAL FREE ENERGY PREDICTED BY IDOCK:  -14.43 KCAL/MOL
REMARK 923 INTER-LIGAND FREE ENERGY PREDICTED BY IDOCK:  -11.92 KCAL/MOL
REMARK 924 INTRA-LIGAND FREE ENERGY PREDICTED BY IDOCK:   -2.52 KCAL/MOL
REMARK 927      BINDING AFFINITY PREDICTED BY RF-SCORE:    0.00 PKD
ROOT
HETATM    1  O   UNL     1      -7.064  11.848  69.496  1.00  0.00    -0.018 OA 
HETATM    2  C   UNL     1      -7.972  11.656  68.699  1.00  0.00    -0.127 C  
ENDROOT
BRANCH   2   3
HETATM    3  C   UNL     1      -8.781  10.384  68.622  1.00  0.00    -0.138 C  
BRANCH   3   4
HETATM    4  C   UNL     1      -9.859  10.318  69.705  1.00  0.00    -0.230 C  
BRANCH   4   5
HETATM    5  C   UNL     1     -11.241  10.714  69.173  1.00  0.00    -0.324 C  
BRANCH   5   6
HETATM    6  C   UNL     1     -11.905  11.752  70.042  1.00  0.00    -0.422 A  
HETATM    7  C   UNL     1     -11.759  13.116  69.751  1.00  0.00    -0.350 A  
HETATM    8  C   UNL     1     -13.123  13.691  71.661  1.00  0.00    -0.455 A  
HETATM    9  C   UNL     1     -12.368  14.080  70.557  1.00  0.00    -0.437 A  
HETATM   10  C   UNL     1     -12.663  11.373  71.157  1.00  0.00    -0.479 A  
HETATM   11  C   UNL     1     -13.270  12.337  71.961  1.00  0.00    -0.508 A  
ENDBRANCH   5   6
ENDBRANCH   4   5
ENDBRANCH   3   4
ENDBRANCH   2   3
BRANCH   2  12
HETATM   12  O   UNL     1      -8.395  12.547  67.759  1.00  0.00    -0.147 OA 
BRANCH  12  13
HETATM   13  C   UNL     1      -7.523  13.662  67.491  1.00  0.00    -0.170 C  
BRANCH  13  14
HETATM   14  C   UNL     1      -8.306  14.781  66.797  1.00  0.00    -0.079 C  
BRANCH  14  15
HETATM   15  O   UNL     1      -8.062  16.022  67.490  1.00  0.00    -0.137 OA 
BRANCH  15  16
HETATM   16  C   UNL     1      -7.972  15.942  68.845  1.00  0.00    -0.204 C  
HETATM   17  O   UNL     1      -8.820  15.472  69.589  1.00  0.00    -0.259 OA 
BRANCH  16  18
HETATM   18  C   UNL     1      -6.673  16.550  69.310  1.00  0.00    -0.218 C  
BRANCH  18  19
HETATM   19  C   UNL     1      -6.410  17.898  68.648  1.00  0.00    -0.209 C  
BRANCH  19  20
HETATM   20  C   UNL     1      -7.256  19.032  69.239  1.00  0.00    -0.247 C  
BRANCH  20  21
HETATM   21  C   UNL     1      -8.372  19.382  68.288  1.00  0.00    -0.379 A  
HETATM   22  C   UNL     1     -10.425  19.813  66.435  1.00  0.00    -0.618 A  
HETATM   23  C   UNL     1      -8.084  19.909  67.022  1.00  0.00    -0.345 A  
HETATM   24  C   UNL     1      -9.701  19.094  68.623  1.00  0.00    -0.478 A  
HETATM   25  C   UNL     1      -9.110  20.123  66.100  1.00  0.00    -0.308 A  
HETATM   26  C   UNL     1     -10.724  19.307  67.699  1.00  0.00    -0.533 A  
ENDBRANCH  20  21
ENDBRANCH  19  20
ENDBRANCH  18  19
ENDBRANCH  16  18
ENDBRANCH  15  16
ENDBRANCH  14  15
BRANCH  14  27
HETATM   27  C   UNL     1      -9.814  14.510  66.841  1.00  0.00    -0.262 C  
BRANCH  27  28
HETATM   28  O   UNL     1     -10.446  14.854  65.600  1.00  0.00    -0.304 OA 
BRANCH  28  29
HETATM   29  C   UNL     1     -11.663  14.273  65.399  1.00  0.00    -0.354 C  
HETATM   30  O   UNL     1     -12.563  14.234  66.225  1.00  0.00    -0.416 OA 
BRANCH  29  31
HETATM   31  C   UNL     1     -11.739  13.695  64.009  1.00  0.00    -0.405 C  
BRANCH  31  32
HETATM   32  C   UNL     1     -10.749  12.551  63.816  1.00  0.00    -0.483 C  
BRANCH  32  33
HETATM   33  C   UNL     1     -10.849  11.484  64.915  1.00  0.00    -0.345 C  
BRANCH  33  34
HETATM   34  C   UNL     1      -9.864  10.374  64.654  1.00  0.00    -0.405 A  
HETATM   35  C   UNL     1      -8.174   8.209  64.105  1.00  0.00    -0.083 A  
HETATM   36  C   UNL     1      -9.273  10.238  63.390  1.00  0.00    -0.321 A  
HETATM   37  C   UNL     1      -8.432   9.159  63.118  1.00  0.00    -0.199 A  
HETATM   38  C   UNL     1      -8.748   8.344  65.368  1.00  0.00    -0.175 A  
HETATM   39  C   UNL     1      -9.589   9.421  65.643  1.00  0.00    -0.345 A  
ENDBRANCH  33  34
ENDBRANCH  32  33
ENDBRANCH  31  32
ENDBRANCH  29  31
ENDBRANCH  28  29
ENDBRANCH  27  28
ENDBRANCH  14  27
ENDBRANCH  13  14
ENDBRANCH  12  13
ENDBRANCH   2  12
TORSDOF 20
ENDMDL
MODEL      204
REMARK 921   NORMALIZED FREE ENERGY PREDICTED BY IDOCK:   -4.49 KCAL/MOL
REMARK 922        TOTAL FREE ENERGY PREDICTED BY IDOCK:  -14.41 KCAL/MOL
REMARK 923 INTER-LIGAND FREE ENERGY PREDICTED BY IDOCK:  -10.01 KCAL/MOL
REMARK 924 INTRA-LIGAND FREE ENERGY PREDICTED BY IDOCK:   -4.40 KCAL/MOL
REMARK 927      BINDING AFFINITY PREDICTED BY RF-SCORE:    0.00 PKD
ROOT
HETATM    1  O   UNL     1      -6.810  12.757  69.322  1.00  0.00    -0.089 OA 
HETATM    2  C   UNL     1      -7.629  13.208  68.534  1.00  0.00    -0.122 C  
ENDROOT
BRANCH   2   3
HETATM    3  C   UNL     1      -7.302  14.204  67.447  1.00  0.00    -0.143 C  
BRANCH   3   4
HETATM    4  C   UNL     1      -6.150  15.131  67.839  1.00  0.00    -0.170 C  
BRANCH   4   5
HETATM    5  C   UNL     1      -6.642  16.415  68.516  1.00  0.00    -0.136 C  
BRANCH   5   6
HETATM    6  C   UNL     1      -6.547  17.610  67.601  1.00  0.00    -0.185 A  
HETATM    7  C   UNL     1      -6.388  18.897  68.132  1.00  0.00    -0.231 A  
HETATM    8  C   UNL     1      -6.390  19.839  65.907  1.00  0.00    -0.217 A  
HETATM    9  C   UNL     1      -6.307  20.005  67.288  1.00  0.00    -0.224 A  
HETATM   10  C   UNL     1      -6.633  17.454  66.211  1.00  0.00    -0.279 A  
HETATM   11  C   UNL     1      -6.553  18.563  65.369  1.00  0.00    -0.257 A  
ENDBRANCH   5   6
ENDBRANCH   4   5
ENDBRANCH   3   4
ENDBRANCH   2   3
BRANCH   2  12
HETATM   12  O   UNL     1      -8.953  12.893  68.508  1.00  0.00    -0.152 OA 
BRANCH  12  13
HETATM   13  C   UNL     1      -9.280  11.493  68.418  1.00  0.00    -0.190 C  
BRANCH  13  14
HETATM   14  C   UNL     1     -10.564  11.205  69.202  1.00  0.00    -0.204 C  
BRANCH  14  15
HETATM   15  O   UNL     1     -11.029   9.881  68.869  1.00  0.00    -0.220 OA 
BRANCH  15  16
HETATM   16  C   UNL     1     -11.040   8.978  69.885  1.00  0.00    -0.142 C  
HETATM   17  O   UNL     1     -11.175   9.241  71.071  1.00  0.00    -0.268 OA 
BRANCH  16  18
HETATM   18  C   UNL     1     -10.829   7.588  69.340  1.00  0.00    -0.161 C  
BRANCH  18  19
HETATM   19  C   UNL     1     -11.218   6.517  70.352  1.00  0.00    -0.414 C  
BRANCH  19  20
HETATM   20  C   UNL     1     -10.065   5.564  70.691  1.00  0.00    -0.288 C  
BRANCH  20  21
HETATM   21  C   UNL     1      -9.536   5.876  72.068  1.00  0.00    -0.167 A  
HETATM   22  C   UNL     1      -8.356   6.340  74.563  1.00  0.00    -0.131 A  
HETATM   23  C   UNL     1      -9.739   4.979  73.124  1.00  0.00    -0.167 A  
HETATM   24  C   UNL     1      -8.754   7.019  72.281  1.00  0.00    -0.134 A  
HETATM   25  C   UNL     1      -9.150   5.213  74.368  1.00  0.00    -0.114 A  
HETATM   26  C   UNL     1      -8.165   7.249  73.524  1.00  0.00    -0.146 A  
ENDBRANCH  20  21
ENDBRANCH  19  20
ENDBRANCH  18  19
ENDBRANCH  16  18
ENDBRANCH  15  16
ENDBRANCH  14  15
BRANCH  14  27
HETATM   27  C   UNL     1     -11.672  12.196  68.829  1.00  0.00    -0.321 C  
BRANCH  27  28
HETATM   28  O   UNL     1     -12.129  11.992  67.484  1.00  0.00    -0.555 OA 
BRANCH  28  29
HETATM   29  C   UNL     1     -11.833  13.006  66.622  1.00  0.00    -0.393 C  
HETATM   30  O   UNL     1     -11.357  12.857  65.506  1.00  0.00    -0.294 OA 
BRANCH  29  31
HETATM   31  C   UNL     1     -12.189  14.334  67.241  1.00  0.00    -0.287 C  
BRANCH  31  32
HETATM   32  C   UNL     1     -11.187  15.420  66.865  1.00  0.00    -0.214 C  
BRANCH  32  33
HETATM   33  C   UNL     1     -10.628  16.164  68.085  1.00  0.00    -0.290 C  
BRANCH  33  34
HETATM   34  C   UNL     1     -10.331  17.598  67.730  1.00  0.00    -0.365 A  
HETATM   35  C   UNL     1      -9.962  20.296  67.075  1.00  0.00    -0.601 A  
HETATM   36  C   UNL     1     -10.198  18.561  68.740  1.00  0.00    -0.326 A  
HETATM   37  C   UNL     1     -10.014  19.904  68.412  1.00  0.00    -0.531 A  
HETATM   38  C   UNL     1     -10.082  19.343  66.065  1.00  0.00    -0.488 A  
HETATM   39  C   UNL     1     -10.265  17.999  66.390  1.00  0.00    -0.393 A  
ENDBRANCH  33  34
ENDBRANCH  32  33
ENDBRANCH  31  32
ENDBRANCH  29  31
ENDBRANCH  28  29
ENDBRANCH  27  28
ENDBRANCH  14  27
ENDBRANCH  13  14
ENDBRANCH  12  13
ENDBRANCH   2  12
TORSDOF 20
ENDMDL
MODEL      205
REMARK 921   NORMALIZED FREE ENERGY PREDICTED BY IDOCK:   -4.48 KCAL/MOL
REMARK 922        TOTAL FREE ENERGY PREDICTED BY IDOCK:  -14.41 KCAL/MOL
REMARK 923 INTER-LIGAND FREE ENERGY PREDICTED BY IDOCK:  -10.94 KCAL/MOL
REMARK 924 INTRA-LIGAND FREE ENERGY PREDICTED BY IDOCK:   -3.47 KCAL/MOL
REMARK 927      BINDING AFFINITY PREDICTED BY RF-SCORE:    0.00 PKD
ROOT
HETATM    1  O   UNL     1     -12.900  13.792  71.433  1.00  0.00    -0.340 OA 
HETATM    2  C   UNL     1     -12.225  14.113  70.465  1.00  0.00    -0.361 C  
ENDROOT
BRANCH   2   3
HETATM    3  C   UNL     1     -12.070  15.531  69.971  1.00  0.00    -0.391 C  
BRANCH   3   4
HETATM    4  C   UNL     1     -10.719  15.762  69.292  1.00  0.00    -0.246 C  
BRANCH   4   5
HETATM    5  C   UNL     1     -10.866  16.083  67.800  1.00  0.00    -0.324 C  
BRANCH   5   6
HETATM    6  C   UNL     1     -10.255  17.415  67.444  1.00  0.00    -0.326 A  
HETATM    7  C   UNL     1      -9.071  17.473  66.695  1.00  0.00    -0.287 A  
HETATM    8  C   UNL     1      -9.103  19.887  66.794  1.00  0.00    -0.460 A  
HETATM    9  C   UNL     1      -8.500  18.704  66.370  1.00  0.00    -0.286 A  
HETATM   10  C   UNL     1     -10.850  18.610  67.869  1.00  0.00    -0.253 A  
HETATM   11  C   UNL     1     -10.277  19.839  67.543  1.00  0.00    -0.572 A  
ENDBRANCH   5   6
ENDBRANCH   4   5
ENDBRANCH   3   4
ENDBRANCH   2   3
BRANCH   2  12
HETATM   12  O   UNL     1     -11.514  13.255  69.682  1.00  0.00    -0.258 OA 
BRANCH  12  13
HETATM   13  C   UNL     1     -12.106  11.965  69.437  1.00  0.00    -0.216 C  
BRANCH  13  14
HETATM   14  C   UNL     1     -11.010  10.904  69.303  1.00  0.00    -0.244 C  
BRANCH  14  15
HETATM   15  O   UNL     1     -11.330  10.038  68.194  1.00  0.00    -0.195 OA 
BRANCH  15  16
HETATM   16  C   UNL     1     -10.360   9.888  67.253  1.00  0.00    -0.245 C  
HETATM   17  O   UNL     1      -9.408   9.125  67.327  1.00  0.00    -0.131 OA 
BRANCH  16  18
HETATM   18  C   UNL     1     -10.610  10.830  66.103  1.00  0.00    -0.241 C  
BRANCH  18  19
HETATM   19  C   UNL     1      -9.438  11.780  65.884  1.00  0.00    -0.239 C  
BRANCH  19  20
HETATM   20  C   UNL     1      -9.548  13.068  66.709  1.00  0.00    -0.248 C  
BRANCH  20  21
HETATM   21  C   UNL     1      -8.309  13.240  67.549  1.00  0.00    -0.186 A  
HETATM   22  C   UNL     1      -5.883  13.470  68.928  1.00  0.00    -0.076 A  
HETATM   23  C   UNL     1      -7.858  12.197  68.368  1.00  0.00    -0.149 A  
HETATM   24  C   UNL     1      -7.542  14.408  67.445  1.00  0.00    -0.196 A  
HETATM   25  C   UNL     1      -6.649  12.314  69.055  1.00  0.00    -0.100 A  
HETATM   26  C   UNL     1      -6.333  14.522  68.131  1.00  0.00    -0.145 A  
ENDBRANCH  20  21
ENDBRANCH  19  20
ENDBRANCH  18  19
ENDBRANCH  16  18
ENDBRANCH  15  16
ENDBRANCH  14  15
BRANCH  14  27
HETATM   27  C   UNL     1     -10.924  10.036  70.563  1.00  0.00    -0.326 C  
BRANCH  27  28
HETATM   28  O   UNL     1     -12.041  10.263  71.434  1.00  0.00    -0.372 OA 
BRANCH  28  29
HETATM   29  C   UNL     1     -12.392   9.193  72.203  1.00  0.00    -0.354 C  
HETATM   30  O   UNL     1     -13.480   9.045  72.739  1.00  0.00    -0.428 OA 
BRANCH  29  31
HETATM   31  C   UNL     1     -11.246   8.217  72.287  1.00  0.00    -0.443 C  
BRANCH  31  32
HETATM   32  C   UNL     1     -11.669   6.810  71.879  1.00  0.00    -0.349 C  
BRANCH  32  33
HETATM   33  C   UNL     1     -12.122   6.725  70.415  1.00  0.00    -0.270 C  
BRANCH  33  34
HETATM   34  C   UNL     1     -11.072   6.033  69.584  1.00  0.00    -0.474 A  
HETATM   35  C   UNL     1      -9.010   4.892  68.070  1.00  0.00    -0.121 A  
HETATM   36  C   UNL     1     -10.096   5.238  70.201  1.00  0.00    -0.333 A  
HETATM   37  C   UNL     1      -9.070   4.670  69.445  1.00  0.00    -0.159 A  
HETATM   38  C   UNL     1      -9.985   5.671  67.448  1.00  0.00    -0.180 A  
HETATM   39  C   UNL     1     -11.012   6.239  68.200  1.00  0.00    -0.412 A  
ENDBRANCH  33  34
ENDBRANCH  32  33
ENDBRANCH  31  32
ENDBRANCH  29  31
ENDBRANCH  28  29
ENDBRANCH  27  28
ENDBRANCH  14  27
ENDBRANCH  13  14
ENDBRANCH  12  13
ENDBRANCH   2  12
TORSDOF 20
ENDMDL
MODEL      206
REMARK 921   NORMALIZED FREE ENERGY PREDICTED BY IDOCK:   -4.48 KCAL/MOL
REMARK 922        TOTAL FREE ENERGY PREDICTED BY IDOCK:  -14.40 KCAL/MOL
REMARK 923 INTER-LIGAND FREE ENERGY PREDICTED BY IDOCK:   -9.45 KCAL/MOL
REMARK 924 INTRA-LIGAND FREE ENERGY PREDICTED BY IDOCK:   -4.96 KCAL/MOL
REMARK 927      BINDING AFFINITY PREDICTED BY RF-SCORE:    0.00 PKD
ROOT
HETATM    1  O   UNL     1     -13.311  11.342  71.690  1.00  0.00    -0.356 OA 
HETATM    2  C   UNL     1     -12.394  10.883  71.023  1.00  0.00    -0.393 C  
ENDROOT
BRANCH   2   3
HETATM    3  C   UNL     1     -12.194  11.158  69.552  1.00  0.00    -0.347 C  
BRANCH   3   4
HETATM    4  C   UNL     1     -11.669  12.571  69.293  1.00  0.00    -0.379 C  
BRANCH   4   5
HETATM    5  C   UNL     1     -10.476  12.581  68.332  1.00  0.00    -0.250 C  
BRANCH   5   6
HETATM    6  C   UNL     1     -10.880  12.965  66.931  1.00  0.00    -0.278 A  
HETATM    7  C   UNL     1      -9.993  13.675  66.108  1.00  0.00    -0.314 A  
HETATM    8  C   UNL     1     -11.630  13.699  64.330  1.00  0.00    -0.421 A  
HETATM    9  C   UNL     1     -10.367  14.037  64.814  1.00  0.00    -0.407 A  
HETATM   10  C   UNL     1     -12.148  12.633  66.436  1.00  0.00    -0.330 A  
HETATM   11  C   UNL     1     -12.520  12.997  65.142  1.00  0.00    -0.552 A  
ENDBRANCH   5   6
ENDBRANCH   4   5
ENDBRANCH   3   4
ENDBRANCH   2   3
BRANCH   2  12
HETATM   12  O   UNL     1     -11.417  10.058  71.491  1.00  0.00    -0.332 OA 
BRANCH  12  13
HETATM   13  C   UNL     1     -10.764   9.219  70.519  1.00  0.00    -0.257 C  
BRANCH  13  14
HETATM   14  C   UNL     1      -9.919   8.158  71.230  1.00  0.00    -0.181 C  
BRANCH  14  15
HETATM   15  O   UNL     1     -10.489   7.900  72.531  1.00  0.00    -0.249 OA 
BRANCH  15  16
HETATM   16  C   UNL     1     -11.304   6.816  72.622  1.00  0.00    -0.222 C  
HETATM   17  O   UNL     1     -12.371   6.676  72.044  1.00  0.00    -0.330 OA 
BRANCH  16  18
HETATM   18  C   UNL     1     -10.712   5.807  73.573  1.00  0.00    -0.300 C  
BRANCH  18  19
HETATM   19  C   UNL     1     -10.985   4.376  73.124  1.00  0.00    -0.332 C  
BRANCH  19  20
HETATM   20  C   UNL     1      -9.715   3.623  72.713  1.00  0.00    -0.194 C  
BRANCH  20  21
HETATM   21  C   UNL     1      -9.174   4.201  71.430  1.00  0.00    -0.197 A  
HETATM   22  C   UNL     1      -8.249   5.486  69.121  1.00  0.00    -0.095 A  
HETATM   23  C   UNL     1      -9.990   4.291  70.295  1.00  0.00    -0.203 A  
HETATM   24  C   UNL     1      -7.882   4.742  71.389  1.00  0.00    -0.096 A  
HETATM   25  C   UNL     1      -9.526   4.931  69.145  1.00  0.00    -0.205 A  
HETATM   26  C   UNL     1      -7.423   5.383  70.239  1.00  0.00    -0.072 A  
ENDBRANCH  20  21
ENDBRANCH  19  20
ENDBRANCH  18  19
ENDBRANCH  16  18
ENDBRANCH  15  16
ENDBRANCH  14  15
BRANCH  14  27
HETATM   27  C   UNL     1      -8.481   8.646  71.440  1.00  0.00    -0.188 C  
BRANCH  27  28
HETATM   28  O   UNL     1      -8.157   9.724  70.550  1.00  0.00    -0.222 OA 
BRANCH  28  29
HETATM   29  C   UNL     1      -6.830  10.026  70.479  1.00  0.00    -0.104 C  
HETATM   30  O   UNL     1      -6.318  11.036  70.940  1.00  0.00    -0.339 OA 
BRANCH  29  31
HETATM   31  C   UNL     1      -6.087   8.930  69.758  1.00  0.00    -0.035 C  
BRANCH  31  32
HETATM   32  C   UNL     1      -6.654   8.683  68.365  1.00  0.00    -0.060 C  
BRANCH  32  33
HETATM   33  C   UNL     1      -6.623   9.934  67.477  1.00  0.00    -0.069 C  
BRANCH  33  34
HETATM   34  C   UNL     1      -7.803   9.937  66.540  1.00  0.00    -0.110 A  
HETATM   35  C   UNL     1     -10.039  10.111  64.861  1.00  0.00    -0.277 A  
HETATM   36  C   UNL     1      -7.691  10.511  65.266  1.00  0.00    -0.085 A  
HETATM   37  C   UNL     1      -8.804  10.597  64.431  1.00  0.00    -0.185 A  
HETATM   38  C   UNL     1     -10.156   9.528  66.122  1.00  0.00    -0.326 A  
HETATM   39  C   UNL     1      -9.044   9.440  66.958  1.00  0.00    -0.155 A  
ENDBRANCH  33  34
ENDBRANCH  32  33
ENDBRANCH  31  32
ENDBRANCH  29  31
ENDBRANCH  28  29
ENDBRANCH  27  28
ENDBRANCH  14  27
ENDBRANCH  13  14
ENDBRANCH  12  13
ENDBRANCH   2  12
TORSDOF 20
ENDMDL
MODEL      207
REMARK 921   NORMALIZED FREE ENERGY PREDICTED BY IDOCK:   -4.44 KCAL/MOL
REMARK 922        TOTAL FREE ENERGY PREDICTED BY IDOCK:  -14.31 KCAL/MOL
REMARK 923 INTER-LIGAND FREE ENERGY PREDICTED BY IDOCK:   -8.54 KCAL/MOL
REMARK 924 INTRA-LIGAND FREE ENERGY PREDICTED BY IDOCK:   -5.78 KCAL/MOL
REMARK 927      BINDING AFFINITY PREDICTED BY RF-SCORE:    0.00 PKD
ROOT
HETATM    1  O   UNL     1      -7.326  12.144  67.594  1.00  0.00    -0.102 OA 
HETATM    2  C   UNL     1      -6.813  11.186  67.033  1.00  0.00    -0.119 C  
ENDROOT
BRANCH   2   3
HETATM    3  C   UNL     1      -5.978  10.140  67.733  1.00  0.00    -0.049 C  
BRANCH   3   4
HETATM    4  C   UNL     1      -6.448   9.890  69.168  1.00  0.00    -0.048 C  
BRANCH   4   5
HETATM    5  C   UNL     1      -7.419   8.708  69.264  1.00  0.00    -0.082 C  
BRANCH   5   6
HETATM    6  C   UNL     1      -8.857   9.158  69.292  1.00  0.00    -0.144 A  
HETATM    7  C   UNL     1      -9.439   9.594  70.492  1.00  0.00    -0.243 A  
HETATM    8  C   UNL     1     -11.538   9.980  69.358  1.00  0.00    -0.084 A  
HETATM    9  C   UNL     1     -10.772  10.005  70.522  1.00  0.00    -0.352 A  
HETATM   10  C   UNL     1      -9.637   9.133  68.129  1.00  0.00    -0.160 A  
HETATM   11  C   UNL     1     -10.970   9.544  68.162  1.00  0.00    -0.144 A  
ENDBRANCH   5   6
ENDBRANCH   4   5
ENDBRANCH   3   4
ENDBRANCH   2   3
BRANCH   2  12
HETATM   12  O   UNL     1      -6.906  10.909  65.703  1.00  0.00    -0.070 OA 
BRANCH  12  13
HETATM   13  C   UNL     1      -6.660   9.545  65.311  1.00  0.00    -0.082 C  
BRANCH  13  14
HETATM   14  C   UNL     1      -7.724   9.091  64.307  1.00  0.00    -0.123 C  
BRANCH  14  15
HETATM   15  O   UNL     1      -8.963   9.771  64.598  1.00  0.00    -0.199 OA 
BRANCH  15  16
HETATM   16  C   UNL     1      -9.560  10.400  63.550  1.00  0.00    -0.310 C  
HETATM   17  O   UNL     1      -9.210  10.326  62.382  1.00  0.00    -0.254 OA 
BRANCH  16  18
HETATM   18  C   UNL     1     -10.713  11.237  64.044  1.00  0.00    -0.444 C  
BRANCH  18  19
HETATM   19  C   UNL     1     -10.408  11.882  65.392  1.00  0.00    -0.306 C  
BRANCH  19  20
HETATM   20  C   UNL     1     -11.671  12.271  66.169  1.00  0.00    -0.440 C  
BRANCH  20  21
HETATM   21  C   UNL     1     -11.428  13.552  66.925  1.00  0.00    -0.374 A  
HETATM   22  C   UNL     1     -11.188  16.006  68.251  1.00  0.00    -0.350 A  
HETATM   23  C   UNL     1     -10.815  14.642  66.293  1.00  0.00    -0.321 A  
HETATM   24  C   UNL     1     -11.900  13.699  68.236  1.00  0.00    -0.404 A  
HETATM   25  C   UNL     1     -10.695  15.864  66.957  1.00  0.00    -0.292 A  
HETATM   26  C   UNL     1     -11.781  14.922  68.895  1.00  0.00    -0.343 A  
ENDBRANCH  20  21
ENDBRANCH  19  20
ENDBRANCH  18  19
ENDBRANCH  16  18
ENDBRANCH  15  16
ENDBRANCH  14  15
BRANCH  14  27
HETATM   27  C   UNL     1      -7.982   7.584  64.418  1.00  0.00    -0.117 C  
BRANCH  27  28
HETATM   28  O   UNL     1      -8.981   7.294  65.406  1.00  0.00     0.019 OA 
BRANCH  28  29
HETATM   29  C   UNL     1      -8.967   6.013  65.871  1.00  0.00    -0.133 C  
HETATM   30  O   UNL     1      -8.041   5.228  65.731  1.00  0.00    -0.106 OA 
BRANCH  29  31
HETATM   31  C   UNL     1     -10.256   5.709  66.592  1.00  0.00    -0.276 C  
BRANCH  31  32
HETATM   32  C   UNL     1     -10.032   4.797  67.793  1.00  0.00    -0.169 C  
BRANCH  32  33
HETATM   33  C   UNL     1      -9.159   5.441  68.878  1.00  0.00    -0.138 C  
BRANCH  33  34
HETATM   34  C   UNL     1     -10.008   5.854  70.052  1.00  0.00    -0.239 A  
HETATM   35  C   UNL     1     -11.544   6.798  72.196  1.00  0.00    -0.324 A  
HETATM   36  C   UNL     1     -11.355   6.194  69.864  1.00  0.00    -0.454 A  
HETATM   37  C   UNL     1     -12.119   6.663  70.932  1.00  0.00    -0.379 A  
HETATM   38  C   UNL     1     -10.209   6.451  72.394  1.00  0.00    -0.204 A  
HETATM   39  C   UNL     1      -9.443   5.981  71.328  1.00  0.00    -0.180 A  
ENDBRANCH  33  34
ENDBRANCH  32  33
ENDBRANCH  31  32
ENDBRANCH  29  31
ENDBRANCH  28  29
ENDBRANCH  27  28
ENDBRANCH  14  27
ENDBRANCH  13  14
ENDBRANCH  12  13
ENDBRANCH   2  12
TORSDOF 20
ENDMDL
MODEL      208
REMARK 921   NORMALIZED FREE ENERGY PREDICTED BY IDOCK:   -4.42 KCAL/MOL
REMARK 922        TOTAL FREE ENERGY PREDICTED BY IDOCK:  -14.27 KCAL/MOL
REMARK 923 INTER-LIGAND FREE ENERGY PREDICTED BY IDOCK:  -12.26 KCAL/MOL
REMARK 924 INTRA-LIGAND FREE ENERGY PREDICTED BY IDOCK:   -2.01 KCAL/MOL
REMARK 927      BINDING AFFINITY PREDICTED BY RF-SCORE:    0.00 PKD
ROOT
HETATM    1  O   UNL     1      -9.985   5.435  72.092  1.00  0.00    -0.172 OA 
HETATM    2  C   UNL     1     -10.071   4.777  71.064  1.00  0.00    -0.199 C  
ENDROOT
BRANCH   2   3
HETATM    3  C   UNL     1      -9.538   3.373  70.907  1.00  0.00    -0.239 C  
BRANCH   3   4
HETATM    4  C   UNL     1      -8.634   3.232  69.681  1.00  0.00    -0.112 C  
BRANCH   4   5
HETATM    5  C   UNL     1      -9.161   2.191  68.688  1.00  0.00    -0.226 C  
BRANCH   5   6
HETATM    6  C   UNL     1      -9.262   2.744  67.289  1.00  0.00    -0.191 A  
HETATM    7  C   UNL     1      -9.802   4.019  67.069  1.00  0.00    -0.151 A  
HETATM    8  C   UNL     1      -9.469   3.774  64.688  1.00  0.00    -0.165 A  
HETATM    9  C   UNL     1      -9.902   4.531  65.775  1.00  0.00    -0.231 A  
HETATM   10  C   UNL     1      -8.834   1.989  66.189  1.00  0.00    -0.117 A  
HETATM   11  C   UNL     1      -8.935   2.503  64.896  1.00  0.00    -0.127 A  
ENDBRANCH   5   6
ENDBRANCH   4   5
ENDBRANCH   3   4
ENDBRANCH   2   3
BRANCH   2  12
HETATM   12  O   UNL     1     -10.653   5.198  69.907  1.00  0.00    -0.280 OA 
BRANCH  12  13
HETATM   13  C   UNL     1     -11.412   6.420  69.975  1.00  0.00    -0.428 C  
BRANCH  13  14
HETATM   14  C   UNL     1     -10.502   7.617  69.685  1.00  0.00    -0.235 C  
BRANCH  14  15
HETATM   15  O   UNL     1     -11.214   8.833  69.995  1.00  0.00    -0.215 OA 
BRANCH  15  16
HETATM   16  C   UNL     1     -11.193   9.222  71.298  1.00  0.00    -0.355 C  
HETATM   17  O   UNL     1     -10.266   9.055  72.076  1.00  0.00    -0.339 OA 
BRANCH  16  18
HETATM   18  C   UNL     1     -12.504   9.871  71.661  1.00  0.00    -0.507 C  
BRANCH  18  19
HETATM   19  C   UNL     1     -12.572  11.318  71.182  1.00  0.00    -0.501 C  
BRANCH  19  20
HETATM   20  C   UNL     1     -13.493  12.191  72.041  1.00  0.00    -0.388 C  
BRANCH  20  21
HETATM   21  C   UNL     1     -13.043  13.628  71.969  1.00  0.00    -0.484 A  
HETATM   22  C   UNL     1     -11.985  16.217  71.847  1.00  0.00    -0.513 A  
HETATM   23  C   UNL     1     -12.850  14.370  73.141  1.00  0.00    -0.492 A  
HETATM   24  C   UNL     1     -12.720  14.205  70.733  1.00  0.00    -0.414 A  
HETATM   25  C   UNL     1     -12.323  15.661  73.077  1.00  0.00    -0.570 A  
HETATM   26  C   UNL     1     -12.192  15.494  70.673  1.00  0.00    -0.445 A  
ENDBRANCH  20  21
ENDBRANCH  19  20
ENDBRANCH  18  19
ENDBRANCH  16  18
ENDBRANCH  15  16
ENDBRANCH  14  15
BRANCH  14  27
HETATM   27  C   UNL     1     -10.113   7.669  68.203  1.00  0.00    -0.186 C  
BRANCH  27  28
HETATM   28  O   UNL     1      -9.068   8.624  67.968  1.00  0.00    -0.140 OA 
BRANCH  28  29
HETATM   29  C   UNL     1      -8.275   8.348  66.894  1.00  0.00    -0.103 C  
HETATM   30  O   UNL     1      -7.560   7.362  66.789  1.00  0.00    -0.096 OA 
BRANCH  29  31
HETATM   31  C   UNL     1      -8.415   9.430  65.854  1.00  0.00    -0.135 C  
BRANCH  31  32
HETATM   32  C   UNL     1      -9.874   9.681  65.490  1.00  0.00    -0.352 C  
BRANCH  32  33
HETATM   33  C   UNL     1     -10.038  10.682  64.339  1.00  0.00    -0.418 C  
BRANCH  33  34
HETATM   34  C   UNL     1     -10.967  11.797  64.746  1.00  0.00    -0.360 A  
HETATM   35  C   UNL     1     -12.544  13.981  65.512  1.00  0.00    -0.543 A  
HETATM   36  C   UNL     1     -11.493  12.664  63.780  1.00  0.00    -0.539 A  
HETATM   37  C   UNL     1     -12.279  13.751  64.162  1.00  0.00    -0.443 A  
HETATM   38  C   UNL     1     -12.034  13.116  66.478  1.00  0.00    -0.459 A  
HETATM   39  C   UNL     1     -11.249  12.028  66.098  1.00  0.00    -0.394 A  
ENDBRANCH  33  34
ENDBRANCH  32  33
ENDBRANCH  31  32
ENDBRANCH  29  31
ENDBRANCH  28  29
ENDBRANCH  27  28
ENDBRANCH  14  27
ENDBRANCH  13  14
ENDBRANCH  12  13
ENDBRANCH   2  12
TORSDOF 20
ENDMDL
MODEL      209
REMARK 921   NORMALIZED FREE ENERGY PREDICTED BY IDOCK:   -4.39 KCAL/MOL
REMARK 922        TOTAL FREE ENERGY PREDICTED BY IDOCK:  -14.20 KCAL/MOL
REMARK 923 INTER-LIGAND FREE ENERGY PREDICTED BY IDOCK:  -10.73 KCAL/MOL
REMARK 924 INTRA-LIGAND FREE ENERGY PREDICTED BY IDOCK:   -3.47 KCAL/MOL
REMARK 927      BINDING AFFINITY PREDICTED BY RF-SCORE:    0.00 PKD
ROOT
HETATM    1  O   UNL     1      -8.669  12.061  68.362  1.00  0.00    -0.173 OA 
HETATM    2  C   UNL     1      -8.645  10.841  68.287  1.00  0.00    -0.135 C  
ENDROOT
BRANCH   2   3
HETATM    3  C   UNL     1      -9.830   9.949  68.570  1.00  0.00    -0.168 C  
BRANCH   3   4
HETATM    4  C   UNL     1     -10.245   9.989  70.042  1.00  0.00    -0.306 C  
BRANCH   4   5
HETATM    5  C   UNL     1     -11.768  10.019  70.216  1.00  0.00    -0.327 C  
BRANCH   5   6
HETATM    6  C   UNL     1     -12.258  11.368  70.679  1.00  0.00    -0.484 A  
HETATM    7  C   UNL     1     -13.166  11.463  71.743  1.00  0.00    -0.472 A  
HETATM    8  C   UNL     1     -13.189  13.870  71.536  1.00  0.00    -0.425 A  
HETATM    9  C   UNL     1     -13.626  12.709  72.170  1.00  0.00    -0.510 A  
HETATM   10  C   UNL     1     -11.827  12.541  70.046  1.00  0.00    -0.363 A  
HETATM   11  C   UNL     1     -12.289  13.786  70.475  1.00  0.00    -0.429 A  
ENDBRANCH   5   6
ENDBRANCH   4   5
ENDBRANCH   3   4
ENDBRANCH   2   3
BRANCH   2  12
HETATM   12  O   UNL     1      -7.559  10.095  67.943  1.00  0.00    -0.088 OA 
BRANCH  12  13
HETATM   13  C   UNL     1      -7.735   8.665  67.941  1.00  0.00    -0.102 C  
BRANCH  13  14
HETATM   14  C   UNL     1      -7.440   8.106  66.546  1.00  0.00    -0.088 C  
BRANCH  14  15
HETATM   15  O   UNL     1      -7.762   9.110  65.561  1.00  0.00    -0.092 OA 
BRANCH  15  16
HETATM   16  C   UNL     1      -7.534   8.770  64.264  1.00  0.00    -0.108 C  
HETATM   17  O   UNL     1      -6.643   8.036  63.866  1.00  0.00    -0.065 OA 
BRANCH  16  18
HETATM   18  C   UNL     1      -8.534   9.459  63.370  1.00  0.00    -0.202 C  
BRANCH  18  19
HETATM   19  C   UNL     1      -9.062  10.745  63.997  1.00  0.00    -0.215 C  
BRANCH  19  20
HETATM   20  C   UNL     1     -10.355  11.245  63.341  1.00  0.00    -0.449 C  
BRANCH  20  21
HETATM   21  C   UNL     1     -11.115  12.111  64.313  1.00  0.00    -0.403 A  
HETATM   22  C   UNL     1     -12.324  13.837  66.156  1.00  0.00    -0.496 A  
HETATM   23  C   UNL     1     -11.181  11.765  65.669  1.00  0.00    -0.324 A  
HETATM   24  C   UNL     1     -11.681  13.320  63.887  1.00  0.00    -0.486 A  
HETATM   25  C   UNL     1     -11.785  12.627  66.586  1.00  0.00    -0.464 A  
HETATM   26  C   UNL     1     -12.281  14.180  64.806  1.00  0.00    -0.457 A  
ENDBRANCH  20  21
ENDBRANCH  19  20
ENDBRANCH  18  19
ENDBRANCH  16  18
ENDBRANCH  15  16
ENDBRANCH  14  15
BRANCH  14  27
HETATM   27  C   UNL     1      -8.302   6.872  66.251  1.00  0.00    -0.126 C  
BRANCH  27  28
HETATM   28  O   UNL     1      -9.700   7.163  66.390  1.00  0.00    -0.159 OA 
BRANCH  28  29
HETATM   29  C   UNL     1     -10.430   6.182  66.992  1.00  0.00    -0.277 C  
HETATM   30  O   UNL     1     -10.392   4.998  66.691  1.00  0.00    -0.244 OA 
BRANCH  29  31
HETATM   31  C   UNL     1     -11.282   6.768  68.089  1.00  0.00    -0.154 C  
BRANCH  31  32
HETATM   32  C   UNL     1     -11.121   6.007  69.400  1.00  0.00    -0.445 C  
BRANCH  32  33
HETATM   33  C   UNL     1      -9.842   6.387  70.157  1.00  0.00    -0.191 C  
BRANCH  33  34
HETATM   34  C   UNL     1      -9.831   5.741  71.519  1.00  0.00    -0.209 A  
HETATM   35  C   UNL     1      -9.813   4.710  74.123  1.00  0.00    -0.183 A  
HETATM   36  C   UNL     1     -11.035   5.494  72.192  1.00  0.00    -0.291 A  
HETATM   37  C   UNL     1     -11.025   4.981  73.488  1.00  0.00    -0.393 A  
HETATM   38  C   UNL     1      -8.611   4.941  73.456  1.00  0.00    -0.105 A  
HETATM   39  C   UNL     1      -8.619   5.454  72.159  1.00  0.00    -0.126 A  
ENDBRANCH  33  34
ENDBRANCH  32  33
ENDBRANCH  31  32
ENDBRANCH  29  31
ENDBRANCH  28  29
ENDBRANCH  27  28
ENDBRANCH  14  27
ENDBRANCH  13  14
ENDBRANCH  12  13
ENDBRANCH   2  12
TORSDOF 20
ENDMDL
MODEL      210
REMARK 921   NORMALIZED FREE ENERGY PREDICTED BY IDOCK:   -4.39 KCAL/MOL
REMARK 922        TOTAL FREE ENERGY PREDICTED BY IDOCK:  -14.20 KCAL/MOL
REMARK 923 INTER-LIGAND FREE ENERGY PREDICTED BY IDOCK:  -10.02 KCAL/MOL
REMARK 924 INTRA-LIGAND FREE ENERGY PREDICTED BY IDOCK:   -4.18 KCAL/MOL
REMARK 927      BINDING AFFINITY PREDICTED BY RF-SCORE:    0.00 PKD
ROOT
HETATM    1  O   UNL     1     -10.657   8.609  69.727  1.00  0.00    -0.221 OA 
HETATM    2  C   UNL     1     -10.434   9.349  68.780  1.00  0.00    -0.212 C  
ENDROOT
BRANCH   2   3
HETATM    3  C   UNL     1     -10.150   8.870  67.376  1.00  0.00    -0.288 C  
BRANCH   3   4
HETATM    4  C   UNL     1      -8.790   8.179  67.265  1.00  0.00    -0.136 C  
BRANCH   4   5
HETATM    5  C   UNL     1      -8.488   7.719  65.834  1.00  0.00    -0.151 C  
BRANCH   5   6
HETATM    6  C   UNL     1      -8.875   6.279  65.608  1.00  0.00    -0.086 A  
HETATM    7  C   UNL     1      -8.366   5.574  64.508  1.00  0.00    -0.127 A  
HETATM    8  C   UNL     1      -9.604   3.607  65.170  1.00  0.00    -0.167 A  
HETATM    9  C   UNL     1      -8.728   4.244  64.293  1.00  0.00    -0.136 A  
HETATM   10  C   UNL     1      -9.759   5.631  66.481  1.00  0.00    -0.181 A  
HETATM   11  C   UNL     1     -10.119   4.301  66.264  1.00  0.00    -0.196 A  
ENDBRANCH   5   6
ENDBRANCH   4   5
ENDBRANCH   3   4
ENDBRANCH   2   3
BRANCH   2  12
HETATM   12  O   UNL     1     -10.403  10.709  68.834  1.00  0.00    -0.186 OA 
BRANCH  12  13
HETATM   13  C   UNL     1      -9.107  11.328  68.725  1.00  0.00    -0.116 C  
BRANCH  13  14
HETATM   14  C   UNL     1      -9.178  12.525  67.771  1.00  0.00    -0.198 C  
BRANCH  14  15
HETATM   15  O   UNL     1      -8.790  13.717  68.486  1.00  0.00    -0.169 OA 
BRANCH  15  16
HETATM   16  C   UNL     1      -7.570  14.229  68.174  1.00  0.00    -0.134 C  
HETATM   17  O   UNL     1      -6.721  13.681  67.488  1.00  0.00    -0.171 OA 
BRANCH  16  18
HETATM   18  C   UNL     1      -7.397  15.577  68.829  1.00  0.00    -0.141 C  
BRANCH  18  19
HETATM   19  C   UNL     1      -6.358  16.428  68.107  1.00  0.00    -0.139 C  
BRANCH  19  20
HETATM   20  C   UNL     1      -6.919  17.136  66.868  1.00  0.00    -0.247 C  
BRANCH  20  21
HETATM   21  C   UNL     1      -6.711  18.624  66.996  1.00  0.00    -0.205 A  
HETATM   22  C   UNL     1      -6.093  21.346  67.208  1.00  0.00    -0.409 A  
HETATM   23  C   UNL     1      -6.475  19.201  68.250  1.00  0.00    -0.254 A  
HETATM   24  C   UNL     1      -6.655  19.429  65.851  1.00  0.00    -0.254 A  
HETATM   25  C   UNL     1      -6.168  20.558  68.353  1.00  0.00    -0.359 A  
HETATM   26  C   UNL     1      -6.345  20.785  65.957  1.00  0.00    -0.285 A  
ENDBRANCH  20  21
ENDBRANCH  19  20
ENDBRANCH  18  19
ENDBRANCH  16  18
ENDBRANCH  15  16
ENDBRANCH  14  15
BRANCH  14  27
HETATM   27  C   UNL     1     -10.607  12.735  67.255  1.00  0.00    -0.233 C  
BRANCH  27  28
HETATM   28  O   UNL     1     -10.650  12.749  65.821  1.00  0.00    -0.265 OA 
BRANCH  28  29
HETATM   29  C   UNL     1     -11.480  13.687  65.284  1.00  0.00    -0.308 C  
HETATM   30  O   UNL     1     -12.700  13.620  65.280  1.00  0.00    -0.583 OA 
BRANCH  29  31
HETATM   31  C   UNL     1     -10.674  14.822  64.705  1.00  0.00    -0.279 C  
BRANCH  31  32
HETATM   32  C   UNL     1     -11.037  16.158  65.344  1.00  0.00    -0.126 C  
BRANCH  32  33
HETATM   33  C   UNL     1     -10.555  16.274  66.796  1.00  0.00    -0.257 C  
BRANCH  33  34
HETATM   34  C   UNL     1     -10.404  17.724  67.180  1.00  0.00    -0.354 A  
HETATM   35  C   UNL     1      -9.940  20.402  67.860  1.00  0.00    -0.428 A  
HETATM   36  C   UNL     1     -10.431  18.720  66.195  1.00  0.00    -0.499 A  
HETATM   37  C   UNL     1     -10.200  20.054  66.534  1.00  0.00    -0.598 A  
HETATM   38  C   UNL     1      -9.924  19.418  68.847  1.00  0.00    -0.519 A  
HETATM   39  C   UNL     1     -10.155  18.085  68.510  1.00  0.00    -0.399 A  
ENDBRANCH  33  34
ENDBRANCH  32  33
ENDBRANCH  31  32
ENDBRANCH  29  31
ENDBRANCH  28  29
ENDBRANCH  27  28
ENDBRANCH  14  27
ENDBRANCH  13  14
ENDBRANCH  12  13
ENDBRANCH   2  12
TORSDOF 20
ENDMDL
MODEL      211
REMARK 921   NORMALIZED FREE ENERGY PREDICTED BY IDOCK:   -4.38 KCAL/MOL
REMARK 922        TOTAL FREE ENERGY PREDICTED BY IDOCK:  -14.18 KCAL/MOL
REMARK 923 INTER-LIGAND FREE ENERGY PREDICTED BY IDOCK:  -10.55 KCAL/MOL
REMARK 924 INTRA-LIGAND FREE ENERGY PREDICTED BY IDOCK:   -3.63 KCAL/MOL
REMARK 927      BINDING AFFINITY PREDICTED BY RF-SCORE:    0.00 PKD
ROOT
HETATM    1  O   UNL     1     -14.221   8.921  71.458  1.00  0.00    -0.357 OA 
HETATM    2  C   UNL     1     -13.236   9.625  71.630  1.00  0.00    -0.411 C  
ENDROOT
BRANCH   2   3
HETATM    3  C   UNL     1     -11.929   9.131  72.204  1.00  0.00    -0.364 C  
BRANCH   3   4
HETATM    4  C   UNL     1     -11.710   7.640  71.945  1.00  0.00    -0.328 C  
BRANCH   4   5
HETATM    5  C   UNL     1     -11.408   7.344  70.472  1.00  0.00    -0.295 C  
BRANCH   5   6
HETATM    6  C   UNL     1     -10.254   6.388  70.311  1.00  0.00    -0.236 A  
HETATM    7  C   UNL     1      -8.943   6.874  70.199  1.00  0.00    -0.149 A  
HETATM    8  C   UNL     1      -8.101   4.618  69.994  1.00  0.00    -0.068 A  
HETATM    9  C   UNL     1      -7.873   5.992  70.044  1.00  0.00    -0.105 A  
HETATM   10  C   UNL     1     -10.472   5.006  70.256  1.00  0.00    -0.243 A  
HETATM   11  C   UNL     1      -9.401   4.126  70.101  1.00  0.00    -0.234 A  
ENDBRANCH   5   6
ENDBRANCH   4   5
ENDBRANCH   3   4
ENDBRANCH   2   3
BRANCH   2  12
HETATM   12  O   UNL     1     -13.156  10.952  71.337  1.00  0.00    -0.389 OA 
BRANCH  12  13
HETATM   13  C   UNL     1     -11.953  11.395  70.679  1.00  0.00    -0.314 C  
BRANCH  13  14
HETATM   14  C   UNL     1     -12.250  11.726  69.214  1.00  0.00    -0.140 C  
BRANCH  14  15
HETATM   15  O   UNL     1     -11.803  10.632  68.387  1.00  0.00    -0.439 OA 
BRANCH  15  16
HETATM   16  C   UNL     1     -10.461  10.416  68.357  1.00  0.00    -0.189 C  
HETATM   17  O   UNL     1      -9.755  10.183  69.327  1.00  0.00    -0.201 OA 
BRANCH  16  18
HETATM   18  C   UNL     1      -9.953  10.534  66.942  1.00  0.00    -0.246 C  
BRANCH  18  19
HETATM   19  C   UNL     1      -9.979   9.192  66.218  1.00  0.00    -0.352 C  
BRANCH  19  20
HETATM   20  C   UNL     1      -8.683   8.391  66.393  1.00  0.00    -0.159 C  
BRANCH  20  21
HETATM   21  C   UNL     1      -9.008   6.925  66.535  1.00  0.00    -0.166 A  
HETATM   22  C   UNL     1      -9.641   4.199  66.562  1.00  0.00    -0.220 A  
HETATM   23  C   UNL     1     -10.332   6.508  66.720  1.00  0.00    -0.279 A  
HETATM   24  C   UNL     1      -8.001   5.962  66.385  1.00  0.00    -0.102 A  
HETATM   25  C   UNL     1     -10.645   5.148  66.734  1.00  0.00    -0.266 A  
HETATM   26  C   UNL     1      -8.318   4.604  66.397  1.00  0.00    -0.106 A  
ENDBRANCH  20  21
ENDBRANCH  19  20
ENDBRANCH  18  19
ENDBRANCH  16  18
ENDBRANCH  15  16
ENDBRANCH  14  15
BRANCH  14  27
HETATM   27  C   UNL     1     -11.498  12.986  68.768  1.00  0.00    -0.298 C  
BRANCH  27  28
HETATM   28  O   UNL     1     -11.953  13.443  67.486  1.00  0.00    -0.361 OA 
BRANCH  28  29
HETATM   29  C   UNL     1     -11.147  14.367  66.892  1.00  0.00    -0.323 C  
HETATM   30  O   UNL     1     -10.894  14.409  65.697  1.00  0.00    -0.296 OA 
BRANCH  29  31
HETATM   31  C   UNL     1     -10.621  15.335  67.921  1.00  0.00    -0.260 C  
BRANCH  31  32
HETATM   32  C   UNL     1     -10.335  16.705  67.316  1.00  0.00    -0.298 C  
BRANCH  32  33
HETATM   33  C   UNL     1     -10.125  17.794  68.377  1.00  0.00    -0.376 C  
BRANCH  33  34
HETATM   34  C   UNL     1      -9.114  18.802  67.895  1.00  0.00    -0.318 A  
HETATM   35  C   UNL     1      -7.134  20.535  66.934  1.00  0.00    -0.344 A  
HETATM   36  C   UNL     1      -9.178  19.295  66.585  1.00  0.00    -0.379 A  
HETATM   37  C   UNL     1      -8.192  20.158  66.107  1.00  0.00    -0.233 A  
HETATM   38  C   UNL     1      -7.069  20.058  68.242  1.00  0.00    -0.323 A  
HETATM   39  C   UNL     1      -8.054  19.196  68.722  1.00  0.00    -0.384 A  
ENDBRANCH  33  34
ENDBRANCH  32  33
ENDBRANCH  31  32
ENDBRANCH  29  31
ENDBRANCH  28  29
ENDBRANCH  27  28
ENDBRANCH  14  27
ENDBRANCH  13  14
ENDBRANCH  12  13
ENDBRANCH   2  12
TORSDOF 20
ENDMDL
MODEL      212
REMARK 921   NORMALIZED FREE ENERGY PREDICTED BY IDOCK:   -4.34 KCAL/MOL
REMARK 922        TOTAL FREE ENERGY PREDICTED BY IDOCK:  -14.09 KCAL/MOL
REMARK 923 INTER-LIGAND FREE ENERGY PREDICTED BY IDOCK:   -9.84 KCAL/MOL
REMARK 924 INTRA-LIGAND FREE ENERGY PREDICTED BY IDOCK:   -4.25 KCAL/MOL
REMARK 927      BINDING AFFINITY PREDICTED BY RF-SCORE:    0.00 PKD
ROOT
HETATM    1  O   UNL     1     -13.866  13.788  72.772  1.00  0.00    -0.716 OA 
HETATM    2  C   UNL     1     -13.363  13.688  71.662  1.00  0.00    -0.346 C  
ENDROOT
BRANCH   2   3
HETATM    3  C   UNL     1     -12.846  14.856  70.855  1.00  0.00    -0.432 C  
BRANCH   3   4
HETATM    4  C   UNL     1     -11.866  14.417  69.765  1.00  0.00    -0.375 C  
BRANCH   4   5
HETATM    5  C   UNL     1     -11.644  15.507  68.711  1.00  0.00    -0.390 C  
BRANCH   5   6
HETATM    6  C   UNL     1     -11.590  14.942  67.314  1.00  0.00    -0.337 A  
HETATM    7  C   UNL     1     -10.673  15.447  66.382  1.00  0.00    -0.311 A  
HETATM    8  C   UNL     1     -11.495  13.908  64.709  1.00  0.00    -0.368 A  
HETATM    9  C   UNL     1     -10.625  14.930  65.086  1.00  0.00    -0.450 A  
HETATM   10  C   UNL     1     -12.463  13.918  66.923  1.00  0.00    -0.201 A  
HETATM   11  C   UNL     1     -12.413  13.403  65.628  1.00  0.00    -0.519 A  
ENDBRANCH   5   6
ENDBRANCH   4   5
ENDBRANCH   3   4
ENDBRANCH   2   3
BRANCH   2  12
HETATM   12  O   UNL     1     -13.190  12.524  70.977  1.00  0.00    -0.042 OA 
BRANCH  12  13
HETATM   13  C   UNL     1     -12.943  11.344  71.767  1.00  0.00    -0.414 C  
BRANCH  13  14
HETATM   14  C   UNL     1     -12.205  10.298  70.925  1.00  0.00    -0.365 C  
BRANCH  14  15
HETATM   15  O   UNL     1     -11.285   9.580  71.773  1.00  0.00    -0.363 OA 
BRANCH  15  16
HETATM   16  C   UNL     1     -11.667   8.329  72.145  1.00  0.00    -0.365 C  
HETATM   17  O   UNL     1     -11.664   7.893  73.286  1.00  0.00    -0.201 OA 
BRANCH  16  18
HETATM   18  C   UNL     1     -12.073   7.534  70.929  1.00  0.00    -0.254 C  
BRANCH  18  19
HETATM   19  C   UNL     1     -10.864   7.102  70.106  1.00  0.00    -0.279 C  
BRANCH  19  20
HETATM   20  C   UNL     1     -10.720   5.579  70.005  1.00  0.00    -0.356 C  
BRANCH  20  21
HETATM   21  C   UNL     1      -9.971   5.222  68.746  1.00  0.00    -0.243 A  
HETATM   22  C   UNL     1      -8.787   4.483  66.320  1.00  0.00    -0.113 A  
HETATM   23  C   UNL     1      -9.432   3.940  68.583  1.00  0.00    -0.217 A  
HETATM   24  C   UNL     1      -9.892   6.137  67.689  1.00  0.00    -0.131 A  
HETATM   25  C   UNL     1      -8.841   3.574  67.372  1.00  0.00    -0.149 A  
HETATM   26  C   UNL     1      -9.303   5.768  66.479  1.00  0.00    -0.162 A  
ENDBRANCH  20  21
ENDBRANCH  19  20
ENDBRANCH  18  19
ENDBRANCH  16  18
ENDBRANCH  15  16
ENDBRANCH  14  15
BRANCH  14  27
HETATM   27  C   UNL     1     -11.390  10.962  69.809  1.00  0.00    -0.301 C  
BRANCH  27  28
HETATM   28  O   UNL     1     -10.218  10.199  69.490  1.00  0.00    -0.209 OA 
BRANCH  28  29
HETATM   29  C   UNL     1      -9.762  10.359  68.216  1.00  0.00    -0.151 C  
HETATM   30  O   UNL     1     -10.307  11.040  67.359  1.00  0.00    -0.191 OA 
BRANCH  29  31
HETATM   31  C   UNL     1      -8.483   9.584  68.021  1.00  0.00    -0.119 C  
BRANCH  31  32
HETATM   32  C   UNL     1      -7.753   9.355  69.340  1.00  0.00    -0.085 C  
BRANCH  32  33
HETATM   33  C   UNL     1      -7.055   7.990  69.405  1.00  0.00    -0.063 C  
BRANCH  33  34
HETATM   34  C   UNL     1      -7.464   7.255  70.657  1.00  0.00    -0.079 A  
HETATM   35  C   UNL     1      -8.056   5.932  73.053  1.00  0.00    -0.117 A  
HETATM   36  C   UNL     1      -8.023   7.956  71.734  1.00  0.00    -0.118 A  
HETATM   37  C   UNL     1      -8.318   7.295  72.927  1.00  0.00    -0.132 A  
HETATM   38  C   UNL     1      -7.511   5.226  71.982  1.00  0.00    -0.097 A  
HETATM   39  C   UNL     1      -7.216   5.883  70.789  1.00  0.00    -0.080 A  
ENDBRANCH  33  34
ENDBRANCH  32  33
ENDBRANCH  31  32
ENDBRANCH  29  31
ENDBRANCH  28  29
ENDBRANCH  27  28
ENDBRANCH  14  27
ENDBRANCH  13  14
ENDBRANCH  12  13
ENDBRANCH   2  12
TORSDOF 20
ENDMDL
MODEL      213
REMARK 921   NORMALIZED FREE ENERGY PREDICTED BY IDOCK:   -4.34 KCAL/MOL
REMARK 922        TOTAL FREE ENERGY PREDICTED BY IDOCK:  -14.09 KCAL/MOL
REMARK 923 INTER-LIGAND FREE ENERGY PREDICTED BY IDOCK:   -9.49 KCAL/MOL
REMARK 924 INTRA-LIGAND FREE ENERGY PREDICTED BY IDOCK:   -4.60 KCAL/MOL
REMARK 927      BINDING AFFINITY PREDICTED BY RF-SCORE:    0.00 PKD
ROOT
HETATM    1  O   UNL     1      -5.770   8.036  69.596  1.00  0.00    -0.026 OA 
HETATM    2  C   UNL     1      -6.464   8.167  68.597  1.00  0.00    -0.053 C  
ENDROOT
BRANCH   2   3
HETATM    3  C   UNL     1      -7.968   8.302  68.620  1.00  0.00    -0.122 C  
BRANCH   3   4
HETATM    4  C   UNL     1      -8.430   9.478  69.481  1.00  0.00    -0.156 C  
BRANCH   4   5
HETATM    5  C   UNL     1      -8.852   9.038  70.888  1.00  0.00    -0.294 C  
BRANCH   5   6
HETATM    6  C   UNL     1     -10.314   9.296  71.147  1.00  0.00    -0.392 A  
HETATM    7  C   UNL     1     -11.001   8.558  72.122  1.00  0.00    -0.427 A  
HETATM    8  C   UNL     1     -13.039   9.758  71.625  1.00  0.00    -0.516 A  
HETATM    9  C   UNL     1     -12.356   8.791  72.360  1.00  0.00    -0.414 A  
HETATM   10  C   UNL     1     -11.011  10.263  70.411  1.00  0.00    -0.365 A  
HETATM   11  C   UNL     1     -12.366  10.493  70.650  1.00  0.00    -0.449 A  
ENDBRANCH   5   6
ENDBRANCH   4   5
ENDBRANCH   3   4
ENDBRANCH   2   3
BRANCH   2  12
HETATM   12  O   UNL     1      -6.001   8.210  67.317  1.00  0.00    -0.047 OA 
BRANCH  12  13
HETATM   13  C   UNL     1      -6.526   7.223  66.409  1.00  0.00    -0.048 C  
BRANCH  13  14
HETATM   14  C   UNL     1      -6.466   7.752  64.973  1.00  0.00    -0.044 C  
BRANCH  14  15
HETATM   15  O   UNL     1      -7.724   8.382  64.653  1.00  0.00    -0.098 OA 
BRANCH  15  16
HETATM   16  C   UNL     1      -7.700   9.736  64.530  1.00  0.00    -0.137 C  
HETATM   17  O   UNL     1      -7.184  10.359  63.615  1.00  0.00    -0.106 OA 
BRANCH  16  18
HETATM   18  C   UNL     1      -8.383  10.371  65.715  1.00  0.00    -0.158 C  
BRANCH  18  19
HETATM   19  C   UNL     1      -9.866  10.020  65.769  1.00  0.00    -0.345 C  
BRANCH  19  20
HETATM   20  C   UNL     1     -10.660  10.916  66.727  1.00  0.00    -0.313 C  
BRANCH  20  21
HETATM   21  C   UNL     1     -11.332  12.019  65.950  1.00  0.00    -0.391 A  
HETATM   22  C   UNL     1     -12.369  14.177  64.499  1.00  0.00    -0.419 A  
HETATM   23  C   UNL     1     -11.875  13.125  66.616  1.00  0.00    -0.449 A  
HETATM   24  C   UNL     1     -11.333  11.996  64.549  1.00  0.00    -0.393 A  
HETATM   25  C   UNL     1     -12.393  14.199  65.890  1.00  0.00    -0.486 A  
HETATM   26  C   UNL     1     -11.849  13.072  63.827  1.00  0.00    -0.566 A  
ENDBRANCH  20  21
ENDBRANCH  19  20
ENDBRANCH  18  19
ENDBRANCH  16  18
ENDBRANCH  15  16
ENDBRANCH  14  15
BRANCH  14  27
HETATM   27  C   UNL     1      -6.249   6.610  63.973  1.00  0.00    -0.035 C  
BRANCH  27  28
HETATM   28  O   UNL     1      -6.468   5.329  64.582  1.00  0.00    -0.033 OA 
BRANCH  28  29
HETATM   29  C   UNL     1      -7.336   4.520  63.912  1.00  0.00    -0.055 C  
HETATM   30  O   UNL     1      -7.014   3.532  63.268  1.00  0.00    -0.041 OA 
BRANCH  29  31
HETATM   31  C   UNL     1      -8.749   5.015  64.088  1.00  0.00    -0.097 C  
BRANCH  31  32
HETATM   32  C   UNL     1      -9.521   4.175  65.100  1.00  0.00    -0.173 C  
BRANCH  32  33
HETATM   33  C   UNL     1      -8.852   4.139  66.480  1.00  0.00    -0.118 C  
BRANCH  33  34
HETATM   34  C   UNL     1      -9.664   4.931  67.473  1.00  0.00    -0.198 A  
HETATM   35  C   UNL     1     -11.312   6.283  69.290  1.00  0.00    -0.411 A  
HETATM   36  C   UNL     1      -9.696   4.549  68.821  1.00  0.00    -0.213 A  
HETATM   37  C   UNL     1     -10.516   5.224  69.725  1.00  0.00    -0.340 A  
HETATM   38  C   UNL     1     -11.277   6.676  67.953  1.00  0.00    -0.226 A  
HETATM   39  C   UNL     1     -10.457   6.004  67.048  1.00  0.00    -0.334 A  
ENDBRANCH  33  34
ENDBRANCH  32  33
ENDBRANCH  31  32
ENDBRANCH  29  31
ENDBRANCH  28  29
ENDBRANCH  27  28
ENDBRANCH  14  27
ENDBRANCH  13  14
ENDBRANCH  12  13
ENDBRANCH   2  12
TORSDOF 20
ENDMDL
MODEL      214
REMARK 921   NORMALIZED FREE ENERGY PREDICTED BY IDOCK:   -4.34 KCAL/MOL
REMARK 922        TOTAL FREE ENERGY PREDICTED BY IDOCK:  -14.09 KCAL/MOL
REMARK 923 INTER-LIGAND FREE ENERGY PREDICTED BY IDOCK:   -9.93 KCAL/MOL
REMARK 924 INTRA-LIGAND FREE ENERGY PREDICTED BY IDOCK:   -4.16 KCAL/MOL
REMARK 927      BINDING AFFINITY PREDICTED BY RF-SCORE:    0.00 PKD
ROOT
HETATM    1  O   UNL     1     -10.548  12.614  65.714  1.00  0.00    -0.263 OA 
HETATM    2  C   UNL     1     -11.422  12.525  66.564  1.00  0.00    -0.362 C  
ENDROOT
BRANCH   2   3
HETATM    3  C   UNL     1     -12.375  13.640  66.923  1.00  0.00    -0.309 C  
BRANCH   3   4
HETATM    4  C   UNL     1     -11.728  14.679  67.840  1.00  0.00    -0.379 C  
BRANCH   4   5
HETATM    5  C   UNL     1     -11.168  14.055  69.123  1.00  0.00    -0.308 C  
BRANCH   5   6
HETATM    6  C   UNL     1     -12.148  14.133  70.266  1.00  0.00    -0.412 A  
HETATM    7  C   UNL     1     -12.486  12.980  70.988  1.00  0.00    -0.385 A  
HETATM    8  C   UNL     1     -13.984  14.266  72.382  1.00  0.00    -0.597 A  
HETATM    9  C   UNL     1     -13.398  13.048  72.042  1.00  0.00    -0.588 A  
HETATM   10  C   UNL     1     -12.746  15.352  70.613  1.00  0.00    -0.490 A  
HETATM   11  C   UNL     1     -13.658  15.418  71.667  1.00  0.00    -0.603 A  
ENDBRANCH   5   6
ENDBRANCH   4   5
ENDBRANCH   3   4
ENDBRANCH   2   3
BRANCH   2  12
HETATM   12  O   UNL     1     -11.677  11.420  67.318  1.00  0.00    -0.577 OA 
BRANCH  12  13
HETATM   13  C   UNL     1     -10.685  10.376  67.286  1.00  0.00    -0.273 C  
BRANCH  13  14
HETATM   14  C   UNL     1     -10.240  10.034  68.711  1.00  0.00    -0.186 C  
BRANCH  14  15
HETATM   15  O   UNL     1      -9.115   9.134  68.647  1.00  0.00    -0.136 OA 
BRANCH  15  16
HETATM   16  C   UNL     1      -8.090   9.396  69.501  1.00  0.00    -0.114 C  
HETATM   17  O   UNL     1      -7.792  10.497  69.940  1.00  0.00    -0.117 OA 
BRANCH  16  18
HETATM   18  C   UNL     1      -7.343   8.124  69.813  1.00  0.00    -0.065 C  
BRANCH  18  19
HETATM   19  C   UNL     1      -7.215   7.227  68.587  1.00  0.00    -0.090 C  
BRANCH  19  20
HETATM   20  C   UNL     1      -6.309   6.013  68.824  1.00  0.00    -0.041 C  
BRANCH  20  21
HETATM   21  C   UNL     1      -6.461   5.037  67.686  1.00  0.00    -0.045 A  
HETATM   22  C   UNL     1      -6.522   3.282  65.505  1.00  0.00    -0.032 A  
HETATM   23  C   UNL     1      -6.955   5.464  66.446  1.00  0.00    -0.064 A  
HETATM   24  C   UNL     1      -6.018   3.715  67.826  1.00  0.00    -0.027 A  
HETATM   25  C   UNL     1      -6.985   4.587  65.361  1.00  0.00    -0.062 A  
HETATM   26  C   UNL     1      -6.048   2.842  66.739  1.00  0.00    -0.024 A  
ENDBRANCH  20  21
ENDBRANCH  19  20
ENDBRANCH  18  19
ENDBRANCH  16  18
ENDBRANCH  15  16
ENDBRANCH  14  15
BRANCH  14  27
HETATM   27  C   UNL     1     -11.359   9.327  69.485  1.00  0.00     0.103 C  
BRANCH  27  28
HETATM   28  O   UNL     1     -11.221   9.519  70.900  1.00  0.00    -0.283 OA 
BRANCH  28  29
HETATM   29  C   UNL     1     -12.282   9.089  71.640  1.00  0.00    -0.348 C  
HETATM   30  O   UNL     1     -13.387   9.612  71.647  1.00  0.00    -0.373 OA 
BRANCH  29  31
HETATM   31  C   UNL     1     -11.897   7.871  72.440  1.00  0.00    -0.402 C  
BRANCH  31  32
HETATM   32  C   UNL     1     -11.821   6.622  71.569  1.00  0.00    -0.387 C  
BRANCH  32  33
HETATM   33  C   UNL     1     -10.458   5.921  71.646  1.00  0.00    -0.285 C  
BRANCH  33  34
HETATM   34  C   UNL     1     -10.155   5.225  70.345  1.00  0.00    -0.324 A  
HETATM   35  C   UNL     1      -9.765   3.863  67.928  1.00  0.00    -0.133 A  
HETATM   36  C   UNL     1     -10.482   5.836  69.126  1.00  0.00    -0.346 A  
HETATM   37  C   UNL     1     -10.287   5.157  67.923  1.00  0.00    -0.148 A  
HETATM   38  C   UNL     1      -9.427   3.254  69.135  1.00  0.00    -0.189 A  
HETATM   39  C   UNL     1      -9.620   3.931  70.339  1.00  0.00    -0.266 A  
ENDBRANCH  33  34
ENDBRANCH  32  33
ENDBRANCH  31  32
ENDBRANCH  29  31
ENDBRANCH  28  29
ENDBRANCH  27  28
ENDBRANCH  14  27
ENDBRANCH  13  14
ENDBRANCH  12  13
ENDBRANCH   2  12
TORSDOF 20
ENDMDL
MODEL      215
REMARK 921   NORMALIZED FREE ENERGY PREDICTED BY IDOCK:   -4.34 KCAL/MOL
REMARK 922        TOTAL FREE ENERGY PREDICTED BY IDOCK:  -14.09 KCAL/MOL
REMARK 923 INTER-LIGAND FREE ENERGY PREDICTED BY IDOCK:  -10.91 KCAL/MOL
REMARK 924 INTRA-LIGAND FREE ENERGY PREDICTED BY IDOCK:   -3.18 KCAL/MOL
REMARK 927      BINDING AFFINITY PREDICTED BY RF-SCORE:    0.00 PKD
ROOT
HETATM    1  O   UNL     1     -12.294  12.428  70.486  1.00  0.00    -0.330 OA 
HETATM    2  C   UNL     1     -12.393  11.210  70.466  1.00  0.00    -0.364 C  
ENDROOT
BRANCH   2   3
HETATM    3  C   UNL     1     -13.365  10.422  71.311  1.00  0.00    -0.334 C  
BRANCH   3   4
HETATM    4  C   UNL     1     -12.691   9.252  72.030  1.00  0.00    -0.479 C  
BRANCH   4   5
HETATM    5  C   UNL     1     -13.255   7.897  71.589  1.00  0.00    -0.367 C  
BRANCH   5   6
HETATM    6  C   UNL     1     -12.167   6.882  71.347  1.00  0.00    -0.418 A  
HETATM    7  C   UNL     1     -11.712   6.629  70.045  1.00  0.00    -0.378 A  
HETATM    8  C   UNL     1     -10.156   4.982  70.886  1.00  0.00    -0.302 A  
HETATM    9  C   UNL     1     -10.710   5.685  69.817  1.00  0.00    -0.401 A  
HETATM   10  C   UNL     1     -11.607   6.167  72.413  1.00  0.00    -0.338 A  
HETATM   11  C   UNL     1     -10.605   5.223  72.183  1.00  0.00    -0.281 A  
ENDBRANCH   5   6
ENDBRANCH   4   5
ENDBRANCH   3   4
ENDBRANCH   2   3
BRANCH   2  12
HETATM   12  O   UNL     1     -11.651  10.372  69.690  1.00  0.00    -0.248 OA 
BRANCH  12  13
HETATM   13  C   UNL     1     -11.502  10.742  68.305  1.00  0.00    -0.280 C  
BRANCH  13  14
HETATM   14  C   UNL     1     -10.448   9.852  67.638  1.00  0.00    -0.244 C  
BRANCH  14  15
HETATM   15  O   UNL     1      -9.435   9.518  68.609  1.00  0.00    -0.140 OA 
BRANCH  15  16
HETATM   16  C   UNL     1      -8.317  10.292  68.596  1.00  0.00    -0.122 C  
HETATM   17  O   UNL     1      -8.251  11.455  68.965  1.00  0.00    -0.096 OA 
BRANCH  16  18
HETATM   18  C   UNL     1      -7.159   9.512  68.026  1.00  0.00    -0.080 C  
BRANCH  18  19
HETATM   19  C   UNL     1      -7.286   8.020  68.314  1.00  0.00    -0.093 C  
BRANCH  19  20
HETATM   20  C   UNL     1      -7.027   7.147  67.080  1.00  0.00    -0.077 C  
BRANCH  20  21
HETATM   21  C   UNL     1      -8.102   6.097  66.966  1.00  0.00    -0.106 A  
HETATM   22  C   UNL     1     -10.015   4.098  66.537  1.00  0.00    -0.165 A  
HETATM   23  C   UNL     1      -9.347   6.416  66.407  1.00  0.00    -0.176 A  
HETATM   24  C   UNL     1      -7.835   4.770  67.327  1.00  0.00    -0.094 A  
HETATM   25  C   UNL     1     -10.299   5.417  66.196  1.00  0.00    -0.191 A  
HETATM   26  C   UNL     1      -8.787   3.774  67.112  1.00  0.00    -0.135 A  
ENDBRANCH  20  21
ENDBRANCH  19  20
ENDBRANCH  18  19
ENDBRANCH  16  18
ENDBRANCH  15  16
ENDBRANCH  14  15
BRANCH  14  27
HETATM   27  C   UNL     1      -9.761  10.583  66.479  1.00  0.00    -0.192 C  
BRANCH  27  28
HETATM   28  O   UNL     1     -10.615  10.663  65.329  1.00  0.00    -0.231 OA 
BRANCH  28  29
HETATM   29  C   UNL     1      -9.960  10.766  64.138  1.00  0.00    -0.343 C  
HETATM   30  O   UNL     1      -8.892  10.231  63.879  1.00  0.00    -0.184 OA 
BRANCH  29  31
HETATM   31  C   UNL     1     -10.749  11.628  63.185  1.00  0.00    -0.312 C  
BRANCH  31  32
HETATM   32  C   UNL     1     -12.073  12.080  63.793  1.00  0.00    -0.599 C  
BRANCH  32  33
HETATM   33  C   UNL     1     -12.260  13.602  63.750  1.00  0.00    -0.413 C  
BRANCH  33  34
HETATM   34  C   UNL     1     -11.747  14.226  65.023  1.00  0.00    -0.383 A  
HETATM   35  C   UNL     1     -10.944  15.493  67.388  1.00  0.00    -0.306 A  
HETATM   36  C   UNL     1     -12.173  13.741  66.267  1.00  0.00    -0.489 A  
HETATM   37  C   UNL     1     -11.772  14.372  67.444  1.00  0.00    -0.424 A  
HETATM   38  C   UNL     1     -10.506  15.974  66.156  1.00  0.00    -0.334 A  
HETATM   39  C   UNL     1     -10.904  15.343  64.978  1.00  0.00    -0.462 A  
ENDBRANCH  33  34
ENDBRANCH  32  33
ENDBRANCH  31  32
ENDBRANCH  29  31
ENDBRANCH  28  29
ENDBRANCH  27  28
ENDBRANCH  14  27
ENDBRANCH  13  14
ENDBRANCH  12  13
ENDBRANCH   2  12
TORSDOF 20
ENDMDL
MODEL      216
REMARK 921   NORMALIZED FREE ENERGY PREDICTED BY IDOCK:   -4.33 KCAL/MOL
REMARK 922        TOTAL FREE ENERGY PREDICTED BY IDOCK:  -14.07 KCAL/MOL
REMARK 923 INTER-LIGAND FREE ENERGY PREDICTED BY IDOCK:  -10.60 KCAL/MOL
REMARK 924 INTRA-LIGAND FREE ENERGY PREDICTED BY IDOCK:   -3.47 KCAL/MOL
REMARK 927      BINDING AFFINITY PREDICTED BY RF-SCORE:    0.00 PKD
ROOT
HETATM    1  O   UNL     1      -5.982  11.699  70.882  1.00  0.00    -0.365 OA 
HETATM    2  C   UNL     1      -6.364  11.211  69.827  1.00  0.00    -0.130 C  
ENDROOT
BRANCH   2   3
HETATM    3  C   UNL     1      -5.845   9.915  69.253  1.00  0.00    -0.034 C  
BRANCH   3   4
HETATM    4  C   UNL     1      -6.949   8.868  69.097  1.00  0.00    -0.059 C  
BRANCH   4   5
HETATM    5  C   UNL     1      -6.778   7.694  70.067  1.00  0.00    -0.049 C  
BRANCH   5   6
HETATM    6  C   UNL     1      -7.816   6.622  69.847  1.00  0.00    -0.115 A  
HETATM    7  C   UNL     1      -8.380   6.434  68.577  1.00  0.00    -0.113 A  
HETATM    8  C   UNL     1      -9.759   4.644  69.433  1.00  0.00    -0.272 A  
HETATM    9  C   UNL     1      -9.345   5.447  68.372  1.00  0.00    -0.138 A  
HETATM   10  C   UNL     1      -8.242   5.812  70.907  1.00  0.00    -0.121 A  
HETATM   11  C   UNL     1      -9.207   4.826  70.700  1.00  0.00    -0.191 A  
ENDBRANCH   5   6
ENDBRANCH   4   5
ENDBRANCH   3   4
ENDBRANCH   2   3
BRANCH   2  12
HETATM   12  O   UNL     1      -7.307  11.751  69.006  1.00  0.00    -0.108 OA 
BRANCH  12  13
HETATM   13  C   UNL     1      -6.931  12.944  68.291  1.00  0.00    -0.099 C  
BRANCH  13  14
HETATM   14  C   UNL     1      -8.070  13.378  67.365  1.00  0.00    -0.172 C  
BRANCH  14  15
HETATM   15  O   UNL     1      -8.121  14.820  67.329  1.00  0.00    -0.185 OA 
BRANCH  15  16
HETATM   16  C   UNL     1      -8.673  15.425  68.415  1.00  0.00    -0.171 C  
HETATM   17  O   UNL     1      -8.343  15.242  69.577  1.00  0.00    -0.244 OA 
BRANCH  16  18
HETATM   18  C   UNL     1      -9.784  16.346  67.979  1.00  0.00    -0.235 C  
BRANCH  18  19
HETATM   19  C   UNL     1     -11.132  15.917  68.550  1.00  0.00    -0.340 C  
BRANCH  19  20
HETATM   20  C   UNL     1     -11.321  16.326  70.015  1.00  0.00    -0.276 C  
BRANCH  20  21
HETATM   21  C   UNL     1     -12.172  15.303  70.723  1.00  0.00    -0.411 A  
HETATM   22  C   UNL     1     -13.578  13.383  72.198  1.00  0.00    -0.660 A  
HETATM   23  C   UNL     1     -12.040  13.941  70.420  1.00  0.00    -0.421 A  
HETATM   24  C   UNL     1     -13.032  15.694  71.757  1.00  0.00    -0.541 A  
HETATM   25  C   UNL     1     -12.743  12.986  71.157  1.00  0.00    -0.372 A  
HETATM   26  C   UNL     1     -13.731  14.737  72.493  1.00  0.00    -0.572 A  
ENDBRANCH  20  21
ENDBRANCH  19  20
ENDBRANCH  18  19
ENDBRANCH  16  18
ENDBRANCH  15  16
ENDBRANCH  14  15
BRANCH  14  27
HETATM   27  C   UNL     1      -9.424  12.877  67.881  1.00  0.00    -0.208 C  
BRANCH  27  28
HETATM   28  O   UNL     1      -9.916  11.786  67.089  1.00  0.00    -0.200 OA 
BRANCH  28  29
HETATM   29  C   UNL     1     -11.168  11.360  67.421  1.00  0.00    -0.305 C  
HETATM   30  O   UNL     1     -12.164  12.068  67.444  1.00  0.00    -0.491 OA 
BRANCH  29  31
HETATM   31  C   UNL     1     -11.146   9.888  67.745  1.00  0.00    -0.196 C  
BRANCH  31  32
HETATM   32  C   UNL     1     -10.094   9.556  68.798  1.00  0.00    -0.202 C  
BRANCH  32  33
HETATM   33  C   UNL     1     -10.518   9.965  70.215  1.00  0.00    -0.348 C  
BRANCH  33  34
HETATM   34  C   UNL     1     -11.610   9.056  70.715  1.00  0.00    -0.313 A  
HETATM   35  C   UNL     1     -13.565   7.377  71.813  1.00  0.00    -0.396 A  
HETATM   36  C   UNL     1     -12.776   9.597  71.276  1.00  0.00    -0.443 A  
HETATM   37  C   UNL     1     -13.749   8.760  71.822  1.00  0.00    -0.461 A  
HETATM   38  C   UNL     1     -12.415   6.831  71.246  1.00  0.00    -0.365 A  
HETATM   39  C   UNL     1     -11.441   7.666  70.699  1.00  0.00    -0.276 A  
ENDBRANCH  33  34
ENDBRANCH  32  33
ENDBRANCH  31  32
ENDBRANCH  29  31
ENDBRANCH  28  29
ENDBRANCH  27  28
ENDBRANCH  14  27
ENDBRANCH  13  14
ENDBRANCH  12  13
ENDBRANCH   2  12
TORSDOF 20
ENDMDL
MODEL      217
REMARK 921   NORMALIZED FREE ENERGY PREDICTED BY IDOCK:   -4.32 KCAL/MOL
REMARK 922        TOTAL FREE ENERGY PREDICTED BY IDOCK:  -14.05 KCAL/MOL
REMARK 923 INTER-LIGAND FREE ENERGY PREDICTED BY IDOCK:  -12.00 KCAL/MOL
REMARK 924 INTRA-LIGAND FREE ENERGY PREDICTED BY IDOCK:   -2.05 KCAL/MOL
REMARK 927      BINDING AFFINITY PREDICTED BY RF-SCORE:    0.00 PKD
ROOT
HETATM    1  O   UNL     1     -13.705   9.081  72.560  1.00  0.00    -0.472 OA 
HETATM    2  C   UNL     1     -12.728   9.094  71.825  1.00  0.00    -0.373 C  
ENDROOT
BRANCH   2   3
HETATM    3  C   UNL     1     -12.019   7.856  71.332  1.00  0.00    -0.331 C  
BRANCH   3   4
HETATM    4  C   UNL     1     -11.154   7.214  72.418  1.00  0.00    -0.302 C  
BRANCH   4   5
HETATM    5  C   UNL     1     -11.631   5.803  72.781  1.00  0.00    -0.266 C  
BRANCH   5   6
HETATM    6  C   UNL     1     -10.735   4.737  72.204  1.00  0.00    -0.150 A  
HETATM    7  C   UNL     1     -10.127   4.924  70.954  1.00  0.00    -0.292 A  
HETATM    8  C   UNL     1      -9.081   2.751  71.114  1.00  0.00    -0.182 A  
HETATM    9  C   UNL     1      -9.303   3.936  70.414  1.00  0.00    -0.231 A  
HETATM   10  C   UNL     1     -10.509   3.540  72.897  1.00  0.00    -0.239 A  
HETATM   11  C   UNL     1      -9.685   2.554  72.355  1.00  0.00    -0.198 A  
ENDBRANCH   5   6
ENDBRANCH   4   5
ENDBRANCH   3   4
ENDBRANCH   2   3
BRANCH   2  12
HETATM   12  O   UNL     1     -12.126  10.214  71.337  1.00  0.00    -0.366 OA 
BRANCH  12  13
HETATM   13  C   UNL     1     -10.816  10.042  70.763  1.00  0.00    -0.260 C  
BRANCH  13  14
HETATM   14  C   UNL     1     -10.691  10.880  69.487  1.00  0.00    -0.206 C  
BRANCH  14  15
HETATM   15  O   UNL     1     -11.867  11.705  69.352  1.00  0.00    -0.299 OA 
BRANCH  15  16
HETATM   16  C   UNL     1     -11.799  12.695  68.422  1.00  0.00    -0.301 C  
HETATM   17  O   UNL     1     -12.193  12.617  67.268  1.00  0.00    -0.425 OA 
BRANCH  16  18
HETATM   18  C   UNL     1     -11.131  13.910  69.014  1.00  0.00    -0.302 C  
BRANCH  18  19
HETATM   19  C   UNL     1     -11.354  15.152  68.158  1.00  0.00    -0.345 C  
BRANCH  19  20
HETATM   20  C   UNL     1     -10.045  15.812  67.707  1.00  0.00    -0.238 C  
BRANCH  20  21
HETATM   21  C   UNL     1     -10.250  17.298  67.560  1.00  0.00    -0.328 A  
HETATM   22  C   UNL     1     -10.399  20.075  67.237  1.00  0.00    -0.550 A  
HETATM   23  C   UNL     1     -10.087  18.149  68.661  1.00  0.00    -0.406 A  
HETATM   24  C   UNL     1     -10.510  17.853  66.299  1.00  0.00    -0.320 A  
HETATM   25  C   UNL     1     -10.163  19.533  68.497  1.00  0.00    -0.517 A  
HETATM   26  C   UNL     1     -10.583  19.236  66.139  1.00  0.00    -0.549 A  
ENDBRANCH  20  21
ENDBRANCH  19  20
ENDBRANCH  18  19
ENDBRANCH  16  18
ENDBRANCH  15  16
ENDBRANCH  14  15
BRANCH  14  27
HETATM   27  C   UNL     1     -10.603   9.986  68.245  1.00  0.00    -0.226 C  
BRANCH  27  28
HETATM   28  O   UNL     1      -9.357   9.276  68.196  1.00  0.00    -0.134 OA 
BRANCH  28  29
HETATM   29  C   UNL     1      -9.083   8.687  66.998  1.00  0.00    -0.138 C  
HETATM   30  O   UNL     1      -8.137   7.943  66.785  1.00  0.00    -0.104 OA 
BRANCH  29  31
HETATM   31  C   UNL     1     -10.120   9.081  65.977  1.00  0.00    -0.154 C  
BRANCH  31  32
HETATM   32  C   UNL     1      -9.493   9.764  64.767  1.00  0.00    -0.318 C  
BRANCH  32  33
HETATM   33  C   UNL     1      -9.187  11.248  65.011  1.00  0.00    -0.147 C  
BRANCH  33  34
HETATM   34  C   UNL     1     -10.372  12.095  64.625  1.00  0.00    -0.328 A  
HETATM   35  C   UNL     1     -12.491  13.700  63.743  1.00  0.00    -0.262 A  
HETATM   36  C   UNL     1     -11.434  11.533  63.902  1.00  0.00    -0.358 A  
HETATM   37  C   UNL     1     -12.489  12.334  63.464  1.00  0.00    -0.642 A  
HETATM   38  C   UNL     1     -11.445  14.263  64.472  1.00  0.00    -0.363 A  
HETATM   39  C   UNL     1     -10.390  13.465  64.912  1.00  0.00    -0.382 A  
ENDBRANCH  33  34
ENDBRANCH  32  33
ENDBRANCH  31  32
ENDBRANCH  29  31
ENDBRANCH  28  29
ENDBRANCH  27  28
ENDBRANCH  14  27
ENDBRANCH  13  14
ENDBRANCH  12  13
ENDBRANCH   2  12
TORSDOF 20
ENDMDL
MODEL      218
REMARK 921   NORMALIZED FREE ENERGY PREDICTED BY IDOCK:   -4.31 KCAL/MOL
REMARK 922        TOTAL FREE ENERGY PREDICTED BY IDOCK:  -14.03 KCAL/MOL
REMARK 923 INTER-LIGAND FREE ENERGY PREDICTED BY IDOCK:  -10.39 KCAL/MOL
REMARK 924 INTRA-LIGAND FREE ENERGY PREDICTED BY IDOCK:   -3.64 KCAL/MOL
REMARK 927      BINDING AFFINITY PREDICTED BY RF-SCORE:    0.00 PKD
ROOT
HETATM    1  O   UNL     1      -7.587  12.606  68.358  1.00  0.00    -0.122 OA 
HETATM    2  C   UNL     1      -8.514  13.357  68.089  1.00  0.00    -0.172 C  
ENDROOT
BRANCH   2   3
HETATM    3  C   UNL     1      -8.680  14.742  68.667  1.00  0.00    -0.178 C  
BRANCH   3   4
HETATM    4  C   UNL     1      -7.732  15.755  68.022  1.00  0.00    -0.136 C  
BRANCH   4   5
HETATM    5  C   UNL     1      -7.806  17.130  68.696  1.00  0.00    -0.265 C  
BRANCH   5   6
HETATM    6  C   UNL     1      -8.626  18.110  67.896  1.00  0.00    -0.259 A  
HETATM    7  C   UNL     1      -8.024  18.887  66.896  1.00  0.00    -0.266 A  
HETATM    8  C   UNL     1     -10.141  19.947  66.414  1.00  0.00    -0.615 A  
HETATM    9  C   UNL     1      -8.779  19.799  66.158  1.00  0.00    -0.368 A  
HETATM   10  C   UNL     1      -9.995  18.269  68.148  1.00  0.00    -0.377 A  
HETATM   11  C   UNL     1     -10.749  19.182  67.409  1.00  0.00    -0.578 A  
ENDBRANCH   5   6
ENDBRANCH   4   5
ENDBRANCH   3   4
ENDBRANCH   2   3
BRANCH   2  12
HETATM   12  O   UNL     1      -9.537  13.071  67.237  1.00  0.00    -0.213 OA 
BRANCH  12  13
HETATM   13  C   UNL     1     -10.866  13.383  67.699  1.00  0.00    -0.259 C  
BRANCH  13  14
HETATM   14  C   UNL     1     -11.576  12.103  68.149  1.00  0.00    -0.337 C  
BRANCH  14  15
HETATM   15  O   UNL     1     -11.254  11.850  69.532  1.00  0.00    -0.231 OA 
BRANCH  15  16
HETATM   16  C   UNL     1     -12.282  11.963  70.415  1.00  0.00    -0.314 C  
HETATM   17  O   UNL     1     -12.584  12.973  71.032  1.00  0.00    -0.364 OA 
BRANCH  16  18
HETATM   18  C   UNL     1     -12.989  10.638  70.551  1.00  0.00    -0.277 C  
BRANCH  18  19
HETATM   19  C   UNL     1     -13.064  10.182  72.004  1.00  0.00    -0.538 C  
BRANCH  19  20
HETATM   20  C   UNL     1     -13.234   8.666  72.149  1.00  0.00    -0.420 C  
BRANCH  20  21
HETATM   21  C   UNL     1     -11.989   7.967  71.667  1.00  0.00    -0.329 A  
HETATM   22  C   UNL     1      -9.674   6.819  70.589  1.00  0.00    -0.180 A  
HETATM   23  C   UNL     1     -12.081   6.886  70.780  1.00  0.00    -0.400 A  
HETATM   24  C   UNL     1     -10.724   8.452  72.024  1.00  0.00    -0.387 A  
HETATM   25  C   UNL     1     -10.925   6.315  70.245  1.00  0.00    -0.400 A  
HETATM   26  C   UNL     1      -9.571   7.881  71.486  1.00  0.00    -0.189 A  
ENDBRANCH  20  21
ENDBRANCH  19  20
ENDBRANCH  18  19
ENDBRANCH  16  18
ENDBRANCH  15  16
ENDBRANCH  14  15
BRANCH  14  27
HETATM   27  C   UNL     1     -11.106  10.894  67.332  1.00  0.00    -0.307 C  
BRANCH  27  28
HETATM   28  O   UNL     1     -10.694   9.814  68.182  1.00  0.00    -0.227 OA 
BRANCH  28  29
HETATM   29  C   UNL     1      -9.600   9.129  67.745  1.00  0.00    -0.146 C  
HETATM   30  O   UNL     1      -8.444   9.402  68.034  1.00  0.00    -0.119 OA 
BRANCH  29  31
HETATM   31  C   UNL     1     -10.023   7.983  66.863  1.00  0.00    -0.338 C  
BRANCH  31  32
HETATM   32  C   UNL     1      -8.826   7.291  66.219  1.00  0.00    -0.179 C  
BRANCH  32  33
HETATM   33  C   UNL     1      -9.047   5.787  66.010  1.00  0.00    -0.163 C  
BRANCH  33  34
HETATM   34  C   UNL     1      -8.779   5.039  67.290  1.00  0.00    -0.103 A  
HETATM   35  C   UNL     1      -8.180   3.527  69.571  1.00  0.00    -0.070 A  
HETATM   36  C   UNL     1      -7.623   5.307  68.035  1.00  0.00    -0.080 A  
HETATM   37  C   UNL     1      -7.326   4.554  69.171  1.00  0.00    -0.052 A  
HETATM   38  C   UNL     1      -9.339   3.262  68.843  1.00  0.00    -0.232 A  
HETATM   39  C   UNL     1      -9.638   4.014  67.708  1.00  0.00    -0.204 A  
ENDBRANCH  33  34
ENDBRANCH  32  33
ENDBRANCH  31  32
ENDBRANCH  29  31
ENDBRANCH  28  29
ENDBRANCH  27  28
ENDBRANCH  14  27
ENDBRANCH  13  14
ENDBRANCH  12  13
ENDBRANCH   2  12
TORSDOF 20
ENDMDL
MODEL      219
REMARK 921   NORMALIZED FREE ENERGY PREDICTED BY IDOCK:   -4.30 KCAL/MOL
REMARK 922        TOTAL FREE ENERGY PREDICTED BY IDOCK:  -14.01 KCAL/MOL
REMARK 923 INTER-LIGAND FREE ENERGY PREDICTED BY IDOCK:  -11.28 KCAL/MOL
REMARK 924 INTRA-LIGAND FREE ENERGY PREDICTED BY IDOCK:   -2.73 KCAL/MOL
REMARK 927      BINDING AFFINITY PREDICTED BY RF-SCORE:    0.00 PKD
ROOT
HETATM    1  O   UNL     1     -12.869  13.514  71.509  1.00  0.00    -0.353 OA 
HETATM    2  C   UNL     1     -12.282  13.820  70.481  1.00  0.00    -0.369 C  
ENDROOT
BRANCH   2   3
HETATM    3  C   UNL     1     -12.202  15.226  69.934  1.00  0.00    -0.357 C  
BRANCH   3   4
HETATM    4  C   UNL     1     -10.850  15.515  69.280  1.00  0.00    -0.252 C  
BRANCH   4   5
HETATM    5  C   UNL     1     -10.998  16.016  67.838  1.00  0.00    -0.327 C  
BRANCH   5   6
HETATM    6  C   UNL     1     -10.531  17.441  67.683  1.00  0.00    -0.368 A  
HETATM    7  C   UNL     1     -10.269  18.226  68.815  1.00  0.00    -0.342 A  
HETATM    8  C   UNL     1      -9.680  20.098  67.405  1.00  0.00    -0.563 A  
HETATM    9  C   UNL     1      -9.843  19.548  68.675  1.00  0.00    -0.530 A  
HETATM   10  C   UNL     1     -10.368  18.006  66.412  1.00  0.00    -0.382 A  
HETATM   11  C   UNL     1      -9.942  19.327  66.274  1.00  0.00    -0.484 A  
ENDBRANCH   5   6
ENDBRANCH   4   5
ENDBRANCH   3   4
ENDBRANCH   2   3
BRANCH   2  12
HETATM   12  O   UNL     1     -11.615  12.955  69.668  1.00  0.00    -0.283 OA 
BRANCH  12  13
HETATM   13  C   UNL     1     -12.199  11.649  69.500  1.00  0.00    -0.193 C  
BRANCH  13  14
HETATM   14  C   UNL     1     -11.567  10.663  70.487  1.00  0.00    -0.350 C  
BRANCH  14  15
HETATM   15  O   UNL     1     -10.366  10.120  69.901  1.00  0.00    -0.250 OA 
BRANCH  15  16
HETATM   16  C   UNL     1     -10.513   9.509  68.695  1.00  0.00    -0.211 C  
HETATM   17  O   UNL     1     -10.779   8.329  68.522  1.00  0.00    -0.142 OA 
BRANCH  16  18
HETATM   18  C   UNL     1     -10.268  10.499  67.585  1.00  0.00    -0.234 C  
BRANCH  18  19
HETATM   19  C   UNL     1      -9.733   9.820  66.328  1.00  0.00    -0.295 C  
BRANCH  19  20
HETATM   20  C   UNL     1      -9.130  10.809  65.324  1.00  0.00    -0.217 C  
BRANCH  20  21
HETATM   21  C   UNL     1     -10.174  11.815  64.912  1.00  0.00    -0.315 A  
HETATM   22  C   UNL     1     -11.976  13.734  63.959  1.00  0.00    -0.451 A  
HETATM   23  C   UNL     1     -10.081  13.147  65.337  1.00  0.00    -0.260 A  
HETATM   24  C   UNL     1     -11.192  11.451  64.021  1.00  0.00    -0.350 A  
HETATM   25  C   UNL     1     -10.981  14.101  64.861  1.00  0.00    -0.405 A  
HETATM   26  C   UNL     1     -12.089  12.408  63.546  1.00  0.00    -0.651 A  
ENDBRANCH  20  21
ENDBRANCH  19  20
ENDBRANCH  18  19
ENDBRANCH  16  18
ENDBRANCH  15  16
ENDBRANCH  14  15
BRANCH  14  27
HETATM   27  C   UNL     1     -12.512   9.493  70.782  1.00  0.00    -0.124 C  
BRANCH  27  28
HETATM   28  O   UNL     1     -12.339   9.002  72.119  1.00  0.00    -0.368 OA 
BRANCH  28  29
HETATM   29  C   UNL     1     -11.756   7.774  72.205  1.00  0.00    -0.340 C  
HETATM   30  O   UNL     1     -12.270   6.728  71.836  1.00  0.00    -0.329 OA 
BRANCH  29  31
HETATM   31  C   UNL     1     -10.381   7.894  72.813  1.00  0.00    -0.399 C  
BRANCH  31  32
HETATM   32  C   UNL     1      -9.335   7.137  72.001  1.00  0.00    -0.151 C  
BRANCH  32  33
HETATM   33  C   UNL     1      -7.945   7.783  72.070  1.00  0.00    -0.121 C  
BRANCH  33  34
HETATM   34  C   UNL     1      -7.506   8.221  70.697  1.00  0.00    -0.062 A  
HETATM   35  C   UNL     1      -6.860   9.099  68.116  1.00  0.00    -0.068 A  
HETATM   36  C   UNL     1      -7.049   9.530  70.486  1.00  0.00    -0.130 A  
HETATM   37  C   UNL     1      -6.727   9.966  69.201  1.00  0.00    -0.054 A  
HETATM   38  C   UNL     1      -7.302   7.793  68.319  1.00  0.00    -0.102 A  
HETATM   39  C   UNL     1      -7.623   7.355  69.603  1.00  0.00    -0.095 A  
ENDBRANCH  33  34
ENDBRANCH  32  33
ENDBRANCH  31  32
ENDBRANCH  29  31
ENDBRANCH  28  29
ENDBRANCH  27  28
ENDBRANCH  14  27
ENDBRANCH  13  14
ENDBRANCH  12  13
ENDBRANCH   2  12
TORSDOF 20
ENDMDL
MODEL      220
REMARK 921   NORMALIZED FREE ENERGY PREDICTED BY IDOCK:   -4.29 KCAL/MOL
REMARK 922        TOTAL FREE ENERGY PREDICTED BY IDOCK:  -14.00 KCAL/MOL
REMARK 923 INTER-LIGAND FREE ENERGY PREDICTED BY IDOCK:  -10.16 KCAL/MOL
REMARK 924 INTRA-LIGAND FREE ENERGY PREDICTED BY IDOCK:   -3.83 KCAL/MOL
REMARK 927      BINDING AFFINITY PREDICTED BY RF-SCORE:    0.00 PKD
ROOT
HETATM    1  O   UNL     1      -6.760  10.452  68.803  1.00  0.00    -0.052 OA 
HETATM    2  C   UNL     1      -7.581  11.288  68.450  1.00  0.00    -0.120 C  
ENDROOT
BRANCH   2   3
HETATM    3  C   UNL     1      -7.260  12.475  67.574  1.00  0.00    -0.147 C  
BRANCH   3   4
HETATM    4  C   UNL     1      -8.094  13.705  67.938  1.00  0.00    -0.164 C  
BRANCH   4   5
HETATM    5  C   UNL     1      -7.376  14.617  68.939  1.00  0.00    -0.128 C  
BRANCH   5   6
HETATM    6  C   UNL     1      -7.128  15.994  68.375  1.00  0.00    -0.125 A  
HETATM    7  C   UNL     1      -7.260  16.228  66.998  1.00  0.00    -0.262 A  
HETATM    8  C   UNL     1      -6.654  18.545  67.313  1.00  0.00    -0.207 A  
HETATM    9  C   UNL     1      -7.026  17.499  66.472  1.00  0.00    -0.288 A  
HETATM   10  C   UNL     1      -6.750  17.052  69.211  1.00  0.00    -0.234 A  
HETATM   11  C   UNL     1      -6.516  18.322  68.682  1.00  0.00    -0.227 A  
ENDBRANCH   5   6
ENDBRANCH   4   5
ENDBRANCH   3   4
ENDBRANCH   2   3
BRANCH   2  12
HETATM   12  O   UNL     1      -8.900  11.288  68.787  1.00  0.00    -0.160 OA 
BRANCH  12  13
HETATM   13  C   UNL     1      -9.563  10.009  68.790  1.00  0.00    -0.168 C  
BRANCH  13  14
HETATM   14  C   UNL     1     -10.668   9.996  69.850  1.00  0.00    -0.286 C  
BRANCH  14  15
HETATM   15  O   UNL     1     -11.240   8.673  69.914  1.00  0.00    -0.177 OA 
BRANCH  15  16
HETATM   16  C   UNL     1     -11.680   8.271  71.136  1.00  0.00    -0.280 C  
HETATM   17  O   UNL     1     -12.824   7.937  71.408  1.00  0.00    -0.321 OA 
BRANCH  16  18
HETATM   18  C   UNL     1     -10.548   8.322  72.131  1.00  0.00    -0.380 C  
BRANCH  18  19
HETATM   19  C   UNL     1     -10.578   7.132  73.084  1.00  0.00    -0.377 C  
BRANCH  19  20
HETATM   20  C   UNL     1      -9.325   6.254  72.987  1.00  0.00    -0.140 C  
BRANCH  20  21
HETATM   21  C   UNL     1      -9.722   4.800  72.986  1.00  0.00    -0.164 A  
HETATM   22  C   UNL     1     -10.249   2.053  73.084  1.00  0.00    -0.195 A  
HETATM   23  C   UNL     1      -9.398   3.978  71.899  1.00  0.00    -0.192 A  
HETATM   24  C   UNL     1     -10.332   4.235  74.114  1.00  0.00    -0.284 A  
HETATM   25  C   UNL     1      -9.663   2.609  71.950  1.00  0.00    -0.221 A  
HETATM   26  C   UNL     1     -10.593   2.866  74.162  1.00  0.00    -0.246 A  
ENDBRANCH  20  21
ENDBRANCH  19  20
ENDBRANCH  18  19
ENDBRANCH  16  18
ENDBRANCH  15  16
ENDBRANCH  14  15
BRANCH  14  27
HETATM   27  C   UNL     1     -11.793  10.973  69.488  1.00  0.00    -0.333 C  
BRANCH  27  28
HETATM   28  O   UNL     1     -11.730  12.164  70.285  1.00  0.00    -0.279 OA 
BRANCH  28  29
HETATM   29  C   UNL     1     -11.668  13.325  69.573  1.00  0.00    -0.322 C  
HETATM   30  O   UNL     1     -11.445  13.397  68.373  1.00  0.00    -0.273 OA 
BRANCH  29  31
HETATM   31  C   UNL     1     -11.924  14.503  70.478  1.00  0.00    -0.387 C  
BRANCH  31  32
HETATM   32  C   UNL     1     -11.835  15.826  69.724  1.00  0.00    -0.352 C  
BRANCH  32  33
HETATM   33  C   UNL     1     -10.391  16.309  69.535  1.00  0.00    -0.284 C  
BRANCH  33  34
HETATM   34  C   UNL     1     -10.349  17.457  68.560  1.00  0.00    -0.378 A  
HETATM   35  C   UNL     1     -10.456  19.603  66.763  1.00  0.00    -0.605 A  
HETATM   36  C   UNL     1     -10.284  18.777  69.027  1.00  0.00    -0.181 A  
HETATM   37  C   UNL     1     -10.337  19.845  68.131  1.00  0.00    -0.533 A  
HETATM   38  C   UNL     1     -10.509  18.293  66.289  1.00  0.00    -0.397 A  
HETATM   39  C   UNL     1     -10.455  17.224  67.183  1.00  0.00    -0.297 A  
ENDBRANCH  33  34
ENDBRANCH  32  33
ENDBRANCH  31  32
ENDBRANCH  29  31
ENDBRANCH  28  29
ENDBRANCH  27  28
ENDBRANCH  14  27
ENDBRANCH  13  14
ENDBRANCH  12  13
ENDBRANCH   2  12
TORSDOF 20
ENDMDL
MODEL      221
REMARK 921   NORMALIZED FREE ENERGY PREDICTED BY IDOCK:   -4.29 KCAL/MOL
REMARK 922        TOTAL FREE ENERGY PREDICTED BY IDOCK:  -14.00 KCAL/MOL
REMARK 923 INTER-LIGAND FREE ENERGY PREDICTED BY IDOCK:  -10.53 KCAL/MOL
REMARK 924 INTRA-LIGAND FREE ENERGY PREDICTED BY IDOCK:   -3.46 KCAL/MOL
REMARK 927      BINDING AFFINITY PREDICTED BY RF-SCORE:    0.00 PKD
ROOT
HETATM    1  O   UNL     1     -13.153  14.612  71.249  1.00  0.00    -0.326 OA 
HETATM    2  C   UNL     1     -12.576  14.175  70.263  1.00  0.00    -0.306 C  
ENDROOT
BRANCH   2   3
HETATM    3  C   UNL     1     -12.274  14.988  69.027  1.00  0.00    -0.160 C  
BRANCH   3   4
HETATM    4  C   UNL     1     -10.791  15.347  68.919  1.00  0.00    -0.251 C  
BRANCH   4   5
HETATM    5  C   UNL     1     -10.490  16.743  69.477  1.00  0.00    -0.263 C  
BRANCH   5   6
HETATM    6  C   UNL     1     -10.311  17.764  68.383  1.00  0.00    -0.378 A  
HETATM    7  C   UNL     1     -10.137  19.119  68.701  1.00  0.00    -0.471 A  
HETATM    8  C   UNL     1      -9.996  19.674  66.354  1.00  0.00    -0.556 A  
HETATM    9  C   UNL     1      -9.978  20.067  67.690  1.00  0.00    -0.566 A  
HETATM   10  C   UNL     1     -10.332  17.380  67.036  1.00  0.00    -0.318 A  
HETATM   11  C   UNL     1     -10.173  18.330  66.027  1.00  0.00    -0.334 A  
ENDBRANCH   5   6
ENDBRANCH   4   5
ENDBRANCH   3   4
ENDBRANCH   2   3
BRANCH   2  12
HETATM   12  O   UNL     1     -12.119  12.901  70.118  1.00  0.00    -0.340 OA 
BRANCH  12  13
HETATM   13  C   UNL     1     -12.642  11.922  71.036  1.00  0.00    -0.283 C  
BRANCH  13  14
HETATM   14  C   UNL     1     -12.241  10.515  70.583  1.00  0.00    -0.352 C  
BRANCH  14  15
HETATM   15  O   UNL     1     -12.189   9.649  71.736  1.00  0.00    -0.374 OA 
BRANCH  15  16
HETATM   16  C   UNL     1     -13.310   8.921  71.988  1.00  0.00    -0.421 C  
HETATM   17  O   UNL     1     -14.186   9.216  72.787  1.00  0.00    -0.552 OA 
BRANCH  16  18
HETATM   18  C   UNL     1     -13.305   7.666  71.154  1.00  0.00    -0.186 C  
BRANCH  18  19
HETATM   19  C   UNL     1     -12.278   6.656  71.654  1.00  0.00    -0.401 C  
BRANCH  19  20
HETATM   20  C   UNL     1     -11.188   6.347  70.621  1.00  0.00    -0.400 C  
BRANCH  20  21
HETATM   21  C   UNL     1      -9.837   6.358  71.289  1.00  0.00    -0.200 A  
HETATM   22  C   UNL     1      -7.436   6.461  72.725  1.00  0.00    -0.095 A  
HETATM   23  C   UNL     1      -9.031   7.503  71.241  1.00  0.00    -0.142 A  
HETATM   24  C   UNL     1      -9.416   5.257  72.047  1.00  0.00    -0.173 A  
HETATM   25  C   UNL     1      -7.834   7.551  71.957  1.00  0.00    -0.097 A  
HETATM   26  C   UNL     1      -8.220   5.309  72.763  1.00  0.00    -0.109 A  
ENDBRANCH  20  21
ENDBRANCH  19  20
ENDBRANCH  18  19
ENDBRANCH  16  18
ENDBRANCH  15  16
ENDBRANCH  14  15
BRANCH  14  27
HETATM   27  C   UNL     1     -10.851  10.517  69.938  1.00  0.00    -0.276 C  
BRANCH  27  28
HETATM   28  O   UNL     1     -10.678   9.397  69.057  1.00  0.00    -0.223 OA 
BRANCH  28  29
HETATM   29  C   UNL     1     -10.841   9.682  67.734  1.00  0.00    -0.217 C  
HETATM   30  O   UNL     1     -11.193  10.766  67.291  1.00  0.00    -0.324 OA 
BRANCH  29  31
HETATM   31  C   UNL     1     -10.514   8.471  66.899  1.00  0.00    -0.345 C  
BRANCH  31  32
HETATM   32  C   UNL     1      -9.242   7.780  67.376  1.00  0.00    -0.156 C  
BRANCH  32  33
HETATM   33  C   UNL     1      -8.811   6.625  66.463  1.00  0.00    -0.144 C  
BRANCH  33  34
HETATM   34  C   UNL     1      -8.790   5.330  67.234  1.00  0.00    -0.105 A  
HETATM   35  C   UNL     1      -8.597   2.879  68.576  1.00  0.00    -0.115 A  
HETATM   36  C   UNL     1      -8.044   5.226  68.416  1.00  0.00    -0.091 A  
HETATM   37  C   UNL     1      -7.949   4.005  69.084  1.00  0.00    -0.057 A  
HETATM   38  C   UNL     1      -9.350   2.978  67.408  1.00  0.00    -0.216 A  
HETATM   39  C   UNL     1      -9.448   4.197  66.739  1.00  0.00    -0.211 A  
ENDBRANCH  33  34
ENDBRANCH  32  33
ENDBRANCH  31  32
ENDBRANCH  29  31
ENDBRANCH  28  29
ENDBRANCH  27  28
ENDBRANCH  14  27
ENDBRANCH  13  14
ENDBRANCH  12  13
ENDBRANCH   2  12
TORSDOF 20
ENDMDL
MODEL      222
REMARK 921   NORMALIZED FREE ENERGY PREDICTED BY IDOCK:   -4.27 KCAL/MOL
REMARK 922        TOTAL FREE ENERGY PREDICTED BY IDOCK:  -13.95 KCAL/MOL
REMARK 923 INTER-LIGAND FREE ENERGY PREDICTED BY IDOCK:  -10.66 KCAL/MOL
REMARK 924 INTRA-LIGAND FREE ENERGY PREDICTED BY IDOCK:   -3.29 KCAL/MOL
REMARK 927      BINDING AFFINITY PREDICTED BY RF-SCORE:    0.00 PKD
ROOT
HETATM    1  O   UNL     1     -10.071   9.004  66.063  1.00  0.00    -0.278 OA 
HETATM    2  C   UNL     1     -10.480   8.412  67.052  1.00  0.00    -0.305 C  
ENDROOT
BRANCH   2   3
HETATM    3  C   UNL     1     -10.914   6.966  67.057  1.00  0.00    -0.404 C  
BRANCH   3   4
HETATM    4  C   UNL     1      -9.728   6.006  67.165  1.00  0.00    -0.148 C  
BRANCH   4   5
HETATM    5  C   UNL     1     -10.069   4.601  66.656  1.00  0.00    -0.263 C  
BRANCH   5   6
HETATM    6  C   UNL     1      -9.374   4.286  65.355  1.00  0.00    -0.164 A  
HETATM    7  C   UNL     1      -8.483   5.209  64.787  1.00  0.00    -0.150 A  
HETATM    8  C   UNL     1      -8.093   3.717  62.926  1.00  0.00    -0.076 A  
HETATM    9  C   UNL     1      -7.844   4.923  63.580  1.00  0.00    -0.085 A  
HETATM   10  C   UNL     1      -9.620   3.080  64.687  1.00  0.00    -0.138 A  
HETATM   11  C   UNL     1      -8.980   2.796  63.480  1.00  0.00    -0.095 A  
ENDBRANCH   5   6
ENDBRANCH   4   5
ENDBRANCH   3   4
ENDBRANCH   2   3
BRANCH   2  12
HETATM   12  O   UNL     1     -10.612   8.953  68.295  1.00  0.00    -0.212 OA 
BRANCH  12  13
HETATM   13  C   UNL     1      -9.772  10.083  68.597  1.00  0.00    -0.159 C  
BRANCH  13  14
HETATM   14  C   UNL     1     -10.635  11.325  68.838  1.00  0.00    -0.207 C  
BRANCH  14  15
HETATM   15  O   UNL     1     -11.968  10.907  69.195  1.00  0.00    -0.326 OA 
BRANCH  15  16
HETATM   16  C   UNL     1     -12.358  11.175  70.470  1.00  0.00    -0.364 C  
HETATM   17  O   UNL     1     -12.289  12.262  71.022  1.00  0.00    -0.351 OA 
BRANCH  16  18
HETATM   18  C   UNL     1     -12.867   9.916  71.126  1.00  0.00    -0.461 C  
BRANCH  18  19
HETATM   19  C   UNL     1     -11.728   9.054  71.658  1.00  0.00    -0.431 C  
BRANCH  19  20
HETATM   20  C   UNL     1     -12.001   7.551  71.524  1.00  0.00    -0.336 C  
BRANCH  20  21
HETATM   21  C   UNL     1     -10.717   6.828  71.204  1.00  0.00    -0.261 A  
HETATM   22  C   UNL     1      -8.326   5.420  70.836  1.00  0.00    -0.118 A  
HETATM   23  C   UNL     1      -9.484   7.477  71.347  1.00  0.00    -0.159 A  
HETATM   24  C   UNL     1     -10.740   5.472  70.853  1.00  0.00    -0.283 A  
HETATM   25  C   UNL     1      -8.294   6.773  71.162  1.00  0.00    -0.124 A  
HETATM   26  C   UNL     1      -9.549   4.771  70.671  1.00  0.00    -0.255 A  
ENDBRANCH  20  21
ENDBRANCH  19  20
ENDBRANCH  18  19
ENDBRANCH  16  18
ENDBRANCH  15  16
ENDBRANCH  14  15
BRANCH  14  27
HETATM   27  C   UNL     1     -10.738  12.181  67.570  1.00  0.00    -0.232 C  
BRANCH  27  28
HETATM   28  O   UNL     1     -11.998  11.991  66.910  1.00  0.00    -0.612 OA 
BRANCH  28  29
HETATM   29  C   UNL     1     -12.047  12.459  65.631  1.00  0.00    -0.329 C  
HETATM   30  O   UNL     1     -13.071  12.598  64.977  1.00  0.00    -0.808 OA 
BRANCH  29  31
HETATM   31  C   UNL     1     -10.659  12.787  65.144  1.00  0.00    -0.324 C  
BRANCH  31  32
HETATM   32  C   UNL     1     -10.534  14.249  64.730  1.00  0.00    -0.421 C  
BRANCH  32  33
HETATM   33  C   UNL     1     -10.995  15.220  65.825  1.00  0.00    -0.340 C  
BRANCH  33  34
HETATM   34  C   UNL     1      -9.815  15.682  66.641  1.00  0.00    -0.258 A  
HETATM   35  C   UNL     1      -7.705  16.706  68.172  1.00  0.00    -0.173 A  
HETATM   36  C   UNL     1      -9.851  15.605  68.040  1.00  0.00    -0.209 A  
HETATM   37  C   UNL     1      -8.800  16.115  68.802  1.00  0.00    -0.233 A  
HETATM   38  C   UNL     1      -7.655  16.776  66.781  1.00  0.00    -0.283 A  
HETATM   39  C   UNL     1      -8.705  16.266  66.018  1.00  0.00    -0.285 A  
ENDBRANCH  33  34
ENDBRANCH  32  33
ENDBRANCH  31  32
ENDBRANCH  29  31
ENDBRANCH  28  29
ENDBRANCH  27  28
ENDBRANCH  14  27
ENDBRANCH  13  14
ENDBRANCH  12  13
ENDBRANCH   2  12
TORSDOF 20
ENDMDL
MODEL      223
REMARK 921   NORMALIZED FREE ENERGY PREDICTED BY IDOCK:   -4.24 KCAL/MOL
REMARK 922        TOTAL FREE ENERGY PREDICTED BY IDOCK:  -13.89 KCAL/MOL
REMARK 923 INTER-LIGAND FREE ENERGY PREDICTED BY IDOCK:  -11.03 KCAL/MOL
REMARK 924 INTRA-LIGAND FREE ENERGY PREDICTED BY IDOCK:   -2.86 KCAL/MOL
REMARK 927      BINDING AFFINITY PREDICTED BY RF-SCORE:    0.00 PKD
ROOT
HETATM    1  O   UNL     1     -11.830  10.618  67.765  1.00  0.00    -0.460 OA 
HETATM    2  C   UNL     1     -10.685  10.472  67.361  1.00  0.00    -0.281 C  
ENDROOT
BRANCH   2   3
HETATM    3  C   UNL     1      -9.790  11.605  66.917  1.00  0.00    -0.218 C  
BRANCH   3   4
HETATM    4  C   UNL     1      -9.896  12.821  67.838  1.00  0.00    -0.223 C  
BRANCH   4   5
HETATM    5  C   UNL     1     -10.925  13.841  67.337  1.00  0.00    -0.296 C  
BRANCH   5   6
HETATM    6  C   UNL     1     -10.329  15.217  67.182  1.00  0.00    -0.265 A  
HETATM    7  C   UNL     1      -9.188  15.409  66.389  1.00  0.00    -0.339 A  
HETATM    8  C   UNL     1      -9.202  17.770  66.903  1.00  0.00    -0.263 A  
HETATM    9  C   UNL     1      -8.630  16.680  66.249  1.00  0.00    -0.359 A  
HETATM   10  C   UNL     1     -10.893  16.319  67.838  1.00  0.00    -0.330 A  
HETATM   11  C   UNL     1     -10.333  17.589  67.697  1.00  0.00    -0.360 A  
ENDBRANCH   5   6
ENDBRANCH   4   5
ENDBRANCH   3   4
ENDBRANCH   2   3
BRANCH   2  12
HETATM   12  O   UNL     1     -10.037   9.280  67.245  1.00  0.00    -0.198 OA 
BRANCH  12  13
HETATM   13  C   UNL     1     -10.659   8.146  67.879  1.00  0.00    -0.147 C  
BRANCH  13  14
HETATM   14  C   UNL     1      -9.771   7.631  69.016  1.00  0.00    -0.160 C  
BRANCH  14  15
HETATM   15  O   UNL     1      -9.382   6.272  68.728  1.00  0.00    -0.125 OA 
BRANCH  15  16
HETATM   16  C   UNL     1      -8.281   6.120  67.943  1.00  0.00    -0.117 C  
HETATM   17  O   UNL     1      -7.385   6.939  67.806  1.00  0.00    -0.091 OA 
BRANCH  16  18
HETATM   18  C   UNL     1      -8.337   4.791  67.233  1.00  0.00    -0.105 C  
BRANCH  18  19
HETATM   19  C   UNL     1      -9.773   4.332  67.002  1.00  0.00    -0.237 C  
BRANCH  19  20
HETATM   20  C   UNL     1     -10.310   4.717  65.619  1.00  0.00    -0.266 C  
BRANCH  20  21
HETATM   21  C   UNL     1      -9.422   4.134  64.549  1.00  0.00    -0.165 A  
HETATM   22  C   UNL     1      -7.948   3.095  62.408  1.00  0.00    -0.070 A  
HETATM   23  C   UNL     1      -9.481   2.768  64.246  1.00  0.00    -0.137 A  
HETATM   24  C   UNL     1      -8.600   4.970  63.782  1.00  0.00    -0.110 A  
HETATM   25  C   UNL     1      -8.744   2.252  63.179  1.00  0.00    -0.085 A  
HETATM   26  C   UNL     1      -7.867   4.452  62.715  1.00  0.00    -0.066 A  
ENDBRANCH  20  21
ENDBRANCH  19  20
ENDBRANCH  18  19
ENDBRANCH  16  18
ENDBRANCH  15  16
ENDBRANCH  14  15
BRANCH  14  27
HETATM   27  C   UNL     1     -10.528   7.626  70.349  1.00  0.00    -0.220 C  
BRANCH  27  28
HETATM   28  O   UNL     1     -11.043   8.928  70.665  1.00  0.00    -0.248 OA 
BRANCH  28  29
HETATM   29  C   UNL     1     -12.003   8.942  71.633  1.00  0.00    -0.345 C  
HETATM   30  O   UNL     1     -11.914   8.379  72.714  1.00  0.00    -0.367 OA 
BRANCH  29  31
HETATM   31  C   UNL     1     -13.185   9.760  71.178  1.00  0.00    -0.404 C  
BRANCH  31  32
HETATM   32  C   UNL     1     -13.154  11.171  71.756  1.00  0.00    -0.536 C  
BRANCH  32  33
HETATM   33  C   UNL     1     -12.602  12.208  70.769  1.00  0.00    -0.305 C  
BRANCH  33  34
HETATM   34  C   UNL     1     -12.616  13.580  71.392  1.00  0.00    -0.398 A  
HETATM   35  C   UNL     1     -12.494  16.080  72.648  1.00  0.00    -0.572 A  
HETATM   36  C   UNL     1     -11.840  14.611  70.845  1.00  0.00    -0.372 A  
HETATM   37  C   UNL     1     -11.780  15.856  71.471  1.00  0.00    -0.545 A  
HETATM   38  C   UNL     1     -13.277  15.064  73.192  1.00  0.00    -0.587 A  
HETATM   39  C   UNL     1     -13.340  13.819  72.567  1.00  0.00    -0.656 A  
ENDBRANCH  33  34
ENDBRANCH  32  33
ENDBRANCH  31  32
ENDBRANCH  29  31
ENDBRANCH  28  29
ENDBRANCH  27  28
ENDBRANCH  14  27
ENDBRANCH  13  14
ENDBRANCH  12  13
ENDBRANCH   2  12
TORSDOF 20
ENDMDL
MODEL      224
REMARK 921   NORMALIZED FREE ENERGY PREDICTED BY IDOCK:   -4.23 KCAL/MOL
REMARK 922        TOTAL FREE ENERGY PREDICTED BY IDOCK:  -13.86 KCAL/MOL
REMARK 923 INTER-LIGAND FREE ENERGY PREDICTED BY IDOCK:  -10.71 KCAL/MOL
REMARK 924 INTRA-LIGAND FREE ENERGY PREDICTED BY IDOCK:   -3.15 KCAL/MOL
REMARK 927      BINDING AFFINITY PREDICTED BY RF-SCORE:    0.00 PKD
ROOT
HETATM    1  O   UNL     1     -13.477  10.304  70.613  1.00  0.00    -0.234 OA 
HETATM    2  C   UNL     1     -12.267  10.260  70.786  1.00  0.00    -0.350 C  
ENDROOT
BRANCH   2   3
HETATM    3  C   UNL     1     -11.573   9.271  71.692  1.00  0.00    -0.463 C  
BRANCH   3   4
HETATM    4  C   UNL     1     -10.327   8.667  71.043  1.00  0.00    -0.275 C  
BRANCH   4   5
HETATM    5  C   UNL     1     -10.665   7.825  69.808  1.00  0.00    -0.236 C  
BRANCH   5   6
HETATM    6  C   UNL     1      -9.894   8.270  68.591  1.00  0.00    -0.186 A  
HETATM    7  C   UNL     1      -8.830   9.174  68.719  1.00  0.00    -0.132 A  
HETATM    8  C   UNL     1      -8.466   9.117  66.331  1.00  0.00    -0.129 A  
HETATM    9  C   UNL     1      -8.119   9.593  67.593  1.00  0.00    -0.113 A  
HETATM   10  C   UNL     1     -10.237   7.800  67.316  1.00  0.00    -0.343 A  
HETATM   11  C   UNL     1      -9.525   8.220  66.193  1.00  0.00    -0.241 A  
ENDBRANCH   5   6
ENDBRANCH   4   5
ENDBRANCH   3   4
ENDBRANCH   2   3
BRANCH   2  12
HETATM   12  O   UNL     1     -11.357  11.087  70.199  1.00  0.00    -0.290 OA 
BRANCH  12  13
HETATM   13  C   UNL     1     -11.638  11.497  68.847  1.00  0.00    -0.320 C  
BRANCH  13  14
HETATM   14  C   UNL     1     -10.666  12.602  68.424  1.00  0.00    -0.242 C  
BRANCH  14  15
HETATM   15  O   UNL     1     -11.282  13.884  68.663  1.00  0.00    -0.243 OA 
BRANCH  15  16
HETATM   16  C   UNL     1     -10.460  14.965  68.592  1.00  0.00    -0.242 C  
HETATM   17  O   UNL     1      -9.319  15.022  69.025  1.00  0.00    -0.201 OA 
BRANCH  16  18
HETATM   18  C   UNL     1     -11.174  16.110  67.919  1.00  0.00    -0.245 C  
BRANCH  18  19
HETATM   19  C   UNL     1     -10.750  17.457  68.493  1.00  0.00    -0.279 C  
BRANCH  19  20
HETATM   20  C   UNL     1     -10.419  18.492  67.411  1.00  0.00    -0.455 C  
BRANCH  20  21
HETATM   21  C   UNL     1      -9.032  19.039  67.639  1.00  0.00    -0.322 A  
HETATM   22  C   UNL     1      -6.551  20.193  68.230  1.00  0.00    -0.329 A  
HETATM   23  C   UNL     1      -8.592  20.168  66.938  1.00  0.00    -0.397 A  
HETATM   24  C   UNL     1      -8.207  18.481  68.625  1.00  0.00    -0.335 A  
HETATM   25  C   UNL     1      -7.354  20.741  67.234  1.00  0.00    -0.397 A  
HETATM   26  C   UNL     1      -6.972  19.057  68.920  1.00  0.00    -0.357 A  
ENDBRANCH  20  21
ENDBRANCH  19  20
ENDBRANCH  18  19
ENDBRANCH  16  18
ENDBRANCH  15  16
ENDBRANCH  14  15
BRANCH  14  27
HETATM   27  C   UNL     1     -10.343  12.511  66.928  1.00  0.00    -0.229 C  
BRANCH  27  28
HETATM   28  O   UNL     1     -11.331  11.746  66.223  1.00  0.00    -0.329 OA 
BRANCH  28  29
HETATM   29  C   UNL     1     -11.982  12.426  65.237  1.00  0.00    -0.404 C  
HETATM   30  O   UNL     1     -12.792  13.322  65.424  1.00  0.00    -0.569 OA 
BRANCH  29  31
HETATM   31  C   UNL     1     -11.550  11.918  63.885  1.00  0.00    -0.515 C  
BRANCH  31  32
HETATM   32  C   UNL     1     -10.254  11.120  63.967  1.00  0.00    -0.419 C  
BRANCH  32  33
HETATM   33  C   UNL     1      -9.682  10.767  62.588  1.00  0.00    -0.246 C  
BRANCH  33  34
HETATM   34  C   UNL     1      -8.526   9.810  62.732  1.00  0.00    -0.176 A  
HETATM   35  C   UNL     1      -6.447   7.984  63.166  1.00  0.00    -0.080 A  
HETATM   36  C   UNL     1      -8.667   8.470  62.346  1.00  0.00    -0.074 A  
HETATM   37  C   UNL     1      -7.631   7.562  62.562  1.00  0.00    -0.110 A  
HETATM   38  C   UNL     1      -6.294   9.317  63.542  1.00  0.00    -0.091 A  
HETATM   39  C   UNL     1      -7.328  10.227  63.326  1.00  0.00    -0.110 A  
ENDBRANCH  33  34
ENDBRANCH  32  33
ENDBRANCH  31  32
ENDBRANCH  29  31
ENDBRANCH  28  29
ENDBRANCH  27  28
ENDBRANCH  14  27
ENDBRANCH  13  14
ENDBRANCH  12  13
ENDBRANCH   2  12
TORSDOF 20
ENDMDL
MODEL      225
REMARK 921   NORMALIZED FREE ENERGY PREDICTED BY IDOCK:   -4.23 KCAL/MOL
REMARK 922        TOTAL FREE ENERGY PREDICTED BY IDOCK:  -13.86 KCAL/MOL
REMARK 923 INTER-LIGAND FREE ENERGY PREDICTED BY IDOCK:  -10.93 KCAL/MOL
REMARK 924 INTRA-LIGAND FREE ENERGY PREDICTED BY IDOCK:   -2.92 KCAL/MOL
REMARK 927      BINDING AFFINITY PREDICTED BY RF-SCORE:    0.00 PKD
ROOT
HETATM    1  O   UNL     1     -11.639   8.088  72.939  1.00  0.00    -0.397 OA 
HETATM    2  C   UNL     1     -12.321   8.146  71.925  1.00  0.00    -0.332 C  
ENDROOT
BRANCH   2   3
HETATM    3  C   UNL     1     -13.468   9.109  71.728  1.00  0.00    -0.478 C  
BRANCH   3   4
HETATM    4  C   UNL     1     -13.099  10.538  72.128  1.00  0.00    -0.413 C  
BRANCH   4   5
HETATM    5  C   UNL     1     -12.593  11.362  70.938  1.00  0.00    -0.453 C  
BRANCH   5   6
HETATM    6  C   UNL     1     -12.721  12.845  71.182  1.00  0.00    -0.366 A  
HETATM    7  C   UNL     1     -13.627  13.330  72.136  1.00  0.00    -0.655 A  
HETATM    8  C   UNL     1     -12.978  15.601  71.628  1.00  0.00    -0.551 A  
HETATM    9  C   UNL     1     -13.752  14.701  72.358  1.00  0.00    -0.575 A  
HETATM   10  C   UNL     1     -11.951  13.758  70.450  1.00  0.00    -0.385 A  
HETATM   11  C   UNL     1     -12.078  15.129  70.674  1.00  0.00    -0.378 A  
ENDBRANCH   5   6
ENDBRANCH   4   5
ENDBRANCH   3   4
ENDBRANCH   2   3
BRANCH   2  12
HETATM   12  O   UNL     1     -12.162   7.363  70.823  1.00  0.00    -0.266 OA 
BRANCH  12  13
HETATM   13  C   UNL     1     -11.224   6.275  70.936  1.00  0.00    -0.324 C  
BRANCH  13  14
HETATM   14  C   UNL     1     -10.055   6.491  69.971  1.00  0.00    -0.174 C  
BRANCH  14  15
HETATM   15  O   UNL     1     -10.365   7.600  69.101  1.00  0.00    -0.206 OA 
BRANCH  15  16
HETATM   16  C   UNL     1      -9.345   8.053  68.324  1.00  0.00    -0.140 C  
HETATM   17  O   UNL     1      -8.155   7.962  68.586  1.00  0.00    -0.122 OA 
BRANCH  16  18
HETATM   18  C   UNL     1      -9.898   8.720  67.090  1.00  0.00    -0.268 C  
BRANCH  18  19
HETATM   19  C   UNL     1      -9.727  10.235  67.140  1.00  0.00    -0.210 C  
BRANCH  19  20
HETATM   20  C   UNL     1     -11.039  10.977  67.421  1.00  0.00    -0.370 C  
BRANCH  20  21
HETATM   21  C   UNL     1     -11.344  11.918  66.284  1.00  0.00    -0.394 A  
HETATM   22  C   UNL     1     -12.118  13.553  64.148  1.00  0.00    -0.488 A  
HETATM   23  C   UNL     1     -11.003  11.575  64.970  1.00  0.00    -0.305 A  
HETATM   24  C   UNL     1     -12.058  13.101  66.519  1.00  0.00    -0.423 A  
HETATM   25  C   UNL     1     -11.389  12.392  63.906  1.00  0.00    -0.502 A  
HETATM   26  C   UNL     1     -12.444  13.914  65.454  1.00  0.00    -0.528 A  
ENDBRANCH  20  21
ENDBRANCH  19  20
ENDBRANCH  18  19
ENDBRANCH  16  18
ENDBRANCH  15  16
ENDBRANCH  14  15
BRANCH  14  27
HETATM   27  C   UNL     1      -9.830   5.256  69.090  1.00  0.00    -0.187 C  
BRANCH  27  28
HETATM   28  O   UNL     1      -9.210   4.192  69.827  1.00  0.00    -0.112 OA 
BRANCH  28  29
HETATM   29  C   UNL     1      -8.074   4.546  70.492  1.00  0.00    -0.067 C  
HETATM   30  O   UNL     1      -7.960   4.582  71.708  1.00  0.00    -0.092 OA 
BRANCH  29  31
HETATM   31  C   UNL     1      -6.979   4.876  69.510  1.00  0.00    -0.054 C  
BRANCH  31  32
HETATM   32  C   UNL     1      -6.375   3.619  68.892  1.00  0.00    -0.029 C  
BRANCH  32  33
HETATM   33  C   UNL     1      -6.026   3.793  67.408  1.00  0.00    -0.024 C  
BRANCH  33  34
HETATM   34  C   UNL     1      -7.267   4.116  66.616  1.00  0.00    -0.072 A  
HETATM   35  C   UNL     1      -9.647   4.784  65.299  1.00  0.00    -0.126 A  
HETATM   36  C   UNL     1      -7.431   5.387  66.049  1.00  0.00    -0.082 A  
HETATM   37  C   UNL     1      -8.616   5.718  65.393  1.00  0.00    -0.143 A  
HETATM   38  C   UNL     1      -9.487   3.514  65.849  1.00  0.00    -0.143 A  
HETATM   39  C   UNL     1      -8.303   3.179  66.504  1.00  0.00    -0.100 A  
ENDBRANCH  33  34
ENDBRANCH  32  33
ENDBRANCH  31  32
ENDBRANCH  29  31
ENDBRANCH  28  29
ENDBRANCH  27  28
ENDBRANCH  14  27
ENDBRANCH  13  14
ENDBRANCH  12  13
ENDBRANCH   2  12
TORSDOF 20
ENDMDL
MODEL      226
REMARK 921   NORMALIZED FREE ENERGY PREDICTED BY IDOCK:   -4.22 KCAL/MOL
REMARK 922        TOTAL FREE ENERGY PREDICTED BY IDOCK:  -13.83 KCAL/MOL
REMARK 923 INTER-LIGAND FREE ENERGY PREDICTED BY IDOCK:   -7.68 KCAL/MOL
REMARK 924 INTRA-LIGAND FREE ENERGY PREDICTED BY IDOCK:   -6.15 KCAL/MOL
REMARK 927      BINDING AFFINITY PREDICTED BY RF-SCORE:    0.00 PKD
ROOT
HETATM    1  O   UNL     1      -9.638  14.042  67.153  1.00  0.00    -0.230 OA 
HETATM    2  C   UNL     1      -9.603  12.831  67.318  1.00  0.00    -0.208 C  
ENDROOT
BRANCH   2   3
HETATM    3  C   UNL     1      -8.490  11.938  66.824  1.00  0.00    -0.167 C  
BRANCH   3   4
HETATM    4  C   UNL     1      -7.534  11.531  67.946  1.00  0.00    -0.103 C  
BRANCH   4   5
HETATM    5  C   UNL     1      -6.760  10.250  67.613  1.00  0.00    -0.074 C  
BRANCH   5   6
HETATM    6  C   UNL     1      -6.390   9.474  68.852  1.00  0.00    -0.043 A  
HETATM    7  C   UNL     1      -5.955   8.145  68.750  1.00  0.00    -0.043 A  
HETATM    8  C   UNL     1      -5.716   8.017  71.151  1.00  0.00    -0.034 A  
HETATM    9  C   UNL     1      -5.618   7.422  69.895  1.00  0.00    -0.023 A  
HETATM   10  C   UNL     1      -6.489  10.062  70.120  1.00  0.00    -0.107 A  
HETATM   11  C   UNL     1      -6.152   9.337  71.263  1.00  0.00    -0.077 A  
ENDBRANCH   5   6
ENDBRANCH   4   5
ENDBRANCH   3   4
ENDBRANCH   2   3
BRANCH   2  12
HETATM   12  O   UNL     1     -10.550  12.097  67.965  1.00  0.00    -0.198 OA 
BRANCH  12  13
HETATM   13  C   UNL     1     -11.024  10.918  67.287  1.00  0.00    -0.294 C  
BRANCH  13  14
HETATM   14  C   UNL     1     -11.113   9.749  68.273  1.00  0.00    -0.102 C  
BRANCH  14  15
HETATM   15  O   UNL     1     -10.786  10.226  69.594  1.00  0.00    -0.228 OA 
BRANCH  15  16
HETATM   16  C   UNL     1     -11.773  10.130  70.525  1.00  0.00    -0.322 C  
HETATM   17  O   UNL     1     -12.870  10.663  70.458  1.00  0.00    -0.349 OA 
BRANCH  16  18
HETATM   18  C   UNL     1     -11.305   9.285  71.684  1.00  0.00    -0.467 C  
BRANCH  18  19
HETATM   19  C   UNL     1      -9.804   9.023  71.624  1.00  0.00    -0.366 C  
BRANCH  19  20
HETATM   20  C   UNL     1      -9.463   7.582  71.228  1.00  0.00    -0.158 C  
BRANCH  20  21
HETATM   21  C   UNL     1      -9.908   6.637  72.315  1.00  0.00    -0.162 A  
HETATM   22  C   UNL     1     -10.605   4.715  74.228  1.00  0.00    -0.328 A  
HETATM   23  C   UNL     1     -11.061   5.859  72.150  1.00  0.00    -0.333 A  
HETATM   24  C   UNL     1      -9.120   6.457  73.460  1.00  0.00    -0.134 A  
HETATM   25  C   UNL     1     -11.407   4.902  73.105  1.00  0.00    -0.395 A  
HETATM   26  C   UNL     1      -9.467   5.499  74.411  1.00  0.00    -0.146 A  
ENDBRANCH  20  21
ENDBRANCH  19  20
ENDBRANCH  18  19
ENDBRANCH  16  18
ENDBRANCH  15  16
ENDBRANCH  14  15
BRANCH  14  27
HETATM   27  C   UNL     1     -10.110   8.646  67.914  1.00  0.00    -0.203 C  
BRANCH  27  28
HETATM   28  O   UNL     1     -10.692   7.675  67.032  1.00  0.00    -0.348 OA 
BRANCH  28  29
HETATM   29  C   UNL     1     -10.899   6.449  67.590  1.00  0.00    -0.339 C  
HETATM   30  O   UNL     1     -11.400   6.258  68.689  1.00  0.00    -0.337 OA 
BRANCH  29  31
HETATM   31  C   UNL     1     -10.431   5.365  66.653  1.00  0.00    -0.356 C  
BRANCH  31  32
HETATM   32  C   UNL     1      -9.563   4.335  67.366  1.00  0.00    -0.219 C  
BRANCH  32  33
HETATM   33  C   UNL     1      -8.528   4.972  68.302  1.00  0.00    -0.098 C  
BRANCH  33  34
HETATM   34  C   UNL     1      -8.508   4.251  69.625  1.00  0.00    -0.091 A  
HETATM   35  C   UNL     1      -8.363   2.781  72.006  1.00  0.00    -0.064 A  
HETATM   36  C   UNL     1      -7.467   4.477  70.536  1.00  0.00    -0.050 A  
HETATM   37  C   UNL     1      -7.396   3.745  71.721  1.00  0.00    -0.055 A  
HETATM   38  C   UNL     1      -9.408   2.559  71.111  1.00  0.00    -0.212 A  
HETATM   39  C   UNL     1      -9.482   3.290  69.926  1.00  0.00    -0.216 A  
ENDBRANCH  33  34
ENDBRANCH  32  33
ENDBRANCH  31  32
ENDBRANCH  29  31
ENDBRANCH  28  29
ENDBRANCH  27  28
ENDBRANCH  14  27
ENDBRANCH  13  14
ENDBRANCH  12  13
ENDBRANCH   2  12
TORSDOF 20
ENDMDL
MODEL      227
REMARK 921   NORMALIZED FREE ENERGY PREDICTED BY IDOCK:   -4.22 KCAL/MOL
REMARK 922        TOTAL FREE ENERGY PREDICTED BY IDOCK:  -13.83 KCAL/MOL
REMARK 923 INTER-LIGAND FREE ENERGY PREDICTED BY IDOCK:  -11.16 KCAL/MOL
REMARK 924 INTRA-LIGAND FREE ENERGY PREDICTED BY IDOCK:   -2.67 KCAL/MOL
REMARK 927      BINDING AFFINITY PREDICTED BY RF-SCORE:    0.00 PKD
ROOT
HETATM    1  O   UNL     1     -11.250  10.410  67.977  1.00  0.00    -0.298 OA 
HETATM    2  C   UNL     1     -10.087  10.262  67.629  1.00  0.00    -0.191 C  
ENDROOT
BRANCH   2   3
HETATM    3  C   UNL     1      -9.180  11.389  67.197  1.00  0.00    -0.170 C  
BRANCH   3   4
HETATM    4  C   UNL     1      -9.707  12.756  67.636  1.00  0.00    -0.205 C  
BRANCH   4   5
HETATM    5  C   UNL     1      -9.860  13.725  66.458  1.00  0.00    -0.294 C  
BRANCH   5   6
HETATM    6  C   UNL     1     -10.792  13.188  65.401  1.00  0.00    -0.299 A  
HETATM    7  C   UNL     1     -10.294  12.805  64.148  1.00  0.00    -0.401 A  
HETATM    8  C   UNL     1     -12.520  12.206  63.423  1.00  0.00    -0.625 A  
HETATM    9  C   UNL     1     -11.155  12.314  63.165  1.00  0.00    -0.217 A  
HETATM   10  C   UNL     1     -12.166  13.079  65.648  1.00  0.00    -0.521 A  
HETATM   11  C   UNL     1     -13.025  12.589  64.664  1.00  0.00    -0.176 A  
ENDBRANCH   5   6
ENDBRANCH   4   5
ENDBRANCH   3   4
ENDBRANCH   2   3
BRANCH   2  12
HETATM   12  O   UNL     1      -9.428   9.072  67.573  1.00  0.00    -0.134 OA 
BRANCH  12  13
HETATM   13  C   UNL     1     -10.229   7.884  67.724  1.00  0.00    -0.216 C  
BRANCH  13  14
HETATM   14  C   UNL     1      -9.769   7.097  68.955  1.00  0.00    -0.150 C  
BRANCH  14  15
HETATM   15  O   UNL     1      -9.472   5.742  68.560  1.00  0.00    -0.119 OA 
BRANCH  15  16
HETATM   16  C   UNL     1      -8.172   5.359  68.668  1.00  0.00    -0.094 C  
HETATM   17  O   UNL     1      -7.201   6.044  68.383  1.00  0.00    -0.079 OA 
BRANCH  16  18
HETATM   18  C   UNL     1      -8.095   3.939  69.170  1.00  0.00    -0.065 C  
BRANCH  18  19
HETATM   19  C   UNL     1      -9.437   3.455  69.709  1.00  0.00    -0.229 C  
BRANCH  19  20
HETATM   20  C   UNL     1      -9.303   2.609  70.980  1.00  0.00    -0.216 C  
BRANCH  20  21
HETATM   21  C   UNL     1      -9.519   3.478  72.193  1.00  0.00    -0.191 A  
HETATM   22  C   UNL     1      -9.904   5.278  74.302  1.00  0.00    -0.204 A  
HETATM   23  C   UNL     1      -8.426   3.944  72.934  1.00  0.00    -0.095 A  
HETATM   24  C   UNL     1     -10.809   3.906  72.534  1.00  0.00     0.024 A  
HETATM   25  C   UNL     1      -8.621   4.841  73.986  1.00  0.00    -0.105 A  
HETATM   26  C   UNL     1     -11.000   4.804  73.583  1.00  0.00    -0.391 A  
ENDBRANCH  20  21
ENDBRANCH  19  20
ENDBRANCH  18  19
ENDBRANCH  16  18
ENDBRANCH  15  16
ENDBRANCH  14  15
BRANCH  14  27
HETATM   27  C   UNL     1     -10.872   7.042  70.019  1.00  0.00    -0.261 C  
BRANCH  27  28
HETATM   28  O   UNL     1     -11.194   8.351  70.510  1.00  0.00    -0.256 OA 
BRANCH  28  29
HETATM   29  C   UNL     1     -11.975   8.365  71.627  1.00  0.00    -0.307 C  
HETATM   30  O   UNL     1     -11.679   7.847  72.694  1.00  0.00    -0.370 OA 
BRANCH  29  31
HETATM   31  C   UNL     1     -13.252   9.120  71.357  1.00  0.00    -0.359 C  
BRANCH  31  32
HETATM   32  C   UNL     1     -13.184  10.552  71.875  1.00  0.00    -0.526 C  
BRANCH  32  33
HETATM   33  C   UNL     1     -12.238  11.439  71.054  1.00  0.00    -0.391 C  
BRANCH  33  34
HETATM   34  C   UNL     1     -12.608  12.890  71.222  1.00  0.00    -0.352 A  
HETATM   35  C   UNL     1     -13.436  15.559  71.418  1.00  0.00    -0.583 A  
HETATM   36  C   UNL     1     -13.559  13.269  72.179  1.00  0.00    -0.655 A  
HETATM   37  C   UNL     1     -13.971  14.598  72.276  1.00  0.00    -0.589 A  
HETATM   38  C   UNL     1     -12.481  15.192  70.472  1.00  0.00    -0.429 A  
HETATM   39  C   UNL     1     -12.067  13.864  70.374  1.00  0.00    -0.421 A  
ENDBRANCH  33  34
ENDBRANCH  32  33
ENDBRANCH  31  32
ENDBRANCH  29  31
ENDBRANCH  28  29
ENDBRANCH  27  28
ENDBRANCH  14  27
ENDBRANCH  13  14
ENDBRANCH  12  13
ENDBRANCH   2  12
TORSDOF 20
ENDMDL
MODEL      228
REMARK 921   NORMALIZED FREE ENERGY PREDICTED BY IDOCK:   -4.20 KCAL/MOL
REMARK 922        TOTAL FREE ENERGY PREDICTED BY IDOCK:  -13.80 KCAL/MOL
REMARK 923 INTER-LIGAND FREE ENERGY PREDICTED BY IDOCK:  -10.00 KCAL/MOL
REMARK 924 INTRA-LIGAND FREE ENERGY PREDICTED BY IDOCK:   -3.80 KCAL/MOL
REMARK 927      BINDING AFFINITY PREDICTED BY RF-SCORE:    0.00 PKD
ROOT
HETATM    1  O   UNL     1     -13.114  15.488  70.497  1.00  0.00    -0.402 OA 
HETATM    2  C   UNL     1     -12.022  14.942  70.555  1.00  0.00    -0.309 C  
ENDROOT
BRANCH   2   3
HETATM    3  C   UNL     1     -10.746  15.533  70.004  1.00  0.00    -0.331 C  
BRANCH   3   4
HETATM    4  C   UNL     1     -10.996  16.396  68.766  1.00  0.00    -0.344 C  
BRANCH   4   5
HETATM    5  C   UNL     1     -10.401  17.802  68.909  1.00  0.00    -0.300 C  
BRANCH   5   6
HETATM    6  C   UNL     1      -9.298  18.053  67.912  1.00  0.00    -0.264 A  
HETATM    7  C   UNL     1      -8.843  17.017  67.084  1.00  0.00    -0.232 A  
HETATM    8  C   UNL     1      -7.234  18.507  66.069  1.00  0.00    -0.290 A  
HETATM    9  C   UNL     1      -7.818  17.245  66.165  1.00  0.00    -0.305 A  
HETATM   10  C   UNL     1      -8.701  19.316  67.811  1.00  0.00    -0.345 A  
HETATM   11  C   UNL     1      -7.675  19.542  66.892  1.00  0.00    -0.276 A  
ENDBRANCH   5   6
ENDBRANCH   4   5
ENDBRANCH   3   4
ENDBRANCH   2   3
BRANCH   2  12
HETATM   12  O   UNL     1     -11.779  13.726  71.118  1.00  0.00    -0.057 OA 
BRANCH  12  13
HETATM   13  C   UNL     1     -12.588  12.629  70.653  1.00  0.00    -0.160 C  
BRANCH  13  14
HETATM   14  C   UNL     1     -11.762  11.723  69.734  1.00  0.00    -0.335 C  
BRANCH  14  15
HETATM   15  O   UNL     1     -12.272  11.832  68.389  1.00  0.00    -0.467 OA 
BRANCH  15  16
HETATM   16  C   UNL     1     -11.398  12.292  67.454  1.00  0.00    -0.325 C  
HETATM   17  O   UNL     1     -10.907  13.410  67.427  1.00  0.00    -0.263 OA 
BRANCH  16  18
HETATM   18  C   UNL     1     -11.138  11.222  66.424  1.00  0.00    -0.257 C  
BRANCH  18  19
HETATM   19  C   UNL     1      -9.790  10.543  66.640  1.00  0.00    -0.246 C  
BRANCH  19  20
HETATM   20  C   UNL     1      -9.795   9.061  66.246  1.00  0.00    -0.361 C  
BRANCH  20  21
HETATM   21  C   UNL     1      -8.456   8.446  66.564  1.00  0.00    -0.116 A  
HETATM   22  C   UNL     1      -6.079   7.093  67.160  1.00  0.00    -0.041 A  
HETATM   23  C   UNL     1      -8.057   8.268  67.895  1.00  0.00    -0.127 A  
HETATM   24  C   UNL     1      -7.641   7.958  65.535  1.00  0.00    -0.083 A  
HETATM   25  C   UNL     1      -6.871   7.594  68.190  1.00  0.00    -0.064 A  
HETATM   26  C   UNL     1      -6.457   7.283  65.832  1.00  0.00    -0.045 A  
ENDBRANCH  20  21
ENDBRANCH  19  20
ENDBRANCH  18  19
ENDBRANCH  16  18
ENDBRANCH  15  16
ENDBRANCH  14  15
BRANCH  14  27
HETATM   27  C   UNL     1     -11.876  10.254  70.159  1.00  0.00    -0.263 C  
BRANCH  27  28
HETATM   28  O   UNL     1     -12.216  10.134  71.547  1.00  0.00    -0.373 OA 
BRANCH  28  29
HETATM   29  C   UNL     1     -12.062   8.883  72.066  1.00  0.00    -0.371 C  
HETATM   30  O   UNL     1     -12.748   8.407  72.959  1.00  0.00    -0.172 OA 
BRANCH  29  31
HETATM   31  C   UNL     1     -10.931   8.168  71.370  1.00  0.00    -0.282 C  
BRANCH  31  32
HETATM   32  C   UNL     1     -11.321   6.751  70.964  1.00  0.00    -0.356 C  
BRANCH  32  33
HETATM   33  C   UNL     1     -10.119   5.904  70.528  1.00  0.00    -0.254 C  
BRANCH  33  34
HETATM   34  C   UNL     1     -10.221   5.569  69.062  1.00  0.00    -0.298 A  
HETATM   35  C   UNL     1     -10.281   5.076  66.305  1.00  0.00    -0.306 A  
HETATM   36  C   UNL     1      -9.355   4.627  68.491  1.00  0.00    -0.190 A  
HETATM   37  C   UNL     1      -9.386   4.382  67.119  1.00  0.00    -0.173 A  
HETATM   38  C   UNL     1     -11.155   6.006  66.867  1.00  0.00    -0.253 A  
HETATM   39  C   UNL     1     -11.126   6.252  68.239  1.00  0.00    -0.364 A  
ENDBRANCH  33  34
ENDBRANCH  32  33
ENDBRANCH  31  32
ENDBRANCH  29  31
ENDBRANCH  28  29
ENDBRANCH  27  28
ENDBRANCH  14  27
ENDBRANCH  13  14
ENDBRANCH  12  13
ENDBRANCH   2  12
TORSDOF 20
ENDMDL
MODEL      229
REMARK 921   NORMALIZED FREE ENERGY PREDICTED BY IDOCK:   -4.20 KCAL/MOL
REMARK 922        TOTAL FREE ENERGY PREDICTED BY IDOCK:  -13.78 KCAL/MOL
REMARK 923 INTER-LIGAND FREE ENERGY PREDICTED BY IDOCK:  -10.18 KCAL/MOL
REMARK 924 INTRA-LIGAND FREE ENERGY PREDICTED BY IDOCK:   -3.60 KCAL/MOL
REMARK 927      BINDING AFFINITY PREDICTED BY RF-SCORE:    0.00 PKD
ROOT
HETATM    1  O   UNL     1      -7.623  12.942  68.411  1.00  0.00    -0.122 OA 
HETATM    2  C   UNL     1      -8.393  13.890  68.345  1.00  0.00    -0.157 C  
ENDROOT
BRANCH   2   3
HETATM    3  C   UNL     1      -8.268  15.145  69.176  1.00  0.00    -0.214 C  
BRANCH   3   4
HETATM    4  C   UNL     1      -7.347  16.179  68.527  1.00  0.00    -0.161 C  
BRANCH   4   5
HETATM    5  C   UNL     1      -7.446  17.551  69.203  1.00  0.00    -0.097 C  
BRANCH   5   6
HETATM    6  C   UNL     1      -8.330  18.499  68.433  1.00  0.00    -0.355 A  
HETATM    7  C   UNL     1      -7.767  19.429  67.547  1.00  0.00    -0.289 A  
HETATM    8  C   UNL     1      -9.965  20.278  67.010  1.00  0.00    -0.601 A  
HETATM    9  C   UNL     1      -8.583  20.311  66.837  1.00  0.00    -0.370 A  
HETATM   10  C   UNL     1      -9.721  18.477  68.602  1.00  0.00    -0.398 A  
HETATM   11  C   UNL     1     -10.533  19.361  67.892  1.00  0.00    -0.536 A  
ENDBRANCH   5   6
ENDBRANCH   4   5
ENDBRANCH   3   4
ENDBRANCH   2   3
BRANCH   2  12
HETATM   12  O   UNL     1      -9.476  13.969  67.524  1.00  0.00    -0.210 OA 
BRANCH  12  13
HETATM   13  C   UNL     1     -10.737  14.276  68.150  1.00  0.00    -0.244 C  
BRANCH  13  14
HETATM   14  C   UNL     1     -11.603  13.015  68.224  1.00  0.00    -0.340 C  
BRANCH  14  15
HETATM   15  O   UNL     1     -11.289  12.302  69.439  1.00  0.00    -0.258 OA 
BRANCH  15  16
HETATM   16  C   UNL     1     -12.256  12.297  70.395  1.00  0.00    -0.288 C  
HETATM   17  O   UNL     1     -12.491  13.208  71.175  1.00  0.00    -0.361 OA 
BRANCH  16  18
HETATM   18  C   UNL     1     -12.988  10.979  70.378  1.00  0.00    -0.123 C  
BRANCH  18  19
HETATM   19  C   UNL     1     -12.943  10.289  71.737  1.00  0.00    -0.574 C  
BRANCH  19  20
HETATM   20  C   UNL     1     -13.321   8.804  71.668  1.00  0.00    -0.402 C  
BRANCH  20  21
HETATM   21  C   UNL     1     -12.085   7.957  71.839  1.00  0.00    -0.352 A  
HETATM   22  C   UNL     1      -9.726   6.454  71.940  1.00  0.00    -0.162 A  
HETATM   23  C   UNL     1     -12.079   6.621  71.421  1.00  0.00    -0.400 A  
HETATM   24  C   UNL     1     -10.902   8.526  72.329  1.00  0.00    -0.418 A  
HETATM   25  C   UNL     1     -10.902   5.873  71.473  1.00  0.00    -0.325 A  
HETATM   26  C   UNL     1      -9.727   7.777  72.378  1.00  0.00    -0.249 A  
ENDBRANCH  20  21
ENDBRANCH  19  20
ENDBRANCH  18  19
ENDBRANCH  16  18
ENDBRANCH  15  16
ENDBRANCH  14  15
BRANCH  14  27
HETATM   27  C   UNL     1     -11.316  12.077  67.046  1.00  0.00    -0.336 C  
BRANCH  27  28
HETATM   28  O   UNL     1     -11.697  10.726  67.345  1.00  0.00    -0.462 OA 
BRANCH  28  29
HETATM   29  C   UNL     1     -10.717   9.800  67.149  1.00  0.00    -0.202 C  
HETATM   30  O   UNL     1     -10.282   9.463  66.058  1.00  0.00    -0.269 OA 
BRANCH  29  31
HETATM   31  C   UNL     1     -10.240   9.260  68.474  1.00  0.00    -0.225 C  
BRANCH  31  32
HETATM   32  C   UNL     1      -9.956   7.764  68.407  1.00  0.00    -0.195 C  
BRANCH  32  33
HETATM   33  C   UNL     1      -8.548   7.447  67.884  1.00  0.00    -0.125 C  
BRANCH  33  34
HETATM   34  C   UNL     1      -7.540   8.378  68.506  1.00  0.00    -0.096 A  
HETATM   35  C   UNL     1      -5.535   9.979  69.630  1.00  0.00    -0.037 A  
HETATM   36  C   UNL     1      -6.796   9.252  67.702  1.00  0.00    -0.076 A  
HETATM   37  C   UNL     1      -5.798  10.049  68.263  1.00  0.00    -0.042 A  
HETATM   38  C   UNL     1      -6.279   9.122  70.439  1.00  0.00    -0.048 A  
HETATM   39  C   UNL     1      -7.277   8.325  69.881  1.00  0.00    -0.059 A  
ENDBRANCH  33  34
ENDBRANCH  32  33
ENDBRANCH  31  32
ENDBRANCH  29  31
ENDBRANCH  28  29
ENDBRANCH  27  28
ENDBRANCH  14  27
ENDBRANCH  13  14
ENDBRANCH  12  13
ENDBRANCH   2  12
TORSDOF 20
ENDMDL
MODEL      230
REMARK 921   NORMALIZED FREE ENERGY PREDICTED BY IDOCK:   -4.19 KCAL/MOL
REMARK 922        TOTAL FREE ENERGY PREDICTED BY IDOCK:  -13.77 KCAL/MOL
REMARK 923 INTER-LIGAND FREE ENERGY PREDICTED BY IDOCK:   -9.83 KCAL/MOL
REMARK 924 INTRA-LIGAND FREE ENERGY PREDICTED BY IDOCK:   -3.94 KCAL/MOL
REMARK 927      BINDING AFFINITY PREDICTED BY RF-SCORE:    0.00 PKD
ROOT
HETATM    1  O   UNL     1     -12.866  14.314  66.424  1.00  0.00    -0.191 OA 
HETATM    2  C   UNL     1     -12.027  13.562  65.947  1.00  0.00    -0.406 C  
ENDROOT
BRANCH   2   3
HETATM    3  C   UNL     1     -10.739  14.022  65.307  1.00  0.00    -0.367 C  
BRANCH   3   4
HETATM    4  C   UNL     1     -10.839  15.451  64.769  1.00  0.00    -0.385 C  
BRANCH   4   5
HETATM    5  C   UNL     1     -10.506  16.498  65.837  1.00  0.00    -0.335 C  
BRANCH   5   6
HETATM    6  C   UNL     1      -9.393  16.045  66.747  1.00  0.00    -0.260 A  
HETATM    7  C   UNL     1      -9.683  15.555  68.029  1.00  0.00    -0.207 A  
HETATM    8  C   UNL     1      -7.328  15.217  68.454  1.00  0.00    -0.115 A  
HETATM    9  C   UNL     1      -8.654  15.141  68.876  1.00  0.00    -0.200 A  
HETATM   10  C   UNL     1      -8.057  16.121  66.335  1.00  0.00    -0.305 A  
HETATM   11  C   UNL     1      -7.030  15.707  67.183  1.00  0.00    -0.169 A  
ENDBRANCH   5   6
ENDBRANCH   4   5
ENDBRANCH   3   4
ENDBRANCH   2   3
BRANCH   2  12
HETATM   12  O   UNL     1     -12.117  12.204  65.914  1.00  0.00    -0.594 OA 
BRANCH  12  13
HETATM   13  C   UNL     1     -11.130  11.475  66.668  1.00  0.00    -0.295 C  
BRANCH  13  14
HETATM   14  C   UNL     1     -11.056  12.021  68.097  1.00  0.00    -0.245 C  
BRANCH  14  15
HETATM   15  O   UNL     1      -9.742  11.759  68.632  1.00  0.00    -0.191 OA 
BRANCH  15  16
HETATM   16  C   UNL     1      -8.795  11.383  67.731  1.00  0.00    -0.143 C  
HETATM   17  O   UNL     1      -8.168  12.134  67.000  1.00  0.00    -0.173 OA 
BRANCH  16  18
HETATM   18  C   UNL     1      -8.646   9.882  67.740  1.00  0.00    -0.121 C  
BRANCH  18  19
HETATM   19  C   UNL     1      -9.091   9.277  69.067  1.00  0.00    -0.147 C  
BRANCH  19  20
HETATM   20  C   UNL     1      -8.064   9.468  70.189  1.00  0.00    -0.186 C  
BRANCH  20  21
HETATM   21  C   UNL     1      -7.531   8.127  70.624  1.00  0.00    -0.064 A  
HETATM   22  C   UNL     1      -6.766   5.556  71.425  1.00  0.00    -0.056 A  
HETATM   23  C   UNL     1      -7.460   7.801  71.985  1.00  0.00    -0.082 A  
HETATM   24  C   UNL     1      -7.194   7.158  69.670  1.00  0.00    -0.076 A  
HETATM   25  C   UNL     1      -7.077   6.519  72.381  1.00  0.00    -0.077 A  
HETATM   26  C   UNL     1      -6.815   5.877  70.070  1.00  0.00    -0.057 A  
ENDBRANCH  20  21
ENDBRANCH  19  20
ENDBRANCH  18  19
ENDBRANCH  16  18
ENDBRANCH  15  16
ENDBRANCH  14  15
BRANCH  14  27
HETATM   27  C   UNL     1     -12.077  11.328  69.007  1.00  0.00    -0.257 C  
BRANCH  27  28
HETATM   28  O   UNL     1     -12.289  12.068  70.218  1.00  0.00    -0.270 OA 
BRANCH  28  29
HETATM   29  C   UNL     1     -12.539  11.303  71.318  1.00  0.00    -0.382 C  
HETATM   30  O   UNL     1     -13.404  11.536  72.149  1.00  0.00    -0.477 OA 
BRANCH  29  31
HETATM   31  C   UNL     1     -11.600  10.124  71.354  1.00  0.00    -0.315 C  
BRANCH  31  32
HETATM   32  C   UNL     1     -12.314   8.845  71.776  1.00  0.00    -0.424 C  
BRANCH  32  33
HETATM   33  C   UNL     1     -11.402   7.879  72.545  1.00  0.00    -0.449 C  
BRANCH  33  34
HETATM   34  C   UNL     1     -11.019   6.715  71.668  1.00  0.00    -0.280 A  
HETATM   35  C   UNL     1     -10.133   4.618  70.036  1.00  0.00    -0.267 A  
HETATM   36  C   UNL     1     -10.489   5.549  72.237  1.00  0.00    -0.266 A  
HETATM   37  C   UNL     1     -10.049   4.505  71.423  1.00  0.00    -0.230 A  
HETATM   38  C   UNL     1     -10.670   5.770  69.463  1.00  0.00    -0.408 A  
HETATM   39  C   UNL     1     -11.112   6.814  70.275  1.00  0.00    -0.360 A  
ENDBRANCH  33  34
ENDBRANCH  32  33
ENDBRANCH  31  32
ENDBRANCH  29  31
ENDBRANCH  28  29
ENDBRANCH  27  28
ENDBRANCH  14  27
ENDBRANCH  13  14
ENDBRANCH  12  13
ENDBRANCH   2  12
TORSDOF 20
ENDMDL
MODEL      231
REMARK 921   NORMALIZED FREE ENERGY PREDICTED BY IDOCK:   -4.19 KCAL/MOL
REMARK 922        TOTAL FREE ENERGY PREDICTED BY IDOCK:  -13.77 KCAL/MOL
REMARK 923 INTER-LIGAND FREE ENERGY PREDICTED BY IDOCK:   -9.29 KCAL/MOL
REMARK 924 INTRA-LIGAND FREE ENERGY PREDICTED BY IDOCK:   -4.48 KCAL/MOL
REMARK 927      BINDING AFFINITY PREDICTED BY RF-SCORE:    0.00 PKD
ROOT
HETATM    1  O   UNL     1     -13.972  13.330  72.053  1.00  0.00    -0.406 OA 
HETATM    2  C   UNL     1     -12.958  13.261  71.374  1.00  0.00    -0.311 C  
ENDROOT
BRANCH   2   3
HETATM    3  C   UNL     1     -12.040  14.428  71.099  1.00  0.00    -0.410 C  
BRANCH   3   4
HETATM    4  C   UNL     1     -11.387  14.337  69.718  1.00  0.00    -0.279 C  
BRANCH   4   5
HETATM    5  C   UNL     1     -12.392  14.575  68.584  1.00  0.00    -0.040 C  
BRANCH   5   6
HETATM    6  C   UNL     1     -12.058  13.770  67.354  1.00  0.00    -0.378 A  
HETATM    7  C   UNL     1     -12.235  14.323  66.078  1.00  0.00    -0.422 A  
HETATM    8  C   UNL     1     -11.458  12.273  65.060  1.00  0.00    -0.386 A  
HETATM    9  C   UNL     1     -11.933  13.577  64.937  1.00  0.00    -0.410 A  
HETATM   10  C   UNL     1     -11.584  12.457  67.466  1.00  0.00    -0.431 A  
HETATM   11  C   UNL     1     -11.284  11.713  66.325  1.00  0.00    -0.332 A  
ENDBRANCH   5   6
ENDBRANCH   4   5
ENDBRANCH   3   4
ENDBRANCH   2   3
BRANCH   2  12
HETATM   12  O   UNL     1     -12.497  12.137  70.759  1.00  0.00    -0.347 OA 
BRANCH  12  13
HETATM   13  C   UNL     1     -12.734  10.889  71.438  1.00  0.00    -0.434 C  
BRANCH  13  14
HETATM   14  C   UNL     1     -12.024   9.750  70.700  1.00  0.00    -0.259 C  
BRANCH  14  15
HETATM   15  O   UNL     1     -11.921   8.613  71.582  1.00  0.00    -0.290 OA 
BRANCH  15  16
HETATM   16  C   UNL     1     -12.640   7.514  71.227  1.00  0.00    -0.314 C  
HETATM   17  O   UNL     1     -13.746   7.218  71.653  1.00  0.00    -0.380 OA 
BRANCH  16  18
HETATM   18  C   UNL     1     -11.858   6.685  70.240  1.00  0.00    -0.378 C  
BRANCH  18  19
HETATM   19  C   UNL     1     -10.660   6.007  70.896  1.00  0.00    -0.310 C  
BRANCH  19  20
HETATM   20  C   UNL     1     -10.248   4.707  70.193  1.00  0.00    -0.197 C  
BRANCH  20  21
HETATM   21  C   UNL     1      -8.745   4.596  70.172  1.00  0.00    -0.113 A  
HETATM   22  C   UNL     1      -5.960   4.391  70.370  1.00  0.00    -0.017 A  
HETATM   23  C   UNL     1      -7.949   5.749  70.181  1.00  0.00    -0.100 A  
HETATM   24  C   UNL     1      -8.129   3.339  70.242  1.00  0.00    -0.058 A  
HETATM   25  C   UNL     1      -6.560   5.644  70.279  1.00  0.00    -0.046 A  
HETATM   26  C   UNL     1      -6.742   3.238  70.342  1.00  0.00    -0.033 A  
ENDBRANCH  20  21
ENDBRANCH  19  20
ENDBRANCH  18  19
ENDBRANCH  16  18
ENDBRANCH  15  16
ENDBRANCH  14  15
BRANCH  14  27
HETATM   27  C   UNL     1     -10.602  10.155  70.294  1.00  0.00    -0.264 C  
BRANCH  27  28
HETATM   28  O   UNL     1      -9.653   9.125  70.607  1.00  0.00    -0.214 OA 
BRANCH  28  29
HETATM   29  C   UNL     1      -8.349   9.517  70.553  1.00  0.00    -0.163 C  
HETATM   30  O   UNL     1      -7.872  10.242  69.693  1.00  0.00    -0.153 OA 
BRANCH  29  31
HETATM   31  C   UNL     1      -7.583   8.932  71.713  1.00  0.00    -0.018 C  
BRANCH  31  32
HETATM   32  C   UNL     1      -8.515   8.435  72.813  1.00  0.00    -0.224 C  
BRANCH  32  33
HETATM   33  C   UNL     1      -7.815   7.505  73.813  1.00  0.00    -0.163 C  
BRANCH  33  34
HETATM   34  C   UNL     1      -8.588   6.219  73.958  1.00  0.00    -0.124 A  
HETATM   35  C   UNL     1      -9.989   3.836  74.409  1.00  0.00    -0.192 A  
HETATM   36  C   UNL     1      -9.947   6.249  74.301  1.00  0.00    -0.324 A  
HETATM   37  C   UNL     1     -10.643   5.062  74.525  1.00  0.00    -0.177 A  
HETATM   38  C   UNL     1      -8.641   3.797  74.057  1.00  0.00    -0.089 A  
HETATM   39  C   UNL     1      -7.943   4.983  73.831  1.00  0.00    -0.102 A  
ENDBRANCH  33  34
ENDBRANCH  32  33
ENDBRANCH  31  32
ENDBRANCH  29  31
ENDBRANCH  28  29
ENDBRANCH  27  28
ENDBRANCH  14  27
ENDBRANCH  13  14
ENDBRANCH  12  13
ENDBRANCH   2  12
TORSDOF 20
ENDMDL
MODEL      232
REMARK 921   NORMALIZED FREE ENERGY PREDICTED BY IDOCK:   -4.19 KCAL/MOL
REMARK 922        TOTAL FREE ENERGY PREDICTED BY IDOCK:  -13.77 KCAL/MOL
REMARK 923 INTER-LIGAND FREE ENERGY PREDICTED BY IDOCK:   -8.97 KCAL/MOL
REMARK 924 INTRA-LIGAND FREE ENERGY PREDICTED BY IDOCK:   -4.81 KCAL/MOL
REMARK 927      BINDING AFFINITY PREDICTED BY RF-SCORE:    0.00 PKD
ROOT
HETATM    1  O   UNL     1      -9.690  16.893  69.193  1.00  0.00    -0.245 OA 
HETATM    2  C   UNL     1      -9.312  15.738  69.330  1.00  0.00    -0.269 C  
ENDROOT
BRANCH   2   3
HETATM    3  C   UNL     1      -8.084  15.162  68.668  1.00  0.00    -0.154 C  
BRANCH   3   4
HETATM    4  C   UNL     1      -8.113  13.633  68.625  1.00  0.00    -0.071 C  
BRANCH   4   5
HETATM    5  C   UNL     1      -7.207  13.065  67.527  1.00  0.00    -0.154 C  
BRANCH   5   6
HETATM    6  C   UNL     1      -7.194  11.557  67.528  1.00  0.00    -0.111 A  
HETATM    7  C   UNL     1      -7.389  10.847  66.334  1.00  0.00    -0.141 A  
HETATM    8  C   UNL     1      -7.188   8.753  67.522  1.00  0.00    -0.080 A  
HETATM    9  C   UNL     1      -7.383   9.452  66.333  1.00  0.00    -0.093 A  
HETATM   10  C   UNL     1      -7.002  10.845  68.718  1.00  0.00    -0.078 A  
HETATM   11  C   UNL     1      -6.997   9.450  68.715  1.00  0.00    -0.064 A  
ENDBRANCH   5   6
ENDBRANCH   4   5
ENDBRANCH   3   4
ENDBRANCH   2   3
BRANCH   2  12
HETATM   12  O   UNL     1      -9.930  14.793  70.091  1.00  0.00     0.152 OA 
BRANCH  12  13
HETATM   13  C   UNL     1     -11.317  15.024  70.404  1.00  0.00    -0.270 C  
BRANCH  13  14
HETATM   14  C   UNL     1     -12.195  14.008  69.667  1.00  0.00    -0.332 C  
BRANCH  14  15
HETATM   15  O   UNL     1     -11.610  12.697  69.805  1.00  0.00    -0.274 OA 
BRANCH  15  16
HETATM   16  C   UNL     1     -12.291  11.818  70.587  1.00  0.00    -0.328 C  
HETATM   17  O   UNL     1     -12.965  12.107  71.564  1.00  0.00    -0.391 OA 
BRANCH  16  18
HETATM   18  C   UNL     1     -12.073  10.411  70.088  1.00  0.00    -0.334 C  
BRANCH  18  19
HETATM   19  C   UNL     1     -10.679  10.230  69.498  1.00  0.00    -0.280 C  
BRANCH  19  20
HETATM   20  C   UNL     1     -10.696   9.600  68.101  1.00  0.00    -0.266 C  
BRANCH  20  21
HETATM   21  C   UNL     1     -10.564   8.103  68.217  1.00  0.00    -0.153 A  
HETATM   22  C   UNL     1     -10.087   5.349  68.381  1.00  0.00    -0.235 A  
HETATM   23  C   UNL     1     -10.723   7.288  67.088  1.00  0.00    -0.413 A  
HETATM   24  C   UNL     1     -10.185   7.520  69.433  1.00  0.00    -0.204 A  
HETATM   25  C   UNL     1     -10.485   5.915  67.173  1.00  0.00    -0.335 A  
HETATM   26  C   UNL     1      -9.946   6.148  69.514  1.00  0.00    -0.207 A  
ENDBRANCH  20  21
ENDBRANCH  19  20
ENDBRANCH  18  19
ENDBRANCH  16  18
ENDBRANCH  15  16
ENDBRANCH  14  15
BRANCH  14  27
HETATM   27  C   UNL     1     -12.273  14.329  68.170  1.00  0.00    -0.129 C  
BRANCH  27  28
HETATM   28  O   UNL     1     -11.763  13.249  67.374  1.00  0.00    -0.333 OA 
BRANCH  28  29
HETATM   29  C   UNL     1     -11.000  13.634  66.312  1.00  0.00    -0.299 C  
HETATM   30  O   UNL     1     -10.150  12.940  65.774  1.00  0.00    -0.284 OA 
BRANCH  29  31
HETATM   31  C   UNL     1     -11.365  15.035  65.892  1.00  0.00    -0.273 C  
BRANCH  31  32
HETATM   32  C   UNL     1     -10.129  15.889  65.633  1.00  0.00    -0.388 C  
BRANCH  32  33
HETATM   33  C   UNL     1     -10.313  17.351  66.060  1.00  0.00    -0.309 C  
BRANCH  33  34
HETATM   34  C   UNL     1      -8.972  18.009  66.259  1.00  0.00    -0.194 A  
HETATM   35  C   UNL     1      -6.481  19.169  66.803  1.00  0.00    -0.195 A  
HETATM   36  C   UNL     1      -7.792  17.273  66.080  1.00  0.00    -0.305 A  
HETATM   37  C   UNL     1      -6.553  17.852  66.352  1.00  0.00    -0.267 A  
HETATM   38  C   UNL     1      -7.648  19.912  66.971  1.00  0.00    -0.302 A  
HETATM   39  C   UNL     1      -8.889  19.335  66.700  1.00  0.00    -0.359 A  
ENDBRANCH  33  34
ENDBRANCH  32  33
ENDBRANCH  31  32
ENDBRANCH  29  31
ENDBRANCH  28  29
ENDBRANCH  27  28
ENDBRANCH  14  27
ENDBRANCH  13  14
ENDBRANCH  12  13
ENDBRANCH   2  12
TORSDOF 20
ENDMDL
MODEL      233
REMARK 921   NORMALIZED FREE ENERGY PREDICTED BY IDOCK:   -4.19 KCAL/MOL
REMARK 922        TOTAL FREE ENERGY PREDICTED BY IDOCK:  -13.76 KCAL/MOL
REMARK 923 INTER-LIGAND FREE ENERGY PREDICTED BY IDOCK:  -11.40 KCAL/MOL
REMARK 924 INTRA-LIGAND FREE ENERGY PREDICTED BY IDOCK:   -2.37 KCAL/MOL
REMARK 927      BINDING AFFINITY PREDICTED BY RF-SCORE:    0.00 PKD
ROOT
HETATM    1  O   UNL     1     -10.923  19.752  65.170  1.00  0.00    -0.352 OA 
HETATM    2  C   UNL     1     -10.613  19.343  66.280  1.00  0.00    -0.475 C  
ENDROOT
BRANCH   2   3
HETATM    3  C   UNL     1     -10.068  20.216  67.385  1.00  0.00    -0.556 C  
BRANCH   3   4
HETATM    4  C   UNL     1      -9.163  19.439  68.343  1.00  0.00    -0.415 C  
BRANCH   4   5
HETATM    5  C   UNL     1      -7.705  19.408  67.870  1.00  0.00    -0.319 C  
BRANCH   5   6
HETATM    6  C   UNL     1      -7.014  18.123  68.249  1.00  0.00    -0.233 A  
HETATM    7  C   UNL     1      -6.592  17.910  69.569  1.00  0.00    -0.143 A  
HETATM    8  C   UNL     1      -5.710  15.744  68.959  1.00  0.00    -0.105 A  
HETATM    9  C   UNL     1      -5.946  16.724  69.922  1.00  0.00    -0.217 A  
HETATM   10  C   UNL     1      -6.768  17.134  67.289  1.00  0.00    -0.190 A  
HETATM   11  C   UNL     1      -6.121  15.950  67.643  1.00  0.00    -0.181 A  
ENDBRANCH   5   6
ENDBRANCH   4   5
ENDBRANCH   3   4
ENDBRANCH   2   3
BRANCH   2  12
HETATM   12  O   UNL     1     -10.705  18.050  66.696  1.00  0.00    -0.282 OA 
BRANCH  12  13
HETATM   13  C   UNL     1     -10.076  17.059  65.861  1.00  0.00    -0.263 C  
BRANCH  13  14
HETATM   14  C   UNL     1     -10.685  15.681  66.138  1.00  0.00    -0.303 C  
BRANCH  14  15
HETATM   15  O   UNL     1     -11.143  15.638  67.506  1.00  0.00    -0.326 OA 
BRANCH  15  16
HETATM   16  C   UNL     1     -10.271  15.120  68.412  1.00  0.00    -0.221 C  
HETATM   17  O   UNL     1      -9.422  15.750  69.025  1.00  0.00    -0.214 OA 
BRANCH  16  18
HETATM   18  C   UNL     1     -10.481  13.632  68.534  1.00  0.00    -0.249 C  
BRANCH  18  19
HETATM   19  C   UNL     1     -11.924  13.291  68.890  1.00  0.00    -0.336 C  
BRANCH  19  20
HETATM   20  C   UNL     1     -12.144  13.118  70.397  1.00  0.00    -0.392 C  
BRANCH  20  21
HETATM   21  C   UNL     1     -12.142  11.652  70.746  1.00  0.00    -0.383 A  
HETATM   22  C   UNL     1     -12.280   8.894  71.208  1.00  0.00    -0.351 A  
HETATM   23  C   UNL     1     -13.119  11.125  71.600  1.00  0.00    -0.529 A  
HETATM   24  C   UNL     1     -11.221  10.784  70.143  1.00  0.00    -0.345 A  
HETATM   25  C   UNL     1     -13.186   9.749  71.829  1.00  0.00    -0.532 A  
HETATM   26  C   UNL     1     -11.291   9.411  70.372  1.00  0.00    -0.295 A  
ENDBRANCH  20  21
ENDBRANCH  19  20
ENDBRANCH  18  19
ENDBRANCH  16  18
ENDBRANCH  15  16
ENDBRANCH  14  15
BRANCH  14  27
HETATM   27  C   UNL     1      -9.643  14.570  65.960  1.00  0.00    -0.275 C  
BRANCH  27  28
HETATM   28  O   UNL     1      -9.991  13.693  64.880  1.00  0.00    -0.281 OA 
BRANCH  28  29
HETATM   29  C   UNL     1     -10.554  12.512  65.262  1.00  0.00    -0.290 C  
HETATM   30  O   UNL     1     -11.752  12.330  65.424  1.00  0.00    -0.369 OA 
BRANCH  29  31
HETATM   31  C   UNL     1      -9.487  11.464  65.448  1.00  0.00    -0.240 C  
BRANCH  31  32
HETATM   32  C   UNL     1     -10.063  10.053  65.394  1.00  0.00    -0.317 C  
BRANCH  32  33
HETATM   33  C   UNL     1     -10.757   9.641  66.699  1.00  0.00    -0.102 C  
BRANCH  33  34
HETATM   34  C   UNL     1     -10.174   8.351  67.214  1.00  0.00    -0.349 A  
HETATM   35  C   UNL     1      -9.048   5.908  67.997  1.00  0.00    -0.117 A  
HETATM   36  C   UNL     1      -8.805   8.260  67.500  1.00  0.00    -0.138 A  
HETATM   37  C   UNL     1      -8.246   7.043  67.890  1.00  0.00    -0.115 A  
HETATM   38  C   UNL     1     -10.413   5.993  67.726  1.00  0.00    -0.300 A  
HETATM   39  C   UNL     1     -10.975   7.208  67.337  1.00  0.00    -0.296 A  
ENDBRANCH  33  34
ENDBRANCH  32  33
ENDBRANCH  31  32
ENDBRANCH  29  31
ENDBRANCH  28  29
ENDBRANCH  27  28
ENDBRANCH  14  27
ENDBRANCH  13  14
ENDBRANCH  12  13
ENDBRANCH   2  12
TORSDOF 20
ENDMDL
MODEL      234
REMARK 921   NORMALIZED FREE ENERGY PREDICTED BY IDOCK:   -4.16 KCAL/MOL
REMARK 922        TOTAL FREE ENERGY PREDICTED BY IDOCK:  -13.70 KCAL/MOL
REMARK 923 INTER-LIGAND FREE ENERGY PREDICTED BY IDOCK:  -10.06 KCAL/MOL
REMARK 924 INTRA-LIGAND FREE ENERGY PREDICTED BY IDOCK:   -3.63 KCAL/MOL
REMARK 927      BINDING AFFINITY PREDICTED BY RF-SCORE:    0.00 PKD
ROOT
HETATM    1  O   UNL     1     -12.636  12.808  66.015  1.00  0.00    -0.473 OA 
HETATM    2  C   UNL     1     -11.837  12.572  66.911  1.00  0.00    -0.334 C  
ENDROOT
BRANCH   2   3
HETATM    3  C   UNL     1     -10.725  13.506  67.324  1.00  0.00    -0.272 C  
BRANCH   3   4
HETATM    4  C   UNL     1     -11.174  14.968  67.341  1.00  0.00    -0.337 C  
BRANCH   4   5
HETATM    5  C   UNL     1     -10.290  15.857  66.458  1.00  0.00    -0.304 C  
BRANCH   5   6
HETATM    6  C   UNL     1     -10.303  17.295  66.910  1.00  0.00    -0.310 A  
HETATM    7  C   UNL     1     -10.328  17.607  68.277  1.00  0.00    -0.384 A  
HETATM    8  C   UNL     1     -10.346  19.968  67.759  1.00  0.00    -0.506 A  
HETATM    9  C   UNL     1     -10.347  18.937  68.698  1.00  0.00    -0.267 A  
HETATM   10  C   UNL     1     -10.307  18.338  65.975  1.00  0.00    -0.377 A  
HETATM   11  C   UNL     1     -10.326  19.667  66.398  1.00  0.00    -0.609 A  
ENDBRANCH   5   6
ENDBRANCH   4   5
ENDBRANCH   3   4
ENDBRANCH   2   3
BRANCH   2  12
HETATM   12  O   UNL     1     -11.818  11.442  67.671  1.00  0.00    -0.609 OA 
BRANCH  12  13
HETATM   13  C   UNL     1     -12.077  11.609  69.078  1.00  0.00    -0.225 C  
BRANCH  13  14
HETATM   14  C   UNL     1     -10.981  10.919  69.895  1.00  0.00    -0.199 C  
BRANCH  14  15
HETATM   15  O   UNL     1     -10.371   9.891  69.087  1.00  0.00    -0.187 OA 
BRANCH  15  16
HETATM   16  C   UNL     1      -9.015   9.803  69.156  1.00  0.00    -0.161 C  
HETATM   17  O   UNL     1      -8.357   9.734  70.183  1.00  0.00    -0.181 OA 
BRANCH  16  18
HETATM   18  C   UNL     1      -8.428   9.831  67.767  1.00  0.00    -0.121 C  
BRANCH  18  19
HETATM   19  C   UNL     1      -8.118  11.253  67.312  1.00  0.00    -0.140 C  
BRANCH  19  20
HETATM   20  C   UNL     1      -6.722  11.726  67.732  1.00  0.00    -0.082 C  
BRANCH  20  21
HETATM   21  C   UNL     1      -6.817  13.091  68.365  1.00  0.00    -0.097 A  
HETATM   22  C   UNL     1      -6.765  15.657  69.482  1.00  0.00    -0.185 A  
HETATM   23  C   UNL     1      -6.494  13.269  69.717  1.00  0.00    -0.020 A  
HETATM   24  C   UNL     1      -7.134  14.210  67.585  1.00  0.00    -0.199 A  
HETATM   25  C   UNL     1      -6.470  14.549  70.272  1.00  0.00    -0.144 A  
HETATM   26  C   UNL     1      -7.107  15.489  68.141  1.00  0.00    -0.126 A  
ENDBRANCH  20  21
ENDBRANCH  19  20
ENDBRANCH  18  19
ENDBRANCH  16  18
ENDBRANCH  15  16
ENDBRANCH  14  15
BRANCH  14  27
HETATM   27  C   UNL     1     -11.563  10.246  71.144  1.00  0.00    -0.300 C  
BRANCH  27  28
HETATM   28  O   UNL     1     -12.121   8.960  70.835  1.00  0.00    -0.270 OA 
BRANCH  28  29
HETATM   29  C   UNL     1     -11.793   7.971  71.713  1.00  0.00    -0.296 C  
HETATM   30  O   UNL     1     -11.289   8.150  72.812  1.00  0.00    -0.397 OA 
BRANCH  29  31
HETATM   31  C   UNL     1     -12.151   6.625  71.136  1.00  0.00    -0.391 C  
BRANCH  31  32
HETATM   32  C   UNL     1     -11.373   6.332  69.858  1.00  0.00    -0.504 C  
BRANCH  32  33
HETATM   33  C   UNL     1      -9.853   6.337  70.070  1.00  0.00    -0.200 C  
BRANCH  33  34
HETATM   34  C   UNL     1      -9.178   5.486  69.026  1.00  0.00    -0.143 A  
HETATM   35  C   UNL     1      -8.068   3.935  66.974  1.00  0.00    -0.096 A  
HETATM   36  C   UNL     1      -8.367   6.079  68.049  1.00  0.00    -0.116 A  
HETATM   37  C   UNL     1      -7.814   5.306  67.028  1.00  0.00    -0.100 A  
HETATM   38  C   UNL     1      -8.863   3.336  67.949  1.00  0.00    -0.156 A  
HETATM   39  C   UNL     1      -9.416   4.106  68.971  1.00  0.00    -0.244 A  
ENDBRANCH  33  34
ENDBRANCH  32  33
ENDBRANCH  31  32
ENDBRANCH  29  31
ENDBRANCH  28  29
ENDBRANCH  27  28
ENDBRANCH  14  27
ENDBRANCH  13  14
ENDBRANCH  12  13
ENDBRANCH   2  12
TORSDOF 20
ENDMDL
MODEL      235
REMARK 921   NORMALIZED FREE ENERGY PREDICTED BY IDOCK:   -4.15 KCAL/MOL
REMARK 922        TOTAL FREE ENERGY PREDICTED BY IDOCK:  -13.68 KCAL/MOL
REMARK 923 INTER-LIGAND FREE ENERGY PREDICTED BY IDOCK:  -10.35 KCAL/MOL
REMARK 924 INTRA-LIGAND FREE ENERGY PREDICTED BY IDOCK:   -3.33 KCAL/MOL
REMARK 927      BINDING AFFINITY PREDICTED BY RF-SCORE:    0.00 PKD
ROOT
HETATM    1  O   UNL     1      -5.736   3.423  69.949  1.00  0.00    -0.016 OA 
HETATM    2  C   UNL     1      -6.559   4.321  69.847  1.00  0.00    -0.033 C  
ENDROOT
BRANCH   2   3
HETATM    3  C   UNL     1      -7.462   4.777  70.968  1.00  0.00    -0.068 C  
BRANCH   3   4
HETATM    4  C   UNL     1      -8.481   3.706  71.362  1.00  0.00    -0.095 C  
BRANCH   4   5
HETATM    5  C   UNL     1      -9.166   4.018  72.697  1.00  0.00    -0.138 C  
BRANCH   5   6
HETATM    6  C   UNL     1      -9.961   5.298  72.641  1.00  0.00    -0.197 A  
HETATM    7  C   UNL     1      -9.531   6.430  73.347  1.00  0.00    -0.151 A  
HETATM    8  C   UNL     1     -11.444   7.676  72.556  1.00  0.00    -0.405 A  
HETATM    9  C   UNL     1     -10.268   7.614  73.302  1.00  0.00    -0.398 A  
HETATM   10  C   UNL     1     -11.146   5.370  71.897  1.00  0.00    -0.179 A  
HETATM   11  C   UNL     1     -11.882   6.555  71.854  1.00  0.00    -0.381 A  
ENDBRANCH   5   6
ENDBRANCH   4   5
ENDBRANCH   3   4
ENDBRANCH   2   3
BRANCH   2  12
HETATM   12  O   UNL     1      -6.797   5.047  68.720  1.00  0.00    -0.049 OA 
BRANCH  12  13
HETATM   13  C   UNL     1      -8.161   5.091  68.258  1.00  0.00    -0.086 C  
BRANCH  13  14
HETATM   14  C   UNL     1      -8.553   6.533  67.926  1.00  0.00    -0.117 C  
BRANCH  14  15
HETATM   15  O   UNL     1      -7.358   7.337  67.845  1.00  0.00    -0.091 OA 
BRANCH  15  16
HETATM   16  C   UNL     1      -7.391   8.369  66.961  1.00  0.00    -0.084 C  
HETATM   17  O   UNL     1      -6.714   9.384  67.024  1.00  0.00    -0.074 OA 
BRANCH  16  18
HETATM   18  C   UNL     1      -8.417   8.096  65.890  1.00  0.00    -0.153 C  
BRANCH  18  19
HETATM   19  C   UNL     1      -9.491   9.177  65.845  1.00  0.00    -0.326 C  
BRANCH  19  20
HETATM   20  C   UNL     1      -9.244  10.222  64.750  1.00  0.00    -0.287 C  
BRANCH  20  21
HETATM   21  C   UNL     1     -10.404  11.182  64.694  1.00  0.00    -0.393 A  
HETATM   22  C   UNL     1     -12.401  13.143  64.600  1.00  0.00    -0.463 A  
HETATM   23  C   UNL     1     -11.003  11.641  65.874  1.00  0.00    -0.334 A  
HETATM   24  C   UNL     1     -10.832  11.701  63.464  1.00  0.00    -0.497 A  
HETATM   25  C   UNL     1     -11.998  12.618  65.825  1.00  0.00    -0.503 A  
HETATM   26  C   UNL     1     -11.826  12.678  63.418  1.00  0.00    -0.594 A  
ENDBRANCH  20  21
ENDBRANCH  19  20
ENDBRANCH  18  19
ENDBRANCH  16  18
ENDBRANCH  15  16
ENDBRANCH  14  15
BRANCH  14  27
HETATM   27  C   UNL     1      -9.443   7.130  69.024  1.00  0.00    -0.143 C  
BRANCH  27  28
HETATM   28  O   UNL     1      -8.659   7.711  70.076  1.00  0.00    -0.135 OA 
BRANCH  28  29
HETATM   29  C   UNL     1      -8.799   9.060  70.212  1.00  0.00    -0.189 C  
HETATM   30  O   UNL     1      -8.068   9.775  70.882  1.00  0.00    -0.252 OA 
BRANCH  29  31
HETATM   31  C   UNL     1      -9.979   9.544  69.408  1.00  0.00    -0.199 C  
BRANCH  31  32
HETATM   32  C   UNL     1     -10.976  10.311  70.270  1.00  0.00    -0.375 C  
BRANCH  32  33
HETATM   33  C   UNL     1     -11.889  11.232  69.450  1.00  0.00    -0.424 C  
BRANCH  33  34
HETATM   34  C   UNL     1     -12.339  12.400  70.288  1.00  0.00    -0.264 A  
HETATM   35  C   UNL     1     -13.011  14.567  71.931  1.00  0.00    -0.415 A  
HETATM   36  C   UNL     1     -12.035  13.710  69.894  1.00  0.00    -0.415 A  
HETATM   37  C   UNL     1     -12.371  14.788  70.712  1.00  0.00    -0.397 A  
HETATM   38  C   UNL     1     -13.328  13.268  72.325  1.00  0.00    -0.630 A  
HETATM   39  C   UNL     1     -12.995  12.188  71.508  1.00  0.00    -0.398 A  
ENDBRANCH  33  34
ENDBRANCH  32  33
ENDBRANCH  31  32
ENDBRANCH  29  31
ENDBRANCH  28  29
ENDBRANCH  27  28
ENDBRANCH  14  27
ENDBRANCH  13  14
ENDBRANCH  12  13
ENDBRANCH   2  12
TORSDOF 20
ENDMDL
MODEL      236
REMARK 921   NORMALIZED FREE ENERGY PREDICTED BY IDOCK:   -4.14 KCAL/MOL
REMARK 922        TOTAL FREE ENERGY PREDICTED BY IDOCK:  -13.67 KCAL/MOL
REMARK 923 INTER-LIGAND FREE ENERGY PREDICTED BY IDOCK:   -9.63 KCAL/MOL
REMARK 924 INTRA-LIGAND FREE ENERGY PREDICTED BY IDOCK:   -4.03 KCAL/MOL
REMARK 927      BINDING AFFINITY PREDICTED BY RF-SCORE:    0.00 PKD
ROOT
HETATM    1  O   UNL     1     -11.090   8.922  69.831  1.00  0.00    -0.226 OA 
HETATM    2  C   UNL     1     -11.443   8.789  70.995  1.00  0.00    -0.285 C  
ENDROOT
BRANCH   2   3
HETATM    3  C   UNL     1     -12.402   9.715  71.703  1.00  0.00    -0.489 C  
BRANCH   3   4
HETATM    4  C   UNL     1     -12.412  11.116  71.088  1.00  0.00    -0.498 C  
BRANCH   4   5
HETATM    5  C   UNL     1     -13.404  12.051  71.790  1.00  0.00    -0.338 C  
BRANCH   5   6
HETATM    6  C   UNL     1     -12.880  13.462  71.887  1.00  0.00    -0.354 A  
HETATM    7  C   UNL     1     -13.073  14.209  73.058  1.00  0.00    -0.458 A  
HETATM    8  C   UNL     1     -11.927  16.093  72.069  1.00  0.00    -0.607 A  
HETATM    9  C   UNL     1     -12.595  15.517  73.148  1.00  0.00    -0.582 A  
HETATM   10  C   UNL     1     -12.211  14.051  70.807  1.00  0.00    -0.438 A  
HETATM   11  C   UNL     1     -11.735  15.359  70.899  1.00  0.00    -0.395 A  
ENDBRANCH   5   6
ENDBRANCH   4   5
ENDBRANCH   3   4
ENDBRANCH   2   3
BRANCH   2  12
HETATM   12  O   UNL     1     -11.033   7.797  71.833  1.00  0.00    -0.234 OA 
BRANCH  12  13
HETATM   13  C   UNL     1     -10.251   8.200  72.973  1.00  0.00    -0.203 C  
BRANCH  13  14
HETATM   14  C   UNL     1      -8.893   7.491  72.952  1.00  0.00    -0.143 C  
BRANCH  14  15
HETATM   15  O   UNL     1      -8.214   7.817  71.722  1.00  0.00    -0.102 OA 
BRANCH  15  16
HETATM   16  C   UNL     1      -7.135   8.637  71.834  1.00  0.00    -0.068 C  
HETATM   17  O   UNL     1      -6.590   8.958  72.879  1.00  0.00    -0.296 OA 
BRANCH  16  18
HETATM   18  C   UNL     1      -6.718   9.126  70.470  1.00  0.00    -0.069 C  
BRANCH  18  19
HETATM   19  C   UNL     1      -7.714   8.714  69.391  1.00  0.00    -0.091 C  
BRANCH  19  20
HETATM   20  C   UNL     1      -7.545   9.501  68.087  1.00  0.00    -0.079 C  
BRANCH  20  21
HETATM   21  C   UNL     1      -8.811  10.260  67.784  1.00  0.00    -0.125 A  
HETATM   22  C   UNL     1     -11.037  11.799  67.065  1.00  0.00    -0.358 A  
HETATM   23  C   UNL     1      -9.125  11.426  68.493  1.00  0.00    -0.169 A  
HETATM   24  C   UNL     1      -9.636   9.862  66.724  1.00  0.00    -0.231 A  
HETATM   25  C   UNL     1     -10.236  12.191  68.134  1.00  0.00    -0.203 A  
HETATM   26  C   UNL     1     -10.744  10.629  66.365  1.00  0.00    -0.198 A  
ENDBRANCH  20  21
ENDBRANCH  19  20
ENDBRANCH  18  19
ENDBRANCH  16  18
ENDBRANCH  15  16
ENDBRANCH  14  15
BRANCH  14  27
HETATM   27  C   UNL     1      -9.064   5.968  73.001  1.00  0.00    -0.130 C  
BRANCH  27  28
HETATM   28  O   UNL     1      -8.747   5.364  71.739  1.00  0.00    -0.133 OA 
BRANCH  28  29
HETATM   29  C   UNL     1      -9.673   4.472  71.285  1.00  0.00    -0.182 C  
HETATM   30  O   UNL     1      -9.837   3.346  71.732  1.00  0.00    -0.161 OA 
BRANCH  29  31
HETATM   31  C   UNL     1     -10.471   5.081  70.160  1.00  0.00    -0.235 C  
BRANCH  31  32
HETATM   32  C   UNL     1      -9.573   5.759  69.131  1.00  0.00    -0.171 C  
BRANCH  32  33
HETATM   33  C   UNL     1     -10.358   6.365  67.960  1.00  0.00    -0.234 C  
BRANCH  33  34
HETATM   34  C   UNL     1      -9.847   5.819  66.652  1.00  0.00    -0.194 A  
HETATM   35  C   UNL     1      -8.782   4.695  64.318  1.00  0.00    -0.148 A  
HETATM   36  C   UNL     1     -10.406   4.655  66.107  1.00  0.00    -0.310 A  
HETATM   37  C   UNL     1      -9.875   4.096  64.944  1.00  0.00    -0.202 A  
HETATM   38  C   UNL     1      -8.228   5.859  64.847  1.00  0.00    -0.135 A  
HETATM   39  C   UNL     1      -8.758   6.420  66.008  1.00  0.00    -0.157 A  
ENDBRANCH  33  34
ENDBRANCH  32  33
ENDBRANCH  31  32
ENDBRANCH  29  31
ENDBRANCH  28  29
ENDBRANCH  27  28
ENDBRANCH  14  27
ENDBRANCH  13  14
ENDBRANCH  12  13
ENDBRANCH   2  12
TORSDOF 20
ENDMDL
MODEL      237
REMARK 921   NORMALIZED FREE ENERGY PREDICTED BY IDOCK:   -4.13 KCAL/MOL
REMARK 922        TOTAL FREE ENERGY PREDICTED BY IDOCK:  -13.65 KCAL/MOL
REMARK 923 INTER-LIGAND FREE ENERGY PREDICTED BY IDOCK:   -9.19 KCAL/MOL
REMARK 924 INTRA-LIGAND FREE ENERGY PREDICTED BY IDOCK:   -4.46 KCAL/MOL
REMARK 927      BINDING AFFINITY PREDICTED BY RF-SCORE:    0.00 PKD
ROOT
HETATM    1  O   UNL     1     -10.630  16.955  69.369  1.00  0.00    -0.337 OA 
HETATM    2  C   UNL     1      -9.944  15.944  69.421  1.00  0.00    -0.274 C  
ENDROOT
BRANCH   2   3
HETATM    3  C   UNL     1      -8.529  15.850  68.903  1.00  0.00    -0.220 C  
BRANCH   3   4
HETATM    4  C   UNL     1      -7.754  14.696  69.542  1.00  0.00    -0.004 C  
BRANCH   4   5
HETATM    5  C   UNL     1      -6.838  13.986  68.539  1.00  0.00    -0.104 C  
BRANCH   5   6
HETATM    6  C   UNL     1      -6.588  12.548  68.920  1.00  0.00    -0.095 A  
HETATM    7  C   UNL     1      -7.022  11.509  68.084  1.00  0.00    -0.070 A  
HETATM    8  C   UNL     1      -6.143   9.872  69.628  1.00  0.00    -0.042 A  
HETATM    9  C   UNL     1      -6.798  10.178  68.437  1.00  0.00    -0.061 A  
HETATM   10  C   UNL     1      -5.934  12.229  70.117  1.00  0.00    -0.148 A  
HETATM   11  C   UNL     1      -5.712  10.898  70.468  1.00  0.00    -0.129 A  
ENDBRANCH   5   6
ENDBRANCH   4   5
ENDBRANCH   3   4
ENDBRANCH   2   3
BRANCH   2  12
HETATM   12  O   UNL     1     -10.338  14.751  69.946  1.00  0.00    -0.101 OA 
BRANCH  12  13
HETATM   13  C   UNL     1     -11.753  14.574  70.150  1.00  0.00    -0.297 C  
BRANCH  13  14
HETATM   14  C   UNL     1     -12.264  13.416  69.288  1.00  0.00    -0.176 C  
BRANCH  14  15
HETATM   15  O   UNL     1     -11.406  12.273  69.483  1.00  0.00    -0.246 OA 
BRANCH  15  16
HETATM   16  C   UNL     1     -11.862  11.323  70.342  1.00  0.00    -0.350 C  
HETATM   17  O   UNL     1     -12.757  11.473  71.161  1.00  0.00    -0.393 OA 
BRANCH  16  18
HETATM   18  C   UNL     1     -11.077  10.048  70.162  1.00  0.00    -0.371 C  
BRANCH  18  19
HETATM   19  C   UNL     1     -10.321  10.031  68.838  1.00  0.00    -0.217 C  
BRANCH  19  20
HETATM   20  C   UNL     1     -10.896   9.026  67.833  1.00  0.00    -0.118 C  
BRANCH  20  21
HETATM   21  C   UNL     1      -9.961   8.890  66.659  1.00  0.00    -0.346 A  
HETATM   22  C   UNL     1      -8.059   8.749  64.609  1.00  0.00    -0.157 A  
HETATM   23  C   UNL     1      -9.879   9.906  65.697  1.00  0.00    -0.368 A  
HETATM   24  C   UNL     1      -9.094   7.793  66.569  1.00  0.00    -0.208 A  
HETATM   25  C   UNL     1      -8.930   9.833  64.676  1.00  0.00    -0.270 A  
HETATM   26  C   UNL     1      -8.146   7.724  65.549  1.00  0.00    -0.128 A  
ENDBRANCH  20  21
ENDBRANCH  19  20
ENDBRANCH  18  19
ENDBRANCH  16  18
ENDBRANCH  15  16
ENDBRANCH  14  15
BRANCH  14  27
HETATM   27  C   UNL     1     -12.227  13.778  67.798  1.00  0.00    -0.173 C  
BRANCH  27  28
HETATM   28  O   UNL     1     -11.338  12.919  67.071  1.00  0.00    -0.279 OA 
BRANCH  28  29
HETATM   29  C   UNL     1     -10.394  13.568  66.333  1.00  0.00    -0.289 C  
HETATM   30  O   UNL     1      -9.210  13.265  66.289  1.00  0.00    -0.179 OA 
BRANCH  29  31
HETATM   31  C   UNL     1     -11.024  14.707  65.571  1.00  0.00    -0.344 C  
BRANCH  31  32
HETATM   32  C   UNL     1     -10.092  15.910  65.479  1.00  0.00    -0.353 C  
BRANCH  32  33
HETATM   33  C   UNL     1     -10.839  17.249  65.537  1.00  0.00    -0.024 C  
BRANCH  33  34
HETATM   34  C   UNL     1     -10.022  18.270  66.286  1.00  0.00    -0.361 A  
HETATM   35  C   UNL     1      -8.523  20.063  67.830  1.00  0.00    -0.301 A  
HETATM   36  C   UNL     1      -8.639  18.095  66.432  1.00  0.00    -0.251 A  
HETATM   37  C   UNL     1      -7.893  18.989  67.201  1.00  0.00    -0.262 A  
HETATM   38  C   UNL     1      -9.896  20.250  67.680  1.00  0.00    -0.563 A  
HETATM   39  C   UNL     1     -10.643  19.359  66.911  1.00  0.00    -0.581 A  
ENDBRANCH  33  34
ENDBRANCH  32  33
ENDBRANCH  31  32
ENDBRANCH  29  31
ENDBRANCH  28  29
ENDBRANCH  27  28
ENDBRANCH  14  27
ENDBRANCH  13  14
ENDBRANCH  12  13
ENDBRANCH   2  12
TORSDOF 20
ENDMDL
MODEL      238
REMARK 921   NORMALIZED FREE ENERGY PREDICTED BY IDOCK:   -4.11 KCAL/MOL
REMARK 922        TOTAL FREE ENERGY PREDICTED BY IDOCK:  -13.60 KCAL/MOL
REMARK 923 INTER-LIGAND FREE ENERGY PREDICTED BY IDOCK:  -10.68 KCAL/MOL
REMARK 924 INTRA-LIGAND FREE ENERGY PREDICTED BY IDOCK:   -2.92 KCAL/MOL
REMARK 927      BINDING AFFINITY PREDICTED BY RF-SCORE:    0.00 PKD
ROOT
HETATM    1  O   UNL     1     -11.858  10.911  67.499  1.00  0.00    -0.524 OA 
HETATM    2  C   UNL     1     -10.685  10.885  67.152  1.00  0.00    -0.270 C  
ENDROOT
BRANCH   2   3
HETATM    3  C   UNL     1      -9.868  12.112  66.827  1.00  0.00    -0.218 C  
BRANCH   3   4
HETATM    4  C   UNL     1     -10.144  13.265  67.794  1.00  0.00    -0.229 C  
BRANCH   4   5
HETATM    5  C   UNL     1     -11.016  14.356  67.164  1.00  0.00    -0.305 C  
BRANCH   5   6
HETATM    6  C   UNL     1     -10.459  15.736  67.405  1.00  0.00    -0.297 A  
HETATM    7  C   UNL     1     -10.607  16.738  66.436  1.00  0.00    -0.192 A  
HETATM    8  C   UNL     1      -9.409  18.300  67.838  1.00  0.00    -0.284 A  
HETATM    9  C   UNL     1     -10.087  18.015  66.654  1.00  0.00    -0.372 A  
HETATM   10  C   UNL     1      -9.773  16.033  68.590  1.00  0.00    -0.217 A  
HETATM   11  C   UNL     1      -9.253  17.309  68.805  1.00  0.00    -0.238 A  
ENDBRANCH   5   6
ENDBRANCH   4   5
ENDBRANCH   3   4
ENDBRANCH   2   3
BRANCH   2  12
HETATM   12  O   UNL     1      -9.934   9.759  67.002  1.00  0.00    -0.181 OA 
BRANCH  12  13
HETATM   13  C   UNL     1     -10.491   8.539  67.526  1.00  0.00    -0.258 C  
BRANCH  13  14
HETATM   14  C   UNL     1      -9.610   8.007  68.661  1.00  0.00    -0.148 C  
BRANCH  14  15
HETATM   15  O   UNL     1      -9.095   6.713  68.285  1.00  0.00    -0.125 OA 
BRANCH  15  16
HETATM   16  C   UNL     1      -8.003   6.717  67.475  1.00  0.00    -0.115 C  
HETATM   17  O   UNL     1      -7.182   7.618  67.390  1.00  0.00    -0.082 OA 
BRANCH  16  18
HETATM   18  C   UNL     1      -7.962   5.448  66.662  1.00  0.00    -0.105 C  
BRANCH  18  19
HETATM   19  C   UNL     1      -9.330   4.777  66.591  1.00  0.00    -0.146 C  
BRANCH  19  20
HETATM   20  C   UNL     1      -9.294   3.297  66.990  1.00  0.00    -0.198 C  
BRANCH  20  21
HETATM   21  C   UNL     1      -8.943   3.174  68.451  1.00  0.00    -0.188 A  
HETATM   22  C   UNL     1      -8.421   2.745  71.167  1.00  0.00    -0.095 A  
HETATM   23  C   UNL     1      -9.770   3.741  69.428  1.00  0.00    -0.131 A  
HETATM   24  C   UNL     1      -7.839   2.407  68.849  1.00  0.00    -0.055 A  
HETATM   25  C   UNL     1      -9.507   3.527  70.782  1.00  0.00    -0.240 A  
HETATM   26  C   UNL     1      -7.581   2.193  70.202  1.00  0.00    -0.042 A  
ENDBRANCH  20  21
ENDBRANCH  19  20
ENDBRANCH  18  19
ENDBRANCH  16  18
ENDBRANCH  15  16
ENDBRANCH  14  15
BRANCH  14  27
HETATM   27  C   UNL     1     -10.418   7.831  69.952  1.00  0.00    -0.232 C  
BRANCH  27  28
HETATM   28  O   UNL     1     -11.012   9.068  70.373  1.00  0.00    -0.234 OA 
BRANCH  28  29
HETATM   29  C   UNL     1     -11.915   8.951  71.386  1.00  0.00    -0.311 C  
HETATM   30  O   UNL     1     -11.749   8.284  72.397  1.00  0.00    -0.362 OA 
BRANCH  29  31
HETATM   31  C   UNL     1     -13.144   9.770  71.083  1.00  0.00    -0.424 C  
BRANCH  31  32
HETATM   32  C   UNL     1     -13.070  11.156  71.715  1.00  0.00    -0.536 C  
BRANCH  32  33
HETATM   33  C   UNL     1     -12.573  12.231  70.739  1.00  0.00    -0.302 C  
BRANCH  33  34
HETATM   34  C   UNL     1     -12.550  13.577  71.415  1.00  0.00    -0.398 A  
HETATM   35  C   UNL     1     -12.369  16.018  72.778  1.00  0.00    -0.603 A  
HETATM   36  C   UNL     1     -11.671  14.574  70.970  1.00  0.00    -0.295 A  
HETATM   37  C   UNL     1     -11.582  15.790  71.649  1.00  0.00    -0.537 A  
HETATM   38  C   UNL     1     -13.255  15.036  73.219  1.00  0.00    -0.537 A  
HETATM   39  C   UNL     1     -13.346  13.821  72.541  1.00  0.00    -0.656 A  
ENDBRANCH  33  34
ENDBRANCH  32  33
ENDBRANCH  31  32
ENDBRANCH  29  31
ENDBRANCH  28  29
ENDBRANCH  27  28
ENDBRANCH  14  27
ENDBRANCH  13  14
ENDBRANCH  12  13
ENDBRANCH   2  12
TORSDOF 20
ENDMDL
MODEL      239
REMARK 921   NORMALIZED FREE ENERGY PREDICTED BY IDOCK:   -4.10 KCAL/MOL
REMARK 922        TOTAL FREE ENERGY PREDICTED BY IDOCK:  -13.57 KCAL/MOL
REMARK 923 INTER-LIGAND FREE ENERGY PREDICTED BY IDOCK:  -10.19 KCAL/MOL
REMARK 924 INTRA-LIGAND FREE ENERGY PREDICTED BY IDOCK:   -3.38 KCAL/MOL
REMARK 927      BINDING AFFINITY PREDICTED BY RF-SCORE:    0.00 PKD
ROOT
HETATM    1  O   UNL     1     -13.006  15.909  70.208  1.00  0.00    -0.317 OA 
HETATM    2  C   UNL     1     -11.896  15.405  70.307  1.00  0.00    -0.338 C  
ENDROOT
BRANCH   2   3
HETATM    3  C   UNL     1     -10.626  16.041  69.794  1.00  0.00    -0.323 C  
BRANCH   3   4
HETATM    4  C   UNL     1     -10.849  16.811  68.492  1.00  0.00    -0.345 C  
BRANCH   4   5
HETATM    5  C   UNL     1     -10.354  18.259  68.581  1.00  0.00    -0.301 C  
BRANCH   5   6
HETATM    6  C   UNL     1      -9.181  18.513  67.668  1.00  0.00    -0.292 A  
HETATM    7  C   UNL     1      -8.531  17.443  67.037  1.00  0.00    -0.245 A  
HETATM    8  C   UNL     1      -6.989  18.975  65.982  1.00  0.00    -0.287 A  
HETATM    9  C   UNL     1      -7.442  17.675  66.196  1.00  0.00    -0.334 A  
HETATM   10  C   UNL     1      -8.715  19.816  67.449  1.00  0.00    -0.385 A  
HETATM   11  C   UNL     1      -7.626  20.045  66.609  1.00  0.00    -0.314 A  
ENDBRANCH   5   6
ENDBRANCH   4   5
ENDBRANCH   3   4
ENDBRANCH   2   3
BRANCH   2  12
HETATM   12  O   UNL     1     -11.626  14.202  70.885  1.00  0.00    -0.200 OA 
BRANCH  12  13
HETATM   13  C   UNL     1     -12.483  13.104  70.517  1.00  0.00    -0.248 C  
BRANCH  13  14
HETATM   14  C   UNL     1     -11.691  12.071  69.709  1.00  0.00    -0.319 C  
BRANCH  14  15
HETATM   15  O   UNL     1     -12.280  11.953  68.397  1.00  0.00    -0.425 OA 
BRANCH  15  16
HETATM   16  C   UNL     1     -11.526  12.408  67.361  1.00  0.00    -0.352 C  
HETATM   17  O   UNL     1     -11.171  13.565  67.193  1.00  0.00    -0.289 OA 
BRANCH  16  18
HETATM   18  C   UNL     1     -11.209  11.274  66.419  1.00  0.00    -0.190 C  
BRANCH  18  19
HETATM   19  C   UNL     1     -10.021  10.450  66.904  1.00  0.00    -0.254 C  
BRANCH  19  20
HETATM   20  C   UNL     1     -10.289   8.941  66.881  1.00  0.00    -0.332 C  
BRANCH  20  21
HETATM   21  C   UNL     1      -9.373   8.247  67.858  1.00  0.00    -0.150 A  
HETATM   22  C   UNL     1      -7.491   7.041  69.543  1.00  0.00    -0.096 A  
HETATM   23  C   UNL     1      -8.956   6.931  67.625  1.00  0.00    -0.116 A  
HETATM   24  C   UNL     1      -8.854   8.946  68.956  1.00  0.00    -0.136 A  
HETATM   25  C   UNL     1      -8.018   6.331  68.467  1.00  0.00    -0.105 A  
HETATM   26  C   UNL     1      -7.915   8.345  69.794  1.00  0.00    -0.104 A  
ENDBRANCH  20  21
ENDBRANCH  19  20
ENDBRANCH  18  19
ENDBRANCH  16  18
ENDBRANCH  15  16
ENDBRANCH  14  15
BRANCH  14  27
HETATM   27  C   UNL     1     -11.748  10.690  70.373  1.00  0.00    -0.353 C  
BRANCH  27  28
HETATM   28  O   UNL     1     -13.101  10.269  70.594  1.00  0.00    -0.365 OA 
BRANCH  28  29
HETATM   29  C   UNL     1     -13.238   9.218  71.450  1.00  0.00    -0.325 C  
HETATM   30  O   UNL     1     -14.288   8.635  71.680  1.00  0.00    -0.415 OA 
BRANCH  29  31
HETATM   31  C   UNL     1     -11.906   8.873  72.066  1.00  0.00    -0.438 C  
BRANCH  31  32
HETATM   32  C   UNL     1     -11.523   7.420  71.811  1.00  0.00    -0.297 C  
BRANCH  32  33
HETATM   33  C   UNL     1     -10.956   6.725  73.056  1.00  0.00    -0.293 C  
BRANCH  33  34
HETATM   34  C   UNL     1      -9.449   6.765  73.034  1.00  0.00    -0.159 A  
HETATM   35  C   UNL     1      -6.652   6.782  73.171  1.00  0.00    -0.063 A  
HETATM   36  C   UNL     1      -8.718   5.609  72.731  1.00  0.00    -0.119 A  
HETATM   37  C   UNL     1      -7.324   5.619  72.799  1.00  0.00    -0.092 A  
HETATM   38  C   UNL     1      -7.372   7.939  73.462  1.00  0.00    -0.166 A  
HETATM   39  C   UNL     1      -8.764   7.932  73.394  1.00  0.00    -0.309 A  
ENDBRANCH  33  34
ENDBRANCH  32  33
ENDBRANCH  31  32
ENDBRANCH  29  31
ENDBRANCH  28  29
ENDBRANCH  27  28
ENDBRANCH  14  27
ENDBRANCH  13  14
ENDBRANCH  12  13
ENDBRANCH   2  12
TORSDOF 20
ENDMDL
MODEL      240
REMARK 921   NORMALIZED FREE ENERGY PREDICTED BY IDOCK:   -4.09 KCAL/MOL
REMARK 922        TOTAL FREE ENERGY PREDICTED BY IDOCK:  -13.55 KCAL/MOL
REMARK 923 INTER-LIGAND FREE ENERGY PREDICTED BY IDOCK:  -10.24 KCAL/MOL
REMARK 924 INTRA-LIGAND FREE ENERGY PREDICTED BY IDOCK:   -3.31 KCAL/MOL
REMARK 927      BINDING AFFINITY PREDICTED BY RF-SCORE:    0.00 PKD
ROOT
HETATM    1  O   UNL     1      -7.726  10.200  67.470  1.00  0.00    -0.091 OA 
HETATM    2  C   UNL     1      -8.793   9.610  67.374  1.00  0.00    -0.128 C  
ENDROOT
BRANCH   2   3
HETATM    3  C   UNL     1      -9.416   9.190  66.065  1.00  0.00    -0.321 C  
BRANCH   3   4
HETATM    4  C   UNL     1      -9.961  10.382  65.275  1.00  0.00    -0.376 C  
BRANCH   4   5
HETATM    5  C   UNL     1     -11.074  11.118  66.029  1.00  0.00    -0.117 C  
BRANCH   5   6
HETATM    6  C   UNL     1     -11.102  12.590  65.702  1.00  0.00    -0.338 A  
HETATM    7  C   UNL     1     -10.066  13.431  66.134  1.00  0.00    -0.304 A  
HETATM    8  C   UNL     1     -11.154  15.331  65.113  1.00  0.00    -0.412 A  
HETATM    9  C   UNL     1     -10.092  14.794  65.838  1.00  0.00    -0.343 A  
HETATM   10  C   UNL     1     -12.166  13.141  64.977  1.00  0.00    -0.488 A  
HETATM   11  C   UNL     1     -12.191  14.505  64.683  1.00  0.00    -0.474 A  
ENDBRANCH   5   6
ENDBRANCH   4   5
ENDBRANCH   3   4
ENDBRANCH   2   3
BRANCH   2  12
HETATM   12  O   UNL     1      -9.585   9.241  68.419  1.00  0.00    -0.145 OA 
BRANCH  12  13
HETATM   13  C   UNL     1     -10.418   8.083  68.217  1.00  0.00    -0.161 C  
BRANCH  13  14
HETATM   14  C   UNL     1      -9.947   6.938  69.118  1.00  0.00    -0.162 C  
BRANCH  14  15
HETATM   15  O   UNL     1      -9.118   6.044  68.345  1.00  0.00    -0.114 OA 
BRANCH  15  16
HETATM   16  C   UNL     1      -8.011   5.563  68.972  1.00  0.00    -0.095 C  
HETATM   17  O   UNL     1      -7.984   4.617  69.744  1.00  0.00    -0.064 OA 
BRANCH  16  18
HETATM   18  C   UNL     1      -6.809   6.393  68.598  1.00  0.00    -0.074 C  
BRANCH  18  19
HETATM   19  C   UNL     1      -6.365   7.295  69.744  1.00  0.00    -0.035 C  
BRANCH  19  20
HETATM   20  C   UNL     1      -5.889   6.513  70.973  1.00  0.00    -0.027 C  
BRANCH  20  21
HETATM   21  C   UNL     1      -6.556   7.057  72.211  1.00  0.00    -0.057 A  
HETATM   22  C   UNL     1      -7.877   8.245  74.375  1.00  0.00    -0.301 A  
HETATM   23  C   UNL     1      -5.888   7.974  73.031  1.00  0.00    -0.054 A  
HETATM   24  C   UNL     1      -7.886   6.724  72.499  1.00  0.00    -0.100 A  
HETATM   25  C   UNL     1      -6.548   8.565  74.110  1.00  0.00    -0.150 A  
HETATM   26  C   UNL     1      -8.544   7.318  73.576  1.00  0.00    -0.187 A  
ENDBRANCH  20  21
ENDBRANCH  19  20
ENDBRANCH  18  19
ENDBRANCH  16  18
ENDBRANCH  15  16
ENDBRANCH  14  15
BRANCH  14  27
HETATM   27  C   UNL     1     -11.135   6.129  69.650  1.00  0.00    -0.419 C  
BRANCH  27  28
HETATM   28  O   UNL     1     -12.189   6.986  70.112  1.00  0.00    -0.117 OA 
BRANCH  28  29
HETATM   29  C   UNL     1     -12.512   6.834  71.428  1.00  0.00    -0.329 C  
HETATM   30  O   UNL     1     -11.749   6.431  72.293  1.00  0.00    -0.297 OA 
BRANCH  29  31
HETATM   31  C   UNL     1     -13.945   7.242  71.660  1.00  0.00    -0.488 C  
BRANCH  31  32
HETATM   32  C   UNL     1     -14.159   8.729  71.399  1.00  0.00    -0.311 C  
BRANCH  32  33
HETATM   33  C   UNL     1     -13.188   9.619  72.187  1.00  0.00    -0.535 C  
BRANCH  33  34
HETATM   34  C   UNL     1     -12.821  10.835  71.375  1.00  0.00    -0.557 A  
HETATM   35  C   UNL     1     -11.971  13.089  69.946  1.00  0.00    -0.381 A  
HETATM   36  C   UNL     1     -12.171  10.689  70.142  1.00  0.00    -0.398 A  
HETATM   37  C   UNL     1     -11.749  11.812  69.431  1.00  0.00    -0.405 A  
HETATM   38  C   UNL     1     -12.627  13.243  71.166  1.00  0.00    -0.412 A  
HETATM   39  C   UNL     1     -13.051  12.122  71.878  1.00  0.00    -0.475 A  
ENDBRANCH  33  34
ENDBRANCH  32  33
ENDBRANCH  31  32
ENDBRANCH  29  31
ENDBRANCH  28  29
ENDBRANCH  27  28
ENDBRANCH  14  27
ENDBRANCH  13  14
ENDBRANCH  12  13
ENDBRANCH   2  12
TORSDOF 20
ENDMDL
MODEL      241
REMARK 921   NORMALIZED FREE ENERGY PREDICTED BY IDOCK:   -4.07 KCAL/MOL
REMARK 922        TOTAL FREE ENERGY PREDICTED BY IDOCK:  -13.51 KCAL/MOL
REMARK 923 INTER-LIGAND FREE ENERGY PREDICTED BY IDOCK:   -9.97 KCAL/MOL
REMARK 924 INTRA-LIGAND FREE ENERGY PREDICTED BY IDOCK:   -3.54 KCAL/MOL
REMARK 927      BINDING AFFINITY PREDICTED BY RF-SCORE:    0.00 PKD
ROOT
HETATM    1  O   UNL     1     -10.103  12.564  65.622  1.00  0.00    -0.265 OA 
HETATM    2  C   UNL     1     -10.861  13.230  66.314  1.00  0.00    -0.284 C  
ENDROOT
BRANCH   2   3
HETATM    3  C   UNL     1     -11.677  14.393  65.802  1.00  0.00    -0.362 C  
BRANCH   3   4
HETATM    4  C   UNL     1     -10.889  15.704  65.819  1.00  0.00    -0.312 C  
BRANCH   4   5
HETATM    5  C   UNL     1     -10.993  16.427  67.166  1.00  0.00    -0.082 C  
BRANCH   5   6
HETATM    6  C   UNL     1     -10.235  17.730  67.170  1.00  0.00    -0.353 A  
HETATM    7  C   UNL     1     -10.526  18.720  66.220  1.00  0.00    -0.489 A  
HETATM    8  C   UNL     1      -8.818  20.150  67.157  1.00  0.00    -0.446 A  
HETATM    9  C   UNL     1      -9.822  19.925  66.217  1.00  0.00    -0.570 A  
HETATM   10  C   UNL     1      -9.221  17.966  68.108  1.00  0.00    -0.278 A  
HETATM   11  C   UNL     1      -8.518  19.171  68.102  1.00  0.00    -0.355 A  
ENDBRANCH   5   6
ENDBRANCH   4   5
ENDBRANCH   3   4
ENDBRANCH   2   3
BRANCH   2  12
HETATM   12  O   UNL     1     -11.089  13.037  67.642  1.00  0.00    -0.250 OA 
BRANCH  12  13
HETATM   13  C   UNL     1     -11.701  11.787  68.015  1.00  0.00    -0.293 C  
BRANCH  13  14
HETATM   14  C   UNL     1     -11.390  11.470  69.480  1.00  0.00    -0.274 C  
BRANCH  14  15
HETATM   15  O   UNL     1     -10.353  10.468  69.533  1.00  0.00    -0.229 OA 
BRANCH  15  16
HETATM   16  C   UNL     1      -9.837  10.080  68.336  1.00  0.00    -0.154 C  
HETATM   17  O   UNL     1     -10.441   9.481  67.459  1.00  0.00    -0.241 OA 
BRANCH  16  18
HETATM   18  C   UNL     1      -8.383  10.472  68.253  1.00  0.00    -0.122 C  
BRANCH  18  19
HETATM   19  C   UNL     1      -7.603  10.018  69.483  1.00  0.00    -0.133 C  
BRANCH  19  20
HETATM   20  C   UNL     1      -6.993   8.621  69.323  1.00  0.00    -0.058 C  
BRANCH  20  21
HETATM   21  C   UNL     1      -7.022   7.899  70.647  1.00  0.00    -0.041 A  
HETATM   22  C   UNL     1      -7.306   6.512  73.062  1.00  0.00    -0.085 A  
HETATM   23  C   UNL     1      -7.380   8.581  71.817  1.00  0.00    -0.118 A  
HETATM   24  C   UNL     1      -6.787   6.519  70.703  1.00  0.00    -0.063 A  
HETATM   25  C   UNL     1      -7.519   7.887  73.020  1.00  0.00    -0.146 A  
HETATM   26  C   UNL     1      -6.930   5.828  71.906  1.00  0.00    -0.080 A  
ENDBRANCH  20  21
ENDBRANCH  19  20
ENDBRANCH  18  19
ENDBRANCH  16  18
ENDBRANCH  15  16
ENDBRANCH  14  15
BRANCH  14  27
HETATM   27  C   UNL     1     -12.622  10.904  70.197  1.00  0.00    -0.234 C  
BRANCH  27  28
HETATM   28  O   UNL     1     -12.289  10.410  71.502  1.00  0.00    -0.376 OA 
BRANCH  28  29
HETATM   29  C   UNL     1     -12.995   9.312  71.894  1.00  0.00    -0.411 C  
HETATM   30  O   UNL     1     -14.193   9.150  71.711  1.00  0.00    -0.289 OA 
BRANCH  29  31
HETATM   31  C   UNL     1     -12.083   8.324  72.576  1.00  0.00    -0.400 C  
BRANCH  31  32
HETATM   32  C   UNL     1     -10.875   7.979  71.712  1.00  0.00    -0.297 C  
BRANCH  32  33
HETATM   33  C   UNL     1     -11.251   7.198  70.445  1.00  0.00    -0.320 C  
BRANCH  33  34
HETATM   34  C   UNL     1     -10.610   5.834  70.464  1.00  0.00    -0.359 A  
HETATM   35  C   UNL     1      -9.261   3.381  70.551  1.00  0.00    -0.212 A  
HETATM   36  C   UNL     1     -10.545   5.103  71.658  1.00  0.00    -0.226 A  
HETATM   37  C   UNL     1      -9.873   3.881  71.700  1.00  0.00    -0.247 A  
HETATM   38  C   UNL     1      -9.331   4.097  69.358  1.00  0.00    -0.238 A  
HETATM   39  C   UNL     1     -10.003   5.318  69.313  1.00  0.00    -0.285 A  
ENDBRANCH  33  34
ENDBRANCH  32  33
ENDBRANCH  31  32
ENDBRANCH  29  31
ENDBRANCH  28  29
ENDBRANCH  27  28
ENDBRANCH  14  27
ENDBRANCH  13  14
ENDBRANCH  12  13
ENDBRANCH   2  12
TORSDOF 20
ENDMDL
MODEL      242
REMARK 921   NORMALIZED FREE ENERGY PREDICTED BY IDOCK:   -4.05 KCAL/MOL
REMARK 922        TOTAL FREE ENERGY PREDICTED BY IDOCK:  -13.48 KCAL/MOL
REMARK 923 INTER-LIGAND FREE ENERGY PREDICTED BY IDOCK:   -9.35 KCAL/MOL
REMARK 924 INTRA-LIGAND FREE ENERGY PREDICTED BY IDOCK:   -4.13 KCAL/MOL
REMARK 927      BINDING AFFINITY PREDICTED BY RF-SCORE:    0.00 PKD
ROOT
HETATM    1  O   UNL     1     -13.891  13.556  72.661  1.00  0.00    -0.724 OA 
HETATM    2  C   UNL     1     -12.985  14.027  71.989  1.00  0.00    -0.363 C  
ENDROOT
BRANCH   2   3
HETATM    3  C   UNL     1     -12.685  15.504  71.884  1.00  0.00    -0.490 C  
BRANCH   3   4
HETATM    4  C   UNL     1     -12.371  15.930  70.449  1.00  0.00    -0.253 C  
BRANCH   4   5
HETATM    5  C   UNL     1     -10.897  16.303  70.262  1.00  0.00    -0.257 C  
BRANCH   5   6
HETATM    6  C   UNL     1     -10.453  16.158  68.829  1.00  0.00    -0.264 A  
HETATM    7  C   UNL     1      -9.597  17.109  68.254  1.00  0.00    -0.280 A  
HETATM    8  C   UNL     1      -9.636  15.906  66.158  1.00  0.00    -0.365 A  
HETATM    9  C   UNL     1      -9.190  16.981  66.925  1.00  0.00    -0.254 A  
HETATM   10  C   UNL     1     -10.899  15.085  68.048  1.00  0.00    -0.270 A  
HETATM   11  C   UNL     1     -10.490  14.959  66.720  1.00  0.00    -0.284 A  
ENDBRANCH   5   6
ENDBRANCH   4   5
ENDBRANCH   3   4
ENDBRANCH   2   3
BRANCH   2  12
HETATM   12  O   UNL     1     -12.109  13.309  71.233  1.00  0.00    -0.152 OA 
BRANCH  12  13
HETATM   13  C   UNL     1     -12.665  12.583  70.120  1.00  0.00     0.263 C  
BRANCH  13  14
HETATM   14  C   UNL     1     -12.151  11.140  70.129  1.00  0.00    -0.362 C  
BRANCH  14  15
HETATM   15  O   UNL     1     -12.215  10.613  68.787  1.00  0.00    -0.381 OA 
BRANCH  15  16
HETATM   16  C   UNL     1     -11.522  11.300  67.841  1.00  0.00    -0.288 C  
HETATM   17  O   UNL     1     -12.011  11.993  66.962  1.00  0.00    -0.609 OA 
BRANCH  16  18
HETATM   18  C   UNL     1     -10.043  11.060  68.013  1.00  0.00    -0.198 C  
BRANCH  18  19
HETATM   19  C   UNL     1      -9.230  11.724  66.907  1.00  0.00    -0.189 C  
BRANCH  19  20
HETATM   20  C   UNL     1      -7.716  11.595  67.116  1.00  0.00    -0.159 C  
BRANCH  20  21
HETATM   21  C   UNL     1      -7.292  12.438  68.291  1.00  0.00    -0.113 A  
HETATM   22  C   UNL     1      -6.297  14.037  70.363  1.00  0.00    -0.073 A  
HETATM   23  C   UNL     1      -6.627  11.856  69.378  1.00  0.00    -0.108 A  
HETATM   24  C   UNL     1      -7.472  13.828  68.264  1.00  0.00    -0.120 A  
HETATM   25  C   UNL     1      -6.132  12.655  70.410  1.00  0.00    -0.016 A  
HETATM   26  C   UNL     1      -6.975  14.623  69.296  1.00  0.00    -0.147 A  
ENDBRANCH  20  21
ENDBRANCH  19  20
ENDBRANCH  18  19
ENDBRANCH  16  18
ENDBRANCH  15  16
ENDBRANCH  14  15
BRANCH  14  27
HETATM   27  C   UNL     1     -13.021  10.249  71.022  1.00  0.00    -0.397 C  
BRANCH  27  28
HETATM   28  O   UNL     1     -12.228   9.529  71.977  1.00  0.00    -0.358 OA 
BRANCH  28  29
HETATM   29  C   UNL     1     -12.163   8.184  71.767  1.00  0.00    -0.319 C  
HETATM   30  O   UNL     1     -13.040   7.517  71.238  1.00  0.00    -0.328 OA 
BRANCH  29  31
HETATM   31  C   UNL     1     -10.850   7.642  72.272  1.00  0.00    -0.318 C  
BRANCH  31  32
HETATM   32  C   UNL     1      -9.744   8.690  72.213  1.00  0.00    -0.357 C  
BRANCH  32  33
HETATM   33  C   UNL     1      -9.346   9.056  70.777  1.00  0.00    -0.305 C  
BRANCH  33  34
HETATM   34  C   UNL     1      -8.343   8.065  70.246  1.00  0.00    -0.125 A  
HETATM   35  C   UNL     1      -6.345   6.334  69.320  1.00  0.00    -0.035 A  
HETATM   36  C   UNL     1      -7.815   7.076  71.087  1.00  0.00    -0.099 A  
HETATM   37  C   UNL     1      -6.821   6.214  70.625  1.00  0.00    -0.062 A  
HETATM   38  C   UNL     1      -6.873   7.307  68.473  1.00  0.00    -0.073 A  
HETATM   39  C   UNL     1      -7.868   8.168  68.932  1.00  0.00    -0.112 A  
ENDBRANCH  33  34
ENDBRANCH  32  33
ENDBRANCH  31  32
ENDBRANCH  29  31
ENDBRANCH  28  29
ENDBRANCH  27  28
ENDBRANCH  14  27
ENDBRANCH  13  14
ENDBRANCH  12  13
ENDBRANCH   2  12
TORSDOF 20
ENDMDL
MODEL      243
REMARK 921   NORMALIZED FREE ENERGY PREDICTED BY IDOCK:   -4.04 KCAL/MOL
REMARK 922        TOTAL FREE ENERGY PREDICTED BY IDOCK:  -13.45 KCAL/MOL
REMARK 923 INTER-LIGAND FREE ENERGY PREDICTED BY IDOCK:  -10.51 KCAL/MOL
REMARK 924 INTRA-LIGAND FREE ENERGY PREDICTED BY IDOCK:   -2.94 KCAL/MOL
REMARK 927      BINDING AFFINITY PREDICTED BY RF-SCORE:    0.00 PKD
ROOT
HETATM    1  O   UNL     1      -7.434   9.768  68.677  1.00  0.00    -0.074 OA 
HETATM    2  C   UNL     1      -8.365  10.559  68.723  1.00  0.00    -0.136 C  
ENDROOT
BRANCH   2   3
HETATM    3  C   UNL     1      -8.511  11.753  67.809  1.00  0.00    -0.147 C  
BRANCH   3   4
HETATM    4  C   UNL     1      -8.535  11.352  66.333  1.00  0.00    -0.160 C  
BRANCH   4   5
HETATM    5  C   UNL     1      -9.846  10.662  65.940  1.00  0.00    -0.296 C  
BRANCH   5   6
HETATM    6  C   UNL     1     -10.785  11.597  65.220  1.00  0.00    -0.346 A  
HETATM    7  C   UNL     1     -11.620  12.458  65.947  1.00  0.00    -0.449 A  
HETATM    8  C   UNL     1     -12.546  13.327  63.891  1.00  0.00    -0.211 A  
HETATM    9  C   UNL     1     -12.494  13.320  65.284  1.00  0.00    -0.543 A  
HETATM   10  C   UNL     1     -10.848  11.609  63.821  1.00  0.00    -0.493 A  
HETATM   11  C   UNL     1     -11.723  12.472  63.160  1.00  0.00    -0.321 A  
ENDBRANCH   5   6
ENDBRANCH   4   5
ENDBRANCH   3   4
ENDBRANCH   2   3
BRANCH   2  12
HETATM   12  O   UNL     1      -9.410  10.496  69.594  1.00  0.00    -0.130 OA 
BRANCH  12  13
HETATM   13  C   UNL     1     -10.355   9.429  69.390  1.00  0.00    -0.212 C  
BRANCH  13  14
HETATM   14  C   UNL     1     -11.202   9.234  70.651  1.00  0.00    -0.276 C  
BRANCH  14  15
HETATM   15  O   UNL     1     -11.758   7.902  70.640  1.00  0.00    -0.256 OA 
BRANCH  15  16
HETATM   16  C   UNL     1     -12.337   7.487  71.798  1.00  0.00    -0.326 C  
HETATM   17  O   UNL     1     -13.482   7.078  71.915  1.00  0.00    -0.301 OA 
BRANCH  16  18
HETATM   18  C   UNL     1     -11.362   7.632  72.939  1.00  0.00    -0.394 C  
BRANCH  18  19
HETATM   19  C   UNL     1     -10.657   6.317  73.252  1.00  0.00    -0.284 C  
BRANCH  19  20
HETATM   20  C   UNL     1      -9.190   6.302  72.806  1.00  0.00    -0.137 C  
BRANCH  20  21
HETATM   21  C   UNL     1      -9.101   5.857  71.369  1.00  0.00    -0.148 A  
HETATM   22  C   UNL     1      -9.134   5.155  68.659  1.00  0.00    -0.135 A  
HETATM   23  C   UNL     1      -9.746   4.687  70.948  1.00  0.00    -0.262 A  
HETATM   24  C   UNL     1      -8.454   6.660  70.420  1.00  0.00    -0.135 A  
HETATM   25  C   UNL     1      -9.760   4.339  69.597  1.00  0.00    -0.284 A  
HETATM   26  C   UNL     1      -8.472   6.311  69.070  1.00  0.00    -0.120 A  
ENDBRANCH  20  21
ENDBRANCH  19  20
ENDBRANCH  18  19
ENDBRANCH  16  18
ENDBRANCH  15  16
ENDBRANCH  14  15
BRANCH  14  27
HETATM   27  C   UNL     1     -12.370  10.226  70.691  1.00  0.00    -0.325 C  
BRANCH  27  28
HETATM   28  O   UNL     1     -11.916  11.561  70.953  1.00  0.00    -0.307 OA 
BRANCH  28  29
HETATM   29  C   UNL     1     -12.268  12.479  70.010  1.00  0.00    -0.192 C  
HETATM   30  O   UNL     1     -12.456  12.230  68.828  1.00  0.00     0.038 OA 
BRANCH  29  31
HETATM   31  C   UNL     1     -12.403  13.844  70.638  1.00  0.00    -0.451 C  
BRANCH  31  32
HETATM   32  C   UNL     1     -12.150  14.959  69.629  1.00  0.00    -0.334 C  
BRANCH  32  33
HETATM   33  C   UNL     1     -10.783  14.844  68.943  1.00  0.00    -0.245 C  
BRANCH  33  34
HETATM   34  C   UNL     1     -10.579  15.996  67.992  1.00  0.00    -0.295 A  
HETATM   35  C   UNL     1     -10.385  18.149  66.211  1.00  0.00    -0.407 A  
HETATM   36  C   UNL     1     -10.578  17.313  68.470  1.00  0.00    -0.350 A  
HETATM   37  C   UNL     1     -10.481  18.385  67.582  1.00  0.00    -0.445 A  
HETATM   38  C   UNL     1     -10.373  16.841  65.728  1.00  0.00    -0.322 A  
HETATM   39  C   UNL     1     -10.469  15.769  66.614  1.00  0.00    -0.302 A  
ENDBRANCH  33  34
ENDBRANCH  32  33
ENDBRANCH  31  32
ENDBRANCH  29  31
ENDBRANCH  28  29
ENDBRANCH  27  28
ENDBRANCH  14  27
ENDBRANCH  13  14
ENDBRANCH  12  13
ENDBRANCH   2  12
TORSDOF 20
ENDMDL
MODEL      244
REMARK 921   NORMALIZED FREE ENERGY PREDICTED BY IDOCK:   -4.03 KCAL/MOL
REMARK 922        TOTAL FREE ENERGY PREDICTED BY IDOCK:  -13.43 KCAL/MOL
REMARK 923 INTER-LIGAND FREE ENERGY PREDICTED BY IDOCK:  -10.82 KCAL/MOL
REMARK 924 INTRA-LIGAND FREE ENERGY PREDICTED BY IDOCK:   -2.61 KCAL/MOL
REMARK 927      BINDING AFFINITY PREDICTED BY RF-SCORE:    0.00 PKD
ROOT
HETATM    1  O   UNL     1     -10.618  17.800  69.036  1.00  0.00    -0.249 OA 
HETATM    2  C   UNL     1      -9.566  17.257  68.726  1.00  0.00    -0.269 C  
ENDROOT
BRANCH   2   3
HETATM    3  C   UNL     1      -8.491  17.905  67.887  1.00  0.00    -0.251 C  
BRANCH   3   4
HETATM    4  C   UNL     1      -7.118  17.845  68.560  1.00  0.00    -0.254 C  
BRANCH   4   5
HETATM    5  C   UNL     1      -5.983  17.660  67.547  1.00  0.00    -0.164 C  
BRANCH   5   6
HETATM    6  C   UNL     1      -5.880  18.824  66.594  1.00  0.00    -0.169 A  
HETATM    7  C   UNL     1      -6.084  18.633  65.219  1.00  0.00    -0.309 A  
HETATM    8  C   UNL     1      -5.672  20.978  64.811  1.00  0.00    -0.271 A  
HETATM    9  C   UNL     1      -5.983  19.706  64.334  1.00  0.00    -0.310 A  
HETATM   10  C   UNL     1      -5.564  20.106  67.062  1.00  0.00    -0.182 A  
HETATM   11  C   UNL     1      -5.463  21.177  66.175  1.00  0.00    -0.267 A  
ENDBRANCH   5   6
ENDBRANCH   4   5
ENDBRANCH   3   4
ENDBRANCH   2   3
BRANCH   2  12
HETATM   12  O   UNL     1      -9.198  15.995  69.080  1.00  0.00    -0.227 OA 
BRANCH  12  13
HETATM   13  C   UNL     1     -10.189  14.963  68.907  1.00  0.00    -0.238 C  
BRANCH  13  14
HETATM   14  C   UNL     1     -10.034  14.319  67.526  1.00  0.00    -0.235 C  
BRANCH  14  15
HETATM   15  O   UNL     1     -11.054  13.310  67.364  1.00  0.00    -0.265 OA 
BRANCH  15  16
HETATM   16  C   UNL     1     -11.914  13.492  66.326  1.00  0.00    -0.413 C  
HETATM   17  O   UNL     1     -12.681  14.434  66.193  1.00  0.00    -0.334 OA 
BRANCH  16  18
HETATM   18  C   UNL     1     -11.808  12.337  65.363  1.00  0.00    -0.418 C  
BRANCH  18  19
HETATM   19  C   UNL     1     -10.590  12.467  64.455  1.00  0.00    -0.376 C  
BRANCH  19  20
HETATM   20  C   UNL     1     -10.492  11.342  63.418  1.00  0.00    -0.452 C  
BRANCH  20  21
HETATM   21  C   UNL     1      -9.550  10.275  63.914  1.00  0.00    -0.354 A  
HETATM   22  C   UNL     1      -7.967   8.133  64.776  1.00  0.00    -0.147 A  
HETATM   23  C   UNL     1      -9.606   9.844  65.246  1.00  0.00    -0.361 A  
HETATM   24  C   UNL     1      -8.678   9.634  63.024  1.00  0.00    -0.229 A  
HETATM   25  C   UNL     1      -8.815   8.777  65.674  1.00  0.00    -0.239 A  
HETATM   26  C   UNL     1      -7.890   8.567  63.454  1.00  0.00    -0.150 A  
ENDBRANCH  20  21
ENDBRANCH  19  20
ENDBRANCH  18  19
ENDBRANCH  16  18
ENDBRANCH  15  16
ENDBRANCH  14  15
BRANCH  14  27
HETATM   27  C   UNL     1      -8.671  13.630  67.387  1.00  0.00    -0.213 C  
BRANCH  27  28
HETATM   28  O   UNL     1      -8.394  12.783  68.511  1.00  0.00    -0.137 OA 
BRANCH  28  29
HETATM   29  C   UNL     1      -7.683  11.659  68.216  1.00  0.00    -0.128 C  
HETATM   30  O   UNL     1      -7.063  11.475  67.178  1.00  0.00    -0.121 OA 
BRANCH  29  31
HETATM   31  C   UNL     1      -7.764  10.678  69.359  1.00  0.00    -0.132 C  
BRANCH  31  32
HETATM   32  C   UNL     1      -8.889   9.669  69.160  1.00  0.00    -0.157 C  
BRANCH  32  33
HETATM   33  C   UNL     1     -10.246  10.333  68.891  1.00  0.00    -0.220 C  
BRANCH  33  34
HETATM   34  C   UNL     1     -11.146  10.185  70.092  1.00  0.00    -0.378 A  
HETATM   35  C   UNL     1     -12.933   9.812  72.216  1.00  0.00    -0.420 A  
HETATM   36  C   UNL     1     -11.045   9.053  70.912  1.00  0.00    -0.343 A  
HETATM   37  C   UNL     1     -11.936   8.869  71.970  1.00  0.00    -0.439 A  
HETATM   38  C   UNL     1     -13.031  10.946  71.412  1.00  0.00    -0.527 A  
HETATM   39  C   UNL     1     -12.142  11.133  70.355  1.00  0.00    -0.475 A  
ENDBRANCH  33  34
ENDBRANCH  32  33
ENDBRANCH  31  32
ENDBRANCH  29  31
ENDBRANCH  28  29
ENDBRANCH  27  28
ENDBRANCH  14  27
ENDBRANCH  13  14
ENDBRANCH  12  13
ENDBRANCH   2  12
TORSDOF 20
ENDMDL
MODEL      245
REMARK 921   NORMALIZED FREE ENERGY PREDICTED BY IDOCK:   -4.03 KCAL/MOL
REMARK 922        TOTAL FREE ENERGY PREDICTED BY IDOCK:  -13.42 KCAL/MOL
REMARK 923 INTER-LIGAND FREE ENERGY PREDICTED BY IDOCK:   -9.98 KCAL/MOL
REMARK 924 INTRA-LIGAND FREE ENERGY PREDICTED BY IDOCK:   -3.44 KCAL/MOL
REMARK 927      BINDING AFFINITY PREDICTED BY RF-SCORE:    0.00 PKD
ROOT
HETATM    1  O   UNL     1     -13.753   8.696  71.456  1.00  0.00    -0.361 OA 
HETATM    2  C   UNL     1     -12.565   8.789  71.730  1.00  0.00    -0.356 C  
ENDROOT
BRANCH   2   3
HETATM    3  C   UNL     1     -11.743  10.039  71.527  1.00  0.00    -0.359 C  
BRANCH   3   4
HETATM    4  C   UNL     1     -12.562  11.177  70.915  1.00  0.00    -0.483 C  
BRANCH   4   5
HETATM    5  C   UNL     1     -12.183  11.445  69.454  1.00  0.00    -0.288 C  
BRANCH   5   6
HETATM    6  C   UNL     1     -12.024  12.917  69.171  1.00  0.00    -0.308 A  
HETATM    7  C   UNL     1     -11.751  13.362  67.869  1.00  0.00    -0.396 A  
HETATM    8  C   UNL     1     -11.710  15.652  68.638  1.00  0.00    -0.364 A  
HETATM    9  C   UNL     1     -11.598  14.724  67.605  1.00  0.00    -0.374 A  
HETATM   10  C   UNL     1     -12.130  13.859  70.202  1.00  0.00    -0.418 A  
HETATM   11  C   UNL     1     -11.976  15.220  69.936  1.00  0.00    -0.373 A  
ENDBRANCH   5   6
ENDBRANCH   4   5
ENDBRANCH   3   4
ENDBRANCH   2   3
BRANCH   2  12
HETATM   12  O   UNL     1     -11.798   7.795  72.255  1.00  0.00    -0.309 OA 
BRANCH  12  13
HETATM   13  C   UNL     1     -10.371   7.950  72.133  1.00  0.00    -0.237 C  
BRANCH  13  14
HETATM   14  C   UNL     1      -9.854   7.118  70.956  1.00  0.00    -0.180 C  
BRANCH  14  15
HETATM   15  O   UNL     1      -9.255   5.908  71.466  1.00  0.00    -0.146 OA 
BRANCH  15  16
HETATM   16  C   UNL     1      -9.707   4.745  70.926  1.00  0.00    -0.190 C  
HETATM   17  O   UNL     1      -9.571   3.633  71.413  1.00  0.00    -0.146 OA 
BRANCH  16  18
HETATM   18  C   UNL     1     -10.385   5.020  69.607  1.00  0.00    -0.260 C  
BRANCH  18  19
HETATM   19  C   UNL     1      -9.502   4.635  68.425  1.00  0.00    -0.201 C  
BRANCH  19  20
HETATM   20  C   UNL     1      -9.264   5.795  67.451  1.00  0.00    -0.109 C  
BRANCH  20  21
HETATM   21  C   UNL     1      -9.431   5.309  66.034  1.00  0.00    -0.169 A  
HETATM   22  C   UNL     1      -9.633   4.208  63.468  1.00  0.00    -0.128 A  
HETATM   23  C   UNL     1      -8.428   5.539  65.084  1.00  0.00    -0.147 A  
HETATM   24  C   UNL     1     -10.547   4.540  65.678  1.00  0.00    -0.231 A  
HETATM   25  C   UNL     1      -8.532   4.990  63.805  1.00  0.00    -0.128 A  
HETATM   26  C   UNL     1     -10.646   3.990  64.400  1.00  0.00    -0.206 A  
ENDBRANCH  20  21
ENDBRANCH  19  20
ENDBRANCH  18  19
ENDBRANCH  16  18
ENDBRANCH  15  16
ENDBRANCH  14  15
BRANCH  14  27
HETATM   27  C   UNL     1      -8.776   7.877  70.173  1.00  0.00    -0.136 C  
BRANCH  27  28
HETATM   28  O   UNL     1      -8.470   9.137  70.788  1.00  0.00    -0.184 OA 
BRANCH  28  29
HETATM   29  C   UNL     1      -7.652   9.945  70.057  1.00  0.00    -0.172 C  
HETATM   30  O   UNL     1      -6.864  10.752  70.527  1.00  0.00    -0.285 OA 
BRANCH  29  31
HETATM   31  C   UNL     1      -7.853   9.691  68.584  1.00  0.00    -0.081 C  
BRANCH  31  32
HETATM   32  C   UNL     1      -8.974  10.551  68.009  1.00  0.00    -0.135 C  
BRANCH  32  33
HETATM   33  C   UNL     1     -10.030   9.730  67.258  1.00  0.00    -0.242 C  
BRANCH  33  34
HETATM   34  C   UNL     1      -9.930   9.984  65.776  1.00  0.00    -0.346 A  
HETATM   35  C   UNL     1      -9.595  10.562  63.056  1.00  0.00    -0.369 A  
HETATM   36  C   UNL     1      -9.100   9.185  64.978  1.00  0.00    -0.215 A  
HETATM   37  C   UNL     1      -8.934   9.473  63.623  1.00  0.00    -0.207 A  
HETATM   38  C   UNL     1     -10.432  11.354  63.840  1.00  0.00    -0.444 A  
HETATM   39  C   UNL     1     -10.600  11.067  65.194  1.00  0.00    -0.295 A  
ENDBRANCH  33  34
ENDBRANCH  32  33
ENDBRANCH  31  32
ENDBRANCH  29  31
ENDBRANCH  28  29
ENDBRANCH  27  28
ENDBRANCH  14  27
ENDBRANCH  13  14
ENDBRANCH  12  13
ENDBRANCH   2  12
TORSDOF 20
ENDMDL
MODEL      246
REMARK 921   NORMALIZED FREE ENERGY PREDICTED BY IDOCK:   -4.02 KCAL/MOL
REMARK 922        TOTAL FREE ENERGY PREDICTED BY IDOCK:  -13.41 KCAL/MOL
REMARK 923 INTER-LIGAND FREE ENERGY PREDICTED BY IDOCK:  -10.27 KCAL/MOL
REMARK 924 INTRA-LIGAND FREE ENERGY PREDICTED BY IDOCK:   -3.14 KCAL/MOL
REMARK 927      BINDING AFFINITY PREDICTED BY RF-SCORE:    0.00 PKD
ROOT
HETATM    1  O   UNL     1     -12.400   9.666  70.733  1.00  0.00    -0.275 OA 
HETATM    2  C   UNL     1     -11.248   9.354  70.997  1.00  0.00    -0.342 C  
ENDROOT
BRANCH   2   3
HETATM    3  C   UNL     1     -10.857   8.403  72.103  1.00  0.00    -0.407 C  
BRANCH   3   4
HETATM    4  C   UNL     1     -10.016   7.233  71.588  1.00  0.00    -0.192 C  
BRANCH   4   5
HETATM    5  C   UNL     1     -10.881   6.054  71.128  1.00  0.00    -0.338 C  
BRANCH   5   6
HETATM    6  C   UNL     1     -10.680   5.741  69.667  1.00  0.00    -0.416 A  
HETATM    7  C   UNL     1      -9.933   4.620  69.280  1.00  0.00    -0.231 A  
HETATM    8  C   UNL     1     -10.286   5.161  66.952  1.00  0.00    -0.279 A  
HETATM    9  C   UNL     1      -9.740   4.331  67.928  1.00  0.00    -0.172 A  
HETATM   10  C   UNL     1     -11.221   6.572  68.677  1.00  0.00    -0.302 A  
HETATM   11  C   UNL     1     -11.026   6.281  67.326  1.00  0.00    -0.455 A  
ENDBRANCH   5   6
ENDBRANCH   4   5
ENDBRANCH   3   4
ENDBRANCH   2   3
BRANCH   2  12
HETATM   12  O   UNL     1     -10.141   9.809  70.347  1.00  0.00    -0.259 OA 
BRANCH  12  13
HETATM   13  C   UNL     1     -10.284  10.070  68.937  1.00  0.00    -0.193 C  
BRANCH  13  14
HETATM   14  C   UNL     1      -9.402  11.255  68.533  1.00  0.00    -0.182 C  
BRANCH  14  15
HETATM   15  O   UNL     1     -10.243  12.399  68.280  1.00  0.00    -0.218 OA 
BRANCH  15  16
HETATM   16  C   UNL     1      -9.602  13.587  68.117  1.00  0.00    -0.215 C  
HETATM   17  O   UNL     1      -8.485  13.857  68.533  1.00  0.00    -0.157 OA 
BRANCH  16  18
HETATM   18  C   UNL     1     -10.487  14.549  67.365  1.00  0.00    -0.264 C  
BRANCH  18  19
HETATM   19  C   UNL     1     -11.822  14.760  68.071  1.00  0.00    -0.324 C  
BRANCH  19  20
HETATM   20  C   UNL     1     -11.812  15.958  69.028  1.00  0.00    -0.328 C  
BRANCH  20  21
HETATM   21  C   UNL     1     -12.145  15.496  70.424  1.00  0.00    -0.426 A  
HETATM   22  C   UNL     1     -12.978  14.737  72.986  1.00  0.00    -0.609 A  
HETATM   23  C   UNL     1     -11.906  16.331  71.522  1.00  0.00    -0.441 A  
HETATM   24  C   UNL     1     -12.786  14.266  70.626  1.00  0.00    -0.409 A  
HETATM   25  C   UNL     1     -12.322  15.950  72.799  1.00  0.00    -0.580 A  
HETATM   26  C   UNL     1     -13.202  13.889  71.902  1.00  0.00    -0.480 A  
ENDBRANCH  20  21
ENDBRANCH  19  20
ENDBRANCH  18  19
ENDBRANCH  16  18
ENDBRANCH  15  16
ENDBRANCH  14  15
BRANCH  14  27
HETATM   27  C   UNL     1      -8.626  10.952  67.246  1.00  0.00    -0.128 C  
BRANCH  27  28
HETATM   28  O   UNL     1      -9.391  10.132  66.352  1.00  0.00    -0.160 OA 
BRANCH  28  29
HETATM   29  C   UNL     1      -9.484  10.608  65.079  1.00  0.00    -0.243 C  
HETATM   30  O   UNL     1      -9.973  11.686  64.770  1.00  0.00    -0.243 OA 
BRANCH  29  31
HETATM   31  C   UNL     1      -8.890   9.618  64.109  1.00  0.00    -0.257 C  
BRANCH  31  32
HETATM   32  C   UNL     1      -8.362   8.377  64.820  1.00  0.00    -0.151 C  
BRANCH  32  33
HETATM   33  C   UNL     1      -7.656   7.401  63.870  1.00  0.00    -0.110 C  
BRANCH  33  34
HETATM   34  C   UNL     1      -7.600   6.025  64.483  1.00  0.00    -0.092 A  
HETATM   35  C   UNL     1      -7.359   3.429  65.506  1.00  0.00    -0.075 A  
HETATM   36  C   UNL     1      -6.709   5.756  65.531  1.00  0.00    -0.047 A  
HETATM   37  C   UNL     1      -6.590   4.463  66.040  1.00  0.00    -0.041 A  
HETATM   38  C   UNL     1      -8.256   3.691  64.472  1.00  0.00    -0.093 A  
HETATM   39  C   UNL     1      -8.377   4.983  63.962  1.00  0.00    -0.132 A  
ENDBRANCH  33  34
ENDBRANCH  32  33
ENDBRANCH  31  32
ENDBRANCH  29  31
ENDBRANCH  28  29
ENDBRANCH  27  28
ENDBRANCH  14  27
ENDBRANCH  13  14
ENDBRANCH  12  13
ENDBRANCH   2  12
TORSDOF 20
ENDMDL
MODEL      247
REMARK 921   NORMALIZED FREE ENERGY PREDICTED BY IDOCK:   -4.02 KCAL/MOL
REMARK 922        TOTAL FREE ENERGY PREDICTED BY IDOCK:  -13.39 KCAL/MOL
REMARK 923 INTER-LIGAND FREE ENERGY PREDICTED BY IDOCK:  -10.34 KCAL/MOL
REMARK 924 INTRA-LIGAND FREE ENERGY PREDICTED BY IDOCK:   -3.06 KCAL/MOL
REMARK 927      BINDING AFFINITY PREDICTED BY RF-SCORE:    0.00 PKD
ROOT
HETATM    1  O   UNL     1     -12.208  13.808  68.354  1.00  0.00    -0.340 OA 
HETATM    2  C   UNL     1     -11.586  14.005  67.319  1.00  0.00    -0.369 C  
ENDROOT
BRANCH   2   3
HETATM    3  C   UNL     1     -12.227  14.166  65.962  1.00  0.00    -0.464 C  
BRANCH   3   4
HETATM    4  C   UNL     1     -12.369  12.832  65.227  1.00  0.00    -0.546 C  
BRANCH   4   5
HETATM    5  C   UNL     1     -11.467  12.752  63.990  1.00  0.00    -0.476 C  
BRANCH   5   6
HETATM    6  C   UNL     1     -10.443  11.652  64.107  1.00  0.00    -0.402 A  
HETATM    7  C   UNL     1      -9.770  11.188  62.968  1.00  0.00    -0.384 A  
HETATM    8  C   UNL     1      -8.548   9.595  64.313  1.00  0.00    -0.207 A  
HETATM    9  C   UNL     1      -8.825  10.166  63.072  1.00  0.00    -0.231 A  
HETATM   10  C   UNL     1     -10.159  11.068  65.348  1.00  0.00    -0.326 A  
HETATM   11  C   UNL     1      -9.215  10.046  65.450  1.00  0.00    -0.259 A  
ENDBRANCH   5   6
ENDBRANCH   4   5
ENDBRANCH   3   4
ENDBRANCH   2   3
BRANCH   2  12
HETATM   12  O   UNL     1     -10.232  14.107  67.222  1.00  0.00    -0.252 OA 
BRANCH  12  13
HETATM   13  C   UNL     1      -9.549  14.698  68.344  1.00  0.00    -0.217 C  
BRANCH  13  14
HETATM   14  C   UNL     1      -8.038  14.708  68.089  1.00  0.00    -0.137 C  
BRANCH  14  15
HETATM   15  O   UNL     1      -7.706  15.863  67.291  1.00  0.00    -0.154 OA 
BRANCH  15  16
HETATM   16  C   UNL     1      -6.420  16.298  67.376  1.00  0.00    -0.180 C  
HETATM   17  O   UNL     1      -5.658  16.456  66.434  1.00  0.00    -0.187 OA 
BRANCH  16  18
HETATM   18  C   UNL     1      -6.053  16.534  68.819  1.00  0.00    -0.135 C  
BRANCH  18  19
HETATM   19  C   UNL     1      -6.851  17.682  69.426  1.00  0.00    -0.135 C  
BRANCH  19  20
HETATM   20  C   UNL     1      -6.768  18.972  68.602  1.00  0.00    -0.306 C  
BRANCH  20  21
HETATM   21  C   UNL     1      -8.113  19.272  67.991  1.00  0.00    -0.341 A  
HETATM   22  C   UNL     1     -10.628  19.597  66.805  1.00  0.00    -0.602 A  
HETATM   23  C   UNL     1      -8.219  19.573  66.627  1.00  0.00    -0.329 A  
HETATM   24  C   UNL     1      -9.279  19.157  68.759  1.00  0.00    -0.407 A  
HETATM   25  C   UNL     1      -9.474  19.736  66.038  1.00  0.00    -0.393 A  
HETATM   26  C   UNL     1     -10.532  19.317  68.167  1.00  0.00    -0.450 A  
ENDBRANCH  20  21
ENDBRANCH  19  20
ENDBRANCH  18  19
ENDBRANCH  16  18
ENDBRANCH  15  16
ENDBRANCH  14  15
BRANCH  14  27
HETATM   27  C   UNL     1      -7.601  13.462  67.310  1.00  0.00    -0.062 C  
BRANCH  27  28
HETATM   28  O   UNL     1      -7.656  12.285  68.130  1.00  0.00    -0.108 OA 
BRANCH  28  29
HETATM   29  C   UNL     1      -6.895  11.245  67.686  1.00  0.00    -0.077 C  
HETATM   30  O   UNL     1      -6.146  11.289  66.720  1.00  0.00    -0.102 OA 
BRANCH  29  31
HETATM   31  C   UNL     1      -7.105  10.037  68.563  1.00  0.00    -0.071 C  
BRANCH  31  32
HETATM   32  C   UNL     1      -8.513   9.997  69.145  1.00  0.00    -0.156 C  
BRANCH  32  33
HETATM   33  C   UNL     1      -8.765   8.758  70.014  1.00  0.00    -0.146 C  
BRANCH  33  34
HETATM   34  C   UNL     1      -9.591   7.750  69.257  1.00  0.00    -0.159 A  
HETATM   35  C   UNL     1     -10.969   5.819  67.769  1.00  0.00    -0.138 A  
HETATM   36  C   UNL     1      -9.742   6.448  69.753  1.00  0.00    -0.172 A  
HETATM   37  C   UNL     1     -10.429   5.487  69.011  1.00  0.00    -0.296 A  
HETATM   38  C   UNL     1     -10.833   7.115  67.274  1.00  0.00    -0.382 A  
HETATM   39  C   UNL     1     -10.148   8.077  68.015  1.00  0.00    -0.238 A  
ENDBRANCH  33  34
ENDBRANCH  32  33
ENDBRANCH  31  32
ENDBRANCH  29  31
ENDBRANCH  28  29
ENDBRANCH  27  28
ENDBRANCH  14  27
ENDBRANCH  13  14
ENDBRANCH  12  13
ENDBRANCH   2  12
TORSDOF 20
ENDMDL
MODEL      248
REMARK 921   NORMALIZED FREE ENERGY PREDICTED BY IDOCK:   -4.01 KCAL/MOL
REMARK 922        TOTAL FREE ENERGY PREDICTED BY IDOCK:  -13.38 KCAL/MOL
REMARK 923 INTER-LIGAND FREE ENERGY PREDICTED BY IDOCK:  -10.16 KCAL/MOL
REMARK 924 INTRA-LIGAND FREE ENERGY PREDICTED BY IDOCK:   -3.22 KCAL/MOL
REMARK 927      BINDING AFFINITY PREDICTED BY RF-SCORE:    0.00 PKD
ROOT
HETATM    1  O   UNL     1     -10.559  16.810  69.682  1.00  0.00    -0.319 OA 
HETATM    2  C   UNL     1      -9.811  15.900  69.353  1.00  0.00    -0.280 C  
ENDROOT
BRANCH   2   3
HETATM    3  C   UNL     1      -8.330  16.063  69.110  1.00  0.00    -0.244 C  
BRANCH   3   4
HETATM    4  C   UNL     1      -7.505  14.991  69.825  1.00  0.00    -0.102 C  
BRANCH   4   5
HETATM    5  C   UNL     1      -6.623  14.195  68.857  1.00  0.00    -0.099 C  
BRANCH   5   6
HETATM    6  C   UNL     1      -6.642  12.718  69.158  1.00  0.00    -0.101 A  
HETATM    7  C   UNL     1      -7.410  11.846  68.372  1.00  0.00    -0.095 A  
HETATM    8  C   UNL     1      -6.699   9.971  69.720  1.00  0.00    -0.086 A  
HETATM    9  C   UNL     1      -7.435  10.480  68.652  1.00  0.00    -0.095 A  
HETATM   10  C   UNL     1      -5.910  12.197  70.232  1.00  0.00    -0.161 A  
HETATM   11  C   UNL     1      -5.936  10.831  70.510  1.00  0.00    -0.122 A  
ENDBRANCH   5   6
ENDBRANCH   4   5
ENDBRANCH   3   4
ENDBRANCH   2   3
BRANCH   2  12
HETATM   12  O   UNL     1     -10.187  14.606  69.152  1.00  0.00    -0.231 OA 
BRANCH  12  13
HETATM   13  C   UNL     1     -11.422  14.192  69.767  1.00  0.00    -0.250 C  
BRANCH  13  14
HETATM   14  C   UNL     1     -12.110  13.136  68.897  1.00  0.00    -0.194 C  
BRANCH  14  15
HETATM   15  O   UNL     1     -11.313  11.933  68.902  1.00  0.00    -0.233 OA 
BRANCH  15  16
HETATM   16  C   UNL     1     -11.762  10.921  69.691  1.00  0.00    -0.331 C  
HETATM   17  O   UNL     1     -12.899  10.807  70.123  1.00  0.00    -0.265 OA 
BRANCH  16  18
HETATM   18  C   UNL     1     -10.637   9.962  69.986  1.00  0.00    -0.335 C  
BRANCH  18  19
HETATM   19  C   UNL     1     -10.778   9.332  71.368  1.00  0.00    -0.432 C  
BRANCH  19  20
HETATM   20  C   UNL     1      -9.487   8.667  71.858  1.00  0.00    -0.369 C  
BRANCH  20  21
HETATM   21  C   UNL     1      -9.811   7.347  72.509  1.00  0.00    -0.213 A  
HETATM   22  C   UNL     1     -10.633   4.977  73.752  1.00  0.00    -0.330 A  
HETATM   23  C   UNL     1      -9.655   7.181  73.891  1.00  0.00    -0.319 A  
HETATM   24  C   UNL     1     -10.363   6.304  71.753  1.00  0.00    -0.240 A  
HETATM   25  C   UNL     1     -10.065   5.998  74.508  1.00  0.00    -0.328 A  
HETATM   26  C   UNL     1     -10.774   5.124  72.373  1.00  0.00    -0.276 A  
ENDBRANCH  20  21
ENDBRANCH  19  20
ENDBRANCH  18  19
ENDBRANCH  16  18
ENDBRANCH  15  16
ENDBRANCH  14  15
BRANCH  14  27
HETATM   27  C   UNL     1     -12.230  13.610  67.444  1.00  0.00    -0.244 C  
BRANCH  27  28
HETATM   28  O   UNL     1     -11.632  12.674  66.535  1.00  0.00    -0.339 OA 
BRANCH  28  29
HETATM   29  C   UNL     1     -10.649  13.193  65.747  1.00  0.00    -0.282 C  
HETATM   30  O   UNL     1      -9.566  12.664  65.540  1.00  0.00    -0.156 OA 
BRANCH  29  31
HETATM   31  C   UNL     1     -11.095  14.508  65.159  1.00  0.00    -0.374 C  
BRANCH  31  32
HETATM   32  C   UNL     1     -10.161  15.648  65.548  1.00  0.00    -0.395 C  
BRANCH  32  33
HETATM   33  C   UNL     1     -10.823  17.028  65.434  1.00  0.00    -0.079 C  
BRANCH  33  34
HETATM   34  C   UNL     1     -10.018  18.056  66.186  1.00  0.00    -0.288 A  
HETATM   35  C   UNL     1      -8.501  20.059  67.424  1.00  0.00    -0.391 A  
HETATM   36  C   UNL     1     -10.640  19.205  66.693  1.00  0.00    -0.520 A  
HETATM   37  C   UNL     1      -9.884  20.201  67.310  1.00  0.00    -0.580 A  
HETATM   38  C   UNL     1      -7.877  18.914  66.932  1.00  0.00    -0.256 A  
HETATM   39  C   UNL     1      -8.631  17.916  66.317  1.00  0.00    -0.207 A  
ENDBRANCH  33  34
ENDBRANCH  32  33
ENDBRANCH  31  32
ENDBRANCH  29  31
ENDBRANCH  28  29
ENDBRANCH  27  28
ENDBRANCH  14  27
ENDBRANCH  13  14
ENDBRANCH  12  13
ENDBRANCH   2  12
TORSDOF 20
ENDMDL
MODEL      249
REMARK 921   NORMALIZED FREE ENERGY PREDICTED BY IDOCK:   -3.98 KCAL/MOL
REMARK 922        TOTAL FREE ENERGY PREDICTED BY IDOCK:  -13.32 KCAL/MOL
REMARK 923 INTER-LIGAND FREE ENERGY PREDICTED BY IDOCK:   -9.65 KCAL/MOL
REMARK 924 INTRA-LIGAND FREE ENERGY PREDICTED BY IDOCK:   -3.68 KCAL/MOL
REMARK 927      BINDING AFFINITY PREDICTED BY RF-SCORE:    0.00 PKD
ROOT
HETATM    1  O   UNL     1      -8.892  13.619  68.093  1.00  0.00    -0.177 OA 
HETATM    2  C   UNL     1     -10.035  13.813  67.703  1.00  0.00    -0.238 C  
ENDROOT
BRANCH   2   3
HETATM    3  C   UNL     1     -10.579  15.164  67.307  1.00  0.00    -0.286 C  
BRANCH   3   4
HETATM    4  C   UNL     1     -10.495  16.179  68.449  1.00  0.00    -0.274 C  
BRANCH   4   5
HETATM    5  C   UNL     1     -10.803  17.606  67.981  1.00  0.00    -0.240 C  
BRANCH   5   6
HETATM    6  C   UNL     1      -9.557  18.450  67.880  1.00  0.00    -0.309 A  
HETATM    7  C   UNL     1      -8.364  18.025  68.481  1.00  0.00    -0.313 A  
HETATM    8  C   UNL     1      -7.241  20.021  67.711  1.00  0.00    -0.326 A  
HETATM    9  C   UNL     1      -7.211  18.806  68.394  1.00  0.00    -0.304 A  
HETATM   10  C   UNL     1      -9.577  19.674  67.199  1.00  0.00    -0.459 A  
HETATM   11  C   UNL     1      -8.423  20.454  67.114  1.00  0.00    -0.393 A  
ENDBRANCH   5   6
ENDBRANCH   4   5
ENDBRANCH   3   4
ENDBRANCH   2   3
BRANCH   2  12
HETATM   12  O   UNL     1     -10.993  12.855  67.566  1.00  0.00    -0.244 OA 
BRANCH  12  13
HETATM   13  C   UNL     1     -11.752  12.530  68.746  1.00  0.00    -0.327 C  
BRANCH  13  14
HETATM   14  C   UNL     1     -11.605  11.039  69.067  1.00  0.00    -0.323 C  
BRANCH  14  15
HETATM   15  O   UNL     1     -11.297  10.890  70.468  1.00  0.00    -0.290 OA 
BRANCH  15  16
HETATM   16  C   UNL     1     -12.209  10.208  71.211  1.00  0.00    -0.398 C  
HETATM   17  O   UNL     1     -12.992  10.703  72.009  1.00  0.00    -0.461 OA 
BRANCH  16  18
HETATM   18  C   UNL     1     -12.099   8.731  70.931  1.00  0.00    -0.195 C  
BRANCH  18  19
HETATM   19  C   UNL     1     -11.942   7.921  72.213  1.00  0.00    -0.387 C  
BRANCH  19  20
HETATM   20  C   UNL     1     -10.620   8.197  72.939  1.00  0.00    -0.327 C  
BRANCH  20  21
HETATM   21  C   UNL     1      -9.465   7.756  72.076  1.00  0.00    -0.212 A  
HETATM   22  C   UNL     1      -7.463   6.964  70.287  1.00  0.00    -0.086 A  
HETATM   23  C   UNL     1      -9.303   6.403  71.748  1.00  0.00    -0.152 A  
HETATM   24  C   UNL     1      -8.600   8.704  71.515  1.00  0.00    -0.256 A  
HETATM   25  C   UNL     1      -8.304   6.011  70.856  1.00  0.00    -0.126 A  
HETATM   26  C   UNL     1      -7.604   8.309  70.623  1.00  0.00    -0.071 A  
ENDBRANCH  20  21
ENDBRANCH  19  20
ENDBRANCH  18  19
ENDBRANCH  16  18
ENDBRANCH  15  16
ENDBRANCH  14  15
BRANCH  14  27
HETATM   27  C   UNL     1     -10.457  10.412  68.268  1.00  0.00    -0.191 C  
BRANCH  27  28
HETATM   28  O   UNL     1     -10.947   9.529  67.248  1.00  0.00    -0.203 OA 
BRANCH  28  29
HETATM   29  C   UNL     1     -10.097   8.519  66.911  1.00  0.00    -0.294 C  
HETATM   30  O   UNL     1      -9.417   8.487  65.896  1.00  0.00    -0.208 OA 
BRANCH  29  31
HETATM   31  C   UNL     1     -10.110   7.453  67.977  1.00  0.00    -0.216 C  
BRANCH  31  32
HETATM   32  C   UNL     1     -11.073   6.321  67.634  1.00  0.00    -0.368 C  
BRANCH  32  33
HETATM   33  C   UNL     1     -10.486   5.324  66.626  1.00  0.00    -0.345 C  
BRANCH  33  34
HETATM   34  C   UNL     1      -9.354   4.553  67.255  1.00  0.00    -0.165 A  
HETATM   35  C   UNL     1      -7.246   3.248  68.558  1.00  0.00    -0.050 A  
HETATM   36  C   UNL     1      -9.616   3.598  68.246  1.00  0.00    -0.165 A  
HETATM   37  C   UNL     1      -8.565   2.948  68.894  1.00  0.00    -0.114 A  
HETATM   38  C   UNL     1      -6.977   4.188  67.565  1.00  0.00    -0.056 A  
HETATM   39  C   UNL     1      -8.025   4.838  66.915  1.00  0.00    -0.103 A  
ENDBRANCH  33  34
ENDBRANCH  32  33
ENDBRANCH  31  32
ENDBRANCH  29  31
ENDBRANCH  28  29
ENDBRANCH  27  28
ENDBRANCH  14  27
ENDBRANCH  13  14
ENDBRANCH  12  13
ENDBRANCH   2  12
TORSDOF 20
ENDMDL
MODEL      250
REMARK 921   NORMALIZED FREE ENERGY PREDICTED BY IDOCK:   -3.98 KCAL/MOL
REMARK 922        TOTAL FREE ENERGY PREDICTED BY IDOCK:  -13.32 KCAL/MOL
REMARK 923 INTER-LIGAND FREE ENERGY PREDICTED BY IDOCK:   -9.56 KCAL/MOL
REMARK 924 INTRA-LIGAND FREE ENERGY PREDICTED BY IDOCK:   -3.76 KCAL/MOL
REMARK 927      BINDING AFFINITY PREDICTED BY RF-SCORE:    0.00 PKD
ROOT
HETATM    1  O   UNL     1      -6.529   8.711  71.350  1.00  0.00    -0.053 OA 
HETATM    2  C   UNL     1      -7.360   8.914  70.476  1.00  0.00    -0.078 C  
ENDROOT
BRANCH   2   3
HETATM    3  C   UNL     1      -8.848   8.997  70.721  1.00  0.00    -0.281 C  
BRANCH   3   4
HETATM    4  C   UNL     1      -9.228   8.543  72.132  1.00  0.00    -0.336 C  
BRANCH   4   5
HETATM    5  C   UNL     1     -10.221   7.376  72.119  1.00  0.00    -0.226 C  
BRANCH   5   6
HETATM    6  C   UNL     1     -11.645   7.847  71.965  1.00  0.00    -0.357 A  
HETATM    7  C   UNL     1     -12.668   6.928  71.687  1.00  0.00    -0.396 A  
HETATM    8  C   UNL     1     -14.294   8.715  71.658  1.00  0.00    -0.451 A  
HETATM    9  C   UNL     1     -13.986   7.361  71.538  1.00  0.00    -0.517 A  
HETATM   10  C   UNL     1     -11.966   9.205  72.080  1.00  0.00    -0.421 A  
HETATM   11  C   UNL     1     -13.284   9.636  71.930  1.00  0.00    -0.538 A  
ENDBRANCH   5   6
ENDBRANCH   4   5
ENDBRANCH   3   4
ENDBRANCH   2   3
BRANCH   2  12
HETATM   12  O   UNL     1      -7.085   9.094  69.155  1.00  0.00    -0.061 OA 
BRANCH  12  13
HETATM   13  C   UNL     1      -8.191   9.471  68.312  1.00  0.00    -0.113 C  
BRANCH  13  14
HETATM   14  C   UNL     1      -7.731  10.503  67.278  1.00  0.00    -0.106 C  
BRANCH  14  15
HETATM   15  O   UNL     1      -6.860   9.856  66.327  1.00  0.00    -0.085 OA 
BRANCH  15  16
HETATM   16  C   UNL     1      -7.390   9.620  65.097  1.00  0.00    -0.115 C  
HETATM   17  O   UNL     1      -8.193  10.336  64.517  1.00  0.00    -0.160 OA 
BRANCH  16  18
HETATM   18  C   UNL     1      -6.863   8.316  64.552  1.00  0.00    -0.068 C  
BRANCH  18  19
HETATM   19  C   UNL     1      -7.864   7.181  64.734  1.00  0.00    -0.126 C  
BRANCH  19  20
HETATM   20  C   UNL     1      -7.499   6.239  65.887  1.00  0.00    -0.082 C  
BRANCH  20  21
HETATM   21  C   UNL     1      -8.618   6.215  66.897  1.00  0.00    -0.109 A  
HETATM   22  C   UNL     1     -10.736   5.944  68.708  1.00  0.00    -0.354 A  
HETATM   23  C   UNL     1      -9.923   6.552  66.516  1.00  0.00    -0.154 A  
HETATM   24  C   UNL     1      -8.382   5.761  68.202  1.00  0.00    -0.107 A  
HETATM   25  C   UNL     1     -10.977   6.417  67.421  1.00  0.00    -0.463 A  
HETATM   26  C   UNL     1      -9.438   5.626  69.103  1.00  0.00    -0.161 A  
ENDBRANCH  20  21
ENDBRANCH  19  20
ENDBRANCH  18  19
ENDBRANCH  16  18
ENDBRANCH  15  16
ENDBRANCH  14  15
BRANCH  14  27
HETATM   27  C   UNL     1      -6.938  11.635  67.941  1.00  0.00    -0.080 C  
BRANCH  27  28
HETATM   28  O   UNL     1      -7.804  12.551  68.627  1.00  0.00    -0.120 OA 
BRANCH  28  29
HETATM   29  C   UNL     1      -8.380  13.495  67.830  1.00  0.00    -0.181 C  
HETATM   30  O   UNL     1      -7.814  14.082  66.920  1.00  0.00     0.018 OA 
BRANCH  29  31
HETATM   31  C   UNL     1      -9.820  13.701  68.228  1.00  0.00    -0.232 C  
BRANCH  31  32
HETATM   32  C   UNL     1     -10.427  12.439  68.831  1.00  0.00    -0.118 C  
BRANCH  32  33
HETATM   33  C   UNL     1     -11.724  12.010  68.133  1.00  0.00    -0.398 C  
BRANCH  33  34
HETATM   34  C   UNL     1     -11.717  12.462  66.695  1.00  0.00    -0.438 A  
HETATM   35  C   UNL     1     -11.859  13.206  63.998  1.00  0.00    -0.514 A  
HETATM   36  C   UNL     1     -12.430  13.605  66.312  1.00  0.00    -0.420 A  
HETATM   37  C   UNL     1     -12.500  13.975  64.969  1.00  0.00    -0.446 A  
HETATM   38  C   UNL     1     -11.137  12.074  64.373  1.00  0.00    -0.399 A  
HETATM   39  C   UNL     1     -11.065  11.703  65.715  1.00  0.00    -0.313 A  
ENDBRANCH  33  34
ENDBRANCH  32  33
ENDBRANCH  31  32
ENDBRANCH  29  31
ENDBRANCH  28  29
ENDBRANCH  27  28
ENDBRANCH  14  27
ENDBRANCH  13  14
ENDBRANCH  12  13
ENDBRANCH   2  12
TORSDOF 20
ENDMDL
MODEL      251
REMARK 921   NORMALIZED FREE ENERGY PREDICTED BY IDOCK:   -3.97 KCAL/MOL
REMARK 922        TOTAL FREE ENERGY PREDICTED BY IDOCK:  -13.30 KCAL/MOL
REMARK 923 INTER-LIGAND FREE ENERGY PREDICTED BY IDOCK:  -10.30 KCAL/MOL
REMARK 924 INTRA-LIGAND FREE ENERGY PREDICTED BY IDOCK:   -3.00 KCAL/MOL
REMARK 927      BINDING AFFINITY PREDICTED BY RF-SCORE:    0.00 PKD
ROOT
HETATM    1  O   UNL     1      -7.044  10.492  69.822  1.00  0.00    -0.126 OA 
HETATM    2  C   UNL     1      -8.217  10.175  69.680  1.00  0.00    -0.165 C  
ENDROOT
BRANCH   2   3
HETATM    3  C   UNL     1      -8.993   9.331  70.663  1.00  0.00    -0.296 C  
BRANCH   3   4
HETATM    4  C   UNL     1     -10.505   9.471  70.478  1.00  0.00    -0.358 C  
BRANCH   4   5
HETATM    5  C   UNL     1     -11.264   9.379  71.806  1.00  0.00    -0.359 C  
BRANCH   5   6
HETATM    6  C   UNL     1     -11.132   8.017  72.440  1.00  0.00    -0.416 A  
HETATM    7  C   UNL     1     -10.323   7.838  73.571  1.00  0.00    -0.195 A  
HETATM    8  C   UNL     1     -10.868   5.484  73.614  1.00  0.00    -0.294 A  
HETATM    9  C   UNL     1     -10.194   6.578  74.155  1.00  0.00    -0.380 A  
HETATM   10  C   UNL     1     -11.801   6.910  71.901  1.00  0.00    -0.351 A  
HETATM   11  C   UNL     1     -11.671   5.651  72.487  1.00  0.00    -0.255 A  
ENDBRANCH   5   6
ENDBRANCH   4   5
ENDBRANCH   3   4
ENDBRANCH   2   3
BRANCH   2  12
HETATM   12  O   UNL     1      -9.005  10.525  68.627  1.00  0.00    -0.145 OA 
BRANCH  12  13
HETATM   13  C   UNL     1      -9.338  11.921  68.508  1.00  0.00    -0.140 C  
BRANCH  13  14
HETATM   14  C   UNL     1      -8.922  12.442  67.129  1.00  0.00    -0.195 C  
BRANCH  14  15
HETATM   15  O   UNL     1     -10.056  12.371  66.239  1.00  0.00    -0.231 OA 
BRANCH  15  16
HETATM   16  C   UNL     1     -11.236  12.825  66.739  1.00  0.00    -0.295 C  
HETATM   17  O   UNL     1     -12.251  12.161  66.885  1.00  0.00    -0.537 OA 
BRANCH  16  18
HETATM   18  C   UNL     1     -11.124  14.294  67.063  1.00  0.00    -0.317 C  
BRANCH  18  19
HETATM   19  C   UNL     1     -10.853  15.130  65.817  1.00  0.00    -0.358 C  
BRANCH  19  20
HETATM   20  C   UNL     1      -9.573  15.967  65.923  1.00  0.00    -0.378 C  
BRANCH  20  21
HETATM   21  C   UNL     1      -9.869  17.259  66.642  1.00  0.00    -0.299 A  
HETATM   22  C   UNL     1     -10.204  19.733  67.908  1.00  0.00    -0.576 A  
HETATM   23  C   UNL     1      -9.505  17.422  67.984  1.00  0.00    -0.281 A  
HETATM   24  C   UNL     1     -10.423  18.342  65.946  1.00  0.00    -0.346 A  
HETATM   25  C   UNL     1      -9.674  18.656  68.614  1.00  0.00    -0.418 A  
HETATM   26  C   UNL     1     -10.588  19.575  66.577  1.00  0.00    -0.579 A  
ENDBRANCH  20  21
ENDBRANCH  19  20
ENDBRANCH  18  19
ENDBRANCH  16  18
ENDBRANCH  15  16
ENDBRANCH  14  15
BRANCH  14  27
HETATM   27  C   UNL     1      -7.803  11.582  66.528  1.00  0.00    -0.071 C  
BRANCH  27  28
HETATM   28  O   UNL     1      -8.258  10.861  65.374  1.00  0.00    -0.124 OA 
BRANCH  28  29
HETATM   29  C   UNL     1      -7.407   9.890  64.937  1.00  0.00    -0.136 C  
HETATM   30  O   UNL     1      -6.205  10.038  64.768  1.00  0.00    -0.103 OA 
BRANCH  29  31
HETATM   31  C   UNL     1      -8.162   8.606  64.701  1.00  0.00    -0.167 C  
BRANCH  31  32
HETATM   32  C   UNL     1      -8.876   8.130  65.961  1.00  0.00    -0.206 C  
BRANCH  32  33
HETATM   33  C   UNL     1      -7.910   7.625  67.040  1.00  0.00    -0.112 C  
BRANCH  33  34
HETATM   34  C   UNL     1      -8.620   6.680  67.975  1.00  0.00    -0.118 A  
HETATM   35  C   UNL     1      -9.943   4.799  69.574  1.00  0.00    -0.287 A  
HETATM   36  C   UNL     1      -7.890   5.740  68.715  1.00  0.00    -0.097 A  
HETATM   37  C   UNL     1      -8.550   4.804  69.511  1.00  0.00    -0.103 A  
HETATM   38  C   UNL     1     -10.675   5.738  68.850  1.00  0.00    -0.334 A  
HETATM   39  C   UNL     1     -10.018   6.675  68.054  1.00  0.00    -0.157 A  
ENDBRANCH  33  34
ENDBRANCH  32  33
ENDBRANCH  31  32
ENDBRANCH  29  31
ENDBRANCH  28  29
ENDBRANCH  27  28
ENDBRANCH  14  27
ENDBRANCH  13  14
ENDBRANCH  12  13
ENDBRANCH   2  12
TORSDOF 20
ENDMDL
MODEL      252
REMARK 921   NORMALIZED FREE ENERGY PREDICTED BY IDOCK:   -3.95 KCAL/MOL
REMARK 922        TOTAL FREE ENERGY PREDICTED BY IDOCK:  -13.24 KCAL/MOL
REMARK 923 INTER-LIGAND FREE ENERGY PREDICTED BY IDOCK:   -8.78 KCAL/MOL
REMARK 924 INTRA-LIGAND FREE ENERGY PREDICTED BY IDOCK:   -4.46 KCAL/MOL
REMARK 927      BINDING AFFINITY PREDICTED BY RF-SCORE:    0.00 PKD
ROOT
HETATM    1  O   UNL     1     -11.431   8.666  69.849  1.00  0.00    -0.046 OA 
HETATM    2  C   UNL     1     -11.696   8.624  71.042  1.00  0.00    -0.278 C  
ENDROOT
BRANCH   2   3
HETATM    3  C   UNL     1     -12.450   9.701  71.783  1.00  0.00    -0.487 C  
BRANCH   3   4
HETATM    4  C   UNL     1     -13.029  10.756  70.839  1.00  0.00    -0.385 C  
BRANCH   4   5
HETATM    5  C   UNL     1     -12.444  12.149  71.094  1.00  0.00    -0.337 C  
BRANCH   5   6
HETATM    6  C   UNL     1     -12.111  12.867  69.811  1.00  0.00    -0.312 A  
HETATM    7  C   UNL     1     -11.862  12.141  68.638  1.00  0.00    -0.358 A  
HETATM    8  C   UNL     1     -11.474  14.194  67.424  1.00  0.00    -0.369 A  
HETATM    9  C   UNL     1     -11.547  12.803  67.450  1.00  0.00    -0.415 A  
HETATM   10  C   UNL     1     -12.031  14.265  69.775  1.00  0.00    -0.394 A  
HETATM   11  C   UNL     1     -11.716  14.925  68.586  1.00  0.00    -0.358 A  
ENDBRANCH   5   6
ENDBRANCH   4   5
ENDBRANCH   3   4
ENDBRANCH   2   3
BRANCH   2  12
HETATM   12  O   UNL     1     -11.356   7.612  71.888  1.00  0.00    -0.250 OA 
BRANCH  12  13
HETATM   13  C   UNL     1     -10.462   7.949  72.967  1.00  0.00    -0.343 C  
BRANCH  13  14
HETATM   14  C   UNL     1      -9.286   6.969  72.995  1.00  0.00    -0.137 C  
BRANCH  14  15
HETATM   15  O   UNL     1      -8.405   7.263  71.891  1.00  0.00    -0.106 OA 
BRANCH  15  16
HETATM   16  C   UNL     1      -7.523   8.279  72.085  1.00  0.00    -0.118 C  
HETATM   17  O   UNL     1      -7.355   8.887  73.131  1.00  0.00    -0.355 OA 
BRANCH  16  18
HETATM   18  C   UNL     1      -6.790   8.575  70.800  1.00  0.00    -0.044 C  
BRANCH  18  19
HETATM   19  C   UNL     1      -7.697   8.423  69.584  1.00  0.00    -0.095 C  
BRANCH  19  20
HETATM   20  C   UNL     1      -8.252   9.761  69.079  1.00  0.00    -0.121 C  
BRANCH  20  21
HETATM   21  C   UNL     1      -8.463   9.693  67.588  1.00  0.00    -0.125 A  
HETATM   22  C   UNL     1      -8.857   9.805  64.819  1.00  0.00    -0.239 A  
HETATM   23  C   UNL     1      -9.759   9.685  67.056  1.00  0.00    -0.232 A  
HETATM   24  C   UNL     1      -7.366   9.737  66.717  1.00  0.00    -0.091 A  
HETATM   25  C   UNL     1      -9.952   9.740  65.675  1.00  0.00    -0.352 A  
HETATM   26  C   UNL     1      -7.563   9.794  65.338  1.00  0.00    -0.121 A  
ENDBRANCH  20  21
ENDBRANCH  19  20
ENDBRANCH  18  19
ENDBRANCH  16  18
ENDBRANCH  15  16
ENDBRANCH  14  15
BRANCH  14  27
HETATM   27  C   UNL     1      -9.768   5.522  72.835  1.00  0.00    -0.154 C  
BRANCH  27  28
HETATM   28  O   UNL     1      -9.006   4.822  71.841  1.00  0.00    -0.125 OA 
BRANCH  28  29
HETATM   29  C   UNL     1      -9.749   4.089  70.965  1.00  0.00    -0.182 C  
HETATM   30  O   UNL     1      -9.713   2.871  70.866  1.00  0.00    -0.154 OA 
BRANCH  29  31
HETATM   31  C   UNL     1     -10.627   4.997  70.142  1.00  0.00    -0.115 C  
BRANCH  31  32
HETATM   32  C   UNL     1      -9.839   5.702  69.042  1.00  0.00    -0.210 C  
BRANCH  32  33
HETATM   33  C   UNL     1     -10.673   5.953  67.779  1.00  0.00    -0.346 C  
BRANCH  33  34
HETATM   34  C   UNL     1      -9.867   5.620  66.549  1.00  0.00    -0.195 A  
HETATM   35  C   UNL     1      -8.259   4.900  64.372  1.00  0.00    -0.124 A  
HETATM   36  C   UNL     1     -10.132   4.447  65.829  1.00  0.00    -0.262 A  
HETATM   37  C   UNL     1      -9.331   4.090  64.744  1.00  0.00    -0.162 A  
HETATM   38  C   UNL     1      -7.996   6.074  65.075  1.00  0.00    -0.125 A  
HETATM   39  C   UNL     1      -8.797   6.434  66.159  1.00  0.00    -0.158 A  
ENDBRANCH  33  34
ENDBRANCH  32  33
ENDBRANCH  31  32
ENDBRANCH  29  31
ENDBRANCH  28  29
ENDBRANCH  27  28
ENDBRANCH  14  27
ENDBRANCH  13  14
ENDBRANCH  12  13
ENDBRANCH   2  12
TORSDOF 20
ENDMDL
MODEL      253
REMARK 921   NORMALIZED FREE ENERGY PREDICTED BY IDOCK:   -3.94 KCAL/MOL
REMARK 922        TOTAL FREE ENERGY PREDICTED BY IDOCK:  -13.23 KCAL/MOL
REMARK 923 INTER-LIGAND FREE ENERGY PREDICTED BY IDOCK:   -8.78 KCAL/MOL
REMARK 924 INTRA-LIGAND FREE ENERGY PREDICTED BY IDOCK:   -4.45 KCAL/MOL
REMARK 927      BINDING AFFINITY PREDICTED BY RF-SCORE:    0.00 PKD
ROOT
HETATM    1  O   UNL     1     -11.976  12.346  66.079  1.00  0.00    -0.537 OA 
HETATM    2  C   UNL     1     -11.565  12.373  67.231  1.00  0.00    -0.365 C  
ENDROOT
BRANCH   2   3
HETATM    3  C   UNL     1     -10.446  13.266  67.712  1.00  0.00    -0.242 C  
BRANCH   3   4
HETATM    4  C   UNL     1     -10.429  14.613  66.988  1.00  0.00    -0.269 C  
BRANCH   4   5
HETATM    5  C   UNL     1      -9.052  15.285  67.045  1.00  0.00    -0.245 C  
BRANCH   5   6
HETATM    6  C   UNL     1      -7.994  14.363  67.596  1.00  0.00    -0.191 A  
HETATM    7  C   UNL     1      -7.249  14.735  68.724  1.00  0.00    -0.125 A  
HETATM    8  C   UNL     1      -6.011  12.662  68.615  1.00  0.00    -0.065 A  
HETATM    9  C   UNL     1      -6.264  13.887  69.231  1.00  0.00    -0.107 A  
HETATM   10  C   UNL     1      -7.729  13.132  66.982  1.00  0.00     0.080 A  
HETATM   11  C   UNL     1      -6.744  12.286  67.491  1.00  0.00    -0.138 A  
ENDBRANCH   5   6
ENDBRANCH   4   5
ENDBRANCH   3   4
ENDBRANCH   2   3
BRANCH   2  12
HETATM   12  O   UNL     1     -12.041  11.612  68.254  1.00  0.00    -0.552 OA 
BRANCH  12  13
HETATM   13  C   UNL     1     -12.079  12.232  69.554  1.00  0.00    -0.198 C  
BRANCH  13  14
HETATM   14  C   UNL     1     -11.543  11.262  70.611  1.00  0.00    -0.013 C  
BRANCH  14  15
HETATM   15  O   UNL     1     -10.959  10.121  69.947  1.00  0.00    -0.252 OA 
BRANCH  15  16
HETATM   16  C   UNL     1      -9.711   9.767  70.354  1.00  0.00    -0.184 C  
HETATM   17  O   UNL     1      -9.428   9.274  71.435  1.00  0.00    -0.245 OA 
BRANCH  16  18
HETATM   18  C   UNL     1      -8.707  10.099  69.279  1.00  0.00    -0.186 C  
BRANCH  18  19
HETATM   19  C   UNL     1      -8.493   8.931  68.323  1.00  0.00    -0.130 C  
BRANCH  19  20
HETATM   20  C   UNL     1      -9.445   8.956  67.122  1.00  0.00    -0.202 C  
BRANCH  20  21
HETATM   21  C   UNL     1      -9.696   7.549  66.643  1.00  0.00    -0.273 A  
HETATM   22  C   UNL     1     -10.048   4.860  65.948  1.00  0.00    -0.234 A  
HETATM   23  C   UNL     1      -8.753   6.896  65.838  1.00  0.00    -0.146 A  
HETATM   24  C   UNL     1     -10.827   6.846  67.079  1.00  0.00    -0.436 A  
HETATM   25  C   UNL     1      -8.932   5.556  65.492  1.00  0.00    -0.133 A  
HETATM   26  C   UNL     1     -11.001   5.506  66.733  1.00  0.00    -0.112 A  
ENDBRANCH  20  21
ENDBRANCH  19  20
ENDBRANCH  18  19
ENDBRANCH  16  18
ENDBRANCH  15  16
ENDBRANCH  14  15
BRANCH  14  27
HETATM   27  C   UNL     1     -12.671  10.749  71.514  1.00  0.00    -0.431 C  
BRANCH  27  28
HETATM   28  O   UNL     1     -13.101   9.437  71.122  1.00  0.00    -0.307 OA 
BRANCH  28  29
HETATM   29  C   UNL     1     -12.830   8.455  72.027  1.00  0.00    -0.354 C  
HETATM   30  O   UNL     1     -12.505   8.646  73.190  1.00  0.00    -0.082 OA 
BRANCH  29  31
HETATM   31  C   UNL     1     -12.999   7.099  71.388  1.00  0.00    -0.419 C  
BRANCH  31  32
HETATM   32  C   UNL     1     -11.789   6.716  70.545  1.00  0.00    -0.430 C  
BRANCH  32  33
HETATM   33  C   UNL     1     -10.703   5.993  71.353  1.00  0.00    -0.314 C  
BRANCH  33  34
HETATM   34  C   UNL     1      -9.668   5.407  70.428  1.00  0.00    -0.254 A  
HETATM   35  C   UNL     1      -7.840   4.387  68.566  1.00  0.00    -0.074 A  
HETATM   36  C   UNL     1      -8.588   6.188  69.993  1.00  0.00    -0.136 A  
HETATM   37  C   UNL     1      -7.678   5.679  69.067  1.00  0.00    -0.089 A  
HETATM   38  C   UNL     1      -8.904   3.600  69.003  1.00  0.00    -0.156 A  
HETATM   39  C   UNL     1      -9.814   4.107  69.930  1.00  0.00    -0.233 A  
ENDBRANCH  33  34
ENDBRANCH  32  33
ENDBRANCH  31  32
ENDBRANCH  29  31
ENDBRANCH  28  29
ENDBRANCH  27  28
ENDBRANCH  14  27
ENDBRANCH  13  14
ENDBRANCH  12  13
ENDBRANCH   2  12
TORSDOF 20
ENDMDL
MODEL      254
REMARK 921   NORMALIZED FREE ENERGY PREDICTED BY IDOCK:   -3.93 KCAL/MOL
REMARK 922        TOTAL FREE ENERGY PREDICTED BY IDOCK:  -13.22 KCAL/MOL
REMARK 923 INTER-LIGAND FREE ENERGY PREDICTED BY IDOCK:  -10.83 KCAL/MOL
REMARK 924 INTRA-LIGAND FREE ENERGY PREDICTED BY IDOCK:   -2.38 KCAL/MOL
REMARK 927      BINDING AFFINITY PREDICTED BY RF-SCORE:    0.00 PKD
ROOT
HETATM    1  O   UNL     1     -12.678  14.183  66.505  1.00  0.00    -0.299 OA 
HETATM    2  C   UNL     1     -11.961  13.386  65.916  1.00  0.00    -0.409 C  
ENDROOT
BRANCH   2   3
HETATM    3  C   UNL     1     -10.997  13.763  64.816  1.00  0.00    -0.396 C  
BRANCH   3   4
HETATM    4  C   UNL     1     -10.547  15.222  64.916  1.00  0.00    -0.379 C  
BRANCH   4   5
HETATM    5  C   UNL     1      -9.439  15.417  65.958  1.00  0.00    -0.381 C  
BRANCH   5   6
HETATM    6  C   UNL     1      -9.436  16.814  66.525  1.00  0.00    -0.287 A  
HETATM    7  C   UNL     1      -8.278  17.603  66.455  1.00  0.00    -0.307 A  
HETATM    8  C   UNL     1      -9.414  19.407  67.592  1.00  0.00    -0.395 A  
HETATM    9  C   UNL     1      -8.270  18.894  66.985  1.00  0.00    -0.281 A  
HETATM   10  C   UNL     1     -10.579  17.339  67.141  1.00  0.00    -0.256 A  
HETATM   11  C   UNL     1     -10.568  18.629  67.670  1.00  0.00    -0.458 A  
ENDBRANCH   5   6
ENDBRANCH   4   5
ENDBRANCH   3   4
ENDBRANCH   2   3
BRANCH   2  12
HETATM   12  O   UNL     1     -11.916  12.046  66.150  1.00  0.00    -0.581 OA 
BRANCH  12  13
HETATM   13  C   UNL     1     -10.695  11.532  66.717  1.00  0.00    -0.270 C  
BRANCH  13  14
HETATM   14  C   UNL     1     -10.624  11.881  68.207  1.00  0.00    -0.213 C  
BRANCH  14  15
HETATM   15  O   UNL     1      -9.519  11.170  68.802  1.00  0.00    -0.191 OA 
BRANCH  15  16
HETATM   16  C   UNL     1      -8.887  10.270  68.002  1.00  0.00    -0.122 C  
HETATM   17  O   UNL     1      -7.954  10.515  67.253  1.00  0.00    -0.112 OA 
BRANCH  16  18
HETATM   18  C   UNL     1      -9.528   8.913  68.150  1.00  0.00    -0.155 C  
BRANCH  18  19
HETATM   19  C   UNL     1      -8.679   7.814  67.521  1.00  0.00    -0.125 C  
BRANCH  19  20
HETATM   20  C   UNL     1      -9.102   7.476  66.086  1.00  0.00    -0.179 C  
BRANCH  20  21
HETATM   21  C   UNL     1      -8.840   6.018  65.810  1.00  0.00    -0.143 A  
HETATM   22  C   UNL     1      -8.286   3.289  65.523  1.00  0.00    -0.097 A  
HETATM   23  C   UNL     1      -7.571   5.592  65.396  1.00  0.00    -0.083 A  
HETATM   24  C   UNL     1      -9.834   5.063  66.057  1.00  0.00    -0.206 A  
HETATM   25  C   UNL     1      -7.298   4.231  65.253  1.00  0.00    -0.072 A  
HETATM   26  C   UNL     1      -9.558   3.703  65.916  1.00  0.00    -0.142 A  
ENDBRANCH  20  21
ENDBRANCH  19  20
ENDBRANCH  18  19
ENDBRANCH  16  18
ENDBRANCH  15  16
ENDBRANCH  14  15
BRANCH  14  27
HETATM   27  C   UNL     1     -11.903  11.451  68.936  1.00  0.00    -0.347 C  
BRANCH  27  28
HETATM   28  O   UNL     1     -11.866  11.820  70.322  1.00  0.00    -0.329 OA 
BRANCH  28  29
HETATM   29  C   UNL     1     -12.420  10.909  71.171  1.00  0.00    -0.405 C  
HETATM   30  O   UNL     1     -13.529  11.009  71.676  1.00  0.00    -0.278 OA 
BRANCH  29  31
HETATM   31  C   UNL     1     -11.472   9.757  71.387  1.00  0.00    -0.435 C  
BRANCH  31  32
HETATM   32  C   UNL     1     -12.168   8.411  71.218  1.00  0.00    -0.305 C  
BRANCH  32  33
HETATM   33  C   UNL     1     -11.687   7.360  72.228  1.00  0.00    -0.326 C  
BRANCH  33  34
HETATM   34  C   UNL     1     -11.076   6.186  71.507  1.00  0.00    -0.342 A  
HETATM   35  C   UNL     1      -9.777   4.094  70.173  1.00  0.00    -0.278 A  
HETATM   36  C   UNL     1     -10.465   5.154  72.232  1.00  0.00    -0.277 A  
HETATM   37  C   UNL     1      -9.819   4.112  71.567  1.00  0.00    -0.255 A  
HETATM   38  C   UNL     1     -10.393   5.110  69.445  1.00  0.00    -0.265 A  
HETATM   39  C   UNL     1     -11.040   6.152  70.107  1.00  0.00    -0.448 A  
ENDBRANCH  33  34
ENDBRANCH  32  33
ENDBRANCH  31  32
ENDBRANCH  29  31
ENDBRANCH  28  29
ENDBRANCH  27  28
ENDBRANCH  14  27
ENDBRANCH  13  14
ENDBRANCH  12  13
ENDBRANCH   2  12
TORSDOF 20
ENDMDL
MODEL      255
REMARK 921   NORMALIZED FREE ENERGY PREDICTED BY IDOCK:   -3.93 KCAL/MOL
REMARK 922        TOTAL FREE ENERGY PREDICTED BY IDOCK:  -13.21 KCAL/MOL
REMARK 923 INTER-LIGAND FREE ENERGY PREDICTED BY IDOCK:  -10.33 KCAL/MOL
REMARK 924 INTRA-LIGAND FREE ENERGY PREDICTED BY IDOCK:   -2.89 KCAL/MOL
REMARK 927      BINDING AFFINITY PREDICTED BY RF-SCORE:    0.00 PKD
ROOT
HETATM    1  O   UNL     1      -5.871  11.132  71.399  1.00  0.00    -0.355 OA 
HETATM    2  C   UNL     1      -6.211  10.834  70.263  1.00  0.00    -0.146 C  
ENDROOT
BRANCH   2   3
HETATM    3  C   UNL     1      -5.794   9.568  69.555  1.00  0.00    -0.033 C  
BRANCH   3   4
HETATM    4  C   UNL     1      -6.916   8.991  68.691  1.00  0.00    -0.063 C  
BRANCH   4   5
HETATM    5  C   UNL     1      -7.258   7.546  69.072  1.00  0.00    -0.085 C  
BRANCH   5   6
HETATM    6  C   UNL     1      -8.573   7.101  68.483  1.00  0.00    -0.124 A  
HETATM    7  C   UNL     1      -9.069   7.709  67.320  1.00  0.00    -0.142 A  
HETATM    8  C   UNL     1     -11.025   6.293  67.389  1.00  0.00    -0.447 A  
HETATM    9  C   UNL     1     -10.288   7.304  66.776  1.00  0.00    -0.311 A  
HETATM   10  C   UNL     1      -9.324   6.089  69.093  1.00  0.00    -0.136 A  
HETATM   11  C   UNL     1     -10.543   5.685  68.548  1.00  0.00    -0.259 A  
ENDBRANCH   5   6
ENDBRANCH   4   5
ENDBRANCH   3   4
ENDBRANCH   2   3
BRANCH   2  12
HETATM   12  O   UNL     1      -7.011  11.587  69.458  1.00  0.00    -0.107 OA 
BRANCH  12  13
HETATM   13  C   UNL     1      -6.374  12.660  68.739  1.00  0.00    -0.080 C  
BRANCH  13  14
HETATM   14  C   UNL     1      -7.358  13.275  67.739  1.00  0.00    -0.147 C  
BRANCH  14  15
HETATM   15  O   UNL     1      -6.902  14.598  67.388  1.00  0.00    -0.215 OA 
BRANCH  15  16
HETATM   16  C   UNL     1      -7.679  15.630  67.812  1.00  0.00    -0.143 C  
HETATM   17  O   UNL     1      -8.764  15.944  67.347  1.00  0.00    -0.174 OA 
BRANCH  16  18
HETATM   18  C   UNL     1      -6.990  16.363  68.936  1.00  0.00    -0.186 C  
BRANCH  18  19
HETATM   19  C   UNL     1      -6.366  17.671  68.462  1.00  0.00    -0.185 C  
BRANCH  19  20
HETATM   20  C   UNL     1      -7.045  18.909  69.059  1.00  0.00    -0.339 C  
BRANCH  20  21
HETATM   21  C   UNL     1      -8.251  19.276  68.233  1.00  0.00    -0.372 A  
HETATM   22  C   UNL     1     -10.499  19.731  66.628  1.00  0.00    -0.615 A  
HETATM   23  C   UNL     1      -8.100  19.680  66.900  1.00  0.00    -0.315 A  
HETATM   24  C   UNL     1      -9.540  19.124  68.759  1.00  0.00    -0.474 A  
HETATM   25  C   UNL     1      -9.222  19.906  66.102  1.00  0.00    -0.414 A  
HETATM   26  C   UNL     1     -10.660  19.350  67.959  1.00  0.00    -0.453 A  
ENDBRANCH  20  21
ENDBRANCH  19  20
ENDBRANCH  18  19
ENDBRANCH  16  18
ENDBRANCH  15  16
ENDBRANCH  14  15
BRANCH  14  27
HETATM   27  C   UNL     1      -8.756  13.412  68.353  1.00  0.00    -0.134 C  
BRANCH  27  28
HETATM   28  O   UNL     1      -9.740  12.710  67.579  1.00  0.00    -0.190 OA 
BRANCH  28  29
HETATM   29  C   UNL     1     -11.023  12.869  68.008  1.00  0.00    -0.247 C  
HETATM   30  O   UNL     1     -11.497  13.919  68.420  1.00  0.00    -0.273 OA 
BRANCH  29  31
HETATM   31  C   UNL     1     -11.775  11.568  67.893  1.00  0.00    -0.317 C  
BRANCH  31  32
HETATM   32  C   UNL     1     -10.910  10.377  68.292  1.00  0.00    -0.299 C  
BRANCH  32  33
HETATM   33  C   UNL     1     -10.557  10.370  69.785  1.00  0.00    -0.302 C  
BRANCH  33  34
HETATM   34  C   UNL     1     -11.570   9.562  70.556  1.00  0.00    -0.316 A  
HETATM   35  C   UNL     1     -13.533   8.021  71.827  1.00  0.00    -0.378 A  
HETATM   36  C   UNL     1     -11.387   8.183  70.728  1.00  0.00    -0.283 A  
HETATM   37  C   UNL     1     -12.366   7.417  71.362  1.00  0.00    -0.394 A  
HETATM   38  C   UNL     1     -13.716   9.394  71.670  1.00  0.00    -0.393 A  
HETATM   39  C   UNL     1     -12.739  10.162  71.038  1.00  0.00    -0.481 A  
ENDBRANCH  33  34
ENDBRANCH  32  33
ENDBRANCH  31  32
ENDBRANCH  29  31
ENDBRANCH  28  29
ENDBRANCH  27  28
ENDBRANCH  14  27
ENDBRANCH  13  14
ENDBRANCH  12  13
ENDBRANCH   2  12
TORSDOF 20
ENDMDL
MODEL      256
REMARK 921   NORMALIZED FREE ENERGY PREDICTED BY IDOCK:   -3.93 KCAL/MOL
REMARK 922        TOTAL FREE ENERGY PREDICTED BY IDOCK:  -13.21 KCAL/MOL
REMARK 923 INTER-LIGAND FREE ENERGY PREDICTED BY IDOCK:   -9.41 KCAL/MOL
REMARK 924 INTRA-LIGAND FREE ENERGY PREDICTED BY IDOCK:   -3.81 KCAL/MOL
REMARK 927      BINDING AFFINITY PREDICTED BY RF-SCORE:    0.00 PKD
ROOT
HETATM    1  O   UNL     1      -8.397   6.552  72.954  1.00  0.00    -0.116 OA 
HETATM    2  C   UNL     1      -8.552   7.749  72.756  1.00  0.00    -0.153 C  
ENDROOT
BRANCH   2   3
HETATM    3  C   UNL     1      -7.469   8.674  72.256  1.00  0.00    -0.036 C  
BRANCH   3   4
HETATM    4  C   UNL     1      -6.865   8.198  70.934  1.00  0.00    -0.042 C  
BRANCH   4   5
HETATM    5  C   UNL     1      -7.938   7.907  69.878  1.00  0.00    -0.109 C  
BRANCH   5   6
HETATM    6  C   UNL     1      -8.031   9.004  68.848  1.00  0.00    -0.100 A  
HETATM    7  C   UNL     1      -8.602   8.750  67.593  1.00  0.00    -0.128 A  
HETATM    8  C   UNL     1      -8.193  11.035  66.921  1.00  0.00    -0.140 A  
HETATM    9  C   UNL     1      -8.684   9.762  66.636  1.00  0.00    -0.142 A  
HETATM   10  C   UNL     1      -7.537  10.286  69.123  1.00  0.00    -0.111 A  
HETATM   11  C   UNL     1      -7.620  11.296  68.164  1.00  0.00    -0.105 A  
ENDBRANCH   5   6
ENDBRANCH   4   5
ENDBRANCH   3   4
ENDBRANCH   2   3
BRANCH   2  12
HETATM   12  O   UNL     1      -9.712   8.436  72.951  1.00  0.00    -0.263 OA 
BRANCH  12  13
HETATM   13  C   UNL     1     -10.513   8.693  71.782  1.00  0.00    -0.324 C  
BRANCH  13  14
HETATM   14  C   UNL     1     -11.994   8.474  72.106  1.00  0.00    -0.383 C  
BRANCH  14  15
HETATM   15  O   UNL     1     -12.539   7.514  71.176  1.00  0.00    -0.317 OA 
BRANCH  15  16
HETATM   16  C   UNL     1     -11.654   6.629  70.644  1.00  0.00    -0.382 C  
HETATM   17  O   UNL     1     -11.110   5.716  71.247  1.00  0.00    -0.229 OA 
BRANCH  16  18
HETATM   18  C   UNL     1     -11.413   6.954  69.192  1.00  0.00    -0.025 C  
BRANCH  18  19
HETATM   19  C   UNL     1     -10.563   5.890  68.507  1.00  0.00    -0.317 C  
BRANCH  19  20
HETATM   20  C   UNL     1     -10.888   5.730  67.017  1.00  0.00    -0.328 C  
BRANCH  20  21
HETATM   21  C   UNL     1      -9.725   5.083  66.310  1.00  0.00    -0.195 A  
HETATM   22  C   UNL     1      -7.446   3.895  65.200  1.00  0.00    -0.077 A  
HETATM   23  C   UNL     1      -8.752   5.869  65.680  1.00  0.00    -0.149 A  
HETATM   24  C   UNL     1      -9.555   3.693  66.358  1.00  0.00    -0.152 A  
HETATM   25  C   UNL     1      -7.617   5.275  65.127  1.00  0.00    -0.082 A  
HETATM   26  C   UNL     1      -8.418   3.102  65.807  1.00  0.00    -0.108 A  
ENDBRANCH  20  21
ENDBRANCH  19  20
ENDBRANCH  18  19
ENDBRANCH  16  18
ENDBRANCH  15  16
ENDBRANCH  14  15
BRANCH  14  27
HETATM   27  C   UNL     1     -12.791   9.774  71.954  1.00  0.00    -0.427 C  
BRANCH  27  28
HETATM   28  O   UNL     1     -12.682  10.306  70.626  1.00  0.00    -0.327 OA 
BRANCH  28  29
HETATM   29  C   UNL     1     -12.243  11.594  70.562  1.00  0.00    -0.361 C  
HETATM   30  O   UNL     1     -12.714  12.525  71.200  1.00  0.00    -0.354 OA 
BRANCH  29  31
HETATM   31  C   UNL     1     -11.089  11.703  69.598  1.00  0.00    -0.177 C  
BRANCH  31  32
HETATM   32  C   UNL     1     -11.566  11.865  68.159  1.00  0.00    -0.400 C  
BRANCH  32  33
HETATM   33  C   UNL     1     -11.175  13.217  67.549  1.00  0.00    -0.309 C  
BRANCH  33  34
HETATM   34  C   UNL     1     -11.454  13.222  66.069  1.00  0.00    -0.360 A  
HETATM   35  C   UNL     1     -12.151  13.193  63.356  1.00  0.00    -0.558 A  
HETATM   36  C   UNL     1     -11.905  14.391  65.440  1.00  0.00    -0.366 A  
HETATM   37  C   UNL     1     -12.251  14.375  64.089  1.00  0.00    -0.393 A  
HETATM   38  C   UNL     1     -11.692  12.029  63.971  1.00  0.00    -0.498 A  
HETATM   39  C   UNL     1     -11.345  12.043  65.321  1.00  0.00    -0.366 A  
ENDBRANCH  33  34
ENDBRANCH  32  33
ENDBRANCH  31  32
ENDBRANCH  29  31
ENDBRANCH  28  29
ENDBRANCH  27  28
ENDBRANCH  14  27
ENDBRANCH  13  14
ENDBRANCH  12  13
ENDBRANCH   2  12
TORSDOF 20
ENDMDL
MODEL      257
REMARK 921   NORMALIZED FREE ENERGY PREDICTED BY IDOCK:   -3.93 KCAL/MOL
REMARK 922        TOTAL FREE ENERGY PREDICTED BY IDOCK:  -13.21 KCAL/MOL
REMARK 923 INTER-LIGAND FREE ENERGY PREDICTED BY IDOCK:   -9.39 KCAL/MOL
REMARK 924 INTRA-LIGAND FREE ENERGY PREDICTED BY IDOCK:   -3.82 KCAL/MOL
REMARK 927      BINDING AFFINITY PREDICTED BY RF-SCORE:    0.00 PKD
ROOT
HETATM    1  O   UNL     1     -11.383   8.340  72.918  1.00  0.00    -0.342 OA 
HETATM    2  C   UNL     1     -12.151   7.969  72.041  1.00  0.00    -0.331 C  
ENDROOT
BRANCH   2   3
HETATM    3  C   UNL     1     -13.305   8.790  71.520  1.00  0.00    -0.355 C  
BRANCH   3   4
HETATM    4  C   UNL     1     -13.245  10.242  72.000  1.00  0.00    -0.516 C  
BRANCH   4   5
HETATM    5  C   UNL     1     -12.389  11.122  71.082  1.00  0.00    -0.451 C  
BRANCH   5   6
HETATM    6  C   UNL     1     -12.751  12.581  71.199  1.00  0.00    -0.340 A  
HETATM    7  C   UNL     1     -13.752  12.993  72.090  1.00  0.00    -0.547 A  
HETATM    8  C   UNL     1     -13.442  15.290  71.410  1.00  0.00    -0.588 A  
HETATM    9  C   UNL     1     -14.093  14.342  72.196  1.00  0.00    -0.634 A  
HETATM   10  C   UNL     1     -12.106  13.542  70.411  1.00  0.00    -0.415 A  
HETATM   11  C   UNL     1     -12.449  14.890  70.517  1.00  0.00    -0.419 A  
ENDBRANCH   5   6
ENDBRANCH   4   5
ENDBRANCH   3   4
ENDBRANCH   2   3
BRANCH   2  12
HETATM   12  O   UNL     1     -12.093   6.769  71.400  1.00  0.00    -0.333 OA 
BRANCH  12  13
HETATM   13  C   UNL     1     -11.321   5.734  72.040  1.00  0.00    -0.228 C  
BRANCH  13  14
HETATM   14  C   UNL     1      -9.992   5.544  71.303  1.00  0.00    -0.192 C  
BRANCH  14  15
HETATM   15  O   UNL     1      -9.713   6.727  70.527  1.00  0.00    -0.175 OA 
BRANCH  15  16
HETATM   16  C   UNL     1      -8.634   7.457  70.916  1.00  0.00    -0.135 C  
HETATM   17  O   UNL     1      -7.995   7.291  71.944  1.00  0.00    -0.091 OA 
BRANCH  16  18
HETATM   18  C   UNL     1      -8.349   8.534  69.900  1.00  0.00    -0.123 C  
BRANCH  18  19
HETATM   19  C   UNL     1      -9.584   9.381  69.612  1.00  0.00    -0.199 C  
BRANCH  19  20
HETATM   20  C   UNL     1      -9.254  10.703  68.910  1.00  0.00    -0.189 C  
BRANCH  20  21
HETATM   21  C   UNL     1      -9.085  10.464  67.431  1.00  0.00    -0.144 A  
HETATM   22  C   UNL     1      -8.778  10.257  64.656  1.00  0.00    -0.203 A  
HETATM   23  C   UNL     1     -10.206  10.325  66.603  1.00  0.00    -0.294 A  
HETATM   24  C   UNL     1      -7.807  10.477  66.855  1.00  0.00    -0.117 A  
HETATM   25  C   UNL     1     -10.050  10.221  65.220  1.00  0.00    -0.359 A  
HETATM   26  C   UNL     1      -7.655  10.375  65.473  1.00  0.00    -0.144 A  
ENDBRANCH  20  21
ENDBRANCH  19  20
ENDBRANCH  18  19
ENDBRANCH  16  18
ENDBRANCH  15  16
ENDBRANCH  14  15
BRANCH  14  27
HETATM   27  C   UNL     1     -10.061   4.357  70.335  1.00  0.00    -0.104 C  
BRANCH  27  28
HETATM   28  O   UNL     1      -9.410   3.198  70.877  1.00  0.00    -0.124 OA 
BRANCH  28  29
HETATM   29  C   UNL     1      -8.124   3.403  71.279  1.00  0.00    -0.060 C  
HETATM   30  O   UNL     1      -7.705   3.206  72.410  1.00  0.00    -0.055 OA 
BRANCH  29  31
HETATM   31  C   UNL     1      -7.293   3.899  70.123  1.00  0.00    -0.042 C  
BRANCH  31  32
HETATM   32  C   UNL     1      -7.374   2.962  68.923  1.00  0.00    -0.048 C  
BRANCH  32  33
HETATM   33  C   UNL     1      -7.025   3.656  67.600  1.00  0.00    -0.054 C  
BRANCH  33  34
HETATM   34  C   UNL     1      -8.128   4.603  67.201  1.00  0.00    -0.102 A  
HETATM   35  C   UNL     1     -10.211   6.389  66.639  1.00  0.00    -0.216 A  
HETATM   36  C   UNL     1      -7.877   5.979  67.110  1.00  0.00    -0.102 A  
HETATM   37  C   UNL     1      -8.915   6.867  66.830  1.00  0.00    -0.128 A  
HETATM   38  C   UNL     1     -10.466   5.021  66.716  1.00  0.00    -0.273 A  
HETATM   39  C   UNL     1      -9.430   4.131  66.995  1.00  0.00    -0.215 A  
ENDBRANCH  33  34
ENDBRANCH  32  33
ENDBRANCH  31  32
ENDBRANCH  29  31
ENDBRANCH  28  29
ENDBRANCH  27  28
ENDBRANCH  14  27
ENDBRANCH  13  14
ENDBRANCH  12  13
ENDBRANCH   2  12
TORSDOF 20
ENDMDL
MODEL      258
REMARK 921   NORMALIZED FREE ENERGY PREDICTED BY IDOCK:   -3.92 KCAL/MOL
REMARK 922        TOTAL FREE ENERGY PREDICTED BY IDOCK:  -13.19 KCAL/MOL
REMARK 923 INTER-LIGAND FREE ENERGY PREDICTED BY IDOCK:  -11.46 KCAL/MOL
REMARK 924 INTRA-LIGAND FREE ENERGY PREDICTED BY IDOCK:   -1.73 KCAL/MOL
REMARK 927      BINDING AFFINITY PREDICTED BY RF-SCORE:    0.00 PKD
ROOT
HETATM    1  O   UNL     1      -9.921   7.097  66.415  1.00  0.00    -0.133 OA 
HETATM    2  C   UNL     1      -9.069   7.835  66.891  1.00  0.00    -0.144 C  
ENDROOT
BRANCH   2   3
HETATM    3  C   UNL     1      -8.091   7.420  67.965  1.00  0.00    -0.124 C  
BRANCH   3   4
HETATM    4  C   UNL     1      -8.748   6.553  69.040  1.00  0.00    -0.128 C  
BRANCH   4   5
HETATM    5  C   UNL     1      -9.073   5.144  68.532  1.00  0.00    -0.133 C  
BRANCH   5   6
HETATM    6  C   UNL     1      -9.207   4.152  69.659  1.00  0.00    -0.210 A  
HETATM    7  C   UNL     1      -9.199   4.590  70.991  1.00  0.00    -0.200 A  
HETATM    8  C   UNL     1      -9.439   2.313  71.763  1.00  0.00    -0.191 A  
HETATM    9  C   UNL     1      -9.317   3.674  72.037  1.00  0.00    -0.183 A  
HETATM   10  C   UNL     1      -9.326   2.782  69.395  1.00  0.00    -0.189 A  
HETATM   11  C   UNL     1      -9.444   1.867  70.443  1.00  0.00    -0.154 A  
ENDBRANCH   5   6
ENDBRANCH   4   5
ENDBRANCH   3   4
ENDBRANCH   2   3
BRANCH   2  12
HETATM   12  O   UNL     1      -8.865   9.134  66.537  1.00  0.00    -0.127 OA 
BRANCH  12  13
HETATM   13  C   UNL     1     -10.015   9.860  66.063  1.00  0.00    -0.268 C  
BRANCH  13  14
HETATM   14  C   UNL     1     -10.288  11.059  66.975  1.00  0.00    -0.228 C  
BRANCH  14  15
HETATM   15  O   UNL     1     -11.440  10.773  67.794  1.00  0.00    -0.460 OA 
BRANCH  15  16
HETATM   16  C   UNL     1     -11.194  10.543  69.112  1.00  0.00    -0.256 C  
HETATM   17  O   UNL     1     -10.117  10.221  69.590  1.00  0.00    -0.230 OA 
BRANCH  16  18
HETATM   18  C   UNL     1     -12.463  10.714  69.908  1.00  0.00    -0.241 C  
BRANCH  18  19
HETATM   19  C   UNL     1     -12.181  11.194  71.328  1.00  0.00    -0.328 C  
BRANCH  19  20
HETATM   20  C   UNL     1     -13.290  12.091  71.889  1.00  0.00    -0.408 C  
BRANCH  20  21
HETATM   21  C   UNL     1     -12.846  13.531  71.850  1.00  0.00    -0.368 A  
HETATM   22  C   UNL     1     -12.237  16.264  71.860  1.00  0.00    -0.376 A  
HETATM   23  C   UNL     1     -13.066  14.310  70.707  1.00  0.00    -0.321 A  
HETATM   24  C   UNL     1     -12.297  14.132  72.991  1.00  0.00     0.011 A  
HETATM   25  C   UNL     1     -12.761  15.672  70.714  1.00  0.00    -0.483 A  
HETATM   26  C   UNL     1     -11.995  15.493  72.996  1.00  0.00    -0.571 A  
ENDBRANCH  20  21
ENDBRANCH  19  20
ENDBRANCH  18  19
ENDBRANCH  16  18
ENDBRANCH  15  16
ENDBRANCH  14  15
BRANCH  14  27
HETATM   27  C   UNL     1     -10.599  12.317  66.155  1.00  0.00    -0.249 C  
BRANCH  27  28
HETATM   28  O   UNL     1     -12.014  12.515  66.016  1.00  0.00    -0.481 OA 
BRANCH  28  29
HETATM   29  C   UNL     1     -12.368  13.671  65.385  1.00  0.00    -0.476 C  
HETATM   30  O   UNL     1     -13.515  14.071  65.253  1.00  0.00    -0.622 OA 
BRANCH  29  31
HETATM   31  C   UNL     1     -11.139  14.386  64.883  1.00  0.00    -0.404 C  
BRANCH  31  32
HETATM   32  C   UNL     1     -10.959  15.742  65.556  1.00  0.00    -0.275 C  
BRANCH  32  33
HETATM   33  C   UNL     1      -9.489  16.073  65.847  1.00  0.00    -0.351 C  
BRANCH  33  34
HETATM   34  C   UNL     1      -9.386  17.385  66.583  1.00  0.00    -0.279 A  
HETATM   35  C   UNL     1      -9.231  19.730  68.106  1.00  0.00    -0.406 A  
HETATM   36  C   UNL     1      -8.171  17.774  67.163  1.00  0.00    -0.233 A  
HETATM   37  C   UNL     1      -8.095  18.942  67.921  1.00  0.00    -0.300 A  
HETATM   38  C   UNL     1     -10.440  19.355  67.523  1.00  0.00    -0.577 A  
HETATM   39  C   UNL     1     -10.518  18.189  66.764  1.00  0.00    -0.363 A  
ENDBRANCH  33  34
ENDBRANCH  32  33
ENDBRANCH  31  32
ENDBRANCH  29  31
ENDBRANCH  28  29
ENDBRANCH  27  28
ENDBRANCH  14  27
ENDBRANCH  13  14
ENDBRANCH  12  13
ENDBRANCH   2  12
TORSDOF 20
ENDMDL
MODEL      259
REMARK 921   NORMALIZED FREE ENERGY PREDICTED BY IDOCK:   -3.92 KCAL/MOL
REMARK 922        TOTAL FREE ENERGY PREDICTED BY IDOCK:  -13.19 KCAL/MOL
REMARK 923 INTER-LIGAND FREE ENERGY PREDICTED BY IDOCK:  -10.75 KCAL/MOL
REMARK 924 INTRA-LIGAND FREE ENERGY PREDICTED BY IDOCK:   -2.44 KCAL/MOL
REMARK 927      BINDING AFFINITY PREDICTED BY RF-SCORE:    0.00 PKD
ROOT
HETATM    1  O   UNL     1      -8.708  10.364  69.307  1.00  0.00    -0.159 OA 
HETATM    2  C   UNL     1      -9.588  10.188  68.476  1.00  0.00    -0.154 C  
ENDROOT
BRANCH   2   3
HETATM    3  C   UNL     1      -9.463   9.262  67.290  1.00  0.00    -0.181 C  
BRANCH   3   4
HETATM    4  C   UNL     1      -9.991   9.897  66.002  1.00  0.00    -0.338 C  
BRANCH   4   5
HETATM    5  C   UNL     1      -9.315  11.238  65.696  1.00  0.00    -0.245 C  
BRANCH   5   6
HETATM    6  C   UNL     1     -10.312  12.299  65.303  1.00  0.00    -0.311 A  
HETATM    7  C   UNL     1     -11.170  12.094  64.213  1.00  0.00    -0.409 A  
HETATM    8  C   UNL     1     -12.157  14.273  64.554  1.00  0.00    -0.499 A  
HETATM    9  C   UNL     1     -12.090  13.076  63.843  1.00  0.00    -0.541 A  
HETATM   10  C   UNL     1     -10.385  13.507  66.008  1.00  0.00    -0.303 A  
HETATM   11  C   UNL     1     -11.305  14.488  65.636  1.00  0.00    -0.336 A  
ENDBRANCH   5   6
ENDBRANCH   4   5
ENDBRANCH   3   4
ENDBRANCH   2   3
BRANCH   2  12
HETATM   12  O   UNL     1     -10.808  10.792  68.482  1.00  0.00    -0.196 OA 
BRANCH  12  13
HETATM   13  C   UNL     1     -11.853  10.124  69.216  1.00  0.00     0.078 C  
BRANCH  13  14
HETATM   14  C   UNL     1     -12.066  10.815  70.566  1.00  0.00    -0.366 C  
BRANCH  14  15
HETATM   15  O   UNL     1     -13.371  10.465  71.070  1.00  0.00    -0.342 OA 
BRANCH  15  16
HETATM   16  C   UNL     1     -13.413   9.434  71.956  1.00  0.00    -0.449 C  
HETATM   17  O   UNL     1     -14.408   9.043  72.548  1.00  0.00    -0.570 OA 
BRANCH  16  18
HETATM   18  C   UNL     1     -12.033   8.852  72.131  1.00  0.00    -0.419 C  
BRANCH  18  19
HETATM   19  C   UNL     1     -12.026   7.341  71.926  1.00  0.00    -0.342 C  
BRANCH  19  20
HETATM   20  C   UNL     1     -10.710   6.822  71.336  1.00  0.00    -0.253 C  
BRANCH  20  21
HETATM   21  C   UNL     1      -9.984   5.993  72.365  1.00  0.00    -0.190 A  
HETATM   22  C   UNL     1      -8.548   4.325  74.095  1.00  0.00    -0.097 A  
HETATM   23  C   UNL     1     -10.581   4.842  72.897  1.00  0.00    -0.276 A  
HETATM   24  C   UNL     1      -8.668   6.310  72.726  1.00  0.00    -0.126 A  
HETATM   25  C   UNL     1      -9.863   4.013  73.760  1.00  0.00    -0.151 A  
HETATM   26  C   UNL     1      -7.953   5.478  73.587  1.00  0.00    -0.109 A  
ENDBRANCH  20  21
ENDBRANCH  19  20
ENDBRANCH  18  19
ENDBRANCH  16  18
ENDBRANCH  15  16
ENDBRANCH  14  15
BRANCH  14  27
HETATM   27  C   UNL     1     -12.016  12.341  70.420  1.00  0.00    -0.263 C  
BRANCH  27  28
HETATM   28  O   UNL     1     -12.618  12.996  71.546  1.00  0.00    -0.288 OA 
BRANCH  28  29
HETATM   29  C   UNL     1     -12.362  14.332  71.633  1.00  0.00    -0.313 C  
HETATM   30  O   UNL     1     -11.765  14.871  72.553  1.00  0.00    -0.314 OA 
BRANCH  29  31
HETATM   31  C   UNL     1     -12.913  15.045  70.424  1.00  0.00    -0.283 C  
BRANCH  31  32
HETATM   32  C   UNL     1     -11.899  16.015  69.828  1.00  0.00    -0.234 C  
BRANCH  32  33
HETATM   33  C   UNL     1     -10.593  15.329  69.407  1.00  0.00    -0.257 C  
BRANCH  33  34
HETATM   34  C   UNL     1      -9.639  16.339  68.822  1.00  0.00    -0.242 A  
HETATM   35  C   UNL     1      -7.785  18.225  67.900  1.00  0.00    -0.249 A  
HETATM   36  C   UNL     1      -8.407  15.924  68.299  1.00  0.00    -0.165 A  
HETATM   37  C   UNL     1      -7.484  16.864  67.840  1.00  0.00    -0.178 A  
HETATM   38  C   UNL     1      -9.013  18.644  68.407  1.00  0.00    -0.356 A  
HETATM   39  C   UNL     1      -9.938  17.707  68.866  1.00  0.00    -0.324 A  
ENDBRANCH  33  34
ENDBRANCH  32  33
ENDBRANCH  31  32
ENDBRANCH  29  31
ENDBRANCH  28  29
ENDBRANCH  27  28
ENDBRANCH  14  27
ENDBRANCH  13  14
ENDBRANCH  12  13
ENDBRANCH   2  12
TORSDOF 20
ENDMDL
MODEL      260
REMARK 921   NORMALIZED FREE ENERGY PREDICTED BY IDOCK:   -3.90 KCAL/MOL
REMARK 922        TOTAL FREE ENERGY PREDICTED BY IDOCK:  -13.15 KCAL/MOL
REMARK 923 INTER-LIGAND FREE ENERGY PREDICTED BY IDOCK:   -9.97 KCAL/MOL
REMARK 924 INTRA-LIGAND FREE ENERGY PREDICTED BY IDOCK:   -3.18 KCAL/MOL
REMARK 927      BINDING AFFINITY PREDICTED BY RF-SCORE:    0.00 PKD
ROOT
HETATM    1  O   UNL     1     -13.898   8.797  71.572  1.00  0.00    -0.379 OA 
HETATM    2  C   UNL     1     -12.797   9.325  71.642  1.00  0.00    -0.372 C  
ENDROOT
BRANCH   2   3
HETATM    3  C   UNL     1     -11.527   8.596  72.008  1.00  0.00    -0.437 C  
BRANCH   3   4
HETATM    4  C   UNL     1     -11.792   7.148  72.427  1.00  0.00    -0.224 C  
BRANCH   4   5
HETATM    5  C   UNL     1     -11.644   6.169  71.257  1.00  0.00    -0.271 C  
BRANCH   5   6
HETATM    6  C   UNL     1     -10.301   5.483  71.260  1.00  0.00    -0.297 A  
HETATM    7  C   UNL     1      -9.824   4.857  70.099  1.00  0.00    -0.309 A  
HETATM    8  C   UNL     1      -7.813   4.189  71.260  1.00  0.00    -0.071 A  
HETATM    9  C   UNL     1      -8.585   4.216  70.100  1.00  0.00    -0.104 A  
HETATM   10  C   UNL     1      -9.519   5.446  72.421  1.00  0.00    -0.162 A  
HETATM   11  C   UNL     1      -8.281   4.804  72.420  1.00  0.00    -0.115 A  
ENDBRANCH   5   6
ENDBRANCH   4   5
ENDBRANCH   3   4
ENDBRANCH   2   3
BRANCH   2  12
HETATM   12  O   UNL     1     -12.539  10.642  71.407  1.00  0.00    -0.369 OA 
BRANCH  12  13
HETATM   13  C   UNL     1     -11.540  10.934  70.411  1.00  0.00    -0.323 C  
BRANCH  13  14
HETATM   14  C   UNL     1     -12.184  11.651  69.220  1.00  0.00    -0.164 C  
BRANCH  14  15
HETATM   15  O   UNL     1     -11.884  10.917  68.015  1.00  0.00    -0.585 OA 
BRANCH  15  16
HETATM   16  C   UNL     1     -10.597  10.501  67.873  1.00  0.00    -0.232 C  
HETATM   17  O   UNL     1      -9.602  11.168  68.114  1.00  0.00    -0.167 OA 
BRANCH  16  18
HETATM   18  C   UNL     1     -10.569   9.091  67.340  1.00  0.00    -0.309 C  
BRANCH  18  19
HETATM   19  C   UNL     1     -10.078   8.099  68.388  1.00  0.00    -0.226 C  
BRANCH  19  20
HETATM   20  C   UNL     1      -8.628   7.657  68.162  1.00  0.00    -0.123 C  
BRANCH  20  21
HETATM   21  C   UNL     1      -7.769   8.130  69.307  1.00  0.00    -0.104 A  
HETATM   22  C   UNL     1      -6.117   8.782  71.472  1.00  0.00    -0.059 A  
HETATM   23  C   UNL     1      -8.300   8.225  70.599  1.00  0.00    -0.121 A  
HETATM   24  C   UNL     1      -6.405   8.386  69.107  1.00  0.00    -0.043 A  
HETATM   25  C   UNL     1      -7.475   8.551  71.677  1.00  0.00    -0.128 A  
HETATM   26  C   UNL     1      -5.583   8.709  70.186  1.00  0.00    -0.024 A  
ENDBRANCH  20  21
ENDBRANCH  19  20
ENDBRANCH  18  19
ENDBRANCH  16  18
ENDBRANCH  15  16
ENDBRANCH  14  15
BRANCH  14  27
HETATM   27  C   UNL     1     -11.620  13.067  69.057  1.00  0.00    -0.318 C  
BRANCH  27  28
HETATM   28  O   UNL     1     -12.339  13.806  68.060  1.00  0.00    -0.241 OA 
BRANCH  28  29
HETATM   29  C   UNL     1     -11.616  14.782  67.442  1.00  0.00    -0.360 C  
HETATM   30  O   UNL     1     -11.563  14.954  66.233  1.00  0.00    -0.328 OA 
BRANCH  29  31
HETATM   31  C   UNL     1     -10.898  15.624  68.467  1.00  0.00    -0.282 C  
BRANCH  31  32
HETATM   32  C   UNL     1     -10.130  16.771  67.820  1.00  0.00    -0.281 C  
BRANCH  32  33
HETATM   33  C   UNL     1     -10.088  18.030  68.697  1.00  0.00    -0.401 C  
BRANCH  33  34
HETATM   34  C   UNL     1      -8.954  18.925  68.268  1.00  0.00    -0.364 A  
HETATM   35  C   UNL     1      -6.893  20.704  67.610  1.00  0.00    -0.379 A  
HETATM   36  C   UNL     1      -7.694  18.804  68.869  1.00  0.00    -0.298 A  
HETATM   37  C   UNL     1      -6.668  19.690  68.540  1.00  0.00    -0.334 A  
HETATM   38  C   UNL     1      -8.140  20.824  66.999  1.00  0.00    -0.209 A  
HETATM   39  C   UNL     1      -9.166  19.939  67.325  1.00  0.00    -0.453 A  
ENDBRANCH  33  34
ENDBRANCH  32  33
ENDBRANCH  31  32
ENDBRANCH  29  31
ENDBRANCH  28  29
ENDBRANCH  27  28
ENDBRANCH  14  27
ENDBRANCH  13  14
ENDBRANCH  12  13
ENDBRANCH   2  12
TORSDOF 20
ENDMDL
MODEL      261
REMARK 921   NORMALIZED FREE ENERGY PREDICTED BY IDOCK:   -3.90 KCAL/MOL
REMARK 922        TOTAL FREE ENERGY PREDICTED BY IDOCK:  -13.14 KCAL/MOL
REMARK 923 INTER-LIGAND FREE ENERGY PREDICTED BY IDOCK:  -10.19 KCAL/MOL
REMARK 924 INTRA-LIGAND FREE ENERGY PREDICTED BY IDOCK:   -2.95 KCAL/MOL
REMARK 927      BINDING AFFINITY PREDICTED BY RF-SCORE:    0.00 PKD
ROOT
HETATM    1  O   UNL     1     -13.394  10.646  70.165  1.00  0.00     0.011 OA 
HETATM    2  C   UNL     1     -12.211  10.443  70.396  1.00  0.00    -0.303 C  
ENDROOT
BRANCH   2   3
HETATM    3  C   UNL     1     -11.692   9.783  71.652  1.00  0.00    -0.390 C  
BRANCH   3   4
HETATM    4  C   UNL     1     -10.635   8.719  71.352  1.00  0.00    -0.349 C  
BRANCH   4   5
HETATM    5  C   UNL     1      -9.850   8.311  72.603  1.00  0.00    -0.357 C  
BRANCH   5   6
HETATM    6  C   UNL     1     -10.169   6.902  73.037  1.00  0.00    -0.243 A  
HETATM    7  C   UNL     1     -11.351   6.281  72.609  1.00  0.00    -0.283 A  
HETATM    8  C   UNL     1     -10.778   4.290  73.854  1.00  0.00    -0.335 A  
HETATM    9  C   UNL     1     -11.651   4.980  73.014  1.00  0.00    -0.299 A  
HETATM   10  C   UNL     1      -9.300   6.202  73.884  1.00  0.00    -0.141 A  
HETATM   11  C   UNL     1      -9.603   4.901  74.288  1.00  0.00    -0.144 A  
ENDBRANCH   5   6
ENDBRANCH   4   5
ENDBRANCH   3   4
ENDBRANCH   2   3
BRANCH   2  12
HETATM   12  O   UNL     1     -11.179  10.775  69.572  1.00  0.00    -0.239 OA 
BRANCH  12  13
HETATM   13  C   UNL     1     -11.158  10.139  68.279  1.00  0.00    -0.227 C  
BRANCH  13  14
HETATM   14  C   UNL     1     -10.813  11.167  67.198  1.00  0.00    -0.273 C  
BRANCH  14  15
HETATM   15  O   UNL     1      -9.577  10.781  66.562  1.00  0.00    -0.176 OA 
BRANCH  15  16
HETATM   16  C   UNL     1      -9.677  10.342  65.279  1.00  0.00    -0.278 C  
HETATM   17  O   UNL     1     -10.224  10.937  64.363  1.00  0.00    -0.313 OA 
BRANCH  16  18
HETATM   18  C   UNL     1      -9.033   8.985  65.148  1.00  0.00    -0.216 C  
BRANCH  18  19
HETATM   19  C   UNL     1      -8.840   8.317  66.506  1.00  0.00    -0.175 C  
BRANCH  19  20
HETATM   20  C   UNL     1      -9.469   6.921  66.581  1.00  0.00    -0.209 C  
BRANCH  20  21
HETATM   21  C   UNL     1      -9.283   6.354  67.966  1.00  0.00    -0.110 A  
HETATM   22  C   UNL     1      -8.797   5.136  70.439  1.00  0.00    -0.148 A  
HETATM   23  C   UNL     1     -10.140   5.354  68.443  1.00  0.00    -0.235 A  
HETATM   24  C   UNL     1      -8.193   6.753  68.751  1.00  0.00    -0.121 A  
HETATM   25  C   UNL     1      -9.896   4.749  69.677  1.00  0.00    -0.292 A  
HETATM   26  C   UNL     1      -7.951   6.145  69.982  1.00  0.00    -0.111 A  
ENDBRANCH  20  21
ENDBRANCH  19  20
ENDBRANCH  18  19
ENDBRANCH  16  18
ENDBRANCH  15  16
ENDBRANCH  14  15
BRANCH  14  27
HETATM   27  C   UNL     1     -10.610  12.560  67.804  1.00  0.00    -0.219 C  
BRANCH  27  28
HETATM   28  O   UNL     1     -10.120  13.492  66.828  1.00  0.00    -0.257 OA 
BRANCH  28  29
HETATM   29  C   UNL     1     -11.060  14.346  66.334  1.00  0.00    -0.326 C  
HETATM   30  O   UNL     1     -12.255  14.295  66.589  1.00  0.00    -0.449 OA 
BRANCH  29  31
HETATM   31  C   UNL     1     -10.410  15.369  65.437  1.00  0.00    -0.422 C  
BRANCH  31  32
HETATM   32  C   UNL     1      -9.040  15.790  65.957  1.00  0.00    -0.361 C  
BRANCH  32  33
HETATM   33  C   UNL     1      -9.100  16.421  67.355  1.00  0.00    -0.206 C  
BRANCH  33  34
HETATM   34  C   UNL     1      -8.798  17.895  67.274  1.00  0.00    -0.243 A  
HETATM   35  C   UNL     1      -8.350  20.660  67.269  1.00  0.00    -0.305 A  
HETATM   36  C   UNL     1      -7.771  18.448  68.050  1.00  0.00    -0.273 A  
HETATM   37  C   UNL     1      -7.548  19.825  68.046  1.00  0.00    -0.334 A  
HETATM   38  C   UNL     1      -9.366  20.117  66.484  1.00  0.00    -0.473 A  
HETATM   39  C   UNL     1      -9.590  18.741  66.486  1.00  0.00    -0.369 A  
ENDBRANCH  33  34
ENDBRANCH  32  33
ENDBRANCH  31  32
ENDBRANCH  29  31
ENDBRANCH  28  29
ENDBRANCH  27  28
ENDBRANCH  14  27
ENDBRANCH  13  14
ENDBRANCH  12  13
ENDBRANCH   2  12
TORSDOF 20
ENDMDL
MODEL      262
REMARK 921   NORMALIZED FREE ENERGY PREDICTED BY IDOCK:   -3.89 KCAL/MOL
REMARK 922        TOTAL FREE ENERGY PREDICTED BY IDOCK:  -13.13 KCAL/MOL
REMARK 923 INTER-LIGAND FREE ENERGY PREDICTED BY IDOCK:  -10.71 KCAL/MOL
REMARK 924 INTRA-LIGAND FREE ENERGY PREDICTED BY IDOCK:   -2.41 KCAL/MOL
REMARK 927      BINDING AFFINITY PREDICTED BY RF-SCORE:    0.00 PKD
ROOT
HETATM    1  O   UNL     1     -11.311  11.121  68.064  1.00  0.00    -0.274 OA 
HETATM    2  C   UNL     1     -10.120  11.145  67.787  1.00  0.00    -0.178 C  
ENDROOT
BRANCH   2   3
HETATM    3  C   UNL     1      -9.372  12.386  67.362  1.00  0.00    -0.181 C  
BRANCH   3   4
HETATM    4  C   UNL     1     -10.150  13.666  67.673  1.00  0.00    -0.242 C  
BRANCH   4   5
HETATM    5  C   UNL     1     -10.559  14.421  66.403  1.00  0.00    -0.297 C  
BRANCH   5   6
HETATM    6  C   UNL     1     -11.026  13.487  65.315  1.00  0.00    -0.303 A  
HETATM    7  C   UNL     1     -12.384  13.152  65.206  1.00  0.00    -0.532 A  
HETATM    8  C   UNL     1     -11.903  11.738  63.306  1.00  0.00    -0.342 A  
HETATM    9  C   UNL     1     -12.818  12.284  64.204  1.00  0.00    -0.371 A  
HETATM   10  C   UNL     1     -10.114  12.931  64.410  1.00  0.00    -0.265 A  
HETATM   11  C   UNL     1     -10.551  12.062  63.409  1.00  0.00    -0.478 A  
ENDBRANCH   5   6
ENDBRANCH   4   5
ENDBRANCH   3   4
ENDBRANCH   2   3
BRANCH   2  12
HETATM   12  O   UNL     1      -9.284  10.071  67.813  1.00  0.00    -0.134 OA 
BRANCH  12  13
HETATM   13  C   UNL     1      -9.896   8.784  68.022  1.00  0.00    -0.169 C  
BRANCH  13  14
HETATM   14  C   UNL     1      -9.399   8.176  69.337  1.00  0.00    -0.155 C  
BRANCH  14  15
HETATM   15  O   UNL     1      -8.723   6.934  69.053  1.00  0.00    -0.131 OA 
BRANCH  15  16
HETATM   16  C   UNL     1      -7.364   6.982  69.041  1.00  0.00    -0.093 C  
HETATM   17  O   UNL     1      -6.684   7.747  68.373  1.00  0.00    -0.058 OA 
BRANCH  16  18
HETATM   18  C   UNL     1      -6.805   5.924  69.958  1.00  0.00    -0.057 C  
BRANCH  18  19
HETATM   19  C   UNL     1      -7.906   5.202  70.727  1.00  0.00    -0.088 C  
BRANCH  19  20
HETATM   20  C   UNL     1      -7.553   4.967  72.201  1.00  0.00    -0.089 C  
BRANCH  20  21
HETATM   21  C   UNL     1      -7.487   6.288  72.924  1.00  0.00    -0.096 A  
HETATM   22  C   UNL     1      -7.354   8.618  74.470  1.00  0.00    -0.176 A  
HETATM   23  C   UNL     1      -8.660   6.921  73.353  1.00  0.00    -0.145 A  
HETATM   24  C   UNL     1      -6.246   6.847  73.259  1.00  0.00    -0.062 A  
HETATM   25  C   UNL     1      -8.592   8.083  74.123  1.00  0.00    -0.256 A  
HETATM   26  C   UNL     1      -6.181   8.007  74.031  1.00  0.00    -0.103 A  
ENDBRANCH  20  21
ENDBRANCH  19  20
ENDBRANCH  18  19
ENDBRANCH  16  18
ENDBRANCH  15  16
ENDBRANCH  14  15
BRANCH  14  27
HETATM   27  C   UNL     1     -10.568   7.866  70.280  1.00  0.00    -0.231 C  
BRANCH  27  28
HETATM   28  O   UNL     1     -11.074   9.058  70.898  1.00  0.00    -0.247 OA 
BRANCH  28  29
HETATM   29  C   UNL     1     -12.036   8.846  71.841  1.00  0.00    -0.371 C  
HETATM   30  O   UNL     1     -11.915   8.112  72.810  1.00  0.00    -0.365 OA 
BRANCH  29  31
HETATM   31  C   UNL     1     -13.265   9.657  71.518  1.00  0.00    -0.484 C  
BRANCH  31  32
HETATM   32  C   UNL     1     -13.150  11.089  72.030  1.00  0.00    -0.449 C  
BRANCH  32  33
HETATM   33  C   UNL     1     -12.832  12.097  70.918  1.00  0.00    -0.190 C  
BRANCH  33  34
HETATM   34  C   UNL     1     -12.683  13.481  71.496  1.00  0.00    -0.412 A  
HETATM   35  C   UNL     1     -12.256  15.992  72.660  1.00  0.00    -0.619 A  
HETATM   36  C   UNL     1     -11.850  14.419  70.871  1.00  0.00    -0.346 A  
HETATM   37  C   UNL     1     -11.638  15.670  71.452  1.00  0.00    -0.499 A  
HETATM   38  C   UNL     1     -13.095  15.069  73.281  1.00  0.00    -0.607 A  
HETATM   39  C   UNL     1     -13.309  13.819  72.702  1.00  0.00    -0.618 A  
ENDBRANCH  33  34
ENDBRANCH  32  33
ENDBRANCH  31  32
ENDBRANCH  29  31
ENDBRANCH  28  29
ENDBRANCH  27  28
ENDBRANCH  14  27
ENDBRANCH  13  14
ENDBRANCH  12  13
ENDBRANCH   2  12
TORSDOF 20
ENDMDL
MODEL      263
REMARK 921   NORMALIZED FREE ENERGY PREDICTED BY IDOCK:   -3.88 KCAL/MOL
REMARK 922        TOTAL FREE ENERGY PREDICTED BY IDOCK:  -13.11 KCAL/MOL
REMARK 923 INTER-LIGAND FREE ENERGY PREDICTED BY IDOCK:   -8.86 KCAL/MOL
REMARK 924 INTRA-LIGAND FREE ENERGY PREDICTED BY IDOCK:   -4.25 KCAL/MOL
REMARK 927      BINDING AFFINITY PREDICTED BY RF-SCORE:    0.00 PKD
ROOT
HETATM    1  O   UNL     1      -9.547   3.858  68.657  1.00  0.00    -0.159 OA 
HETATM    2  C   UNL     1      -9.948   5.007  68.781  1.00  0.00    -0.155 C  
ENDROOT
BRANCH   2   3
HETATM    3  C   UNL     1     -10.079   5.722  70.105  1.00  0.00    -0.274 C  
BRANCH   3   4
HETATM    4  C   UNL     1     -10.425   4.766  71.247  1.00  0.00    -0.121 C  
BRANCH   4   5
HETATM    5  C   UNL     1      -9.182   4.302  72.014  1.00  0.00    -0.169 C  
BRANCH   5   6
HETATM    6  C   UNL     1      -8.547   5.425  72.795  1.00  0.00    -0.119 A  
HETATM    7  C   UNL     1      -9.292   6.133  73.749  1.00  0.00    -0.136 A  
HETATM    8  C   UNL     1      -7.379   7.526  74.239  1.00  0.00    -0.143 A  
HETATM    9  C   UNL     1      -8.709   7.176  74.468  1.00  0.00    -0.228 A  
HETATM   10  C   UNL     1      -7.213   5.787  72.569  1.00  0.00    -0.086 A  
HETATM   11  C   UNL     1      -6.632   6.831  73.290  1.00  0.00    -0.064 A  
ENDBRANCH   5   6
ENDBRANCH   4   5
ENDBRANCH   3   4
ENDBRANCH   2   3
BRANCH   2  12
HETATM   12  O   UNL     1     -10.340   5.819  67.761  1.00  0.00    -0.175 OA 
BRANCH  12  13
HETATM   13  C   UNL     1      -9.970   7.207  67.864  1.00  0.00    -0.154 C  
BRANCH  13  14
HETATM   14  C   UNL     1      -8.668   7.459  67.097  1.00  0.00    -0.121 C  
BRANCH  14  15
HETATM   15  O   UNL     1      -7.799   8.278  67.907  1.00  0.00    -0.110 OA 
BRANCH  15  16
HETATM   16  C   UNL     1      -7.131   7.637  68.903  1.00  0.00    -0.079 C  
HETATM   17  O   UNL     1      -6.788   6.464  68.891  1.00  0.00    -0.061 OA 
BRANCH  16  18
HETATM   18  C   UNL     1      -6.894   8.582  70.053  1.00  0.00    -0.042 C  
BRANCH  18  19
HETATM   19  C   UNL     1      -8.156   8.792  70.883  1.00  0.00    -0.174 C  
BRANCH  19  20
HETATM   20  C   UNL     1      -9.112   9.822  70.271  1.00  0.00    -0.208 C  
BRANCH  20  21
HETATM   21  C   UNL     1     -10.469   9.702  70.916  1.00  0.00    -0.359 A  
HETATM   22  C   UNL     1     -13.042   9.315  71.952  1.00  0.00    -0.490 A  
HETATM   23  C   UNL     1     -11.537  10.492  70.472  1.00  0.00    -0.441 A  
HETATM   24  C   UNL     1     -10.700   8.731  71.900  1.00  0.00    -0.429 A  
HETATM   25  C   UNL     1     -12.819  10.298  70.991  1.00  0.00    -0.490 A  
HETATM   26  C   UNL     1     -11.981   8.538  72.414  1.00  0.00    -0.434 A  
ENDBRANCH  20  21
ENDBRANCH  19  20
ENDBRANCH  18  19
ENDBRANCH  16  18
ENDBRANCH  15  16
ENDBRANCH  14  15
BRANCH  14  27
HETATM   27  C   UNL     1      -8.935   8.213  65.789  1.00  0.00    -0.119 C  
BRANCH  27  28
HETATM   28  O   UNL     1     -10.147   8.978  65.862  1.00  0.00    -0.240 OA 
BRANCH  28  29
HETATM   29  C   UNL     1     -10.004  10.301  65.569  1.00  0.00    -0.296 C  
HETATM   30  O   UNL     1     -10.043  10.776  64.443  1.00  0.00    -0.308 OA 
BRANCH  29  31
HETATM   31  C   UNL     1      -9.801  11.094  66.835  1.00  0.00    -0.223 C  
BRANCH  31  32
HETATM   32  C   UNL     1     -10.074  12.579  66.623  1.00  0.00    -0.241 C  
BRANCH  32  33
HETATM   33  C   UNL     1      -8.896  13.468  67.045  1.00  0.00    -0.219 C  
BRANCH  33  34
HETATM   34  C   UNL     1      -9.364  14.883  67.264  1.00  0.00    -0.210 A  
HETATM   35  C   UNL     1     -10.396  17.466  67.595  1.00  0.00    -0.355 A  
HETATM   36  C   UNL     1     -10.084  15.217  68.420  1.00  0.00    -0.225 A  
HETATM   37  C   UNL     1     -10.597  16.503  68.584  1.00  0.00    -0.316 A  
HETATM   38  C   UNL     1      -9.671  17.146  66.449  1.00  0.00    -0.307 A  
HETATM   39  C   UNL     1      -9.157  15.861  66.283  1.00  0.00    -0.379 A  
ENDBRANCH  33  34
ENDBRANCH  32  33
ENDBRANCH  31  32
ENDBRANCH  29  31
ENDBRANCH  28  29
ENDBRANCH  27  28
ENDBRANCH  14  27
ENDBRANCH  13  14
ENDBRANCH  12  13
ENDBRANCH   2  12
TORSDOF 20
ENDMDL
MODEL      264
REMARK 921   NORMALIZED FREE ENERGY PREDICTED BY IDOCK:   -3.87 KCAL/MOL
REMARK 922        TOTAL FREE ENERGY PREDICTED BY IDOCK:  -13.08 KCAL/MOL
REMARK 923 INTER-LIGAND FREE ENERGY PREDICTED BY IDOCK:   -9.55 KCAL/MOL
REMARK 924 INTRA-LIGAND FREE ENERGY PREDICTED BY IDOCK:   -3.53 KCAL/MOL
REMARK 927      BINDING AFFINITY PREDICTED BY RF-SCORE:    0.00 PKD
ROOT
HETATM    1  O   UNL     1      -6.996   9.784  71.569  1.00  0.00    -0.293 OA 
HETATM    2  C   UNL     1      -6.771   8.729  70.993  1.00  0.00    -0.070 C  
ENDROOT
BRANCH   2   3
HETATM    3  C   UNL     1      -6.563   7.407  71.693  1.00  0.00    -0.046 C  
BRANCH   3   4
HETATM    4  C   UNL     1      -7.841   6.901  72.365  1.00  0.00    -0.096 C  
BRANCH   4   5
HETATM    5  C   UNL     1      -8.850   6.346  71.353  1.00  0.00    -0.138 C  
BRANCH   5   6
HETATM    6  C   UNL     1     -10.196   7.015  71.471  1.00  0.00    -0.211 A  
HETATM    7  C   UNL     1     -11.266   6.598  70.666  1.00  0.00    -0.370 A  
HETATM    8  C   UNL     1     -12.698   8.265  71.669  1.00  0.00    -0.351 A  
HETATM    9  C   UNL     1     -12.511   7.219  70.767  1.00  0.00    -0.189 A  
HETATM   10  C   UNL     1     -10.394   8.070  72.370  1.00  0.00    -0.355 A  
HETATM   11  C   UNL     1     -11.640   8.690  72.470  1.00  0.00    -0.310 A  
ENDBRANCH   5   6
ENDBRANCH   4   5
ENDBRANCH   3   4
ENDBRANCH   2   3
BRANCH   2  12
HETATM   12  O   UNL     1      -6.671   8.574  69.644  1.00  0.00    -0.039 OA 
BRANCH  12  13
HETATM   13  C   UNL     1      -6.427   9.768  68.876  1.00  0.00    -0.045 C  
BRANCH  13  14
HETATM   14  C   UNL     1      -7.756  10.441  68.520  1.00  0.00    -0.101 C  
BRANCH  14  15
HETATM   15  O   UNL     1      -8.471   9.602  67.589  1.00  0.00    -0.124 OA 
BRANCH  15  16
HETATM   16  C   UNL     1      -9.828   9.669  67.645  1.00  0.00    -0.164 C  
HETATM   17  O   UNL     1     -10.591   9.464  66.713  1.00  0.00    -0.218 OA 
BRANCH  16  18
HETATM   18  C   UNL     1     -10.266  10.068  69.032  1.00  0.00    -0.216 C  
BRANCH  18  19
HETATM   19  C   UNL     1     -11.668  10.667  69.034  1.00  0.00    -0.305 C  
BRANCH  19  20
HETATM   20  C   UNL     1     -11.695  12.130  69.491  1.00  0.00    -0.402 C  
BRANCH  20  21
HETATM   21  C   UNL     1     -11.494  13.037  68.304  1.00  0.00    -0.347 A  
HETATM   22  C   UNL     1     -11.332  14.816  66.148  1.00  0.00    -0.330 A  
HETATM   23  C   UNL     1     -11.956  12.658  67.037  1.00  0.00    -0.330 A  
HETATM   24  C   UNL     1     -10.930  14.308  68.474  1.00  0.00    -0.267 A  
HETATM   25  C   UNL     1     -11.873  13.546  65.963  1.00  0.00    -0.414 A  
HETATM   26  C   UNL     1     -10.851  15.194  67.400  1.00  0.00    -0.302 A  
ENDBRANCH  20  21
ENDBRANCH  19  20
ENDBRANCH  18  19
ENDBRANCH  16  18
ENDBRANCH  15  16
ENDBRANCH  14  15
BRANCH  14  27
HETATM   27  C   UNL     1      -7.525  11.797  67.843  1.00  0.00    -0.108 C  
BRANCH  27  28
HETATM   28  O   UNL     1      -7.357  12.845  68.809  1.00  0.00    -0.109 OA 
BRANCH  28  29
HETATM   29  C   UNL     1      -6.741  13.964  68.334  1.00  0.00    -0.099 C  
HETATM   30  O   UNL     1      -6.245  14.071  67.222  1.00  0.00    -0.304 OA 
BRANCH  29  31
HETATM   31  C   UNL     1      -6.769  15.053  69.377  1.00  0.00    -0.158 C  
BRANCH  31  32
HETATM   32  C   UNL     1      -7.985  15.959  69.218  1.00  0.00    -0.229 C  
BRANCH  32  33
HETATM   33  C   UNL     1      -7.611  17.441  69.082  1.00  0.00    -0.088 C  
BRANCH  33  34
HETATM   34  C   UNL     1      -8.704  18.190  68.365  1.00  0.00    -0.302 A  
HETATM   35  C   UNL     1     -10.606  19.699  66.968  1.00  0.00    -0.602 A  
HETATM   36  C   UNL     1      -9.008  17.888  67.031  1.00  0.00    -0.254 A  
HETATM   37  C   UNL     1      -9.955  18.639  66.336  1.00  0.00    -0.415 A  
HETATM   38  C   UNL     1     -10.318  19.998  68.298  1.00  0.00    -0.494 A  
HETATM   39  C   UNL     1      -9.372  19.247  68.995  1.00  0.00    -0.354 A  
ENDBRANCH  33  34
ENDBRANCH  32  33
ENDBRANCH  31  32
ENDBRANCH  29  31
ENDBRANCH  28  29
ENDBRANCH  27  28
ENDBRANCH  14  27
ENDBRANCH  13  14
ENDBRANCH  12  13
ENDBRANCH   2  12
TORSDOF 20
ENDMDL
MODEL      265
REMARK 921   NORMALIZED FREE ENERGY PREDICTED BY IDOCK:   -3.87 KCAL/MOL
REMARK 922        TOTAL FREE ENERGY PREDICTED BY IDOCK:  -13.08 KCAL/MOL
REMARK 923 INTER-LIGAND FREE ENERGY PREDICTED BY IDOCK:   -8.66 KCAL/MOL
REMARK 924 INTRA-LIGAND FREE ENERGY PREDICTED BY IDOCK:   -4.42 KCAL/MOL
REMARK 927      BINDING AFFINITY PREDICTED BY RF-SCORE:    0.00 PKD
ROOT
HETATM    1  O   UNL     1     -10.806  11.242  63.827  1.00  0.00    -0.381 OA 
HETATM    2  C   UNL     1     -11.129  12.001  64.730  1.00  0.00    -0.317 C  
ENDROOT
BRANCH   2   3
HETATM    3  C   UNL     1     -11.571  13.430  64.523  1.00  0.00    -0.405 C  
BRANCH   3   4
HETATM    4  C   UNL     1     -10.595  14.432  65.142  1.00  0.00    -0.429 C  
BRANCH   4   5
HETATM    5  C   UNL     1     -11.056  14.916  66.521  1.00  0.00    -0.341 C  
BRANCH   5   6
HETATM    6  C   UNL     1     -10.819  16.393  66.711  1.00  0.00    -0.098 A  
HETATM    7  C   UNL     1     -10.719  16.933  68.002  1.00  0.00    -0.364 A  
HETATM    8  C   UNL     1     -10.396  19.141  67.075  1.00  0.00    -0.503 A  
HETATM    9  C   UNL     1     -10.506  18.300  68.181  1.00  0.00    -0.359 A  
HETATM   10  C   UNL     1     -10.711  17.248  65.607  1.00  0.00    -0.123 A  
HETATM   11  C   UNL     1     -10.498  18.614  65.789  1.00  0.00    -0.294 A  
ENDBRANCH   5   6
ENDBRANCH   4   5
ENDBRANCH   3   4
ENDBRANCH   2   3
BRANCH   2  12
HETATM   12  O   UNL     1     -11.142  11.686  66.055  1.00  0.00    -0.301 OA 
BRANCH  12  13
HETATM   13  C   UNL     1     -10.283  10.606  66.469  1.00  0.00    -0.233 C  
BRANCH  13  14
HETATM   14  C   UNL     1      -8.879  11.141  66.767  1.00  0.00    -0.161 C  
BRANCH  14  15
HETATM   15  O   UNL     1      -7.954  10.034  66.799  1.00  0.00    -0.112 OA 
BRANCH  15  16
HETATM   16  C   UNL     1      -6.636  10.359  66.884  1.00  0.00    -0.078 C  
HETATM   17  O   UNL     1      -6.041  11.120  66.136  1.00  0.00    -0.136 OA 
BRANCH  16  18
HETATM   18  C   UNL     1      -5.997   9.615  68.029  1.00  0.00    -0.043 C  
BRANCH  18  19
HETATM   19  C   UNL     1      -6.047   8.105  67.822  1.00  0.00    -0.047 C  
BRANCH  19  20
HETATM   20  C   UNL     1      -6.444   7.339  69.089  1.00  0.00    -0.036 C  
BRANCH  20  21
HETATM   21  C   UNL     1      -7.792   7.815  69.569  1.00  0.00    -0.111 A  
HETATM   22  C   UNL     1     -10.255   8.899  70.339  1.00  0.00    -0.236 A  
HETATM   23  C   UNL     1      -7.902   8.552  70.755  1.00  0.00    -0.097 A  
HETATM   24  C   UNL     1      -8.934   7.609  68.784  1.00  0.00    -0.133 A  
HETATM   25  C   UNL     1      -9.131   9.090  71.137  1.00  0.00    -0.316 A  
HETATM   26  C   UNL     1     -10.160   8.150  69.167  1.00  0.00    -0.204 A  
ENDBRANCH  20  21
ENDBRANCH  19  20
ENDBRANCH  18  19
ENDBRANCH  16  18
ENDBRANCH  15  16
ENDBRANCH  14  15
BRANCH  14  27
HETATM   27  C   UNL     1      -8.829  11.830  68.136  1.00  0.00    -0.169 C  
BRANCH  27  28
HETATM   28  O   UNL     1      -8.265  13.146  68.041  1.00  0.00    -0.137 OA 
BRANCH  28  29
HETATM   29  C   UNL     1      -7.061  13.296  68.663  1.00  0.00    -0.103 C  
HETATM   30  O   UNL     1      -6.557  12.476  69.417  1.00  0.00    -0.112 OA 
BRANCH  29  31
HETATM   31  C   UNL     1      -6.440  14.614  68.279  1.00  0.00    -0.121 C  
BRANCH  31  32
HETATM   32  C   UNL     1      -7.495  15.656  67.925  1.00  0.00    -0.147 C  
BRANCH  32  33
HETATM   33  C   UNL     1      -7.104  16.512  66.713  1.00  0.00    -0.253 C  
BRANCH  33  34
HETATM   34  C   UNL     1      -7.052  17.968  67.098  1.00  0.00    -0.212 A  
HETATM   35  C   UNL     1      -6.771  20.664  67.806  1.00  0.00    -0.373 A  
HETATM   36  C   UNL     1      -6.985  18.958  66.108  1.00  0.00    -0.278 A  
HETATM   37  C   UNL     1      -6.846  20.300  66.462  1.00  0.00    -0.274 A  
HETATM   38  C   UNL     1      -6.849  19.687  68.797  1.00  0.00    -0.362 A  
HETATM   39  C   UNL     1      -6.990  18.345  68.446  1.00  0.00    -0.263 A  
ENDBRANCH  33  34
ENDBRANCH  32  33
ENDBRANCH  31  32
ENDBRANCH  29  31
ENDBRANCH  28  29
ENDBRANCH  27  28
ENDBRANCH  14  27
ENDBRANCH  13  14
ENDBRANCH  12  13
ENDBRANCH   2  12
TORSDOF 20
ENDMDL
MODEL      266
REMARK 921   NORMALIZED FREE ENERGY PREDICTED BY IDOCK:   -3.87 KCAL/MOL
REMARK 922        TOTAL FREE ENERGY PREDICTED BY IDOCK:  -13.07 KCAL/MOL
REMARK 923 INTER-LIGAND FREE ENERGY PREDICTED BY IDOCK:   -8.62 KCAL/MOL
REMARK 924 INTRA-LIGAND FREE ENERGY PREDICTED BY IDOCK:   -4.45 KCAL/MOL
REMARK 927      BINDING AFFINITY PREDICTED BY RF-SCORE:    0.00 PKD
ROOT
HETATM    1  O   UNL     1     -12.299  13.075  66.554  1.00  0.00    -0.399 OA 
HETATM    2  C   UNL     1     -11.136  12.764  66.772  1.00  0.00    -0.277 C  
ENDROOT
BRANCH   2   3
HETATM    3  C   UNL     1      -9.964  13.704  66.623  1.00  0.00    -0.283 C  
BRANCH   3   4
HETATM    4  C   UNL     1     -10.237  15.073  67.248  1.00  0.00    -0.242 C  
BRANCH   4   5
HETATM    5  C   UNL     1     -10.318  16.186  66.198  1.00  0.00    -0.350 C  
BRANCH   5   6
HETATM    6  C   UNL     1      -9.952  17.532  66.770  1.00  0.00    -0.313 A  
HETATM    7  C   UNL     1      -9.044  18.363  66.098  1.00  0.00    -0.123 A  
HETATM    8  C   UNL     1      -9.251  20.030  67.835  1.00  0.00    -0.412 A  
HETATM    9  C   UNL     1      -8.698  19.607  66.628  1.00  0.00    -0.392 A  
HETATM   10  C   UNL     1     -10.498  17.966  67.985  1.00  0.00    -0.390 A  
HETATM   11  C   UNL     1     -10.151  19.209  68.513  1.00  0.00    -0.499 A  
ENDBRANCH   5   6
ENDBRANCH   4   5
ENDBRANCH   3   4
ENDBRANCH   2   3
BRANCH   2  12
HETATM   12  O   UNL     1     -10.713  11.536  67.178  1.00  0.00    -0.228 OA 
BRANCH  12  13
HETATM   13  C   UNL     1     -11.297  11.021  68.390  1.00  0.00    -0.295 C  
BRANCH  13  14
HETATM   14  C   UNL     1     -10.205  10.782  69.437  1.00  0.00    -0.160 C  
BRANCH  14  15
HETATM   15  O   UNL     1      -9.149  10.001  68.840  1.00  0.00    -0.142 OA 
BRANCH  15  16
HETATM   16  C   UNL     1      -7.879  10.408  69.109  1.00  0.00    -0.134 C  
HETATM   17  O   UNL     1      -7.445  10.706  70.211  1.00  0.00    -0.118 OA 
BRANCH  16  18
HETATM   18  C   UNL     1      -7.079  10.470  67.832  1.00  0.00    -0.083 C  
BRANCH  18  19
HETATM   19  C   UNL     1      -6.940  11.899  67.319  1.00  0.00    -0.145 C  
BRANCH  19  20
HETATM   20  C   UNL     1      -5.845  12.691  68.042  1.00  0.00    -0.091 C  
BRANCH  20  21
HETATM   21  C   UNL     1      -6.329  14.092  68.318  1.00  0.00    -0.114 A  
HETATM   22  C   UNL     1      -7.099  16.687  69.031  1.00  0.00    -0.216 A  
HETATM   23  C   UNL     1      -7.486  14.304  69.079  1.00  0.00    -0.102 A  
HETATM   24  C   UNL     1      -5.574  15.195  67.900  1.00  0.00    -0.140 A  
HETATM   25  C   UNL     1      -7.868  15.599  69.432  1.00  0.00    -0.222 A  
HETATM   26  C   UNL     1      -5.957  16.488  68.256  1.00  0.00    -0.121 A  
ENDBRANCH  20  21
ENDBRANCH  19  20
ENDBRANCH  18  19
ENDBRANCH  16  18
ENDBRANCH  15  16
ENDBRANCH  14  15
BRANCH  14  27
HETATM   27  C   UNL     1     -10.749   9.994  70.634  1.00  0.00    -0.254 C  
BRANCH  27  28
HETATM   28  O   UNL     1     -11.472   8.829  70.211  1.00  0.00    -0.212 OA 
BRANCH  28  29
HETATM   29  C   UNL     1     -10.831   7.648  70.438  1.00  0.00    -0.244 C  
HETATM   30  O   UNL     1     -10.016   7.454  71.328  1.00  0.00    -0.187 OA 
BRANCH  29  31
HETATM   31  C   UNL     1     -11.282   6.613  69.439  1.00  0.00    -0.356 C  
BRANCH  31  32
HETATM   32  C   UNL     1     -10.316   6.501  68.264  1.00  0.00    -0.223 C  
BRANCH  32  33
HETATM   33  C   UNL     1     -10.737   7.355  67.061  1.00  0.00    -0.389 C  
BRANCH  33  34
HETATM   34  C   UNL     1      -9.522   7.806  66.292  1.00  0.00    -0.201 A  
HETATM   35  C   UNL     1      -7.326   8.544  64.718  1.00  0.00    -0.091 A  
HETATM   36  C   UNL     1      -9.593   8.931  65.459  1.00  0.00    -0.088 A  
HETATM   37  C   UNL     1      -8.498   9.298  64.676  1.00  0.00    -0.192 A  
HETATM   38  C   UNL     1      -7.244   7.431  65.553  1.00  0.00    -0.066 A  
HETATM   39  C   UNL     1      -8.336   7.063  66.337  1.00  0.00    -0.125 A  
ENDBRANCH  33  34
ENDBRANCH  32  33
ENDBRANCH  31  32
ENDBRANCH  29  31
ENDBRANCH  28  29
ENDBRANCH  27  28
ENDBRANCH  14  27
ENDBRANCH  13  14
ENDBRANCH  12  13
ENDBRANCH   2  12
TORSDOF 20
ENDMDL
MODEL      267
REMARK 921   NORMALIZED FREE ENERGY PREDICTED BY IDOCK:   -3.83 KCAL/MOL
REMARK 922        TOTAL FREE ENERGY PREDICTED BY IDOCK:  -12.99 KCAL/MOL
REMARK 923 INTER-LIGAND FREE ENERGY PREDICTED BY IDOCK:   -9.52 KCAL/MOL
REMARK 924 INTRA-LIGAND FREE ENERGY PREDICTED BY IDOCK:   -3.47 KCAL/MOL
REMARK 927      BINDING AFFINITY PREDICTED BY RF-SCORE:    0.00 PKD
ROOT
HETATM    1  O   UNL     1      -9.897  12.589  66.204  1.00  0.00    -0.251 OA 
HETATM    2  C   UNL     1     -10.772  12.974  66.967  1.00  0.00    -0.258 C  
ENDROOT
BRANCH   2   3
HETATM    3  C   UNL     1     -11.729  14.102  66.661  1.00  0.00    -0.422 C  
BRANCH   3   4
HETATM    4  C   UNL     1     -11.004  15.433  66.449  1.00  0.00    -0.277 C  
BRANCH   4   5
HETATM    5  C   UNL     1     -10.662  16.125  67.773  1.00  0.00    -0.325 C  
BRANCH   5   6
HETATM    6  C   UNL     1     -10.388  17.596  67.589  1.00  0.00    -0.368 A  
HETATM    7  C   UNL     1     -10.291  18.141  66.300  1.00  0.00    -0.407 A  
HETATM    8  C   UNL     1      -9.860  20.327  67.236  1.00  0.00    -0.593 A  
HETATM    9  C   UNL     1     -10.031  19.501  66.127  1.00  0.00    -0.526 A  
HETATM   10  C   UNL     1     -10.211  18.434  68.697  1.00  0.00    -0.370 A  
HETATM   11  C   UNL     1      -9.950  19.794  68.520  1.00  0.00    -0.538 A  
ENDBRANCH   5   6
ENDBRANCH   4   5
ENDBRANCH   3   4
ENDBRANCH   2   3
BRANCH   2  12
HETATM   12  O   UNL     1     -11.024  12.458  68.201  1.00  0.00    -0.207 OA 
BRANCH  12  13
HETATM   13  C   UNL     1     -11.377  11.062  68.255  1.00  0.00    -0.299 C  
BRANCH  13  14
HETATM   14  C   UNL     1     -10.569  10.361  69.351  1.00  0.00    -0.239 C  
BRANCH  14  15
HETATM   15  O   UNL     1      -9.793   9.301  68.756  1.00  0.00    -0.158 OA 
BRANCH  15  16
HETATM   16  C   UNL     1     -10.481   8.182  68.405  1.00  0.00    -0.161 C  
HETATM   17  O   UNL     1     -11.084   7.447  69.171  1.00  0.00    -0.091 OA 
BRANCH  16  18
HETATM   18  C   UNL     1     -10.368   7.955  66.918  1.00  0.00    -0.400 C  
BRANCH  18  19
HETATM   19  C   UNL     1      -9.538   6.717  66.596  1.00  0.00    -0.207 C  
BRANCH  19  20
HETATM   20  C   UNL     1     -10.364   5.425  66.596  1.00  0.00    -0.325 C  
BRANCH  20  21
HETATM   21  C   UNL     1      -9.741   4.424  67.535  1.00  0.00    -0.211 A  
HETATM   22  C   UNL     1      -8.779   2.432  69.251  1.00  0.00    -0.131 A  
HETATM   23  C   UNL     1      -9.995   4.491  68.911  1.00  0.00    -0.131 A  
HETATM   24  C   UNL     1      -8.981   3.360  67.031  1.00  0.00    -0.174 A  
HETATM   25  C   UNL     1      -9.514   3.497  69.764  1.00  0.00    -0.241 A  
HETATM   26  C   UNL     1      -8.504   2.367  67.886  1.00  0.00    -0.097 A  
ENDBRANCH  20  21
ENDBRANCH  19  20
ENDBRANCH  18  19
ENDBRANCH  16  18
ENDBRANCH  15  16
ENDBRANCH  14  15
BRANCH  14  27
HETATM   27  C   UNL     1     -11.492   9.730  70.400  1.00  0.00    -0.280 C  
BRANCH  27  28
HETATM   28  O   UNL     1     -10.843   9.624  71.675  1.00  0.00    -0.290 OA 
BRANCH  28  29
HETATM   29  C   UNL     1     -11.059   8.448  72.329  1.00  0.00    -0.368 C  
HETATM   30  O   UNL     1     -12.119   7.840  72.341  1.00  0.00    -0.304 OA 
BRANCH  29  31
HETATM   31  C   UNL     1      -9.798   8.003  73.027  1.00  0.00    -0.352 C  
BRANCH  31  32
HETATM   32  C   UNL     1      -9.026   6.979  72.203  1.00  0.00    -0.140 C  
BRANCH  32  33
HETATM   33  C   UNL     1      -8.047   7.624  71.214  1.00  0.00    -0.095 C  
BRANCH  33  34
HETATM   34  C   UNL     1      -7.300   6.560  70.451  1.00  0.00    -0.085 A  
HETATM   35  C   UNL     1      -5.756   4.673  69.072  1.00  0.00    -0.017 A  
HETATM   36  C   UNL     1      -6.762   5.455  71.125  1.00  0.00    -0.044 A  
HETATM   37  C   UNL     1      -5.994   4.516  70.438  1.00  0.00    -0.014 A  
HETATM   38  C   UNL     1      -6.298   5.762  68.392  1.00  0.00    -0.041 A  
HETATM   39  C   UNL     1      -7.067   6.702  69.077  1.00  0.00    -0.089 A  
ENDBRANCH  33  34
ENDBRANCH  32  33
ENDBRANCH  31  32
ENDBRANCH  29  31
ENDBRANCH  28  29
ENDBRANCH  27  28
ENDBRANCH  14  27
ENDBRANCH  13  14
ENDBRANCH  12  13
ENDBRANCH   2  12
TORSDOF 20
ENDMDL
MODEL      268
REMARK 921   NORMALIZED FREE ENERGY PREDICTED BY IDOCK:   -3.82 KCAL/MOL
REMARK 922        TOTAL FREE ENERGY PREDICTED BY IDOCK:  -12.97 KCAL/MOL
REMARK 923 INTER-LIGAND FREE ENERGY PREDICTED BY IDOCK:  -10.66 KCAL/MOL
REMARK 924 INTRA-LIGAND FREE ENERGY PREDICTED BY IDOCK:   -2.31 KCAL/MOL
REMARK 927      BINDING AFFINITY PREDICTED BY RF-SCORE:    0.00 PKD
ROOT
HETATM    1  O   UNL     1      -5.809  12.121  66.638  1.00  0.00    -0.261 OA 
HETATM    2  C   UNL     1      -5.905  12.441  67.815  1.00  0.00    -0.110 C  
ENDROOT
BRANCH   2   3
HETATM    3  C   UNL     1      -5.950  13.868  68.306  1.00  0.00    -0.117 C  
BRANCH   3   4
HETATM    4  C   UNL     1      -7.206  14.603  67.833  1.00  0.00    -0.171 C  
BRANCH   4   5
HETATM    5  C   UNL     1      -6.898  16.022  67.341  1.00  0.00    -0.222 C  
BRANCH   5   6
HETATM    6  C   UNL     1      -8.128  16.894  67.324  1.00  0.00    -0.207 A  
HETATM    7  C   UNL     1      -9.195  16.630  68.194  1.00  0.00    -0.220 A  
HETATM    8  C   UNL     1     -10.426  18.500  67.287  1.00  0.00    -0.455 A  
HETATM    9  C   UNL     1     -10.337  17.431  68.176  1.00  0.00    -0.366 A  
HETATM   10  C   UNL     1      -8.229  17.969  66.431  1.00  0.00    -0.285 A  
HETATM   11  C   UNL     1      -9.372  18.769  66.414  1.00  0.00    -0.321 A  
ENDBRANCH   5   6
ENDBRANCH   4   5
ENDBRANCH   3   4
ENDBRANCH   2   3
BRANCH   2  12
HETATM   12  O   UNL     1      -5.984  11.575  68.862  1.00  0.00    -0.047 OA 
BRANCH  12  13
HETATM   13  C   UNL     1      -7.306  11.176  69.270  1.00  0.00    -0.097 C  
BRANCH  13  14
HETATM   14  C   UNL     1      -7.753   9.951  68.467  1.00  0.00    -0.081 C  
BRANCH  14  15
HETATM   15  O   UNL     1      -9.014  10.244  67.829  1.00  0.00    -0.134 OA 
BRANCH  15  16
HETATM   16  C   UNL     1     -10.117   9.699  68.406  1.00  0.00    -0.176 C  
HETATM   17  O   UNL     1     -10.755   8.752  67.971  1.00  0.00    -0.190 OA 
BRANCH  16  18
HETATM   18  C   UNL     1     -10.466  10.455  69.663  1.00  0.00    -0.279 C  
BRANCH  18  19
HETATM   19  C   UNL     1     -11.855  11.080  69.581  1.00  0.00    -0.414 C  
BRANCH  19  20
HETATM   20  C   UNL     1     -12.492  11.306  70.957  1.00  0.00    -0.503 C  
BRANCH  20  21
HETATM   21  C   UNL     1     -12.729  12.780  71.171  1.00  0.00    -0.355 A  
HETATM   22  C   UNL     1     -13.364  15.493  71.436  1.00  0.00    -0.592 A  
HETATM   23  C   UNL     1     -12.223  13.717  70.261  1.00  0.00    -0.429 A  
HETATM   24  C   UNL     1     -13.538  13.219  72.227  1.00  0.00    -0.703 A  
HETATM   25  C   UNL     1     -12.541  15.070  70.396  1.00  0.00    -0.399 A  
HETATM   26  C   UNL     1     -13.856  14.570  72.358  1.00  0.00    -0.587 A  
ENDBRANCH  20  21
ENDBRANCH  19  20
ENDBRANCH  18  19
ENDBRANCH  16  18
ENDBRANCH  15  16
ENDBRANCH  14  15
BRANCH  14  27
HETATM   27  C   UNL     1      -7.965   8.738  69.381  1.00  0.00    -0.100 C  
BRANCH  27  28
HETATM   28  O   UNL     1      -6.743   8.346  70.023  1.00  0.00    -0.041 OA 
BRANCH  28  29
HETATM   29  C   UNL     1      -6.832   8.194  71.375  1.00  0.00    -0.057 C  
HETATM   30  O   UNL     1      -7.122   9.085  72.160  1.00  0.00    -0.320 OA 
BRANCH  29  31
HETATM   31  C   UNL     1      -6.531   6.768  71.758  1.00  0.00    -0.049 C  
BRANCH  31  32
HETATM   32  C   UNL     1      -7.747   5.865  71.583  1.00  0.00    -0.101 C  
BRANCH  32  33
HETATM   33  C   UNL     1      -8.698   5.904  72.787  1.00  0.00    -0.125 C  
BRANCH  33  34
HETATM   34  C   UNL     1     -10.023   6.500  72.386  1.00  0.00    -0.183 A  
HETATM   35  C   UNL     1     -12.393   7.723  71.531  1.00  0.00    -0.345 A  
HETATM   36  C   UNL     1     -10.679   6.045  71.234  1.00  0.00    -0.320 A  
HETATM   37  C   UNL     1     -11.860   6.655  70.809  1.00  0.00    -0.441 A  
HETATM   38  C   UNL     1     -11.752   8.173  72.684  1.00  0.00    -0.419 A  
HETATM   39  C   UNL     1     -10.572   7.564  73.111  1.00  0.00    -0.442 A  
ENDBRANCH  33  34
ENDBRANCH  32  33
ENDBRANCH  31  32
ENDBRANCH  29  31
ENDBRANCH  28  29
ENDBRANCH  27  28
ENDBRANCH  14  27
ENDBRANCH  13  14
ENDBRANCH  12  13
ENDBRANCH   2  12
TORSDOF 20
ENDMDL
MODEL      269
REMARK 921   NORMALIZED FREE ENERGY PREDICTED BY IDOCK:   -3.81 KCAL/MOL
REMARK 922        TOTAL FREE ENERGY PREDICTED BY IDOCK:  -12.94 KCAL/MOL
REMARK 923 INTER-LIGAND FREE ENERGY PREDICTED BY IDOCK:   -9.80 KCAL/MOL
REMARK 924 INTRA-LIGAND FREE ENERGY PREDICTED BY IDOCK:   -3.13 KCAL/MOL
REMARK 927      BINDING AFFINITY PREDICTED BY RF-SCORE:    0.00 PKD
ROOT
HETATM    1  O   UNL     1      -5.800   8.147  70.061  1.00  0.00    -0.023 OA 
HETATM    2  C   UNL     1      -6.472   9.060  69.603  1.00  0.00    -0.042 C  
ENDROOT
BRANCH   2   3
HETATM    3  C   UNL     1      -6.197   9.737  68.281  1.00  0.00    -0.051 C  
BRANCH   3   4
HETATM    4  C   UNL     1      -6.026   8.731  67.141  1.00  0.00    -0.053 C  
BRANCH   4   5
HETATM    5  C   UNL     1      -7.368   8.304  66.537  1.00  0.00    -0.081 C  
BRANCH   5   6
HETATM    6  C   UNL     1      -7.472   8.663  65.076  1.00  0.00    -0.088 A  
HETATM    7  C   UNL     1      -8.164   7.825  64.190  1.00  0.00    -0.010 A  
HETATM    8  C   UNL     1      -7.654   9.312  62.354  1.00  0.00    -0.109 A  
HETATM    9  C   UNL     1      -8.256   8.151  62.836  1.00  0.00    -0.120 A  
HETATM   10  C   UNL     1      -6.867   9.825  64.581  1.00  0.00    -0.123 A  
HETATM   11  C   UNL     1      -6.960  10.148  63.227  1.00  0.00    -0.125 A  
ENDBRANCH   5   6
ENDBRANCH   4   5
ENDBRANCH   3   4
ENDBRANCH   2   3
BRANCH   2  12
HETATM   12  O   UNL     1      -7.564   9.612  70.201  1.00  0.00    -0.122 OA 
BRANCH  12  13
HETATM   13  C   UNL     1      -8.347  10.519  69.402  1.00  0.00    -0.106 C  
BRANCH  13  14
HETATM   14  C   UNL     1      -9.839  10.230  69.595  1.00  0.00    -0.198 C  
BRANCH  14  15
HETATM   15  O   UNL     1      -9.985   9.082  70.456  1.00  0.00    -0.187 OA 
BRANCH  15  16
HETATM   16  C   UNL     1     -11.003   9.136  71.357  1.00  0.00    -0.344 C  
HETATM   17  O   UNL     1     -11.792  10.060  71.485  1.00  0.00    -0.377 OA 
BRANCH  16  18
HETATM   18  C   UNL     1     -11.002   7.891  72.208  1.00  0.00    -0.359 C  
BRANCH  18  19
HETATM   19  C   UNL     1     -10.770   6.636  71.374  1.00  0.00    -0.264 C  
BRANCH  19  20
HETATM   20  C   UNL     1     -11.565   6.631  70.063  1.00  0.00    -0.423 C  
BRANCH  20  21
HETATM   21  C   UNL     1     -10.727   6.030  68.963  1.00  0.00    -0.393 A  
HETATM   22  C   UNL     1      -9.036   5.109  66.932  1.00  0.00    -0.109 A  
HETATM   23  C   UNL     1     -11.019   6.303  67.621  1.00  0.00    -0.438 A  
HETATM   24  C   UNL     1      -9.591   5.272  69.276  1.00  0.00    -0.214 A  
HETATM   25  C   UNL     1     -10.174   5.842  66.610  1.00  0.00    -0.258 A  
HETATM   26  C   UNL     1      -8.748   4.815  68.264  1.00  0.00    -0.111 A  
ENDBRANCH  20  21
ENDBRANCH  19  20
ENDBRANCH  18  19
ENDBRANCH  16  18
ENDBRANCH  15  16
ENDBRANCH  14  15
BRANCH  14  27
HETATM   27  C   UNL     1     -10.516   9.902  68.260  1.00  0.00    -0.210 C  
BRANCH  27  28
HETATM   28  O   UNL     1     -11.641  10.759  68.017  1.00  0.00    -0.470 OA 
BRANCH  28  29
HETATM   29  C   UNL     1     -11.318  12.032  67.649  1.00  0.00    -0.307 C  
HETATM   30  O   UNL     1     -10.560  12.325  66.737  1.00  0.00    -0.219 OA 
BRANCH  29  31
HETATM   31  C   UNL     1     -12.041  13.023  68.526  1.00  0.00    -0.185 C  
BRANCH  31  32
HETATM   32  C   UNL     1     -11.262  14.326  68.667  1.00  0.00    -0.287 C  
BRANCH  32  33
HETATM   33  C   UNL     1     -12.156  15.520  69.030  1.00  0.00    -0.246 C  
BRANCH  33  34
HETATM   34  C   UNL     1     -12.494  15.489  70.499  1.00  0.00    -0.472 A  
HETATM   35  C   UNL     1     -13.066  15.257  73.231  1.00  0.00    -0.630 A  
HETATM   36  C   UNL     1     -11.505  15.755  71.455  1.00  0.00    -0.504 A  
HETATM   37  C   UNL     1     -11.791  15.640  72.816  1.00  0.00    -0.580 A  
HETATM   38  C   UNL     1     -14.058  15.003  72.286  1.00  0.00    -0.612 A  
HETATM   39  C   UNL     1     -13.775  15.119  70.926  1.00  0.00    -0.352 A  
ENDBRANCH  33  34
ENDBRANCH  32  33
ENDBRANCH  31  32
ENDBRANCH  29  31
ENDBRANCH  28  29
ENDBRANCH  27  28
ENDBRANCH  14  27
ENDBRANCH  13  14
ENDBRANCH  12  13
ENDBRANCH   2  12
TORSDOF 20
ENDMDL
MODEL      270
REMARK 921   NORMALIZED FREE ENERGY PREDICTED BY IDOCK:   -3.80 KCAL/MOL
REMARK 922        TOTAL FREE ENERGY PREDICTED BY IDOCK:  -12.93 KCAL/MOL
REMARK 923 INTER-LIGAND FREE ENERGY PREDICTED BY IDOCK:  -10.37 KCAL/MOL
REMARK 924 INTRA-LIGAND FREE ENERGY PREDICTED BY IDOCK:   -2.56 KCAL/MOL
REMARK 927      BINDING AFFINITY PREDICTED BY RF-SCORE:    0.00 PKD
ROOT
HETATM    1  O   UNL     1     -11.884  12.086  69.870  1.00  0.00    -0.320 OA 
HETATM    2  C   UNL     1     -11.864  10.973  70.378  1.00  0.00    -0.367 C  
ENDROOT
BRANCH   2   3
HETATM    3  C   UNL     1     -13.094  10.225  70.833  1.00  0.00    -0.423 C  
BRANCH   3   4
HETATM    4  C   UNL     1     -12.818   9.347  72.055  1.00  0.00    -0.496 C  
BRANCH   4   5
HETATM    5  C   UNL     1     -12.929   7.852  71.734  1.00  0.00    -0.351 C  
BRANCH   5   6
HETATM    6  C   UNL     1     -11.828   7.051  72.381  1.00  0.00    -0.215 A  
HETATM    7  C   UNL     1     -10.846   7.691  73.151  1.00  0.00    -0.440 A  
HETATM    8  C   UNL     1      -9.766   5.570  73.573  1.00  0.00    -0.153 A  
HETATM    9  C   UNL     1      -9.822   6.952  73.745  1.00  0.00    -0.313 A  
HETATM   10  C   UNL     1     -11.760   5.662  72.210  1.00  0.00    -0.202 A  
HETATM   11  C   UNL     1     -10.735   4.926  72.805  1.00  0.00    -0.289 A  
ENDBRANCH   5   6
ENDBRANCH   4   5
ENDBRANCH   3   4
ENDBRANCH   2   3
BRANCH   2  12
HETATM   12  O   UNL     1     -10.743  10.236  70.615  1.00  0.00    -0.258 OA 
BRANCH  12  13
HETATM   13  C   UNL     1      -9.923   9.926  69.472  1.00  0.00    -0.222 C  
BRANCH  13  14
HETATM   14  C   UNL     1     -10.454   8.670  68.775  1.00  0.00    -0.185 C  
BRANCH  14  15
HETATM   15  O   UNL     1     -10.173   7.521  69.601  1.00  0.00    -0.195 OA 
BRANCH  15  16
HETATM   16  C   UNL     1      -8.865   7.307  69.902  1.00  0.00    -0.142 C  
HETATM   17  O   UNL     1      -8.015   8.174  70.046  1.00  0.00    -0.100 OA 
BRANCH  16  18
HETATM   18  C   UNL     1      -8.597   5.827  70.007  1.00  0.00    -0.128 C  
BRANCH  18  19
HETATM   19  C   UNL     1      -9.685   5.006  69.323  1.00  0.00    -0.249 C  
BRANCH  19  20
HETATM   20  C   UNL     1      -9.217   3.599  68.932  1.00  0.00    -0.223 C  
BRANCH  20  21
HETATM   21  C   UNL     1      -9.343   3.417  67.441  1.00  0.00    -0.243 A  
HETATM   22  C   UNL     1      -9.367   3.186  64.651  1.00  0.00    -0.146 A  
HETATM   23  C   UNL     1      -9.926   4.418  66.652  1.00  0.00    -0.234 A  
HETATM   24  C   UNL     1      -8.792   2.290  66.818  1.00  0.00    -0.142 A  
HETATM   25  C   UNL     1      -9.938   4.300  65.262  1.00  0.00    -0.229 A  
HETATM   26  C   UNL     1      -8.803   2.176  65.428  1.00  0.00    -0.123 A  
ENDBRANCH  20  21
ENDBRANCH  19  20
ENDBRANCH  18  19
ENDBRANCH  16  18
ENDBRANCH  15  16
ENDBRANCH  14  15
BRANCH  14  27
HETATM   27  C   UNL     1      -9.761   8.453  67.424  1.00  0.00    -0.170 C  
BRANCH  27  28
HETATM   28  O   UNL     1     -10.478   9.092  66.358  1.00  0.00    -0.215 OA 
BRANCH  28  29
HETATM   29  C   UNL     1      -9.692   9.621  65.379  1.00  0.00    -0.295 C  
HETATM   30  O   UNL     1      -8.731   9.060  64.874  1.00  0.00    -0.178 OA 
BRANCH  29  31
HETATM   31  C   UNL     1     -10.185  10.996  65.004  1.00  0.00    -0.360 C  
BRANCH  31  32
HETATM   32  C   UNL     1     -11.301  11.469  65.930  1.00  0.00    -0.174 C  
BRANCH  32  33
HETATM   33  C   UNL     1     -12.079  12.664  65.363  1.00  0.00    -0.516 C  
BRANCH  33  34
HETATM   34  C   UNL     1     -11.491  13.956  65.868  1.00  0.00    -0.328 A  
HETATM   35  C   UNL     1     -10.569  16.430  66.803  1.00  0.00    -0.238 A  
HETATM   36  C   UNL     1     -11.467  14.230  67.242  1.00  0.00    -0.371 A  
HETATM   37  C   UNL     1     -11.007  15.462  67.706  1.00  0.00    -0.311 A  
HETATM   38  C   UNL     1     -10.579  16.161  65.435  1.00  0.00    -0.399 A  
HETATM   39  C   UNL     1     -11.037  14.929  64.969  1.00  0.00    -0.422 A  
ENDBRANCH  33  34
ENDBRANCH  32  33
ENDBRANCH  31  32
ENDBRANCH  29  31
ENDBRANCH  28  29
ENDBRANCH  27  28
ENDBRANCH  14  27
ENDBRANCH  13  14
ENDBRANCH  12  13
ENDBRANCH   2  12
TORSDOF 20
ENDMDL
MODEL      271
REMARK 921   NORMALIZED FREE ENERGY PREDICTED BY IDOCK:   -3.79 KCAL/MOL
REMARK 922        TOTAL FREE ENERGY PREDICTED BY IDOCK:  -12.91 KCAL/MOL
REMARK 923 INTER-LIGAND FREE ENERGY PREDICTED BY IDOCK:   -8.62 KCAL/MOL
REMARK 924 INTRA-LIGAND FREE ENERGY PREDICTED BY IDOCK:   -4.28 KCAL/MOL
REMARK 927      BINDING AFFINITY PREDICTED BY RF-SCORE:    0.00 PKD
ROOT
HETATM    1  O   UNL     1     -12.967  10.383  70.703  1.00  0.00    -0.368 OA 
HETATM    2  C   UNL     1     -11.749  10.346  70.590  1.00  0.00    -0.351 C  
ENDROOT
BRANCH   2   3
HETATM    3  C   UNL     1     -10.821   9.730  71.609  1.00  0.00     0.118 C  
BRANCH   3   4
HETATM    4  C   UNL     1      -9.876   8.702  70.983  1.00  0.00    -0.267 C  
BRANCH   4   5
HETATM    5  C   UNL     1      -8.408   9.135  71.070  1.00  0.00    -0.205 C  
BRANCH   5   6
HETATM    6  C   UNL     1      -7.614   8.686  69.869  1.00  0.00    -0.071 A  
HETATM    7  C   UNL     1      -8.236   7.970  68.837  1.00  0.00    -0.125 A  
HETATM    8  C   UNL     1      -6.141   7.831  67.641  1.00  0.00    -0.049 A  
HETATM    9  C   UNL     1      -7.503   7.547  67.727  1.00  0.00    -0.101 A  
HETATM   10  C   UNL     1      -6.244   8.962  69.774  1.00  0.00    -0.035 A  
HETATM   11  C   UNL     1      -5.512   8.539  68.664  1.00  0.00    -0.037 A  
ENDBRANCH   5   6
ENDBRANCH   4   5
ENDBRANCH   3   4
ENDBRANCH   2   3
BRANCH   2  12
HETATM   12  O   UNL     1     -11.040  10.850  69.543  1.00  0.00    -0.234 OA 
BRANCH  12  13
HETATM   13  C   UNL     1     -11.226  10.203  68.269  1.00  0.00    -0.183 C  
BRANCH  13  14
HETATM   14  C   UNL     1     -11.225  11.247  67.149  1.00  0.00    -0.275 C  
BRANCH  14  15
HETATM   15  O   UNL     1      -9.860  11.567  66.808  1.00  0.00    -0.198 OA 
BRANCH  15  16
HETATM   16  C   UNL     1      -9.312  10.843  65.795  1.00  0.00    -0.203 C  
HETATM   17  O   UNL     1      -9.922  10.356  64.856  1.00  0.00    -0.306 OA 
BRANCH  16  18
HETATM   18  C   UNL     1      -7.827  10.698  66.014  1.00  0.00    -0.156 C  
BRANCH  18  19
HETATM   19  C   UNL     1      -7.386  11.317  67.336  1.00  0.00    -0.115 C  
BRANCH  19  20
HETATM   20  C   UNL     1      -6.466  12.530  67.153  1.00  0.00    -0.053 C  
BRANCH  20  21
HETATM   21  C   UNL     1      -6.194  13.167  68.492  1.00  0.00    -0.079 A  
HETATM   22  C   UNL     1      -5.888  14.248  71.056  1.00  0.00    -0.209 A  
HETATM   23  C   UNL     1      -6.729  14.425  68.799  1.00  0.00    -0.093 A  
HETATM   24  C   UNL     1      -5.486  12.466  69.477  1.00  0.00    -0.079 A  
HETATM   25  C   UNL     1      -6.574  14.962  70.078  1.00  0.00    -0.162 A  
HETATM   26  C   UNL     1      -5.336  13.004  70.755  1.00  0.00    -0.167 A  
ENDBRANCH  20  21
ENDBRANCH  19  20
ENDBRANCH  18  19
ENDBRANCH  16  18
ENDBRANCH  15  16
ENDBRANCH  14  15
BRANCH  14  27
HETATM   27  C   UNL     1     -11.909  12.543  67.600  1.00  0.00    -0.317 C  
BRANCH  27  28
HETATM   28  O   UNL     1     -11.345  13.689  66.947  1.00  0.00    -0.307 OA 
BRANCH  28  29
HETATM   29  C   UNL     1     -11.932  14.015  65.761  1.00  0.00    -0.404 C  
HETATM   30  O   UNL     1     -13.083  13.744  65.452  1.00  0.00    -0.727 OA 
BRANCH  29  31
HETATM   31  C   UNL     1     -10.958  14.768  64.890  1.00  0.00    -0.425 C  
BRANCH  31  32
HETATM   32  C   UNL     1     -10.417  16.011  65.587  1.00  0.00    -0.416 C  
BRANCH  32  33
HETATM   33  C   UNL     1      -8.948  15.867  66.008  1.00  0.00    -0.337 C  
BRANCH  33  34
HETATM   34  C   UNL     1      -8.536  17.035  66.867  1.00  0.00    -0.244 A  
HETATM   35  C   UNL     1      -7.740  19.086  68.601  1.00  0.00    -0.378 A  
HETATM   36  C   UNL     1      -7.183  17.388  66.974  1.00  0.00    -0.214 A  
HETATM   37  C   UNL     1      -6.789  18.410  67.838  1.00  0.00    -0.219 A  
HETATM   38  C   UNL     1      -9.088  18.749  68.490  1.00  0.00    -0.377 A  
HETATM   39  C   UNL     1      -9.485  17.729  67.627  1.00  0.00    -0.255 A  
ENDBRANCH  33  34
ENDBRANCH  32  33
ENDBRANCH  31  32
ENDBRANCH  29  31
ENDBRANCH  28  29
ENDBRANCH  27  28
ENDBRANCH  14  27
ENDBRANCH  13  14
ENDBRANCH  12  13
ENDBRANCH   2  12
TORSDOF 20
ENDMDL
MODEL      272
REMARK 921   NORMALIZED FREE ENERGY PREDICTED BY IDOCK:   -3.77 KCAL/MOL
REMARK 922        TOTAL FREE ENERGY PREDICTED BY IDOCK:  -12.85 KCAL/MOL
REMARK 923 INTER-LIGAND FREE ENERGY PREDICTED BY IDOCK:   -8.38 KCAL/MOL
REMARK 924 INTRA-LIGAND FREE ENERGY PREDICTED BY IDOCK:   -4.47 KCAL/MOL
REMARK 927      BINDING AFFINITY PREDICTED BY RF-SCORE:    0.00 PKD
ROOT
HETATM    1  O   UNL     1     -13.266   9.890  71.566  1.00  0.00    -0.373 OA 
HETATM    2  C   UNL     1     -12.306   9.198  71.256  1.00  0.00    -0.315 C  
ENDROOT
BRANCH   2   3
HETATM    3  C   UNL     1     -12.144   7.747  71.641  1.00  0.00    -0.335 C  
BRANCH   3   4
HETATM    4  C   UNL     1     -11.339   7.577  72.931  1.00  0.00    -0.355 C  
BRANCH   4   5
HETATM    5  C   UNL     1     -10.534   6.274  72.946  1.00  0.00    -0.240 C  
BRANCH   5   6
HETATM    6  C   UNL     1      -9.055   6.524  73.101  1.00  0.00    -0.137 A  
HETATM    7  C   UNL     1      -8.478   7.694  72.587  1.00  0.00    -0.166 A  
HETATM    8  C   UNL     1      -6.303   6.989  73.369  1.00  0.00    -0.065 A  
HETATM    9  C   UNL     1      -7.108   7.925  72.724  1.00  0.00    -0.098 A  
HETATM   10  C   UNL     1      -8.235   5.588  73.744  1.00  0.00    -0.111 A  
HETATM   11  C   UNL     1      -6.867   5.821  73.879  1.00  0.00    -0.081 A  
ENDBRANCH   5   6
ENDBRANCH   4   5
ENDBRANCH   3   4
ENDBRANCH   2   3
BRANCH   2  12
HETATM   12  O   UNL     1     -11.237   9.618  70.524  1.00  0.00    -0.255 OA 
BRANCH  12  13
HETATM   13  C   UNL     1     -10.774   8.726  69.491  1.00  0.00    -0.188 C  
BRANCH  13  14
HETATM   14  C   UNL     1     -10.457   9.520  68.220  1.00  0.00    -0.223 C  
BRANCH  14  15
HETATM   15  O   UNL     1     -11.466  10.535  68.038  1.00  0.00    -0.383 OA 
BRANCH  15  16
HETATM   16  C   UNL     1     -11.012  11.787  67.765  1.00  0.00    -0.225 C  
HETATM   17  O   UNL     1     -10.370  12.494  68.527  1.00  0.00    -0.232 OA 
BRANCH  16  18
HETATM   18  C   UNL     1     -11.443  12.198  66.380  1.00  0.00    -0.430 C  
BRANCH  18  19
HETATM   19  C   UNL     1     -10.677  13.422  65.888  1.00  0.00    -0.285 C  
BRANCH  19  20
HETATM   20  C   UNL     1     -11.528  14.697  65.874  1.00  0.00    -0.338 C  
BRANCH  20  21
HETATM   21  C   UNL     1     -10.901  15.736  66.768  1.00  0.00    -0.254 A  
HETATM   22  C   UNL     1      -9.934  17.795  68.400  1.00  0.00    -0.362 A  
HETATM   23  C   UNL     1     -10.148  16.782  66.218  1.00  0.00    -0.338 A  
HETATM   24  C   UNL     1     -11.146  15.722  68.147  1.00  0.00    -0.341 A  
HETATM   25  C   UNL     1      -9.666  17.807  67.034  1.00  0.00    -0.290 A  
HETATM   26  C   UNL     1     -10.665  16.748  68.959  1.00  0.00    -0.331 A  
ENDBRANCH  20  21
ENDBRANCH  19  20
ENDBRANCH  18  19
ENDBRANCH  16  18
ENDBRANCH  15  16
ENDBRANCH  14  15
BRANCH  14  27
HETATM   27  C   UNL     1     -10.478   8.614  66.984  1.00  0.00    -0.284 C  
BRANCH  27  28
HETATM   28  O   UNL     1      -9.538   7.537  67.106  1.00  0.00    -0.143 OA 
BRANCH  28  29
HETATM   29  C   UNL     1      -8.329   7.765  66.519  1.00  0.00    -0.128 C  
HETATM   30  O   UNL     1      -8.152   7.907  65.318  1.00  0.00    -0.121 OA 
BRANCH  29  31
HETATM   31  C   UNL     1      -7.247   7.826  67.566  1.00  0.00    -0.091 C  
BRANCH  31  32
HETATM   32  C   UNL     1      -6.741   6.437  67.939  1.00  0.00    -0.064 C  
BRANCH  32  33
HETATM   33  C   UNL     1      -6.526   6.266  69.449  1.00  0.00    -0.043 C  
BRANCH  33  34
HETATM   34  C   UNL     1      -7.477   5.233  69.996  1.00  0.00    -0.064 A  
HETATM   35  C   UNL     1      -9.228   3.221  70.853  1.00  0.00    -0.202 A  
HETATM   36  C   UNL     1      -6.982   4.084  70.629  1.00  0.00    -0.033 A  
HETATM   37  C   UNL     1      -7.855   3.083  71.055  1.00  0.00    -0.047 A  
HETATM   38  C   UNL     1      -9.729   4.366  70.235  1.00  0.00    -0.281 A  
HETATM   39  C   UNL     1      -8.858   5.368  69.809  1.00  0.00    -0.124 A  
ENDBRANCH  33  34
ENDBRANCH  32  33
ENDBRANCH  31  32
ENDBRANCH  29  31
ENDBRANCH  28  29
ENDBRANCH  27  28
ENDBRANCH  14  27
ENDBRANCH  13  14
ENDBRANCH  12  13
ENDBRANCH   2  12
TORSDOF 20
ENDMDL
MODEL      273
REMARK 921   NORMALIZED FREE ENERGY PREDICTED BY IDOCK:   -3.76 KCAL/MOL
REMARK 922        TOTAL FREE ENERGY PREDICTED BY IDOCK:  -12.84 KCAL/MOL
REMARK 923 INTER-LIGAND FREE ENERGY PREDICTED BY IDOCK:   -9.60 KCAL/MOL
REMARK 924 INTRA-LIGAND FREE ENERGY PREDICTED BY IDOCK:   -3.23 KCAL/MOL
REMARK 927      BINDING AFFINITY PREDICTED BY RF-SCORE:    0.00 PKD
ROOT
HETATM    1  O   UNL     1     -10.767   8.401  66.998  1.00  0.00    -0.289 OA 
HETATM    2  C   UNL     1      -9.670   8.852  66.702  1.00  0.00    -0.237 C  
ENDROOT
BRANCH   2   3
HETATM    3  C   UNL     1      -9.197   9.073  65.285  1.00  0.00    -0.205 C  
BRANCH   3   4
HETATM    4  C   UNL     1      -9.178  10.555  64.906  1.00  0.00    -0.254 C  
BRANCH   4   5
HETATM    5  C   UNL     1     -10.444  10.978  64.153  1.00  0.00    -0.434 C  
BRANCH   5   6
HETATM    6  C   UNL     1     -11.107  12.176  64.786  1.00  0.00    -0.364 A  
HETATM    7  C   UNL     1     -11.324  13.342  64.038  1.00  0.00    -0.403 A  
HETATM    8  C   UNL     1     -12.321  14.414  65.960  1.00  0.00    -0.337 A  
HETATM    9  C   UNL     1     -11.931  14.454  64.623  1.00  0.00    -0.475 A  
HETATM   10  C   UNL     1     -11.499  12.148  66.130  1.00  0.00    -0.429 A  
HETATM   11  C   UNL     1     -12.105  13.261  66.713  1.00  0.00    -0.403 A  
ENDBRANCH   5   6
ENDBRANCH   4   5
ENDBRANCH   3   4
ENDBRANCH   2   3
BRANCH   2  12
HETATM   12  O   UNL     1      -8.706   9.223  67.589  1.00  0.00    -0.117 OA 
BRANCH  12  13
HETATM   13  C   UNL     1      -9.152   9.901  68.779  1.00  0.00    -0.147 C  
BRANCH  13  14
HETATM   14  C   UNL     1      -8.011  10.740  69.361  1.00  0.00    -0.067 C  
BRANCH  14  15
HETATM   15  O   UNL     1      -7.555  11.671  68.357  1.00  0.00    -0.111 OA 
BRANCH  15  16
HETATM   16  C   UNL     1      -7.608  12.987  68.694  1.00  0.00    -0.089 C  
HETATM   17  O   UNL     1      -6.783  13.583  69.370  1.00  0.00    -0.107 OA 
BRANCH  16  18
HETATM   18  C   UNL     1      -8.860  13.611  68.133  1.00  0.00    -0.189 C  
BRANCH  18  19
HETATM   19  C   UNL     1      -8.666  15.091  67.824  1.00  0.00    -0.167 C  
BRANCH  19  20
HETATM   20  C   UNL     1      -9.520  16.006  68.710  1.00  0.00    -0.227 C  
BRANCH  20  21
HETATM   21  C   UNL     1      -9.843  17.277  67.967  1.00  0.00    -0.284 A  
HETATM   22  C   UNL     1     -10.672  19.579  66.607  1.00  0.00    -0.552 A  
HETATM   23  C   UNL     1      -9.966  17.269  66.571  1.00  0.00    -0.310 A  
HETATM   24  C   UNL     1     -10.119  18.456  68.671  1.00  0.00    -0.407 A  
HETATM   25  C   UNL     1     -10.379  18.419  65.896  1.00  0.00    -0.322 A  
HETATM   26  C   UNL     1     -10.533  19.602  67.993  1.00  0.00    -0.537 A  
ENDBRANCH  20  21
ENDBRANCH  19  20
ENDBRANCH  18  19
ENDBRANCH  16  18
ENDBRANCH  15  16
ENDBRANCH  14  15
BRANCH  14  27
HETATM   27  C   UNL     1      -6.820   9.858  69.753  1.00  0.00    -0.084 C  
BRANCH  27  28
HETATM   28  O   UNL     1      -7.254   8.630  70.356  1.00  0.00    -0.039 OA 
BRANCH  28  29
HETATM   29  C   UNL     1      -7.392   8.677  71.711  1.00  0.00    -0.080 C  
HETATM   30  O   UNL     1      -6.620   9.242  72.473  1.00  0.00    -0.306 OA 
BRANCH  29  31
HETATM   31  C   UNL     1      -8.638   7.941  72.132  1.00  0.00    -0.185 C  
BRANCH  31  32
HETATM   32  C   UNL     1      -8.589   6.470  71.735  1.00  0.00    -0.124 C  
BRANCH  32  33
HETATM   33  C   UNL     1      -9.910   5.968  71.138  1.00  0.00    -0.214 C  
BRANCH  33  34
HETATM   34  C   UNL     1      -9.650   5.197  69.869  1.00  0.00    -0.241 A  
HETATM   35  C   UNL     1      -8.985   3.800  67.535  1.00  0.00    -0.157 A  
HETATM   36  C   UNL     1      -9.326   3.835  69.926  1.00  0.00    -0.248 A  
HETATM   37  C   UNL     1      -8.996   3.140  68.763  1.00  0.00    -0.188 A  
HETATM   38  C   UNL     1      -9.317   5.152  67.468  1.00  0.00    -0.131 A  
HETATM   39  C   UNL     1      -9.649   5.848  68.629  1.00  0.00    -0.145 A  
ENDBRANCH  33  34
ENDBRANCH  32  33
ENDBRANCH  31  32
ENDBRANCH  29  31
ENDBRANCH  28  29
ENDBRANCH  27  28
ENDBRANCH  14  27
ENDBRANCH  13  14
ENDBRANCH  12  13
ENDBRANCH   2  12
TORSDOF 20
ENDMDL
MODEL      274
REMARK 921   NORMALIZED FREE ENERGY PREDICTED BY IDOCK:   -3.75 KCAL/MOL
REMARK 922        TOTAL FREE ENERGY PREDICTED BY IDOCK:  -12.81 KCAL/MOL
REMARK 923 INTER-LIGAND FREE ENERGY PREDICTED BY IDOCK:  -10.84 KCAL/MOL
REMARK 924 INTRA-LIGAND FREE ENERGY PREDICTED BY IDOCK:   -1.97 KCAL/MOL
REMARK 927      BINDING AFFINITY PREDICTED BY RF-SCORE:    0.00 PKD
ROOT
HETATM    1  O   UNL     1      -9.877  12.596  65.575  1.00  0.00    -0.242 OA 
HETATM    2  C   UNL     1     -10.679  13.180  66.290  1.00  0.00    -0.284 C  
ENDROOT
BRANCH   2   3
HETATM    3  C   UNL     1     -11.537  14.337  65.836  1.00  0.00    -0.358 C  
BRANCH   3   4
HETATM    4  C   UNL     1     -10.771  15.661  65.839  1.00  0.00    -0.336 C  
BRANCH   4   5
HETATM    5  C   UNL     1     -10.482  16.161  67.259  1.00  0.00    -0.309 C  
BRANCH   5   6
HETATM    6  C   UNL     1     -10.342  17.661  67.313  1.00  0.00    -0.354 A  
HETATM    7  C   UNL     1     -10.414  18.422  66.137  1.00  0.00    -0.422 A  
HETATM    8  C   UNL     1     -10.065  20.450  67.403  1.00  0.00    -0.500 A  
HETATM    9  C   UNL     1     -10.278  19.810  66.184  1.00  0.00    -0.618 A  
HETATM   10  C   UNL     1     -10.123  18.315  68.533  1.00  0.00    -0.419 A  
HETATM   11  C   UNL     1      -9.987  19.703  68.577  1.00  0.00    -0.542 A  
ENDBRANCH   5   6
ENDBRANCH   4   5
ENDBRANCH   3   4
ENDBRANCH   2   3
BRANCH   2  12
HETATM   12  O   UNL     1     -10.926  12.889  67.597  1.00  0.00    -0.236 OA 
BRANCH  12  13
HETATM   13  C   UNL     1     -11.513  11.602  67.870  1.00  0.00    -0.311 C  
BRANCH  13  14
HETATM   14  C   UNL     1     -11.138  11.146  69.284  1.00  0.00    -0.259 C  
BRANCH  14  15
HETATM   15  O   UNL     1     -10.262  10.003  69.190  1.00  0.00    -0.186 OA 
BRANCH  15  16
HETATM   16  C   UNL     1     -10.133   9.449  67.955  1.00  0.00    -0.194 C  
HETATM   17  O   UNL     1     -11.003   8.836  67.355  1.00  0.00    -0.119 OA 
BRANCH  16  18
HETATM   18  C   UNL     1      -8.736   9.675  67.434  1.00  0.00    -0.130 C  
BRANCH  18  19
HETATM   19  C   UNL     1      -7.943   8.374  67.359  1.00  0.00    -0.106 C  
BRANCH  19  20
HETATM   20  C   UNL     1      -8.195   7.592  66.065  1.00  0.00    -0.130 C  
BRANCH  20  21
HETATM   21  C   UNL     1      -8.743   6.227  66.396  1.00  0.00    -0.137 A  
HETATM   22  C   UNL     1      -9.535   3.623  67.051  1.00  0.00    -0.219 A  
HETATM   23  C   UNL     1      -8.861   5.250  65.398  1.00  0.00    -0.152 A  
HETATM   24  C   UNL     1      -9.046   5.890  67.722  1.00  0.00    -0.109 A  
HETATM   25  C   UNL     1      -9.258   3.953  65.728  1.00  0.00    -0.154 A  
HETATM   26  C   UNL     1      -9.440   4.593  68.048  1.00  0.00    -0.191 A  
ENDBRANCH  20  21
ENDBRANCH  19  20
ENDBRANCH  18  19
ENDBRANCH  16  18
ENDBRANCH  15  16
ENDBRANCH  14  15
BRANCH  14  27
HETATM   27  C   UNL     1     -12.380  10.718  70.074  1.00  0.00    -0.298 C  
BRANCH  27  28
HETATM   28  O   UNL     1     -12.037  10.297  71.402  1.00  0.00    -0.372 OA 
BRANCH  28  29
HETATM   29  C   UNL     1     -12.633   9.140  71.805  1.00  0.00    -0.370 C  
HETATM   30  O   UNL     1     -13.785   8.820  71.548  1.00  0.00    -0.372 OA 
BRANCH  29  31
HETATM   31  C   UNL     1     -11.663   8.308  72.605  1.00  0.00    -0.406 C  
BRANCH  31  32
HETATM   32  C   UNL     1     -10.565   7.717  71.728  1.00  0.00    -0.260 C  
BRANCH  32  33
HETATM   33  C   UNL     1     -10.980   6.401  71.057  1.00  0.00    -0.328 C  
BRANCH  33  34
HETATM   34  C   UNL     1     -10.552   5.229  71.901  1.00  0.00    -0.274 A  
HETATM   35  C   UNL     1      -9.846   2.939  73.352  1.00  0.00    -0.160 A  
HETATM   36  C   UNL     1      -9.385   4.520  71.584  1.00  0.00    -0.196 A  
HETATM   37  C   UNL     1      -9.034   3.380  72.307  1.00  0.00    -0.134 A  
HETATM   38  C   UNL     1     -11.001   3.645  73.681  1.00  0.00    -0.333 A  
HETATM   39  C   UNL     1     -11.353   4.785  72.961  1.00  0.00    -0.325 A  
ENDBRANCH  33  34
ENDBRANCH  32  33
ENDBRANCH  31  32
ENDBRANCH  29  31
ENDBRANCH  28  29
ENDBRANCH  27  28
ENDBRANCH  14  27
ENDBRANCH  13  14
ENDBRANCH  12  13
ENDBRANCH   2  12
TORSDOF 20
ENDMDL
MODEL      275
REMARK 921   NORMALIZED FREE ENERGY PREDICTED BY IDOCK:   -3.74 KCAL/MOL
REMARK 922        TOTAL FREE ENERGY PREDICTED BY IDOCK:  -12.79 KCAL/MOL
REMARK 923 INTER-LIGAND FREE ENERGY PREDICTED BY IDOCK:   -6.59 KCAL/MOL
REMARK 924 INTRA-LIGAND FREE ENERGY PREDICTED BY IDOCK:   -6.20 KCAL/MOL
REMARK 927      BINDING AFFINITY PREDICTED BY RF-SCORE:    0.00 PKD
ROOT
HETATM    1  O   UNL     1      -6.560  10.648  70.819  1.00  0.00    -0.343 OA 
HETATM    2  C   UNL     1      -7.072   9.722  70.205  1.00  0.00    -0.143 C  
ENDROOT
BRANCH   2   3
HETATM    3  C   UNL     1      -7.538   8.435  70.842  1.00  0.00    -0.079 C  
BRANCH   3   4
HETATM    4  C   UNL     1      -8.738   8.648  71.766  1.00  0.00    -0.266 C  
BRANCH   4   5
HETATM    5  C   UNL     1      -9.563   7.370  71.952  1.00  0.00    -0.174 C  
BRANCH   5   6
HETATM    6  C   UNL     1     -11.045   7.637  71.884  1.00  0.00    -0.290 A  
HETATM    7  C   UNL     1     -11.526   8.954  71.858  1.00  0.00    -0.442 A  
HETATM    8  C   UNL     1     -13.801   8.143  71.775  1.00  0.00    -0.452 A  
HETATM    9  C   UNL     1     -12.898   9.204  71.801  1.00  0.00    -0.448 A  
HETATM   10  C   UNL     1     -11.962   6.578  71.861  1.00  0.00    -0.389 A  
HETATM   11  C   UNL     1     -13.333   6.831  71.805  1.00  0.00    -0.185 A  
ENDBRANCH   5   6
ENDBRANCH   4   5
ENDBRANCH   3   4
ENDBRANCH   2   3
BRANCH   2  12
HETATM   12  O   UNL     1      -7.301   9.699  68.863  1.00  0.00    -0.071 OA 
BRANCH  12  13
HETATM   13  C   UNL     1      -8.357  10.549  68.376  1.00  0.00    -0.126 C  
BRANCH  13  14
HETATM   14  C   UNL     1      -8.341  10.576  66.844  1.00  0.00    -0.126 C  
BRANCH  14  15
HETATM   15  O   UNL     1      -9.097   9.452  66.349  1.00  0.00    -0.147 OA 
BRANCH  15  16
HETATM   16  C   UNL     1     -10.374   9.343  66.803  1.00  0.00    -0.233 C  
HETATM   17  O   UNL     1     -11.118  10.276  67.067  1.00  0.00    -0.189 OA 
BRANCH  16  18
HETATM   18  C   UNL     1     -10.739   7.890  66.965  1.00  0.00    -0.289 C  
BRANCH  18  19
HETATM   19  C   UNL     1     -10.210   7.316  68.275  1.00  0.00    -0.208 C  
BRANCH  19  20
HETATM   20  C   UNL     1      -8.859   6.609  68.118  1.00  0.00    -0.119 C  
BRANCH  20  21
HETATM   21  C   UNL     1      -8.780   5.446  69.074  1.00  0.00    -0.103 A  
HETATM   22  C   UNL     1      -8.686   3.438  71.023  1.00  0.00    -0.123 A  
HETATM   23  C   UNL     1      -7.572   5.134  69.711  1.00  0.00    -0.061 A  
HETATM   24  C   UNL     1      -9.935   4.727  69.407  1.00  0.00    -0.269 A  
HETATM   25  C   UNL     1      -7.528   4.132  70.682  1.00  0.00    -0.045 A  
HETATM   26  C   UNL     1      -9.888   3.728  70.379  1.00  0.00    -0.135 A  
ENDBRANCH  20  21
ENDBRANCH  19  20
ENDBRANCH  18  19
ENDBRANCH  16  18
ENDBRANCH  15  16
ENDBRANCH  14  15
BRANCH  14  27
HETATM   27  C   UNL     1      -6.911  10.451  66.304  1.00  0.00    -0.118 C  
BRANCH  27  28
HETATM   28  O   UNL     1      -6.630   9.114  65.868  1.00  0.00    -0.069 OA 
BRANCH  28  29
HETATM   29  C   UNL     1      -6.368   8.992  64.536  1.00  0.00    -0.071 C  
HETATM   30  O   UNL     1      -5.547   9.659  63.921  1.00  0.00    -0.070 OA 
BRANCH  29  31
HETATM   31  C   UNL     1      -7.230   7.912  63.934  1.00  0.00    -0.088 C  
BRANCH  31  32
HETATM   32  C   UNL     1      -7.096   6.594  64.689  1.00  0.00    -0.057 C  
BRANCH  32  33
HETATM   33  C   UNL     1      -8.299   5.663  64.483  1.00  0.00    -0.108 C  
BRANCH  33  34
HETATM   34  C   UNL     1      -8.181   4.455  65.376  1.00  0.00    -0.110 A  
HETATM   35  C   UNL     1      -7.996   2.320  67.180  1.00  0.00    -0.070 A  
HETATM   36  C   UNL     1      -9.327   3.738  65.745  1.00  0.00    -0.164 A  
HETATM   37  C   UNL     1      -9.234   2.675  66.643  1.00  0.00    -0.094 A  
HETATM   38  C   UNL     1      -6.850   3.021  66.808  1.00  0.00    -0.049 A  
HETATM   39  C   UNL     1      -6.941   4.083  65.909  1.00  0.00    -0.065 A  
ENDBRANCH  33  34
ENDBRANCH  32  33
ENDBRANCH  31  32
ENDBRANCH  29  31
ENDBRANCH  28  29
ENDBRANCH  27  28
ENDBRANCH  14  27
ENDBRANCH  13  14
ENDBRANCH  12  13
ENDBRANCH   2  12
TORSDOF 20
ENDMDL
MODEL      276
REMARK 921   NORMALIZED FREE ENERGY PREDICTED BY IDOCK:   -3.73 KCAL/MOL
REMARK 922        TOTAL FREE ENERGY PREDICTED BY IDOCK:  -12.78 KCAL/MOL
REMARK 923 INTER-LIGAND FREE ENERGY PREDICTED BY IDOCK:   -9.81 KCAL/MOL
REMARK 924 INTRA-LIGAND FREE ENERGY PREDICTED BY IDOCK:   -2.97 KCAL/MOL
REMARK 927      BINDING AFFINITY PREDICTED BY RF-SCORE:    0.00 PKD
ROOT
HETATM    1  O   UNL     1      -9.620   4.849  70.225  1.00  0.00    -0.161 OA 
HETATM    2  C   UNL     1      -9.764   4.654  69.026  1.00  0.00    -0.172 C  
ENDROOT
BRANCH   2   3
HETATM    3  C   UNL     1      -9.291   3.415  68.304  1.00  0.00    -0.239 C  
BRANCH   3   4
HETATM    4  C   UNL     1      -8.245   3.733  67.235  1.00  0.00    -0.091 C  
BRANCH   4   5
HETATM    5  C   UNL     1      -8.765   3.472  65.817  1.00  0.00    -0.121 C  
BRANCH   5   6
HETATM    6  C   UNL     1      -8.312   4.530  64.844  1.00  0.00    -0.121 A  
HETATM    7  C   UNL     1      -8.114   5.850  65.276  1.00  0.00    -0.133 A  
HETATM    8  C   UNL     1      -7.486   6.510  63.038  1.00  0.00    -0.072 A  
HETATM    9  C   UNL     1      -7.701   6.833  64.376  1.00  0.00    -0.109 A  
HETATM   10  C   UNL     1      -8.097   4.217  63.496  1.00  0.00    -0.092 A  
HETATM   11  C   UNL     1      -7.684   5.202  62.598  1.00  0.00    -0.069 A  
ENDBRANCH   5   6
ENDBRANCH   4   5
ENDBRANCH   3   4
ENDBRANCH   2   3
BRANCH   2  12
HETATM   12  O   UNL     1     -10.365   5.512  68.156  1.00  0.00    -0.185 OA 
BRANCH  12  13
HETATM   13  C   UNL     1     -10.711   6.812  68.670  1.00  0.00    -0.234 C  
BRANCH  13  14
HETATM   14  C   UNL     1      -9.744   7.865  68.120  1.00  0.00    -0.159 C  
BRANCH  14  15
HETATM   15  O   UNL     1      -9.751   9.011  68.998  1.00  0.00    -0.161 OA 
BRANCH  15  16
HETATM   16  C   UNL     1      -8.558   9.339  69.561  1.00  0.00    -0.147 C  
HETATM   17  O   UNL     1      -7.772  10.171  69.133  1.00  0.00    -0.091 OA 
BRANCH  16  18
HETATM   18  C   UNL     1      -8.322   8.498  70.790  1.00  0.00    -0.154 C  
BRANCH  18  19
HETATM   19  C   UNL     1      -9.367   8.765  71.868  1.00  0.00    -0.343 C  
BRANCH  19  20
HETATM   20  C   UNL     1     -10.253   7.548  72.159  1.00  0.00    -0.238 C  
BRANCH  20  21
HETATM   21  C   UNL     1     -11.704   7.951  72.103  1.00  0.00    -0.385 A  
HETATM   22  C   UNL     1     -14.377   8.713  71.762  1.00  0.00    -0.476 A  
HETATM   23  C   UNL     1     -12.065   9.304  72.141  1.00  0.00    -0.353 A  
HETATM   24  C   UNL     1     -12.699   6.983  71.914  1.00  0.00    -0.314 A  
HETATM   25  C   UNL     1     -13.399   9.681  71.972  1.00  0.00    -0.547 A  
HETATM   26  C   UNL     1     -14.030   7.363  71.743  1.00  0.00    -0.469 A  
ENDBRANCH  20  21
ENDBRANCH  19  20
ENDBRANCH  18  19
ENDBRANCH  16  18
ENDBRANCH  15  16
ENDBRANCH  14  15
BRANCH  14  27
HETATM   27  C   UNL     1     -10.178   8.341  66.729  1.00  0.00    -0.304 C  
BRANCH  27  28
HETATM   28  O   UNL     1     -10.256   9.773  66.664  1.00  0.00    -0.226 OA 
BRANCH  28  29
HETATM   29  C   UNL     1      -9.427  10.348  65.748  1.00  0.00    -0.198 C  
HETATM   30  O   UNL     1      -8.214  10.443  65.866  1.00  0.00    -0.139 OA 
BRANCH  29  31
HETATM   31  C   UNL     1     -10.222  10.840  64.566  1.00  0.00    -0.428 C  
BRANCH  31  32
HETATM   32  C   UNL     1     -10.603  12.309  64.711  1.00  0.00    -0.332 C  
BRANCH  32  33
HETATM   33  C   UNL     1     -11.904  12.514  65.498  1.00  0.00    -0.491 C  
BRANCH  33  34
HETATM   34  C   UNL     1     -11.634  13.300  66.755  1.00  0.00    -0.408 A  
HETATM   35  C   UNL     1     -11.310  14.819  69.086  1.00  0.00    -0.302 A  
HETATM   36  C   UNL     1     -11.914  12.742  68.009  1.00  0.00    -0.315 A  
HETATM   37  C   UNL     1     -11.752  13.499  69.170  1.00  0.00    -0.374 A  
HETATM   38  C   UNL     1     -11.018  15.377  67.843  1.00  0.00    -0.310 A  
HETATM   39  C   UNL     1     -11.179  14.622  66.682  1.00  0.00    -0.349 A  
ENDBRANCH  33  34
ENDBRANCH  32  33
ENDBRANCH  31  32
ENDBRANCH  29  31
ENDBRANCH  28  29
ENDBRANCH  27  28
ENDBRANCH  14  27
ENDBRANCH  13  14
ENDBRANCH  12  13
ENDBRANCH   2  12
TORSDOF 20
ENDMDL
MODEL      277
REMARK 921   NORMALIZED FREE ENERGY PREDICTED BY IDOCK:   -3.72 KCAL/MOL
REMARK 922        TOTAL FREE ENERGY PREDICTED BY IDOCK:  -12.76 KCAL/MOL
REMARK 923 INTER-LIGAND FREE ENERGY PREDICTED BY IDOCK:  -11.22 KCAL/MOL
REMARK 924 INTRA-LIGAND FREE ENERGY PREDICTED BY IDOCK:   -1.54 KCAL/MOL
REMARK 927      BINDING AFFINITY PREDICTED BY RF-SCORE:    0.00 PKD
ROOT
HETATM    1  O   UNL     1     -12.385  13.109  70.721  1.00  0.00    -0.357 OA 
HETATM    2  C   UNL     1     -11.807  13.640  69.783  1.00  0.00    -0.327 C  
ENDROOT
BRANCH   2   3
HETATM    3  C   UNL     1     -12.109  15.029  69.275  1.00  0.00    -0.282 C  
BRANCH   3   4
HETATM    4  C   UNL     1     -10.838  15.808  68.930  1.00  0.00    -0.260 C  
BRANCH   4   5
HETATM    5  C   UNL     1     -11.041  16.752  67.739  1.00  0.00    -0.135 C  
BRANCH   5   6
HETATM    6  C   UNL     1     -10.111  17.938  67.792  1.00  0.00    -0.350 A  
HETATM    7  C   UNL     1      -8.812  17.796  68.301  1.00  0.00    -0.277 A  
HETATM    8  C   UNL     1      -8.381  20.142  67.912  1.00  0.00    -0.253 A  
HETATM    9  C   UNL     1      -7.952  18.893  68.357  1.00  0.00    -0.373 A  
HETATM   10  C   UNL     1     -10.534  19.198  67.351  1.00  0.00    -0.552 A  
HETATM   11  C   UNL     1      -9.673  20.294  67.409  1.00  0.00    -0.584 A  
ENDBRANCH   5   6
ENDBRANCH   4   5
ENDBRANCH   3   4
ENDBRANCH   2   3
BRANCH   2  12
HETATM   12  O   UNL     1     -10.809  13.072  69.050  1.00  0.00    -0.231 OA 
BRANCH  12  13
HETATM   13  C   UNL     1     -11.090  11.782  68.473  1.00  0.00    -0.239 C  
BRANCH  13  14
HETATM   14  C   UNL     1     -10.289  10.699  69.201  1.00  0.00    -0.221 C  
BRANCH  14  15
HETATM   15  O   UNL     1      -9.457  10.010  68.245  1.00  0.00    -0.138 OA 
BRANCH  15  16
HETATM   16  C   UNL     1     -10.043   9.697  67.058  1.00  0.00    -0.214 C  
HETATM   17  O   UNL     1     -10.751   8.724  66.848  1.00  0.00    -0.240 OA 
BRANCH  16  18
HETATM   18  C   UNL     1      -9.667  10.718  66.015  1.00  0.00    -0.264 C  
BRANCH  18  19
HETATM   19  C   UNL     1      -9.603  10.106  64.620  1.00  0.00    -0.379 C  
BRANCH  19  20
HETATM   20  C   UNL     1      -9.861  11.126  63.505  1.00  0.00    -0.392 C  
BRANCH  20  21
HETATM   21  C   UNL     1     -10.756  12.225  64.019  1.00  0.00    -0.438 A  
HETATM   22  C   UNL     1     -12.368  14.189  65.193  1.00  0.00    -0.460 A  
HETATM   23  C   UNL     1     -12.118  11.985  64.237  1.00  0.00    -0.414 A  
HETATM   24  C   UNL     1     -10.214  13.467  64.375  1.00  0.00    -0.262 A  
HETATM   25  C   UNL     1     -12.920  12.966  64.821  1.00  0.00    -0.224 A  
HETATM   26  C   UNL     1     -11.018  14.445  64.961  1.00  0.00    -0.398 A  
ENDBRANCH  20  21
ENDBRANCH  19  20
ENDBRANCH  18  19
ENDBRANCH  16  18
ENDBRANCH  15  16
ENDBRANCH  14  15
BRANCH  14  27
HETATM   27  C   UNL     1     -11.218   9.662  69.843  1.00  0.00    -0.207 C  
BRANCH  27  28
HETATM   28  O   UNL     1     -11.248   9.798  71.272  1.00  0.00    -0.361 OA 
BRANCH  28  29
HETATM   29  C   UNL     1     -11.190   8.622  71.957  1.00  0.00    -0.364 C  
HETATM   30  O   UNL     1     -12.097   7.805  72.022  1.00  0.00    -0.293 OA 
BRANCH  29  31
HETATM   31  C   UNL     1      -9.842   8.471  72.616  1.00  0.00    -0.281 C  
BRANCH  31  32
HETATM   32  C   UNL     1      -9.874   7.447  73.745  1.00  0.00    -0.331 C  
BRANCH  32  33
HETATM   33  C   UNL     1      -8.679   6.485  73.712  1.00  0.00    -0.137 C  
BRANCH  33  34
HETATM   34  C   UNL     1      -8.998   5.287  72.854  1.00  0.00    -0.120 A  
HETATM   35  C   UNL     1      -9.739   3.153  71.198  1.00  0.00    -0.198 A  
HETATM   36  C   UNL     1      -8.549   5.230  71.528  1.00  0.00    -0.132 A  
HETATM   37  C   UNL     1      -8.918   4.166  70.704  1.00  0.00    -0.153 A  
HETATM   38  C   UNL     1     -10.181   3.197  72.519  1.00  0.00    -0.216 A  
HETATM   39  C   UNL     1      -9.812   4.258  73.345  1.00  0.00    -0.160 A  
ENDBRANCH  33  34
ENDBRANCH  32  33
ENDBRANCH  31  32
ENDBRANCH  29  31
ENDBRANCH  28  29
ENDBRANCH  27  28
ENDBRANCH  14  27
ENDBRANCH  13  14
ENDBRANCH  12  13
ENDBRANCH   2  12
TORSDOF 20
ENDMDL
MODEL      278
REMARK 921   NORMALIZED FREE ENERGY PREDICTED BY IDOCK:   -3.72 KCAL/MOL
REMARK 922        TOTAL FREE ENERGY PREDICTED BY IDOCK:  -12.75 KCAL/MOL
REMARK 923 INTER-LIGAND FREE ENERGY PREDICTED BY IDOCK:   -9.03 KCAL/MOL
REMARK 924 INTRA-LIGAND FREE ENERGY PREDICTED BY IDOCK:   -3.72 KCAL/MOL
REMARK 927      BINDING AFFINITY PREDICTED BY RF-SCORE:    0.00 PKD
ROOT
HETATM    1  O   UNL     1     -10.840   7.879  67.184  1.00  0.00    -0.296 OA 
HETATM    2  C   UNL     1     -10.349   8.918  67.603  1.00  0.00    -0.251 C  
ENDROOT
BRANCH   2   3
HETATM    3  C   UNL     1     -10.214  10.182  66.789  1.00  0.00    -0.289 C  
BRANCH   3   4
HETATM    4  C   UNL     1      -9.378   9.970  65.525  1.00  0.00    -0.271 C  
BRANCH   4   5
HETATM    5  C   UNL     1      -8.153  10.891  65.479  1.00  0.00    -0.025 C  
BRANCH   5   6
HETATM    6  C   UNL     1      -7.360  10.844  66.760  1.00  0.00    -0.134 A  
HETATM    7  C   UNL     1      -7.216  11.997  67.545  1.00  0.00    -0.127 A  
HETATM    8  C   UNL     1      -5.873  10.771  69.136  1.00  0.00    -0.041 A  
HETATM    9  C   UNL     1      -6.478  11.959  68.729  1.00  0.00    -0.071 A  
HETATM   10  C   UNL     1      -6.745   9.657  67.177  1.00  0.00    -0.075 A  
HETATM   11  C   UNL     1      -6.007   9.621  68.360  1.00  0.00    -0.043 A  
ENDBRANCH   5   6
ENDBRANCH   4   5
ENDBRANCH   3   4
ENDBRANCH   2   3
BRANCH   2  12
HETATM   12  O   UNL     1      -9.847   9.102  68.855  1.00  0.00    -0.166 OA 
BRANCH  12  13
HETATM   13  C   UNL     1     -10.140  10.364  69.486  1.00  0.00    -0.219 C  
BRANCH  13  14
HETATM   14  C   UNL     1     -11.075  10.146  70.679  1.00  0.00    -0.322 C  
BRANCH  14  15
HETATM   15  O   UNL     1     -11.028   8.756  71.064  1.00  0.00    -0.241 OA 
BRANCH  15  16
HETATM   16  C   UNL     1     -11.929   8.366  72.004  1.00  0.00    -0.357 C  
HETATM   17  O   UNL     1     -12.310   9.039  72.950  1.00  0.00    -0.118 OA 
BRANCH  16  18
HETATM   18  C   UNL     1     -12.378   6.953  71.728  1.00  0.00    -0.401 C  
BRANCH  18  19
HETATM   19  C   UNL     1     -11.750   6.397  70.455  1.00  0.00    -0.385 C  
BRANCH  19  20
HETATM   20  C   UNL     1     -10.642   5.373  70.731  1.00  0.00    -0.293 C  
BRANCH  20  21
HETATM   21  C   UNL     1      -9.546   5.522  69.707  1.00  0.00    -0.215 A  
HETATM   22  C   UNL     1      -7.637   5.977  67.711  1.00  0.00    -0.096 A  
HETATM   23  C   UNL     1      -9.618   4.835  68.488  1.00  0.00    -0.218 A  
HETATM   24  C   UNL     1      -8.495   6.423  69.923  1.00  0.00    -0.131 A  
HETATM   25  C   UNL     1      -8.664   5.063  67.495  1.00  0.00    -0.103 A  
HETATM   26  C   UNL     1      -7.545   6.650  68.928  1.00  0.00    -0.101 A  
ENDBRANCH  20  21
ENDBRANCH  19  20
ENDBRANCH  18  19
ENDBRANCH  16  18
ENDBRANCH  15  16
ENDBRANCH  14  15
BRANCH  14  27
HETATM   27  C   UNL     1     -12.526  10.479  70.312  1.00  0.00    -0.271 C  
BRANCH  27  28
HETATM   28  O   UNL     1     -13.158  11.268  71.330  1.00  0.00    -0.388 OA 
BRANCH  28  29
HETATM   29  C   UNL     1     -12.840  12.593  71.305  1.00  0.00    -0.250 C  
HETATM   30  O   UNL     1     -12.833  13.329  72.281  1.00  0.00    -0.247 OA 
BRANCH  29  31
HETATM   31  C   UNL     1     -12.488  13.015  69.901  1.00  0.00    -0.061 C  
BRANCH  31  32
HETATM   32  C   UNL     1     -11.557  14.223  69.890  1.00  0.00    -0.337 C  
BRANCH  32  33
HETATM   33  C   UNL     1     -11.865  15.202  68.749  1.00  0.00    -0.329 C  
BRANCH  33  34
HETATM   34  C   UNL     1     -11.420  14.622  67.431  1.00  0.00    -0.384 A  
HETATM   35  C   UNL     1     -10.619  13.711  64.906  1.00  0.00    -0.421 A  
HETATM   36  C   UNL     1     -10.078  14.713  67.037  1.00  0.00    -0.249 A  
HETATM   37  C   UNL     1      -9.681  14.258  65.780  1.00  0.00    -0.264 A  
HETATM   38  C   UNL     1     -11.954  13.606  65.295  1.00  0.00    -0.395 A  
HETATM   39  C   UNL     1     -12.354  14.058  66.552  1.00  0.00    -0.442 A  
ENDBRANCH  33  34
ENDBRANCH  32  33
ENDBRANCH  31  32
ENDBRANCH  29  31
ENDBRANCH  28  29
ENDBRANCH  27  28
ENDBRANCH  14  27
ENDBRANCH  13  14
ENDBRANCH  12  13
ENDBRANCH   2  12
TORSDOF 20
ENDMDL
MODEL      279
REMARK 921   NORMALIZED FREE ENERGY PREDICTED BY IDOCK:   -3.72 KCAL/MOL
REMARK 922        TOTAL FREE ENERGY PREDICTED BY IDOCK:  -12.75 KCAL/MOL
REMARK 923 INTER-LIGAND FREE ENERGY PREDICTED BY IDOCK:   -9.36 KCAL/MOL
REMARK 924 INTRA-LIGAND FREE ENERGY PREDICTED BY IDOCK:   -3.39 KCAL/MOL
REMARK 927      BINDING AFFINITY PREDICTED BY RF-SCORE:    0.00 PKD
ROOT
HETATM    1  O   UNL     1      -8.201   4.734  66.965  1.00  0.00    -0.106 OA 
HETATM    2  C   UNL     1      -9.270   5.294  67.159  1.00  0.00    -0.113 C  
ENDROOT
BRANCH   2   3
HETATM    3  C   UNL     1     -10.111   5.115  68.400  1.00  0.00    -0.205 C  
BRANCH   3   4
HETATM    4  C   UNL     1      -9.556   4.027  69.322  1.00  0.00    -0.247 C  
BRANCH   4   5
HETATM    5  C   UNL     1      -8.554   4.583  70.339  1.00  0.00    -0.104 C  
BRANCH   5   6
HETATM    6  C   UNL     1      -9.238   5.137  71.563  1.00  0.00    -0.177 A  
HETATM    7  C   UNL     1     -10.533   4.716  71.902  1.00  0.00    -0.172 A  
HETATM    8  C   UNL     1     -10.526   6.175  73.828  1.00  0.00    -0.295 A  
HETATM    9  C   UNL     1     -11.171   5.232  73.030  1.00  0.00    -0.387 A  
HETATM   10  C   UNL     1      -8.601   6.089  72.369  1.00  0.00    -0.120 A  
HETATM   11  C   UNL     1      -9.241   6.603  73.497  1.00  0.00    -0.156 A  
ENDBRANCH   5   6
ENDBRANCH   4   5
ENDBRANCH   3   4
ENDBRANCH   2   3
BRANCH   2  12
HETATM   12  O   UNL     1      -9.872   6.160  66.297  1.00  0.00    -0.129 OA 
BRANCH  12  13
HETATM   13  C   UNL     1     -10.318   7.413  66.851  1.00  0.00    -0.296 C  
BRANCH  13  14
HETATM   14  C   UNL     1      -9.170   8.428  66.835  1.00  0.00    -0.157 C  
BRANCH  14  15
HETATM   15  O   UNL     1      -9.270   9.265  68.006  1.00  0.00    -0.131 OA 
BRANCH  15  16
HETATM   16  C   UNL     1      -8.801   8.729  69.165  1.00  0.00    -0.137 C  
HETATM   17  O   UNL     1      -8.053   7.768  69.254  1.00  0.00    -0.122 OA 
BRANCH  16  18
HETATM   18  C   UNL     1      -9.367   9.481  70.343  1.00  0.00    -0.311 C  
BRANCH  18  19
HETATM   19  C   UNL     1     -10.797   9.052  70.655  1.00  0.00    -0.295 C  
BRANCH  19  20
HETATM   20  C   UNL     1     -11.834   9.709  69.737  1.00  0.00     0.141 C  
BRANCH  20  21
HETATM   21  C   UNL     1     -11.954  11.174  70.073  1.00  0.00    -0.447 A  
HETATM   22  C   UNL     1     -12.384  13.893  70.580  1.00  0.00    -0.451 A  
HETATM   23  C   UNL     1     -11.456  12.145  69.195  1.00  0.00    -0.352 A  
HETATM   24  C   UNL     1     -12.650  11.580  71.219  1.00  0.00    -0.452 A  
HETATM   25  C   UNL     1     -11.671  13.500  69.451  1.00  0.00    -0.381 A  
HETATM   26  C   UNL     1     -12.865  12.935  71.470  1.00  0.00    -0.380 A  
ENDBRANCH  20  21
ENDBRANCH  19  20
ENDBRANCH  18  19
ENDBRANCH  16  18
ENDBRANCH  15  16
ENDBRANCH  14  15
BRANCH  14  27
HETATM   27  C   UNL     1      -9.254   9.337  65.603  1.00  0.00    -0.231 C  
BRANCH  27  28
HETATM   28  O   UNL     1     -10.353  10.254  65.701  1.00  0.00    -0.243 OA 
BRANCH  28  29
HETATM   29  C   UNL     1     -10.126  11.478  65.148  1.00  0.00    -0.268 C  
HETATM   30  O   UNL     1     -10.561  11.849  64.067  1.00  0.00    -0.305 OA 
BRANCH  29  31
HETATM   31  C   UNL     1      -9.268  12.312  66.066  1.00  0.00    -0.086 C  
BRANCH  31  32
HETATM   32  C   UNL     1      -9.796  13.736  66.197  1.00  0.00    -0.310 C  
BRANCH  32  33
HETATM   33  C   UNL     1      -9.008  14.574  67.213  1.00  0.00    -0.220 C  
BRANCH  33  34
HETATM   34  C   UNL     1      -9.186  16.042  66.926  1.00  0.00    -0.244 A  
HETATM   35  C   UNL     1      -9.425  18.808  66.551  1.00  0.00    -0.353 A  
HETATM   36  C   UNL     1      -8.178  16.758  66.265  1.00  0.00    -0.359 A  
HETATM   37  C   UNL     1      -8.299  18.135  66.079  1.00  0.00    -0.064 A  
HETATM   38  C   UNL     1     -10.437  18.101  67.199  1.00  0.00    -0.392 A  
HETATM   39  C   UNL     1     -10.319  16.724  67.385  1.00  0.00    -0.302 A  
ENDBRANCH  33  34
ENDBRANCH  32  33
ENDBRANCH  31  32
ENDBRANCH  29  31
ENDBRANCH  28  29
ENDBRANCH  27  28
ENDBRANCH  14  27
ENDBRANCH  13  14
ENDBRANCH  12  13
ENDBRANCH   2  12
TORSDOF 20
ENDMDL
MODEL      280
REMARK 921   NORMALIZED FREE ENERGY PREDICTED BY IDOCK:   -3.71 KCAL/MOL
REMARK 922        TOTAL FREE ENERGY PREDICTED BY IDOCK:  -12.73 KCAL/MOL
REMARK 923 INTER-LIGAND FREE ENERGY PREDICTED BY IDOCK:   -8.96 KCAL/MOL
REMARK 924 INTRA-LIGAND FREE ENERGY PREDICTED BY IDOCK:   -3.77 KCAL/MOL
REMARK 927      BINDING AFFINITY PREDICTED BY RF-SCORE:    0.00 PKD
ROOT
HETATM    1  O   UNL     1     -12.457  14.158  66.548  1.00  0.00    -0.447 OA 
HETATM    2  C   UNL     1     -11.429  13.696  66.074  1.00  0.00    -0.324 C  
ENDROOT
BRANCH   2   3
HETATM    3  C   UNL     1     -10.154  14.482  65.884  1.00  0.00    -0.346 C  
BRANCH   3   4
HETATM    4  C   UNL     1     -10.415  15.884  65.332  1.00  0.00    -0.429 C  
BRANCH   4   5
HETATM    5  C   UNL     1     -10.494  16.939  66.441  1.00  0.00    -0.252 C  
BRANCH   5   6
HETATM    6  C   UNL     1      -9.127  17.379  66.902  1.00  0.00    -0.258 A  
HETATM    7  C   UNL     1      -8.982  18.109  68.091  1.00  0.00    -0.298 A  
HETATM    8  C   UNL     1      -6.591  18.216  67.758  1.00  0.00    -0.189 A  
HETATM    9  C   UNL     1      -7.719  18.522  68.517  1.00  0.00    -0.330 A  
HETATM   10  C   UNL     1      -7.987  17.080  66.145  1.00  0.00    -0.299 A  
HETATM   11  C   UNL     1      -6.725  17.495  66.573  1.00  0.00    -0.276 A  
ENDBRANCH   5   6
ENDBRANCH   4   5
ENDBRANCH   3   4
ENDBRANCH   2   3
BRANCH   2  12
HETATM   12  O   UNL     1     -11.268  12.415  65.643  1.00  0.00    -0.298 OA 
BRANCH  12  13
HETATM   13  C   UNL     1     -10.480  11.548  66.481  1.00  0.00    -0.244 C  
BRANCH  13  14
HETATM   14  C   UNL     1     -10.896  11.718  67.945  1.00  0.00    -0.211 C  
BRANCH  14  15
HETATM   15  O   UNL     1      -9.766  12.200  68.700  1.00  0.00    -0.178 OA 
BRANCH  15  16
HETATM   16  C   UNL     1      -8.540  11.934  68.176  1.00  0.00    -0.165 C  
HETATM   17  O   UNL     1      -7.957  12.614  67.345  1.00  0.00    -0.160 OA 
BRANCH  16  18
HETATM   18  C   UNL     1      -8.005  10.646  68.750  1.00  0.00    -0.135 C  
BRANCH  18  19
HETATM   19  C   UNL     1      -7.300   9.804  67.692  1.00  0.00    -0.090 C  
BRANCH  19  20
HETATM   20  C   UNL     1      -8.122   8.589  67.246  1.00  0.00    -0.105 C  
BRANCH  20  21
HETATM   21  C   UNL     1      -7.379   7.322  67.583  1.00  0.00    -0.093 A  
HETATM   22  C   UNL     1      -5.800   5.097  68.208  1.00  0.00    -0.017 A  
HETATM   23  C   UNL     1      -6.860   6.513  66.564  1.00  0.00    -0.065 A  
HETATM   24  C   UNL     1      -7.117   6.991  68.919  1.00  0.00    -0.085 A  
HETATM   25  C   UNL     1      -6.073   5.404  66.878  1.00  0.00    -0.030 A  
HETATM   26  C   UNL     1      -6.329   5.883  69.229  1.00  0.00    -0.041 A  
ENDBRANCH  20  21
ENDBRANCH  19  20
ENDBRANCH  18  19
ENDBRANCH  16  18
ENDBRANCH  15  16
ENDBRANCH  14  15
BRANCH  14  27
HETATM   27  C   UNL     1     -11.329  10.380  68.556  1.00  0.00    -0.220 C  
BRANCH  27  28
HETATM   28  O   UNL     1     -11.767  10.540  69.913  1.00  0.00    -0.261 OA 
BRANCH  28  29
HETATM   29  C   UNL     1     -11.441   9.509  70.743  1.00  0.00    -0.310 C  
HETATM   30  O   UNL     1     -11.712   9.457  71.934  1.00  0.00    -0.374 OA 
BRANCH  29  31
HETATM   31  C   UNL     1     -10.706   8.439  69.976  1.00  0.00    -0.236 C  
BRANCH  31  32
HETATM   32  C   UNL     1     -11.371   7.075  70.129  1.00  0.00    -0.321 C  
BRANCH  32  33
HETATM   33  C   UNL     1     -10.359   5.927  70.244  1.00  0.00    -0.298 C  
BRANCH  33  34
HETATM   34  C   UNL     1     -10.195   5.242  68.912  1.00  0.00    -0.248 A  
HETATM   35  C   UNL     1      -9.729   4.056  66.417  1.00  0.00    -0.206 A  
HETATM   36  C   UNL     1      -9.483   4.038  68.821  1.00  0.00    -0.226 A  
HETATM   37  C   UNL     1      -9.252   3.448  67.578  1.00  0.00    -0.231 A  
HETATM   38  C   UNL     1     -10.448   5.247  66.500  1.00  0.00    -0.354 A  
HETATM   39  C   UNL     1     -10.682   5.838  67.741  1.00  0.00    -0.306 A  
ENDBRANCH  33  34
ENDBRANCH  32  33
ENDBRANCH  31  32
ENDBRANCH  29  31
ENDBRANCH  28  29
ENDBRANCH  27  28
ENDBRANCH  14  27
ENDBRANCH  13  14
ENDBRANCH  12  13
ENDBRANCH   2  12
TORSDOF 20
ENDMDL
MODEL      281
REMARK 921   NORMALIZED FREE ENERGY PREDICTED BY IDOCK:   -3.70 KCAL/MOL
REMARK 922        TOTAL FREE ENERGY PREDICTED BY IDOCK:  -12.70 KCAL/MOL
REMARK 923 INTER-LIGAND FREE ENERGY PREDICTED BY IDOCK:  -10.82 KCAL/MOL
REMARK 924 INTRA-LIGAND FREE ENERGY PREDICTED BY IDOCK:   -1.88 KCAL/MOL
REMARK 927      BINDING AFFINITY PREDICTED BY RF-SCORE:    0.00 PKD
ROOT
HETATM    1  O   UNL     1     -12.802  13.642  71.772  1.00  0.00    -0.338 OA 
HETATM    2  C   UNL     1     -12.248  13.980  70.735  1.00  0.00    -0.367 C  
ENDROOT
BRANCH   2   3
HETATM    3  C   UNL     1     -12.229  15.394  70.205  1.00  0.00    -0.414 C  
BRANCH   3   4
HETATM    4  C   UNL     1     -10.915  15.727  69.495  1.00  0.00    -0.295 C  
BRANCH   4   5
HETATM    5  C   UNL     1     -11.138  16.528  68.207  1.00  0.00    -0.321 C  
BRANCH   5   6
HETATM    6  C   UNL     1      -9.839  16.981  67.591  1.00  0.00    -0.257 A  
HETATM    7  C   UNL     1      -9.711  18.284  67.088  1.00  0.00    -0.307 A  
HETATM    8  C   UNL     1      -7.433  17.827  66.426  1.00  0.00    -0.314 A  
HETATM    9  C   UNL     1      -8.513  18.704  66.511  1.00  0.00    -0.302 A  
HETATM   10  C   UNL     1      -8.749  16.107  67.496  1.00  0.00    -0.195 A  
HETATM   11  C   UNL     1      -7.552  16.529  66.918  1.00  0.00    -0.272 A  
ENDBRANCH   5   6
ENDBRANCH   4   5
ENDBRANCH   3   4
ENDBRANCH   2   3
BRANCH   2  12
HETATM   12  O   UNL     1     -11.569  13.148  69.898  1.00  0.00    -0.264 OA 
BRANCH  12  13
HETATM   13  C   UNL     1     -12.136  11.840  69.691  1.00  0.00    -0.258 C  
BRANCH  13  14
HETATM   14  C   UNL     1     -11.462  10.827  70.621  1.00  0.00    -0.219 C  
BRANCH  14  15
HETATM   15  O   UNL     1     -10.366  10.203  69.919  1.00  0.00    -0.250 OA 
BRANCH  15  16
HETATM   16  C   UNL     1     -10.608   9.848  68.629  1.00  0.00    -0.217 C  
HETATM   17  O   UNL     1     -11.154   8.817  68.265  1.00  0.00     0.076 OA 
BRANCH  16  18
HETATM   18  C   UNL     1     -10.074  10.905  67.697  1.00  0.00    -0.206 C  
BRANCH  18  19
HETATM   19  C   UNL     1     -10.011  10.410  66.256  1.00  0.00    -0.283 C  
BRANCH  19  20
HETATM   20  C   UNL     1      -9.357  11.418  65.303  1.00  0.00    -0.192 C  
BRANCH  20  21
HETATM   21  C   UNL     1     -10.364  12.467  64.906  1.00  0.00    -0.323 A  
HETATM   22  C   UNL     1     -12.390  14.304  64.307  1.00  0.00    -0.407 A  
HETATM   23  C   UNL     1     -11.201  12.263  63.802  1.00  0.00    -0.510 A  
HETATM   24  C   UNL     1     -10.538  13.613  65.694  1.00  0.00    -0.294 A  
HETATM   25  C   UNL     1     -12.210  13.181  63.505  1.00  0.00    -0.552 A  
HETATM   26  C   UNL     1     -11.548  14.527  65.396  1.00  0.00    -0.355 A  
ENDBRANCH  20  21
ENDBRANCH  19  20
ENDBRANCH  18  19
ENDBRANCH  16  18
ENDBRANCH  15  16
ENDBRANCH  14  15
BRANCH  14  27
HETATM   27  C   UNL     1     -12.440   9.721  71.035  1.00  0.00    -0.323 C  
BRANCH  27  28
HETATM   28  O   UNL     1     -11.904   8.914  72.093  1.00  0.00    -0.361 OA 
BRANCH  28  29
HETATM   29  C   UNL     1     -12.032   7.570  71.907  1.00  0.00    -0.301 C  
HETATM   30  O   UNL     1     -13.061   7.008  71.561  1.00  0.00    -0.380 OA 
BRANCH  29  31
HETATM   31  C   UNL     1     -10.720   6.881  72.180  1.00  0.00    -0.248 C  
BRANCH  31  32
HETATM   32  C   UNL     1      -9.944   6.610  70.896  1.00  0.00    -0.204 C  
BRANCH  32  33
HETATM   33  C   UNL     1     -10.607   5.547  70.010  1.00  0.00    -0.384 C  
BRANCH  33  34
HETATM   34  C   UNL     1      -9.820   4.263  70.058  1.00  0.00    -0.275 A  
HETATM   35  C   UNL     1      -8.202   1.978  70.131  1.00  0.00    -0.061 A  
HETATM   36  C   UNL     1      -9.306   3.797  71.276  1.00  0.00    -0.215 A  
HETATM   37  C   UNL     1      -8.501   2.658  71.311  1.00  0.00    -0.093 A  
HETATM   38  C   UNL     1      -8.719   2.429  68.918  1.00  0.00    -0.130 A  
HETATM   39  C   UNL     1      -9.525   3.566  68.880  1.00  0.00    -0.210 A  
ENDBRANCH  33  34
ENDBRANCH  32  33
ENDBRANCH  31  32
ENDBRANCH  29  31
ENDBRANCH  28  29
ENDBRANCH  27  28
ENDBRANCH  14  27
ENDBRANCH  13  14
ENDBRANCH  12  13
ENDBRANCH   2  12
TORSDOF 20
ENDMDL
MODEL      282
REMARK 921   NORMALIZED FREE ENERGY PREDICTED BY IDOCK:   -3.69 KCAL/MOL
REMARK 922        TOTAL FREE ENERGY PREDICTED BY IDOCK:  -12.68 KCAL/MOL
REMARK 923 INTER-LIGAND FREE ENERGY PREDICTED BY IDOCK:   -9.81 KCAL/MOL
REMARK 924 INTRA-LIGAND FREE ENERGY PREDICTED BY IDOCK:   -2.88 KCAL/MOL
REMARK 927      BINDING AFFINITY PREDICTED BY RF-SCORE:    0.00 PKD
ROOT
HETATM    1  O   UNL     1     -13.293  10.226  71.982  1.00  0.00    -0.434 OA 
HETATM    2  C   UNL     1     -12.391   9.646  71.393  1.00  0.00    -0.378 C  
ENDROOT
BRANCH   2   3
HETATM    3  C   UNL     1     -12.361   8.158  71.142  1.00  0.00    -0.229 C  
BRANCH   3   4
HETATM    4  C   UNL     1     -12.236   7.355  72.438  1.00  0.00    -0.134 C  
BRANCH   4   5
HETATM    5  C   UNL     1     -11.200   6.231  72.328  1.00  0.00    -0.325 C  
BRANCH   5   6
HETATM    6  C   UNL     1      -9.950   6.534  73.115  1.00  0.00    -0.193 A  
HETATM    7  C   UNL     1      -9.545   7.862  73.315  1.00  0.00    -0.351 A  
HETATM    8  C   UNL     1      -7.617   7.107  74.561  1.00  0.00    -0.143 A  
HETATM    9  C   UNL     1      -8.385   8.145  74.037  1.00  0.00    -0.309 A  
HETATM   10  C   UNL     1      -9.169   5.498  73.642  1.00  0.00    -0.133 A  
HETATM   11  C   UNL     1      -8.009   5.784  74.363  1.00  0.00    -0.103 A  
ENDBRANCH   5   6
ENDBRANCH   4   5
ENDBRANCH   3   4
ENDBRANCH   2   3
BRANCH   2  12
HETATM   12  O   UNL     1     -11.280  10.239  70.876  1.00  0.00    -0.336 OA 
BRANCH  12  13
HETATM   13  C   UNL     1     -10.561   9.495  69.874  1.00  0.00    -0.241 C  
BRANCH  13  14
HETATM   14  C   UNL     1     -10.673  10.199  68.519  1.00  0.00    -0.230 C  
BRANCH  14  15
HETATM   15  O   UNL     1     -11.928  10.908  68.463  1.00  0.00    -0.520 OA 
BRANCH  15  16
HETATM   16  C   UNL     1     -11.876  12.177  67.975  1.00  0.00    -0.285 C  
HETATM   17  O   UNL     1     -12.161  12.514  66.836  1.00  0.00    -0.537 OA 
BRANCH  16  18
HETATM   18  C   UNL     1     -11.383  13.118  69.045  1.00  0.00    -0.332 C  
BRANCH  18  19
HETATM   19  C   UNL     1     -11.475  14.575  68.604  1.00  0.00    -0.321 C  
BRANCH  19  20
HETATM   20  C   UNL     1     -10.111  15.272  68.552  1.00  0.00    -0.222 C  
BRANCH  20  21
HETATM   21  C   UNL     1     -10.280  16.680  68.040  1.00  0.00    -0.280 A  
HETATM   22  C   UNL     1     -10.361  19.293  67.039  1.00  0.00    -0.526 A  
HETATM   23  C   UNL     1     -10.097  17.773  68.897  1.00  0.00    -0.350 A  
HETATM   24  C   UNL     1     -10.525  16.912  66.680  1.00  0.00    -0.257 A  
HETATM   25  C   UNL     1     -10.139  19.075  68.396  1.00  0.00    -0.471 A  
HETATM   26  C   UNL     1     -10.564  18.214  66.181  1.00  0.00    -0.289 A  
ENDBRANCH  20  21
ENDBRANCH  19  20
ENDBRANCH  18  19
ENDBRANCH  16  18
ENDBRANCH  15  16
ENDBRANCH  14  15
BRANCH  14  27
HETATM   27  C   UNL     1     -10.657   9.187  67.367  1.00  0.00    -0.244 C  
BRANCH  27  28
HETATM   28  O   UNL     1      -9.359   8.595  67.207  1.00  0.00    -0.145 OA 
BRANCH  28  29
HETATM   29  C   UNL     1      -8.916   8.533  65.920  1.00  0.00    -0.189 C  
HETATM   30  O   UNL     1      -8.633   7.501  65.327  1.00  0.00    -0.106 OA 
BRANCH  29  31
HETATM   31  C   UNL     1      -8.834   9.918  65.332  1.00  0.00    -0.196 C  
BRANCH  31  32
HETATM   32  C   UNL     1      -7.733  10.747  65.985  1.00  0.00    -0.139 C  
BRANCH  32  33
HETATM   33  C   UNL     1      -8.279  11.909  66.824  1.00  0.00    -0.129 C  
BRANCH  33  34
HETATM   34  C   UNL     1      -7.490  12.046  68.101  1.00  0.00    -0.112 A  
HETATM   35  C   UNL     1      -5.870  12.278  70.374  1.00  0.00    -0.152 A  
HETATM   36  C   UNL     1      -6.993  13.296  68.493  1.00  0.00    -0.103 A  
HETATM   37  C   UNL     1      -6.187  13.411  69.625  1.00  0.00    -0.120 A  
HETATM   38  C   UNL     1      -6.370  11.033  69.998  1.00  0.00    -0.146 A  
HETATM   39  C   UNL     1      -7.177  10.916  68.867  1.00  0.00    -0.095 A  
ENDBRANCH  33  34
ENDBRANCH  32  33
ENDBRANCH  31  32
ENDBRANCH  29  31
ENDBRANCH  28  29
ENDBRANCH  27  28
ENDBRANCH  14  27
ENDBRANCH  13  14
ENDBRANCH  12  13
ENDBRANCH   2  12
TORSDOF 20
ENDMDL
MODEL      283
REMARK 921   NORMALIZED FREE ENERGY PREDICTED BY IDOCK:   -3.67 KCAL/MOL
REMARK 922        TOTAL FREE ENERGY PREDICTED BY IDOCK:  -12.65 KCAL/MOL
REMARK 923 INTER-LIGAND FREE ENERGY PREDICTED BY IDOCK:   -8.61 KCAL/MOL
REMARK 924 INTRA-LIGAND FREE ENERGY PREDICTED BY IDOCK:   -4.04 KCAL/MOL
REMARK 927      BINDING AFFINITY PREDICTED BY RF-SCORE:    0.00 PKD
ROOT
HETATM    1  O   UNL     1     -12.641  10.588  71.399  1.00  0.00    -0.369 OA 
HETATM    2  C   UNL     1     -12.122   9.931  70.507  1.00  0.00    -0.207 C  
ENDROOT
BRANCH   2   3
HETATM    3  C   UNL     1     -12.094   8.422  70.470  1.00  0.00     0.148 C  
BRANCH   3   4
HETATM    4  C   UNL     1     -12.374   7.804  71.842  1.00  0.00    -0.342 C  
BRANCH   4   5
HETATM    5  C   UNL     1     -12.012   6.316  71.894  1.00  0.00    -0.342 C  
BRANCH   5   6
HETATM    6  C   UNL     1     -10.801   6.057  72.754  1.00  0.00    -0.284 A  
HETATM    7  C   UNL     1     -10.096   4.851  72.640  1.00  0.00    -0.222 A  
HETATM    8  C   UNL     1      -8.559   5.560  74.364  1.00  0.00    -0.114 A  
HETATM    9  C   UNL     1      -8.979   4.606  73.439  1.00  0.00    -0.108 A  
HETATM   10  C   UNL     1     -10.373   7.008  73.689  1.00  0.00    -0.412 A  
HETATM   11  C   UNL     1      -9.256   6.761  74.488  1.00  0.00    -0.238 A  
ENDBRANCH   5   6
ENDBRANCH   4   5
ENDBRANCH   3   4
ENDBRANCH   2   3
BRANCH   2  12
HETATM   12  O   UNL     1     -11.491  10.446  69.416  1.00  0.00    -0.243 OA 
BRANCH  12  13
HETATM   13  C   UNL     1     -10.195   9.899  69.105  1.00  0.00    -0.205 C  
BRANCH  13  14
HETATM   14  C   UNL     1     -10.114   9.564  67.613  1.00  0.00    -0.205 C  
BRANCH  14  15
HETATM   15  O   UNL     1      -9.451   8.293  67.454  1.00  0.00    -0.144 OA 
BRANCH  15  16
HETATM   16  C   UNL     1     -10.215   7.189  67.669  1.00  0.00    -0.198 C  
HETATM   17  O   UNL     1     -11.263   6.926  67.097  1.00  0.00    -0.352 OA 
BRANCH  16  18
HETATM   18  C   UNL     1      -9.596   6.338  68.748  1.00  0.00    -0.128 C  
BRANCH  18  19
HETATM   19  C   UNL     1      -8.082   6.511  68.807  1.00  0.00    -0.118 C  
BRANCH  19  20
HETATM   20  C   UNL     1      -7.411   5.580  69.823  1.00  0.00    -0.066 C  
BRANCH  20  21
HETATM   21  C   UNL     1      -6.854   6.391  70.965  1.00  0.00    -0.066 A  
HETATM   22  C   UNL     1      -5.996   7.812  73.219  1.00  0.00    -0.061 A  
HETATM   23  C   UNL     1      -7.310   7.696  71.195  1.00  0.00    -0.073 A  
HETATM   24  C   UNL     1      -5.947   5.815  71.864  1.00  0.00    -0.034 A  
HETATM   25  C   UNL     1      -6.880   8.402  72.320  1.00  0.00    -0.100 A  
HETATM   26  C   UNL     1      -5.521   6.523  72.988  1.00  0.00    -0.038 A  
ENDBRANCH  20  21
ENDBRANCH  19  20
ENDBRANCH  18  19
ENDBRANCH  16  18
ENDBRANCH  15  16
ENDBRANCH  14  15
BRANCH  14  27
HETATM   27  C   UNL     1      -9.296  10.615  66.854  1.00  0.00    -0.159 C  
BRANCH  27  28
HETATM   28  O   UNL     1      -9.044  11.772  67.666  1.00  0.00    -0.167 OA 
BRANCH  28  29
HETATM   29  C   UNL     1      -9.709  12.896  67.278  1.00  0.00    -0.220 C  
HETATM   30  O   UNL     1     -10.530  12.946  66.373  1.00  0.00    -0.261 OA 
BRANCH  29  31
HETATM   31  C   UNL     1      -9.294  14.066  68.134  1.00  0.00    -0.201 C  
BRANCH  31  32
HETATM   32  C   UNL     1     -10.087  15.324  67.798  1.00  0.00    -0.230 C  
BRANCH  32  33
HETATM   33  C   UNL     1      -9.729  16.513  68.699  1.00  0.00    -0.247 C  
BRANCH  33  34
HETATM   34  C   UNL     1     -10.012  17.810  67.986  1.00  0.00    -0.333 A  
HETATM   35  C   UNL     1     -10.365  20.217  66.597  1.00  0.00    -0.508 A  
HETATM   36  C   UNL     1     -10.444  17.802  66.653  1.00  0.00    -0.300 A  
HETATM   37  C   UNL     1     -10.619  19.001  65.962  1.00  0.00    -0.499 A  
HETATM   38  C   UNL     1      -9.947  20.233  67.926  1.00  0.00    -0.492 A  
HETATM   39  C   UNL     1      -9.772  19.036  68.619  1.00  0.00    -0.468 A  
ENDBRANCH  33  34
ENDBRANCH  32  33
ENDBRANCH  31  32
ENDBRANCH  29  31
ENDBRANCH  28  29
ENDBRANCH  27  28
ENDBRANCH  14  27
ENDBRANCH  13  14
ENDBRANCH  12  13
ENDBRANCH   2  12
TORSDOF 20
ENDMDL
MODEL      284
REMARK 921   NORMALIZED FREE ENERGY PREDICTED BY IDOCK:   -3.66 KCAL/MOL
REMARK 922        TOTAL FREE ENERGY PREDICTED BY IDOCK:  -12.62 KCAL/MOL
REMARK 923 INTER-LIGAND FREE ENERGY PREDICTED BY IDOCK:   -9.73 KCAL/MOL
REMARK 924 INTRA-LIGAND FREE ENERGY PREDICTED BY IDOCK:   -2.89 KCAL/MOL
REMARK 927      BINDING AFFINITY PREDICTED BY RF-SCORE:    0.00 PKD
ROOT
HETATM    1  O   UNL     1     -12.945  14.678  71.507  1.00  0.00    -0.305 OA 
HETATM    2  C   UNL     1     -12.422  14.264  70.482  1.00  0.00    -0.361 C  
ENDROOT
BRANCH   2   3
HETATM    3  C   UNL     1     -11.772  15.148  69.444  1.00  0.00    -0.355 C  
BRANCH   3   4
HETATM    4  C   UNL     1     -10.520  14.508  68.842  1.00  0.00    -0.246 C  
BRANCH   4   5
HETATM    5  C   UNL     1     -10.129  15.142  67.502  1.00  0.00    -0.232 C  
BRANCH   5   6
HETATM    6  C   UNL     1     -10.954  14.605  66.360  1.00  0.00    -0.325 A  
HETATM    7  C   UNL     1     -10.705  15.031  65.047  1.00  0.00    -0.448 A  
HETATM    8  C   UNL     1     -12.493  13.625  64.230  1.00  0.00    -0.304 A  
HETATM    9  C   UNL     1     -11.471  14.540  63.988  1.00  0.00     0.092 A  
HETATM   10  C   UNL     1     -11.986  13.687  66.592  1.00  0.00    -0.458 A  
HETATM   11  C   UNL     1     -12.750  13.199  65.533  1.00  0.00    -0.367 A  
ENDBRANCH   5   6
ENDBRANCH   4   5
ENDBRANCH   3   4
ENDBRANCH   2   3
BRANCH   2  12
HETATM   12  O   UNL     1     -12.342  12.956  70.111  1.00  0.00    -0.270 OA 
BRANCH  12  13
HETATM   13  C   UNL     1     -12.597  11.980  71.138  1.00  0.00    -0.271 C  
BRANCH  13  14
HETATM   14  C   UNL     1     -12.115  10.601  70.679  1.00  0.00    -0.365 C  
BRANCH  14  15
HETATM   15  O   UNL     1     -12.118   9.703  71.809  1.00  0.00    -0.378 OA 
BRANCH  15  16
HETATM   16  C   UNL     1     -13.034   8.698  71.770  1.00  0.00    -0.359 C  
HETATM   17  O   UNL     1     -14.197   8.780  72.134  1.00  0.00    -0.438 OA 
BRANCH  16  18
HETATM   18  C   UNL     1     -12.394   7.442  71.236  1.00  0.00    -0.380 C  
BRANCH  18  19
HETATM   19  C   UNL     1     -11.352   6.883  72.198  1.00  0.00    -0.302 C  
BRANCH  19  20
HETATM   20  C   UNL     1     -11.658   5.450  72.648  1.00  0.00    -0.270 C  
BRANCH  20  21
HETATM   21  C   UNL     1     -10.369   4.712  72.908  1.00  0.00    -0.242 A  
HETATM   22  C   UNL     1      -8.026   3.357  73.621  1.00  0.00    -0.074 A  
HETATM   23  C   UNL     1      -9.179   5.419  73.119  1.00  0.00    -0.133 A  
HETATM   24  C   UNL     1     -10.368   3.317  73.036  1.00  0.00    -0.245 A  
HETATM   25  C   UNL     1      -8.011   4.741  73.473  1.00  0.00    -0.103 A  
HETATM   26  C   UNL     1      -9.201   2.642  73.393  1.00  0.00    -0.095 A  
ENDBRANCH  20  21
ENDBRANCH  19  20
ENDBRANCH  18  19
ENDBRANCH  16  18
ENDBRANCH  15  16
ENDBRANCH  14  15
BRANCH  14  27
HETATM   27  C   UNL     1     -10.680  10.668  70.142  1.00  0.00    -0.087 C  
BRANCH  27  28
HETATM   28  O   UNL     1     -10.367   9.522  69.336  1.00  0.00    -0.195 OA 
BRANCH  28  29
HETATM   29  C   UNL     1     -10.592   9.685  68.002  1.00  0.00    -0.243 C  
HETATM   30  O   UNL     1     -10.915  10.737  67.470  1.00  0.00    -0.273 OA 
BRANCH  29  31
HETATM   31  C   UNL     1     -10.375   8.381  67.276  1.00  0.00    -0.369 C  
BRANCH  31  32
HETATM   32  C   UNL     1      -9.173   7.620  67.826  1.00  0.00    -0.141 C  
BRANCH  32  33
HETATM   33  C   UNL     1      -8.745   6.452  66.928  1.00  0.00    -0.115 C  
BRANCH  33  34
HETATM   34  C   UNL     1      -9.003   5.139  67.621  1.00  0.00    -0.112 A  
HETATM   35  C   UNL     1      -9.304   2.697  68.960  1.00  0.00    -0.212 A  
HETATM   36  C   UNL     1      -9.319   5.114  68.987  1.00  0.00    -0.166 A  
HETATM   37  C   UNL     1      -9.469   3.897  69.652  1.00  0.00    -0.263 A  
HETATM   38  C   UNL     1      -9.002   2.715  67.600  1.00  0.00    -0.194 A  
HETATM   39  C   UNL     1      -8.853   3.930  66.932  1.00  0.00    -0.133 A  
ENDBRANCH  33  34
ENDBRANCH  32  33
ENDBRANCH  31  32
ENDBRANCH  29  31
ENDBRANCH  28  29
ENDBRANCH  27  28
ENDBRANCH  14  27
ENDBRANCH  13  14
ENDBRANCH  12  13
ENDBRANCH   2  12
TORSDOF 20
ENDMDL
MODEL      285
REMARK 921   NORMALIZED FREE ENERGY PREDICTED BY IDOCK:   -3.66 KCAL/MOL
REMARK 922        TOTAL FREE ENERGY PREDICTED BY IDOCK:  -12.61 KCAL/MOL
REMARK 923 INTER-LIGAND FREE ENERGY PREDICTED BY IDOCK:   -9.65 KCAL/MOL
REMARK 924 INTRA-LIGAND FREE ENERGY PREDICTED BY IDOCK:   -2.96 KCAL/MOL
REMARK 927      BINDING AFFINITY PREDICTED BY RF-SCORE:    0.00 PKD
ROOT
HETATM    1  O   UNL     1     -12.379  12.839  70.217  1.00  0.00    -0.287 OA 
HETATM    2  C   UNL     1     -11.742  13.177  69.229  1.00  0.00    -0.321 C  
ENDROOT
BRANCH   2   3
HETATM    3  C   UNL     1     -12.218  14.191  68.217  1.00  0.00    -0.196 C  
BRANCH   3   4
HETATM    4  C   UNL     1     -11.057  14.897  67.515  1.00  0.00    -0.319 C  
BRANCH   4   5
HETATM    5  C   UNL     1     -11.349  15.164  66.034  1.00  0.00    -0.221 C  
BRANCH   5   6
HETATM    6  C   UNL     1     -11.244  13.911  65.202  1.00  0.00    -0.326 A  
HETATM    7  C   UNL     1     -12.242  13.596  64.268  1.00  0.00    -0.445 A  
HETATM    8  C   UNL     1     -11.066  11.574  63.662  1.00  0.00    -0.469 A  
HETATM    9  C   UNL     1     -12.150  12.434  63.501  1.00  0.00    -0.651 A  
HETATM   10  C   UNL     1     -10.161  13.037  65.359  1.00  0.00    -0.265 A  
HETATM   11  C   UNL     1     -10.072  11.875  64.591  1.00  0.00    -0.301 A  
ENDBRANCH   5   6
ENDBRANCH   4   5
ENDBRANCH   3   4
ENDBRANCH   2   3
BRANCH   2  12
HETATM   12  O   UNL     1     -10.515  12.699  68.883  1.00  0.00    -0.188 OA 
BRANCH  12  13
HETATM   13  C   UNL     1     -10.429  11.289  68.600  1.00  0.00    -0.203 C  
BRANCH  13  14
HETATM   14  C   UNL     1      -9.268  10.669  69.383  1.00  0.00    -0.051 C  
BRANCH  14  15
HETATM   15  O   UNL     1      -8.091  10.665  68.549  1.00  0.00    -0.111 OA 
BRANCH  15  16
HETATM   16  C   UNL     1      -7.150  11.604  68.838  1.00  0.00    -0.115 C  
HETATM   17  O   UNL     1      -6.419  11.602  69.818  1.00  0.00    -0.131 OA 
BRANCH  16  18
HETATM   18  C   UNL     1      -7.156  12.679  67.781  1.00  0.00    -0.126 C  
BRANCH  18  19
HETATM   19  C   UNL     1      -6.684  14.019  68.334  1.00  0.00    -0.099 C  
BRANCH  19  20
HETATM   20  C   UNL     1      -7.810  14.828  68.989  1.00  0.00    -0.150 C  
BRANCH  20  21
HETATM   21  C   UNL     1      -7.485  16.298  68.922  1.00  0.00    -0.209 A  
HETATM   22  C   UNL     1      -6.982  19.050  69.012  1.00  0.00    -0.354 A  
HETATM   23  C   UNL     1      -8.411  17.205  68.391  1.00  0.00    -0.251 A  
HETATM   24  C   UNL     1      -6.295  16.783  69.480  1.00  0.00    -0.229 A  
HETATM   25  C   UNL     1      -8.157  18.577  68.436  1.00  0.00    -0.346 A  
HETATM   26  C   UNL     1      -6.045  18.155  69.526  1.00  0.00    -0.248 A  
ENDBRANCH  20  21
ENDBRANCH  19  20
ENDBRANCH  18  19
ENDBRANCH  16  18
ENDBRANCH  15  16
ENDBRANCH  14  15
BRANCH  14  27
HETATM   27  C   UNL     1      -9.573   9.216  69.766  1.00  0.00    -0.181 C  
BRANCH  27  28
HETATM   28  O   UNL     1     -10.977   9.016  69.989  1.00  0.00    -0.235 OA 
BRANCH  28  29
HETATM   29  C   UNL     1     -11.285   7.910  70.723  1.00  0.00    -0.266 C  
HETATM   30  O   UNL     1     -12.184   7.849  71.550  1.00  0.00    -0.294 OA 
BRANCH  29  31
HETATM   31  C   UNL     1     -10.364   6.773  70.361  1.00  0.00    -0.223 C  
BRANCH  31  32
HETATM   32  C   UNL     1     -11.031   5.785  69.411  1.00  0.00    -0.352 C  
BRANCH  32  33
HETATM   33  C   UNL     1     -10.928   6.210  67.940  1.00  0.00    -0.399 C  
BRANCH  33  34
HETATM   34  C   UNL     1     -10.193   5.162  67.145  1.00  0.00    -0.254 A  
HETATM   35  C   UNL     1      -8.955   3.092  65.720  1.00  0.00    -0.144 A  
HETATM   36  C   UNL     1     -10.566   4.890  65.822  1.00  0.00    -0.229 A  
HETATM   37  C   UNL     1      -9.948   3.859  65.113  1.00  0.00    -0.171 A  
HETATM   38  C   UNL     1      -8.570   3.363  67.032  1.00  0.00    -0.119 A  
HETATM   39  C   UNL     1      -9.185   4.394  67.742  1.00  0.00    -0.166 A  
ENDBRANCH  33  34
ENDBRANCH  32  33
ENDBRANCH  31  32
ENDBRANCH  29  31
ENDBRANCH  28  29
ENDBRANCH  27  28
ENDBRANCH  14  27
ENDBRANCH  13  14
ENDBRANCH  12  13
ENDBRANCH   2  12
TORSDOF 20
ENDMDL
MODEL      286
REMARK 921   NORMALIZED FREE ENERGY PREDICTED BY IDOCK:   -3.66 KCAL/MOL
REMARK 922        TOTAL FREE ENERGY PREDICTED BY IDOCK:  -12.61 KCAL/MOL
REMARK 923 INTER-LIGAND FREE ENERGY PREDICTED BY IDOCK:   -9.36 KCAL/MOL
REMARK 924 INTRA-LIGAND FREE ENERGY PREDICTED BY IDOCK:   -3.25 KCAL/MOL
REMARK 927      BINDING AFFINITY PREDICTED BY RF-SCORE:    0.00 PKD
ROOT
HETATM    1  O   UNL     1     -10.710   8.471  67.066  1.00  0.00    -0.275 OA 
HETATM    2  C   UNL     1      -9.645   8.893  66.639  1.00  0.00    -0.219 C  
ENDROOT
BRANCH   2   3
HETATM    3  C   UNL     1      -9.350   9.135  65.178  1.00  0.00    -0.180 C  
BRANCH   3   4
HETATM    4  C   UNL     1      -9.136  10.618  64.869  1.00  0.00    -0.231 C  
BRANCH   4   5
HETATM    5  C   UNL     1     -10.385  11.271  64.266  1.00  0.00    -0.399 C  
BRANCH   5   6
HETATM    6  C   UNL     1     -10.959  12.335  65.168  1.00  0.00    -0.344 A  
HETATM    7  C   UNL     1     -11.002  13.672  64.747  1.00  0.00    -0.384 A  
HETATM    8  C   UNL     1     -12.008  14.322  66.845  1.00  0.00    -0.467 A  
HETATM    9  C   UNL     1     -11.527  14.659  65.581  1.00  0.00    -0.340 A  
HETATM   10  C   UNL     1     -11.442  12.008  66.441  1.00  0.00    -0.417 A  
HETATM   11  C   UNL     1     -11.965  12.997  67.275  1.00  0.00    -0.379 A  
ENDBRANCH   5   6
ENDBRANCH   4   5
ENDBRANCH   3   4
ENDBRANCH   2   3
BRANCH   2  12
HETATM   12  O   UNL     1      -8.561   9.208  67.402  1.00  0.00    -0.115 OA 
BRANCH  12  13
HETATM   13  C   UNL     1      -8.810  10.005  68.576  1.00  0.00    -0.120 C  
BRANCH  13  14
HETATM   14  C   UNL     1      -7.627  10.943  68.831  1.00  0.00    -0.128 C  
BRANCH  14  15
HETATM   15  O   UNL     1      -7.461  11.808  67.687  1.00  0.00    -0.107 OA 
BRANCH  15  16
HETATM   16  C   UNL     1      -7.232  13.120  67.959  1.00  0.00    -0.125 C  
HETATM   17  O   UNL     1      -6.152  13.610  68.253  1.00  0.00    -0.087 OA 
BRANCH  16  18
HETATM   18  C   UNL     1      -8.524  13.894  67.873  1.00  0.00    -0.177 C  
BRANCH  18  19
HETATM   19  C   UNL     1      -8.292  15.334  67.427  1.00  0.00    -0.202 C  
BRANCH  19  20
HETATM   20  C   UNL     1      -8.659  16.362  68.504  1.00  0.00    -0.223 C  
BRANCH  20  21
HETATM   21  C   UNL     1      -9.129  17.637  67.851  1.00  0.00    -0.260 A  
HETATM   22  C   UNL     1     -10.210  19.970  66.746  1.00  0.00    -0.592 A  
HETATM   23  C   UNL     1      -9.763  17.601  66.603  1.00  0.00    -0.304 A  
HETATM   24  C   UNL     1      -9.023  18.858  68.530  1.00  0.00    -0.388 A  
HETATM   25  C   UNL     1     -10.300  18.766  66.054  1.00  0.00    -0.467 A  
HETATM   26  C   UNL     1      -9.563  20.020  67.980  1.00  0.00    -0.460 A  
ENDBRANCH  20  21
ENDBRANCH  19  20
ENDBRANCH  18  19
ENDBRANCH  16  18
ENDBRANCH  15  16
ENDBRANCH  14  15
BRANCH  14  27
HETATM   27  C   UNL     1      -6.325  10.155  69.012  1.00  0.00    -0.044 C  
BRANCH  27  28
HETATM   28  O   UNL     1      -6.514   9.020  69.870  1.00  0.00    -0.037 OA 
BRANCH  28  29
HETATM   29  C   UNL     1      -6.456   9.298  71.203  1.00  0.00    -0.083 C  
HETATM   30  O   UNL     1      -5.695  10.105  71.717  1.00  0.00    -0.281 OA 
BRANCH  29  31
HETATM   31  C   UNL     1      -7.472   8.471  71.950  1.00  0.00    -0.127 C  
BRANCH  31  32
HETATM   32  C   UNL     1      -7.396   6.998  71.567  1.00  0.00    -0.080 C  
BRANCH  32  33
HETATM   33  C   UNL     1      -7.303   6.068  72.784  1.00  0.00    -0.090 C  
BRANCH  33  34
HETATM   34  C   UNL     1      -8.585   5.291  72.945  1.00  0.00    -0.115 A  
HETATM   35  C   UNL     1     -11.024   3.921  73.083  1.00  0.00    -0.246 A  
HETATM   36  C   UNL     1      -8.727   4.034  72.342  1.00  0.00    -0.116 A  
HETATM   37  C   UNL     1      -9.942   3.352  72.412  1.00  0.00    -0.235 A  
HETATM   38  C   UNL     1     -10.886   5.166  73.696  1.00  0.00    -0.363 A  
HETATM   39  C   UNL     1      -9.673   5.848  73.628  1.00  0.00    -0.160 A  
ENDBRANCH  33  34
ENDBRANCH  32  33
ENDBRANCH  31  32
ENDBRANCH  29  31
ENDBRANCH  28  29
ENDBRANCH  27  28
ENDBRANCH  14  27
ENDBRANCH  13  14
ENDBRANCH  12  13
ENDBRANCH   2  12
TORSDOF 20
ENDMDL
MODEL      287
REMARK 921   NORMALIZED FREE ENERGY PREDICTED BY IDOCK:   -3.65 KCAL/MOL
REMARK 922        TOTAL FREE ENERGY PREDICTED BY IDOCK:  -12.60 KCAL/MOL
REMARK 923 INTER-LIGAND FREE ENERGY PREDICTED BY IDOCK:   -9.42 KCAL/MOL
REMARK 924 INTRA-LIGAND FREE ENERGY PREDICTED BY IDOCK:   -3.18 KCAL/MOL
REMARK 927      BINDING AFFINITY PREDICTED BY RF-SCORE:    0.00 PKD
ROOT
HETATM    1  O   UNL     1      -9.845   4.919  69.914  1.00  0.00    -0.184 OA 
HETATM    2  C   UNL     1      -9.538   4.594  68.776  1.00  0.00    -0.163 C  
ENDROOT
BRANCH   2   3
HETATM    3  C   UNL     1      -8.745   3.356  68.431  1.00  0.00    -0.137 C  
BRANCH   3   4
HETATM    4  C   UNL     1      -8.943   2.238  69.456  1.00  0.00    -0.162 C  
BRANCH   4   5
HETATM    5  C   UNL     1      -7.641   1.874  70.178  1.00  0.00    -0.042 C  
BRANCH   5   6
HETATM    6  C   UNL     1      -7.703   2.193  71.651  1.00  0.00    -0.041 A  
HETATM    7  C   UNL     1      -6.588   2.738  72.304  1.00  0.00    -0.015 A  
HETATM    8  C   UNL     1      -7.802   2.771  74.393  1.00  0.00    -0.059 A  
HETATM    9  C   UNL     1      -6.640   3.027  73.668  1.00  0.00    -0.029 A  
HETATM   10  C   UNL     1      -8.865   1.935  72.389  1.00  0.00    -0.086 A  
HETATM   11  C   UNL     1      -8.914   2.225  73.753  1.00  0.00    -0.069 A  
ENDBRANCH   5   6
ENDBRANCH   4   5
ENDBRANCH   3   4
ENDBRANCH   2   3
BRANCH   2  12
HETATM   12  O   UNL     1      -9.854   5.287  67.647  1.00  0.00    -0.139 OA 
BRANCH  12  13
HETATM   13  C   UNL     1     -10.467   6.577  67.834  1.00  0.00    -0.222 C  
BRANCH  13  14
HETATM   14  C   UNL     1      -9.457   7.685  67.520  1.00  0.00    -0.140 C  
BRANCH  14  15
HETATM   15  O   UNL     1      -9.768   8.843  68.323  1.00  0.00    -0.151 OA 
BRANCH  15  16
HETATM   16  C   UNL     1      -8.710   9.468  68.906  1.00  0.00    -0.133 C  
HETATM   17  O   UNL     1      -8.089  10.408  68.434  1.00  0.00    -0.105 OA 
BRANCH  16  18
HETATM   18  C   UNL     1      -8.386   8.808  70.223  1.00  0.00    -0.139 C  
BRANCH  18  19
HETATM   19  C   UNL     1      -9.423   9.140  71.291  1.00  0.00    -0.313 C  
BRANCH  19  20
HETATM   20  C   UNL     1     -10.121   7.897  71.855  1.00  0.00    -0.250 C  
BRANCH  20  21
HETATM   21  C   UNL     1     -11.615   8.100  71.834  1.00  0.00    -0.361 A  
HETATM   22  C   UNL     1     -14.377   8.464  71.558  1.00  0.00    -0.499 A  
HETATM   23  C   UNL     1     -12.152   9.390  71.730  1.00  0.00    -0.454 A  
HETATM   24  C   UNL     1     -12.477   6.996  71.819  1.00  0.00    -0.393 A  
HETATM   25  C   UNL     1     -13.530   9.568  71.594  1.00  0.00    -0.463 A  
HETATM   26  C   UNL     1     -13.853   7.178  71.680  1.00  0.00    -0.418 A  
ENDBRANCH  20  21
ENDBRANCH  19  20
ENDBRANCH  18  19
ENDBRANCH  16  18
ENDBRANCH  15  16
ENDBRANCH  14  15
BRANCH  14  27
HETATM   27  C   UNL     1      -9.535   8.103  66.048  1.00  0.00    -0.087 C  
BRANCH  27  28
HETATM   28  O   UNL     1     -10.011   9.450  65.909  1.00  0.00    -0.303 OA 
BRANCH  28  29
HETATM   29  C   UNL     1      -9.278  10.229  65.065  1.00  0.00    -0.213 C  
HETATM   30  O   UNL     1      -8.057  10.273  65.036  1.00  0.00    -0.143 OA 
BRANCH  29  31
HETATM   31  C   UNL     1     -10.193  11.022  64.166  1.00  0.00    -0.419 C  
BRANCH  31  32
HETATM   32  C   UNL     1     -10.452  12.421  64.713  1.00  0.00    -0.333 C  
BRANCH  32  33
HETATM   33  C   UNL     1     -11.874  12.593  65.264  1.00  0.00    -0.452 C  
BRANCH  33  34
HETATM   34  C   UNL     1     -11.835  12.774  66.759  1.00  0.00    -0.452 A  
HETATM   35  C   UNL     1     -11.580  13.133  69.526  1.00  0.00    -0.347 A  
HETATM   36  C   UNL     1     -11.877  14.061  67.315  1.00  0.00    -0.445 A  
HETATM   37  C   UNL     1     -11.750  14.238  68.692  1.00  0.00    -0.380 A  
HETATM   38  C   UNL     1     -11.550  11.849  68.982  1.00  0.00    -0.376 A  
HETATM   39  C   UNL     1     -11.678  11.670  67.606  1.00  0.00    -0.300 A  
ENDBRANCH  33  34
ENDBRANCH  32  33
ENDBRANCH  31  32
ENDBRANCH  29  31
ENDBRANCH  28  29
ENDBRANCH  27  28
ENDBRANCH  14  27
ENDBRANCH  13  14
ENDBRANCH  12  13
ENDBRANCH   2  12
TORSDOF 20
ENDMDL
MODEL      288
REMARK 921   NORMALIZED FREE ENERGY PREDICTED BY IDOCK:   -3.64 KCAL/MOL
REMARK 922        TOTAL FREE ENERGY PREDICTED BY IDOCK:  -12.59 KCAL/MOL
REMARK 923 INTER-LIGAND FREE ENERGY PREDICTED BY IDOCK:  -10.38 KCAL/MOL
REMARK 924 INTRA-LIGAND FREE ENERGY PREDICTED BY IDOCK:   -2.21 KCAL/MOL
REMARK 927      BINDING AFFINITY PREDICTED BY RF-SCORE:    0.00 PKD
ROOT
HETATM    1  O   UNL     1     -14.037   8.524  72.740  1.00  0.00    -0.288 OA 
HETATM    2  C   UNL     1     -13.084   8.608  71.979  1.00  0.00    -0.381 C  
ENDROOT
BRANCH   2   3
HETATM    3  C   UNL     1     -12.483   7.438  71.238  1.00  0.00    -0.381 C  
BRANCH   3   4
HETATM    4  C   UNL     1     -11.806   6.442  72.181  1.00  0.00    -0.361 C  
BRANCH   4   5
HETATM    5  C   UNL     1     -10.484   5.912  71.614  1.00  0.00    -0.285 C  
BRANCH   5   6
HETATM    6  C   UNL     1      -9.300   6.341  72.444  1.00  0.00    -0.141 A  
HETATM    7  C   UNL     1      -9.378   7.487  73.249  1.00  0.00    -0.271 A  
HETATM    8  C   UNL     1      -7.098   7.155  73.978  1.00  0.00    -0.090 A  
HETATM    9  C   UNL     1      -8.282   7.889  74.013  1.00  0.00    -0.294 A  
HETATM   10  C   UNL     1      -8.104   5.612  72.413  1.00  0.00    -0.107 A  
HETATM   11  C   UNL     1      -7.010   6.017  73.178  1.00  0.00    -0.084 A  
ENDBRANCH   5   6
ENDBRANCH   4   5
ENDBRANCH   3   4
ENDBRANCH   2   3
BRANCH   2  12
HETATM   12  O   UNL     1     -12.415   9.756  71.679  1.00  0.00    -0.358 OA 
BRANCH  12  13
HETATM   13  C   UNL     1     -11.132   9.605  71.042  1.00  0.00    -0.368 C  
BRANCH  13  14
HETATM   14  C   UNL     1     -11.108  10.390  69.727  1.00  0.00    -0.295 C  
BRANCH  14  15
HETATM   15  O   UNL     1     -12.341  11.127  69.598  1.00  0.00    -0.296 OA 
BRANCH  15  16
HETATM   16  C   UNL     1     -12.276  12.281  68.883  1.00  0.00     0.042 C  
HETATM   17  O   UNL     1     -12.378  12.375  67.669  1.00  0.00    -0.305 OA 
BRANCH  16  18
HETATM   18  C   UNL     1     -12.027  13.445  69.809  1.00  0.00    -0.396 C  
BRANCH  18  19
HETATM   19  C   UNL     1     -11.809  14.744  69.041  1.00  0.00    -0.337 C  
BRANCH  19  20
HETATM   20  C   UNL     1     -10.464  15.408  69.356  1.00  0.00    -0.257 C  
BRANCH  20  21
HETATM   21  C   UNL     1     -10.095  16.360  68.246  1.00  0.00    -0.248 A  
HETATM   22  C   UNL     1      -9.334  18.276  66.352  1.00  0.00    -0.280 A  
HETATM   23  C   UNL     1     -11.013  17.319  67.801  1.00  0.00    -0.163 A  
HETATM   24  C   UNL     1      -8.798  16.357  67.715  1.00  0.00    -0.189 A  
HETATM   25  C   UNL     1     -10.632  18.273  66.856  1.00  0.00    -0.356 A  
HETATM   26  C   UNL     1      -8.419  17.312  66.773  1.00  0.00    -0.275 A  
ENDBRANCH  20  21
ENDBRANCH  19  20
ENDBRANCH  18  19
ENDBRANCH  16  18
ENDBRANCH  15  16
ENDBRANCH  14  15
BRANCH  14  27
HETATM   27  C   UNL     1     -11.000   9.447  68.522  1.00  0.00    -0.030 C  
BRANCH  27  28
HETATM   28  O   UNL     1      -9.889   8.549  68.656  1.00  0.00    -0.161 OA 
BRANCH  28  29
HETATM   29  C   UNL     1      -9.363   8.113  67.477  1.00  0.00    -0.140 C  
HETATM   30  O   UNL     1      -8.590   7.173  67.361  1.00  0.00    -0.121 OA 
BRANCH  29  31
HETATM   31  C   UNL     1      -9.882   8.951  66.336  1.00  0.00    -0.353 C  
BRANCH  31  32
HETATM   32  C   UNL     1      -8.823   9.917  65.816  1.00  0.00    -0.171 C  
BRANCH  32  33
HETATM   33  C   UNL     1      -9.044  11.358  66.294  1.00  0.00    -0.211 C  
BRANCH  33  34
HETATM   34  C   UNL     1     -10.113  12.023  65.466  1.00  0.00    -0.281 A  
HETATM   35  C   UNL     1     -11.977  13.278  63.793  1.00  0.00    -0.551 A  
HETATM   36  C   UNL     1     -10.882  11.268  64.570  1.00  0.00    -0.354 A  
HETATM   37  C   UNL     1     -11.810  11.894  63.738  1.00  0.00    -0.558 A  
HETATM   38  C   UNL     1     -11.225  14.034  64.691  1.00  0.00    -0.377 A  
HETATM   39  C   UNL     1     -10.298  13.410  65.525  1.00  0.00    -0.302 A  
ENDBRANCH  33  34
ENDBRANCH  32  33
ENDBRANCH  31  32
ENDBRANCH  29  31
ENDBRANCH  28  29
ENDBRANCH  27  28
ENDBRANCH  14  27
ENDBRANCH  13  14
ENDBRANCH  12  13
ENDBRANCH   2  12
TORSDOF 20
ENDMDL
MODEL      289
REMARK 921   NORMALIZED FREE ENERGY PREDICTED BY IDOCK:   -3.64 KCAL/MOL
REMARK 922        TOTAL FREE ENERGY PREDICTED BY IDOCK:  -12.58 KCAL/MOL
REMARK 923 INTER-LIGAND FREE ENERGY PREDICTED BY IDOCK:   -9.16 KCAL/MOL
REMARK 924 INTRA-LIGAND FREE ENERGY PREDICTED BY IDOCK:   -3.42 KCAL/MOL
REMARK 927      BINDING AFFINITY PREDICTED BY RF-SCORE:    0.00 PKD
ROOT
HETATM    1  O   UNL     1     -10.397   8.607  68.744  1.00  0.00    -0.208 OA 
HETATM    2  C   UNL     1     -10.149   9.797  68.612  1.00  0.00    -0.169 C  
ENDROOT
BRANCH   2   3
HETATM    3  C   UNL     1     -10.844  10.706  67.627  1.00  0.00    -0.346 C  
BRANCH   3   4
HETATM    4  C   UNL     1     -10.775  10.169  66.196  1.00  0.00    -0.008 C  
BRANCH   4   5
HETATM    5  C   UNL     1     -10.042  11.128  65.251  1.00  0.00    -0.329 C  
BRANCH   5   6
HETATM    6  C   UNL     1     -10.761  12.447  65.114  1.00  0.00    -0.327 A  
HETATM    7  C   UNL     1     -12.150  12.517  65.291  1.00  0.00    -0.500 A  
HETATM    8  C   UNL     1     -12.108  14.891  64.842  1.00  0.00    -0.275 A  
HETATM    9  C   UNL     1     -12.819  13.734  65.158  1.00  0.00    -0.386 A  
HETATM   10  C   UNL     1     -10.057  13.614  64.792  1.00  0.00    -0.268 A  
HETATM   11  C   UNL     1     -10.727  14.830  64.659  1.00  0.00    -0.279 A  
ENDBRANCH   5   6
ENDBRANCH   4   5
ENDBRANCH   3   4
ENDBRANCH   2   3
BRANCH   2  12
HETATM   12  O   UNL     1      -9.214  10.490  69.321  1.00  0.00    -0.191 OA 
BRANCH  12  13
HETATM   13  C   UNL     1      -7.852  10.034  69.206  1.00  0.00    -0.125 C  
BRANCH  13  14
HETATM   14  C   UNL     1      -7.517   9.756  67.738  1.00  0.00    -0.090 C  
BRANCH  14  15
HETATM   15  O   UNL     1      -6.654   8.602  67.666  1.00  0.00    -0.060 OA 
BRANCH  15  16
HETATM   16  C   UNL     1      -7.275   7.395  67.582  1.00  0.00    -0.094 C  
HETATM   17  O   UNL     1      -8.071   7.062  66.717  1.00  0.00    -0.106 OA 
BRANCH  16  18
HETATM   18  C   UNL     1      -6.862   6.523  68.741  1.00  0.00    -0.070 C  
BRANCH  18  19
HETATM   19  C   UNL     1      -8.065   6.047  69.548  1.00  0.00    -0.107 C  
BRANCH  19  20
HETATM   20  C   UNL     1      -8.304   6.876  70.815  1.00  0.00    -0.127 C  
BRANCH  20  21
HETATM   21  C   UNL     1      -9.319   6.186  71.690  1.00  0.00    -0.157 A  
HETATM   22  C   UNL     1     -11.218   4.736  73.148  1.00  0.00    -0.390 A  
HETATM   23  C   UNL     1     -10.685   6.452  71.535  1.00  0.00    -0.282 A  
HETATM   24  C   UNL     1      -8.913   5.200  72.599  1.00  0.00    -0.129 A  
HETATM   25  C   UNL     1     -11.630   5.729  72.264  1.00  0.00    -0.300 A  
HETATM   26  C   UNL     1      -9.860   4.477  73.324  1.00  0.00    -0.167 A  
ENDBRANCH  20  21
ENDBRANCH  19  20
ENDBRANCH  18  19
ENDBRANCH  16  18
ENDBRANCH  15  16
ENDBRANCH  14  15
BRANCH  14  27
HETATM   27  C   UNL     1      -6.769  10.937  67.109  1.00  0.00    -0.088 C  
BRANCH  27  28
HETATM   28  O   UNL     1      -6.542  11.984  68.064  1.00  0.00    -0.061 OA 
BRANCH  28  29
HETATM   29  C   UNL     1      -6.847  13.236  67.620  1.00  0.00    -0.163 C  
HETATM   30  O   UNL     1      -6.027  14.084  67.302  1.00  0.00    -0.310 OA 
BRANCH  29  31
HETATM   31  C   UNL     1      -8.343  13.419  67.572  1.00  0.00    -0.190 C  
BRANCH  31  32
HETATM   32  C   UNL     1      -8.817  14.479  68.560  1.00  0.00    -0.182 C  
BRANCH  32  33
HETATM   33  C   UNL     1     -10.242  14.969  68.272  1.00  0.00    -0.222 C  
BRANCH  33  34
HETATM   34  C   UNL     1     -11.082  14.890  69.521  1.00  0.00    -0.301 A  
HETATM   35  C   UNL     1     -12.493  14.688  71.932  1.00  0.00    -0.412 A  
HETATM   36  C   UNL     1     -11.152  15.983  70.394  1.00  0.00    -0.376 A  
HETATM   37  C   UNL     1     -11.855  15.882  71.595  1.00  0.00    -0.565 A  
HETATM   38  C   UNL     1     -12.438  13.600  71.063  1.00  0.00    -0.456 A  
HETATM   39  C   UNL     1     -11.737  13.699  69.862  1.00  0.00    -0.346 A  
ENDBRANCH  33  34
ENDBRANCH  32  33
ENDBRANCH  31  32
ENDBRANCH  29  31
ENDBRANCH  28  29
ENDBRANCH  27  28
ENDBRANCH  14  27
ENDBRANCH  13  14
ENDBRANCH  12  13
ENDBRANCH   2  12
TORSDOF 20
ENDMDL
MODEL      290
REMARK 921   NORMALIZED FREE ENERGY PREDICTED BY IDOCK:   -3.63 KCAL/MOL
REMARK 922        TOTAL FREE ENERGY PREDICTED BY IDOCK:  -12.56 KCAL/MOL
REMARK 923 INTER-LIGAND FREE ENERGY PREDICTED BY IDOCK:  -10.11 KCAL/MOL
REMARK 924 INTRA-LIGAND FREE ENERGY PREDICTED BY IDOCK:   -2.46 KCAL/MOL
REMARK 927      BINDING AFFINITY PREDICTED BY RF-SCORE:    0.00 PKD
ROOT
HETATM    1  O   UNL     1     -11.761  14.160  70.128  1.00  0.00    -0.281 OA 
HETATM    2  C   UNL     1     -11.243  13.728  69.108  1.00  0.00    -0.262 C  
ENDROOT
BRANCH   2   3
HETATM    3  C   UNL     1     -11.926  13.683  67.762  1.00  0.00    -0.387 C  
BRANCH   3   4
HETATM    4  C   UNL     1     -11.682  12.361  67.033  1.00  0.00    -0.423 C  
BRANCH   4   5
HETATM    5  C   UNL     1     -11.668  12.531  65.510  1.00  0.00    -0.457 C  
BRANCH   5   6
HETATM    6  C   UNL     1     -10.622  11.666  64.854  1.00  0.00    -0.349 A  
HETATM    7  C   UNL     1     -10.162  10.505  65.492  1.00  0.00    -0.325 A  
HETATM    8  C   UNL     1      -8.664  10.060  63.648  1.00  0.00    -0.227 A  
HETATM    9  C   UNL     1      -9.190   9.706  64.889  1.00  0.00    -0.306 A  
HETATM   10  C   UNL     1     -10.084  12.015  63.608  1.00  0.00    -0.439 A  
HETATM   11  C   UNL     1      -9.112  11.215  63.008  1.00  0.00    -0.285 A  
ENDBRANCH   5   6
ENDBRANCH   4   5
ENDBRANCH   3   4
ENDBRANCH   2   3
BRANCH   2  12
HETATM   12  O   UNL     1      -9.983  13.221  69.019  1.00  0.00    -0.001 OA 
BRANCH  12  13
HETATM   13  C   UNL     1      -8.913  14.175  68.876  1.00  0.00     0.019 C  
BRANCH  13  14
HETATM   14  C   UNL     1      -8.066  13.829  67.648  1.00  0.00    -0.177 C  
BRANCH  14  15
HETATM   15  O   UNL     1      -8.625  14.486  66.492  1.00  0.00    -0.136 OA 
BRANCH  15  16
HETATM   16  C   UNL     1      -8.342  15.810  66.362  1.00  0.00    -0.232 C  
HETATM   17  O   UNL     1      -9.111  16.667  65.953  1.00  0.00    -0.480 OA 
BRANCH  16  18
HETATM   18  C   UNL     1      -6.915  16.072  66.773  1.00  0.00    -0.030 C  
BRANCH  18  19
HETATM   19  C   UNL     1      -6.835  16.970  68.003  1.00  0.00    -0.166 C  
BRANCH  19  20
HETATM   20  C   UNL     1      -6.609  18.446  67.655  1.00  0.00    -0.197 C  
BRANCH  20  21
HETATM   21  C   UNL     1      -7.937  19.153  67.554  1.00  0.00    -0.284 A  
HETATM   22  C   UNL     1     -10.494  20.261  67.287  1.00  0.00    -0.328 A  
HETATM   23  C   UNL     1      -8.315  19.783  66.361  1.00  0.00    -0.378 A  
HETATM   24  C   UNL     1      -8.846  19.103  68.618  1.00  0.00    -0.404 A  
HETATM   25  C   UNL     1      -9.590  20.336  66.231  1.00  0.00    -0.428 A  
HETATM   26  C   UNL     1     -10.120  19.654  68.485  1.00  0.00    -0.557 A  
ENDBRANCH  20  21
ENDBRANCH  19  20
ENDBRANCH  18  19
ENDBRANCH  16  18
ENDBRANCH  15  16
ENDBRANCH  14  15
BRANCH  14  27
HETATM   27  C   UNL     1      -8.076  12.320  67.377  1.00  0.00    -0.175 C  
BRANCH  27  28
HETATM   28  O   UNL     1      -7.310  11.605  68.357  1.00  0.00    -0.083 OA 
BRANCH  28  29
HETATM   29  C   UNL     1      -6.834  10.398  67.939  1.00  0.00    -0.070 C  
HETATM   30  O   UNL     1      -6.009  10.243  67.050  1.00  0.00    -0.050 OA 
BRANCH  29  31
HETATM   31  C   UNL     1      -7.464   9.286  68.739  1.00  0.00    -0.076 C  
BRANCH  31  32
HETATM   32  C   UNL     1      -8.977   9.444  68.833  1.00  0.00    -0.136 C  
BRANCH  32  33
HETATM   33  C   UNL     1      -9.463   9.698  70.266  1.00  0.00    -0.300 C  
BRANCH  33  34
HETATM   34  C   UNL     1     -10.048   8.437  70.849  1.00  0.00    -0.234 A  
HETATM   35  C   UNL     1     -11.265   6.199  72.014  1.00  0.00    -0.335 A  
HETATM   36  C   UNL     1     -11.085   7.769  70.185  1.00  0.00    -0.216 A  
HETATM   37  C   UNL     1     -11.690   6.654  70.766  1.00  0.00    -0.445 A  
HETATM   38  C   UNL     1     -10.226   6.851  72.675  1.00  0.00    -0.210 A  
HETATM   39  C   UNL     1      -9.618   7.965  72.096  1.00  0.00    -0.255 A  
ENDBRANCH  33  34
ENDBRANCH  32  33
ENDBRANCH  31  32
ENDBRANCH  29  31
ENDBRANCH  28  29
ENDBRANCH  27  28
ENDBRANCH  14  27
ENDBRANCH  13  14
ENDBRANCH  12  13
ENDBRANCH   2  12
TORSDOF 20
ENDMDL
MODEL      291
REMARK 921   NORMALIZED FREE ENERGY PREDICTED BY IDOCK:   -3.62 KCAL/MOL
REMARK 922        TOTAL FREE ENERGY PREDICTED BY IDOCK:  -12.54 KCAL/MOL
REMARK 923 INTER-LIGAND FREE ENERGY PREDICTED BY IDOCK:  -10.11 KCAL/MOL
REMARK 924 INTRA-LIGAND FREE ENERGY PREDICTED BY IDOCK:   -2.44 KCAL/MOL
REMARK 927      BINDING AFFINITY PREDICTED BY RF-SCORE:    0.00 PKD
ROOT
HETATM    1  O   UNL     1      -7.593   7.764  69.115  1.00  0.00    -0.095 OA 
HETATM    2  C   UNL     1      -7.941   8.900  68.826  1.00  0.00    -0.102 C  
ENDROOT
BRANCH   2   3
HETATM    3  C   UNL     1      -7.446   9.659  67.618  1.00  0.00    -0.091 C  
BRANCH   3   4
HETATM    4  C   UNL     1      -7.423   8.791  66.359  1.00  0.00    -0.087 C  
BRANCH   4   5
HETATM    5  C   UNL     1      -8.828   8.550  65.794  1.00  0.00    -0.229 C  
BRANCH   5   6
HETATM    6  C   UNL     1      -9.257   9.650  64.857  1.00  0.00    -0.306 A  
HETATM    7  C   UNL     1      -8.630   9.805  63.613  1.00  0.00    -0.207 A  
HETATM    8  C   UNL     1     -10.037  11.705  63.115  1.00  0.00    -0.409 A  
HETATM    9  C   UNL     1      -9.021  10.826  62.746  1.00  0.00    -0.305 A  
HETATM   10  C   UNL     1     -10.275  10.542  65.220  1.00  0.00    -0.352 A  
HETATM   11  C   UNL     1     -10.664  11.562  64.352  1.00  0.00    -0.404 A  
ENDBRANCH   5   6
ENDBRANCH   4   5
ENDBRANCH   3   4
ENDBRANCH   2   3
BRANCH   2  12
HETATM   12  O   UNL     1      -8.820   9.659  69.538  1.00  0.00    -0.160 OA 
BRANCH  12  13
HETATM   13  C   UNL     1      -9.950  10.184  68.815  1.00  0.00    -0.179 C  
BRANCH  13  14
HETATM   14  C   UNL     1     -11.012  10.684  69.798  1.00  0.00    -0.280 C  
BRANCH  14  15
HETATM   15  O   UNL     1     -11.821   9.566  70.222  1.00  0.00    -0.189 OA 
BRANCH  15  16
HETATM   16  C   UNL     1     -11.908   9.367  71.564  1.00  0.00    -0.385 C  
HETATM   17  O   UNL     1     -12.842   9.707  72.275  1.00  0.00    -0.377 OA 
BRANCH  16  18
HETATM   18  C   UNL     1     -10.661   8.683  72.064  1.00  0.00    -0.421 C  
BRANCH  18  19
HETATM   19  C   UNL     1     -10.987   7.483  72.945  1.00  0.00    -0.434 C  
BRANCH  19  20
HETATM   20  C   UNL     1     -11.700   6.358  72.186  1.00  0.00    -0.366 C  
BRANCH  20  21
HETATM   21  C   UNL     1     -10.970   5.057  72.402  1.00  0.00    -0.198 A  
HETATM   22  C   UNL     1      -9.807   2.530  72.718  1.00  0.00    -0.191 A  
HETATM   23  C   UNL     1     -11.104   4.362  73.611  1.00  0.00    -0.361 A  
HETATM   24  C   UNL     1     -10.230   4.482  71.361  1.00  0.00    -0.183 A  
HETATM   25  C   UNL     1     -10.522   3.103  73.766  1.00  0.00    -0.248 A  
HETATM   26  C   UNL     1      -9.652   3.222  71.519  1.00  0.00    -0.234 A  
ENDBRANCH  20  21
ENDBRANCH  19  20
ENDBRANCH  18  19
ENDBRANCH  16  18
ENDBRANCH  15  16
ENDBRANCH  14  15
BRANCH  14  27
HETATM   27  C   UNL     1     -11.941  11.707  69.135  1.00  0.00    -0.313 C  
BRANCH  27  28
HETATM   28  O   UNL     1     -11.785  13.011  69.714  1.00  0.00    -0.300 OA 
BRANCH  28  29
HETATM   29  C   UNL     1     -11.455  13.992  68.827  1.00  0.00    -0.292 C  
HETATM   30  O   UNL     1     -12.251  14.760  68.307  1.00  0.00    -0.192 OA 
BRANCH  29  31
HETATM   31  C   UNL     1      -9.966  13.998  68.590  1.00  0.00    -0.203 C  
BRANCH  31  32
HETATM   32  C   UNL     1      -9.629  13.901  67.106  1.00  0.00    -0.247 C  
BRANCH  32  33
HETATM   33  C   UNL     1      -9.708  15.254  66.387  1.00  0.00    -0.308 C  
BRANCH  33  34
HETATM   34  C   UNL     1      -8.443  16.041  66.615  1.00  0.00    -0.323 A  
HETATM   35  C   UNL     1      -6.044  17.465  66.865  1.00  0.00    -0.212 A  
HETATM   36  C   UNL     1      -8.387  17.400  66.280  1.00  0.00    -0.271 A  
HETATM   37  C   UNL     1      -7.192  18.109  66.405  1.00  0.00    -0.282 A  
HETATM   38  C   UNL     1      -6.094  16.116  67.212  1.00  0.00    -0.167 A  
HETATM   39  C   UNL     1      -7.288  15.406  67.089  1.00  0.00    -0.203 A  
ENDBRANCH  33  34
ENDBRANCH  32  33
ENDBRANCH  31  32
ENDBRANCH  29  31
ENDBRANCH  28  29
ENDBRANCH  27  28
ENDBRANCH  14  27
ENDBRANCH  13  14
ENDBRANCH  12  13
ENDBRANCH   2  12
TORSDOF 20
ENDMDL
MODEL      292
REMARK 921   NORMALIZED FREE ENERGY PREDICTED BY IDOCK:   -3.62 KCAL/MOL
REMARK 922        TOTAL FREE ENERGY PREDICTED BY IDOCK:  -12.54 KCAL/MOL
REMARK 923 INTER-LIGAND FREE ENERGY PREDICTED BY IDOCK:   -9.65 KCAL/MOL
REMARK 924 INTRA-LIGAND FREE ENERGY PREDICTED BY IDOCK:   -2.89 KCAL/MOL
REMARK 927      BINDING AFFINITY PREDICTED BY RF-SCORE:    0.00 PKD
ROOT
HETATM    1  O   UNL     1     -11.235   6.221  66.669  1.00  0.00    -0.243 OA 
HETATM    2  C   UNL     1     -10.441   7.114  66.929  1.00  0.00    -0.294 C  
ENDROOT
BRANCH   2   3
HETATM    3  C   UNL     1      -9.171   7.372  66.155  1.00  0.00    -0.148 C  
BRANCH   3   4
HETATM    4  C   UNL     1      -8.807   8.858  66.120  1.00  0.00    -0.193 C  
BRANCH   4   5
HETATM    5  C   UNL     1      -8.883   9.442  64.705  1.00  0.00    -0.238 C  
BRANCH   5   6
HETATM    6  C   UNL     1      -9.891  10.559  64.607  1.00  0.00    -0.404 A  
HETATM    7  C   UNL     1     -10.121  11.198  63.380  1.00  0.00    -0.439 A  
HETATM    8  C   UNL     1     -11.751  12.649  64.419  1.00  0.00    -0.431 A  
HETATM    9  C   UNL     1     -11.049  12.236  63.288  1.00  0.00    -0.389 A  
HETATM   10  C   UNL     1     -10.599  10.984  65.738  1.00  0.00    -0.260 A  
HETATM   11  C   UNL     1     -11.526  12.023  65.643  1.00  0.00    -0.372 A  
ENDBRANCH   5   6
ENDBRANCH   4   5
ENDBRANCH   3   4
ENDBRANCH   2   3
BRANCH   2  12
HETATM   12  O   UNL     1     -10.568   8.008  67.948  1.00  0.00    -0.209 OA 
BRANCH  12  13
HETATM   13  C   UNL     1     -10.562   7.468  69.283  1.00  0.00    -0.210 C  
BRANCH  13  14
HETATM   14  C   UNL     1      -9.558   8.233  70.151  1.00  0.00    -0.167 C  
BRANCH  14  15
HETATM   15  O   UNL     1      -9.139   7.385  71.241  1.00  0.00    -0.142 OA 
BRANCH  15  16
HETATM   16  C   UNL     1      -7.845   7.516  71.637  1.00  0.00    -0.086 C  
HETATM   17  O   UNL     1      -7.359   8.504  72.166  1.00  0.00    -0.131 OA 
BRANCH  16  18
HETATM   18  C   UNL     1      -7.076   6.264  71.300  1.00  0.00    -0.077 C  
BRANCH  18  19
HETATM   19  C   UNL     1      -8.003   5.084  71.034  1.00  0.00    -0.093 C  
BRANCH  19  20
HETATM   20  C   UNL     1      -7.701   3.872  71.923  1.00  0.00    -0.066 C  
BRANCH  20  21
HETATM   21  C   UNL     1      -8.963   3.423  72.616  1.00  0.00    -0.111 A  
HETATM   22  C   UNL     1     -11.384   2.518  73.690  1.00  0.00    -0.300 A  
HETATM   23  C   UNL     1     -10.056   4.292  72.729  1.00  0.00    -0.214 A  
HETATM   24  C   UNL     1      -9.089   2.103  73.067  1.00  0.00    -0.085 A  
HETATM   25  C   UNL     1     -11.262   3.838  73.266  1.00  0.00    -0.230 A  
HETATM   26  C   UNL     1     -10.296   1.652  73.601  1.00  0.00    -0.161 A  
ENDBRANCH  20  21
ENDBRANCH  19  20
ENDBRANCH  18  19
ENDBRANCH  16  18
ENDBRANCH  15  16
ENDBRANCH  14  15
BRANCH  14  27
HETATM   27  C   UNL     1     -10.196   9.489  70.757  1.00  0.00    -0.293 C  
BRANCH  27  28
HETATM   28  O   UNL     1     -11.624   9.371  70.826  1.00  0.00    -0.275 OA 
BRANCH  28  29
HETATM   29  C   UNL     1     -12.303  10.535  70.618  1.00  0.00    -0.356 C  
HETATM   30  O   UNL     1     -13.101  11.028  71.401  1.00  0.00    -0.395 OA 
BRANCH  29  31
HETATM   31  C   UNL     1     -11.919  11.127  69.286  1.00  0.00    -0.421 C  
BRANCH  31  32
HETATM   32  C   UNL     1     -11.433  12.566  69.425  1.00  0.00    -0.327 C  
BRANCH  32  33
HETATM   33  C   UNL     1     -12.224  13.550  68.554  1.00  0.00    -0.160 C  
BRANCH  33  34
HETATM   34  C   UNL     1     -11.518  14.881  68.498  1.00  0.00    -0.336 A  
HETATM   35  C   UNL     1     -10.046  17.261  68.384  1.00  0.00    -0.333 A  
HETATM   36  C   UNL     1     -11.193  15.455  67.262  1.00  0.00    -0.270 A  
HETATM   37  C   UNL     1     -10.460  16.640  67.206  1.00  0.00    -0.313 A  
HETATM   38  C   UNL     1     -10.375  16.702  69.618  1.00  0.00    -0.193 A  
HETATM   39  C   UNL     1     -11.109  15.518  69.676  1.00  0.00    -0.280 A  
ENDBRANCH  33  34
ENDBRANCH  32  33
ENDBRANCH  31  32
ENDBRANCH  29  31
ENDBRANCH  28  29
ENDBRANCH  27  28
ENDBRANCH  14  27
ENDBRANCH  13  14
ENDBRANCH  12  13
ENDBRANCH   2  12
TORSDOF 20
ENDMDL
MODEL      293
REMARK 921   NORMALIZED FREE ENERGY PREDICTED BY IDOCK:   -3.61 KCAL/MOL
REMARK 922        TOTAL FREE ENERGY PREDICTED BY IDOCK:  -12.52 KCAL/MOL
REMARK 923 INTER-LIGAND FREE ENERGY PREDICTED BY IDOCK:   -9.84 KCAL/MOL
REMARK 924 INTRA-LIGAND FREE ENERGY PREDICTED BY IDOCK:   -2.68 KCAL/MOL
REMARK 927      BINDING AFFINITY PREDICTED BY RF-SCORE:    0.00 PKD
ROOT
HETATM    1  O   UNL     1      -7.138   9.233  68.381  1.00  0.00    -0.071 OA 
HETATM    2  C   UNL     1      -8.088   9.998  68.301  1.00  0.00    -0.104 C  
ENDROOT
BRANCH   2   3
HETATM    3  C   UNL     1      -8.207  11.101  67.277  1.00  0.00    -0.136 C  
BRANCH   3   4
HETATM    4  C   UNL     1      -8.211  10.563  65.845  1.00  0.00    -0.152 C  
BRANCH   4   5
HETATM    5  C   UNL     1      -9.575   9.991  65.443  1.00  0.00    -0.342 C  
BRANCH   5   6
HETATM    6  C   UNL     1     -10.553  11.074  65.064  1.00  0.00    -0.315 A  
HETATM    7  C   UNL     1     -11.270  11.758  66.056  1.00  0.00    -0.352 A  
HETATM    8  C   UNL     1     -12.388  13.077  64.367  1.00  0.00    -0.442 A  
HETATM    9  C   UNL     1     -12.181  12.756  65.708  1.00  0.00    -0.469 A  
HETATM   10  C   UNL     1     -10.772  11.401  63.720  1.00  0.00    -0.470 A  
HETATM   11  C   UNL     1     -11.683  12.399  63.374  1.00  0.00    -0.554 A  
ENDBRANCH   5   6
ENDBRANCH   4   5
ENDBRANCH   3   4
ENDBRANCH   2   3
BRANCH   2  12
HETATM   12  O   UNL     1      -9.181   9.983  69.114  1.00  0.00    -0.167 OA 
BRANCH  12  13
HETATM   13  C   UNL     1     -10.102   8.890  68.934  1.00  0.00    -0.197 C  
BRANCH  13  14
HETATM   14  C   UNL     1     -10.616   8.412  70.296  1.00  0.00    -0.227 C  
BRANCH  14  15
HETATM   15  O   UNL     1     -11.101   7.060  70.164  1.00  0.00    -0.264 OA 
BRANCH  15  16
HETATM   16  C   UNL     1     -11.176   6.337  71.313  1.00  0.00    -0.297 C  
HETATM   17  O   UNL     1     -11.778   6.667  72.324  1.00  0.00    -0.284 OA 
BRANCH  16  18
HETATM   18  C   UNL     1     -10.375   5.067  71.174  1.00  0.00    -0.254 C  
BRANCH  18  19
HETATM   19  C   UNL     1      -8.973   5.338  70.640  1.00  0.00    -0.159 C  
BRANCH  19  20
HETATM   20  C   UNL     1      -7.870   4.988  71.647  1.00  0.00    -0.108 C  
BRANCH  20  21
HETATM   21  C   UNL     1      -7.662   6.144  72.592  1.00  0.00    -0.102 A  
HETATM   22  C   UNL     1      -7.441   8.406  74.227  1.00  0.00    -0.232 A  
HETATM   23  C   UNL     1      -6.733   7.148  72.290  1.00  0.00    -0.056 A  
HETATM   24  C   UNL     1      -8.464   6.275  73.734  1.00  0.00    -0.124 A  
HETATM   25  C   UNL     1      -6.624   8.274  73.107  1.00  0.00    -0.118 A  
HETATM   26  C   UNL     1      -8.355   7.403  74.547  1.00  0.00    -0.240 A  
ENDBRANCH  20  21
ENDBRANCH  19  20
ENDBRANCH  18  19
ENDBRANCH  16  18
ENDBRANCH  15  16
ENDBRANCH  14  15
BRANCH  14  27
HETATM   27  C   UNL     1     -11.781   9.281  70.782  1.00  0.00    -0.269 C  
BRANCH  27  28
HETATM   28  O   UNL     1     -11.428  10.672  70.800  1.00  0.00    -0.327 OA 
BRANCH  28  29
HETATM   29  C   UNL     1     -12.156  11.455  69.954  1.00  0.00    -0.330 C  
HETATM   30  O   UNL     1     -12.810  11.042  69.008  1.00  0.00    -0.086 OA 
BRANCH  29  31
HETATM   31  C   UNL     1     -12.043  12.902  70.361  1.00  0.00    -0.385 C  
BRANCH  31  32
HETATM   32  C   UNL     1     -11.707  13.800  69.175  1.00  0.00    -0.379 C  
BRANCH  32  33
HETATM   33  C   UNL     1     -10.226  13.735  68.778  1.00  0.00    -0.168 C  
BRANCH  33  34
HETATM   34  C   UNL     1      -9.822  15.001  68.067  1.00  0.00    -0.218 A  
HETATM   35  C   UNL     1      -9.250  17.383  66.709  1.00  0.00    -0.274 A  
HETATM   36  C   UNL     1      -9.814  16.223  68.753  1.00  0.00    -0.238 A  
HETATM   37  C   UNL     1      -9.528  17.409  68.076  1.00  0.00    -0.281 A  
HETATM   38  C   UNL     1      -9.245  16.171  66.023  1.00  0.00    -0.363 A  
HETATM   39  C   UNL     1      -9.529  14.984  66.697  1.00  0.00    -0.288 A  
ENDBRANCH  33  34
ENDBRANCH  32  33
ENDBRANCH  31  32
ENDBRANCH  29  31
ENDBRANCH  28  29
ENDBRANCH  27  28
ENDBRANCH  14  27
ENDBRANCH  13  14
ENDBRANCH  12  13
ENDBRANCH   2  12
TORSDOF 20
ENDMDL
MODEL      294
REMARK 921   NORMALIZED FREE ENERGY PREDICTED BY IDOCK:   -3.61 KCAL/MOL
REMARK 922        TOTAL FREE ENERGY PREDICTED BY IDOCK:  -12.50 KCAL/MOL
REMARK 923 INTER-LIGAND FREE ENERGY PREDICTED BY IDOCK:  -10.31 KCAL/MOL
REMARK 924 INTRA-LIGAND FREE ENERGY PREDICTED BY IDOCK:   -2.20 KCAL/MOL
REMARK 927      BINDING AFFINITY PREDICTED BY RF-SCORE:    0.00 PKD
ROOT
HETATM    1  O   UNL     1      -8.693   9.928  67.609  1.00  0.00    -0.122 OA 
HETATM    2  C   UNL     1      -9.888   9.672  67.647  1.00  0.00    -0.164 C  
ENDROOT
BRANCH   2   3
HETATM    3  C   UNL     1     -10.495   8.377  67.162  1.00  0.00    -0.380 C  
BRANCH   3   4
HETATM    4  C   UNL     1      -9.634   7.165  67.521  1.00  0.00    -0.159 C  
BRANCH   4   5
HETATM    5  C   UNL     1     -10.435   5.858  67.507  1.00  0.00    -0.306 C  
BRANCH   5   6
HETATM    6  C   UNL     1     -10.100   4.976  68.683  1.00  0.00    -0.191 A  
HETATM    7  C   UNL     1      -9.491   3.728  68.480  1.00  0.00    -0.211 A  
HETATM    8  C   UNL     1      -9.490   3.319  70.862  1.00  0.00    -0.234 A  
HETATM    9  C   UNL     1      -9.186   2.907  69.566  1.00  0.00    -0.211 A  
HETATM   10  C   UNL     1     -10.404   5.379  69.989  1.00  0.00    -0.366 A  
HETATM   11  C   UNL     1     -10.099   4.556  71.073  1.00  0.00    -0.222 A  
ENDBRANCH   5   6
ENDBRANCH   4   5
ENDBRANCH   3   4
ENDBRANCH   2   3
BRANCH   2  12
HETATM   12  O   UNL     1     -10.856  10.502  68.124  1.00  0.00    -0.214 OA 
BRANCH  12  13
HETATM   13  C   UNL     1     -11.396  10.182  69.421  1.00  0.00    -0.178 C  
BRANCH  13  14
HETATM   14  C   UNL     1     -11.762  11.470  70.166  1.00  0.00    -0.309 C  
BRANCH  14  15
HETATM   15  O   UNL     1     -12.939  11.230  70.965  1.00  0.00    -0.318 OA 
BRANCH  15  16
HETATM   16  C   UNL     1     -13.201   9.930  71.267  1.00  0.00    -0.383 C  
HETATM   17  O   UNL     1     -14.093   9.252  70.780  1.00  0.00     0.020 OA 
BRANCH  16  18
HETATM   18  C   UNL     1     -12.242   9.444  72.323  1.00  0.00    -0.246 C  
BRANCH  18  19
HETATM   19  C   UNL     1     -11.872   7.979  72.122  1.00  0.00    -0.401 C  
BRANCH  19  20
HETATM   20  C   UNL     1     -10.872   7.464  73.164  1.00  0.00    -0.435 C  
BRANCH  20  21
HETATM   21  C   UNL     1      -9.478   7.893  72.785  1.00  0.00    -0.304 A  
HETATM   22  C   UNL     1      -6.840   8.462  72.039  1.00  0.00    -0.095 A  
HETATM   23  C   UNL     1      -8.460   7.925  73.748  1.00  0.00    -0.309 A  
HETATM   24  C   UNL     1      -9.163   8.171  71.448  1.00  0.00    -0.195 A  
HETATM   25  C   UNL     1      -7.146   8.209  73.373  1.00  0.00    -0.163 A  
HETATM   26  C   UNL     1      -7.849   8.453  71.077  1.00  0.00    -0.106 A  
ENDBRANCH  20  21
ENDBRANCH  19  20
ENDBRANCH  18  19
ENDBRANCH  16  18
ENDBRANCH  15  16
ENDBRANCH  14  15
BRANCH  14  27
HETATM   27  C   UNL     1     -12.087  12.603  69.185  1.00  0.00    -0.142 C  
BRANCH  27  28
HETATM   28  O   UNL     1     -10.938  13.424  68.933  1.00  0.00    -0.251 OA 
BRANCH  28  29
HETATM   29  C   UNL     1     -11.021  14.191  67.810  1.00  0.00    -0.262 C  
HETATM   30  O   UNL     1     -11.904  15.007  67.584  1.00  0.00    -0.328 OA 
BRANCH  29  31
HETATM   31  C   UNL     1      -9.863  13.895  66.892  1.00  0.00    -0.268 C  
BRANCH  31  32
HETATM   32  C   UNL     1      -9.131  15.166  66.474  1.00  0.00    -0.328 C  
BRANCH  32  33
HETATM   33  C   UNL     1      -8.885  16.125  67.647  1.00  0.00    -0.191 C  
BRANCH  33  34
HETATM   34  C   UNL     1      -9.138  17.547  67.218  1.00  0.00    -0.240 A  
HETATM   35  C   UNL     1      -9.677  20.224  66.591  1.00  0.00    -0.550 A  
HETATM   36  C   UNL     1      -8.184  18.541  67.475  1.00  0.00    -0.262 A  
HETATM   37  C   UNL     1      -8.453  19.874  67.161  1.00  0.00    -0.376 A  
HETATM   38  C   UNL     1     -10.626  19.239  66.322  1.00  0.00    -0.545 A  
HETATM   39  C   UNL     1     -10.359  17.907  66.633  1.00  0.00    -0.362 A  
ENDBRANCH  33  34
ENDBRANCH  32  33
ENDBRANCH  31  32
ENDBRANCH  29  31
ENDBRANCH  28  29
ENDBRANCH  27  28
ENDBRANCH  14  27
ENDBRANCH  13  14
ENDBRANCH  12  13
ENDBRANCH   2  12
TORSDOF 20
ENDMDL
MODEL      295
REMARK 921   NORMALIZED FREE ENERGY PREDICTED BY IDOCK:   -3.60 KCAL/MOL
REMARK 922        TOTAL FREE ENERGY PREDICTED BY IDOCK:  -12.49 KCAL/MOL
REMARK 923 INTER-LIGAND FREE ENERGY PREDICTED BY IDOCK:   -9.67 KCAL/MOL
REMARK 924 INTRA-LIGAND FREE ENERGY PREDICTED BY IDOCK:   -2.82 KCAL/MOL
REMARK 927      BINDING AFFINITY PREDICTED BY RF-SCORE:    0.00 PKD
ROOT
HETATM    1  O   UNL     1     -11.106  10.825  67.671  1.00  0.00    -0.284 OA 
HETATM    2  C   UNL     1     -10.622  11.587  66.846  1.00  0.00    -0.247 C  
ENDROOT
BRANCH   2   3
HETATM    3  C   UNL     1     -10.835  11.471  65.356  1.00  0.00    -0.318 C  
BRANCH   3   4
HETATM    4  C   UNL     1     -10.159  10.229  64.770  1.00  0.00    -0.336 C  
BRANCH   4   5
HETATM    5  C   UNL     1      -8.630  10.330  64.802  1.00  0.00    -0.193 C  
BRANCH   5   6
HETATM    6  C   UNL     1      -7.974   8.973  64.829  1.00  0.00    -0.129 A  
HETATM    7  C   UNL     1      -6.672   8.807  64.335  1.00  0.00    -0.071 A  
HETATM    8  C   UNL     1      -6.752   6.449  64.858  1.00  0.00    -0.039 A  
HETATM    9  C   UNL     1      -6.064   7.551  64.353  1.00  0.00    -0.038 A  
HETATM   10  C   UNL     1      -8.657   7.858  65.330  1.00  0.00    -0.118 A  
HETATM   11  C   UNL     1      -8.048   6.603  65.346  1.00  0.00    -0.129 A  
ENDBRANCH   5   6
ENDBRANCH   4   5
ENDBRANCH   3   4
ENDBRANCH   2   3
BRANCH   2  12
HETATM   12  O   UNL     1      -9.820  12.650  67.131  1.00  0.00    -0.206 OA 
BRANCH  12  13
HETATM   13  C   UNL     1      -8.992  12.535  68.305  1.00  0.00    -0.178 C  
BRANCH  13  14
HETATM   14  C   UNL     1      -7.516  12.491  67.899  1.00  0.00    -0.120 C  
BRANCH  14  15
HETATM   15  O   UNL     1      -6.836  11.511  68.712  1.00  0.00    -0.070 OA 
BRANCH  15  16
HETATM   16  C   UNL     1      -6.763  10.255  68.197  1.00  0.00    -0.058 C  
HETATM   17  O   UNL     1      -5.816   9.791  67.580  1.00  0.00    -0.043 OA 
BRANCH  16  18
HETATM   18  C   UNL     1      -8.046   9.511  68.473  1.00  0.00    -0.101 C  
BRANCH  18  19
HETATM   19  C   UNL     1      -7.883   8.498  69.600  1.00  0.00    -0.095 C  
BRANCH  19  20
HETATM   20  C   UNL     1      -8.524   8.956  70.915  1.00  0.00    -0.226 C  
BRANCH  20  21
HETATM   21  C   UNL     1      -9.921   8.397  71.020  1.00  0.00    -0.235 A  
HETATM   22  C   UNL     1     -12.448   7.263  71.422  1.00  0.00    -0.418 A  
HETATM   23  C   UNL     1     -10.215   7.126  70.512  1.00  0.00    -0.206 A  
HETATM   24  C   UNL     1     -10.913   9.103  71.713  1.00  0.00    -0.429 A  
HETATM   25  C   UNL     1     -11.476   6.563  70.713  1.00  0.00    -0.419 A  
HETATM   26  C   UNL     1     -12.171   8.537  71.915  1.00  0.00    -0.411 A  
ENDBRANCH  20  21
ENDBRANCH  19  20
ENDBRANCH  18  19
ENDBRANCH  16  18
ENDBRANCH  15  16
ENDBRANCH  14  15
BRANCH  14  27
HETATM   27  C   UNL     1      -6.837  13.845  68.136  1.00  0.00    -0.122 C  
BRANCH  27  28
HETATM   28  O   UNL     1      -7.364  14.500  69.299  1.00  0.00    -0.144 OA 
BRANCH  28  29
HETATM   29  C   UNL     1      -7.409  15.860  69.215  1.00  0.00    -0.221 C  
HETATM   30  O   UNL     1      -6.453  16.603  69.384  1.00  0.00    -0.200 OA 
BRANCH  29  31
HETATM   31  C   UNL     1      -8.807  16.312  68.875  1.00  0.00    -0.253 C  
BRANCH  31  32
HETATM   32  C   UNL     1      -9.860  15.535  69.657  1.00  0.00    -0.281 C  
BRANCH  32  33
HETATM   33  C   UNL     1     -11.082  16.387  70.022  1.00  0.00    -0.300 C  
BRANCH  33  34
HETATM   34  C   UNL     1     -11.945  15.660  71.022  1.00  0.00    -0.445 A  
HETATM   35  C   UNL     1     -13.406  14.194  72.908  1.00  0.00    -0.532 A  
HETATM   36  C   UNL     1     -11.877  15.990  72.382  1.00  0.00    -0.639 A  
HETATM   37  C   UNL     1     -12.606  15.259  73.321  1.00  0.00    -0.617 A  
HETATM   38  C   UNL     1     -13.488  13.868  71.556  1.00  0.00    -0.383 A  
HETATM   39  C   UNL     1     -12.761  14.598  70.615  1.00  0.00    -0.417 A  
ENDBRANCH  33  34
ENDBRANCH  32  33
ENDBRANCH  31  32
ENDBRANCH  29  31
ENDBRANCH  28  29
ENDBRANCH  27  28
ENDBRANCH  14  27
ENDBRANCH  13  14
ENDBRANCH  12  13
ENDBRANCH   2  12
TORSDOF 20
ENDMDL
MODEL      296
REMARK 921   NORMALIZED FREE ENERGY PREDICTED BY IDOCK:   -3.60 KCAL/MOL
REMARK 922        TOTAL FREE ENERGY PREDICTED BY IDOCK:  -12.48 KCAL/MOL
REMARK 923 INTER-LIGAND FREE ENERGY PREDICTED BY IDOCK:   -9.65 KCAL/MOL
REMARK 924 INTRA-LIGAND FREE ENERGY PREDICTED BY IDOCK:   -2.83 KCAL/MOL
REMARK 927      BINDING AFFINITY PREDICTED BY RF-SCORE:    0.00 PKD
ROOT
HETATM    1  O   UNL     1     -11.251   6.415  66.766  1.00  0.00    -0.327 OA 
HETATM    2  C   UNL     1     -10.463   7.326  66.978  1.00  0.00    -0.328 C  
ENDROOT
BRANCH   2   3
HETATM    3  C   UNL     1      -9.216   7.576  66.164  1.00  0.00    -0.156 C  
BRANCH   3   4
HETATM    4  C   UNL     1      -8.856   9.061  66.097  1.00  0.00    -0.195 C  
BRANCH   4   5
HETATM    5  C   UNL     1      -9.105   9.657  64.707  1.00  0.00    -0.283 C  
BRANCH   5   6
HETATM    6  C   UNL     1     -10.140  10.753  64.738  1.00  0.00    -0.396 A  
HETATM    7  C   UNL     1     -10.670  11.192  65.961  1.00  0.00    -0.272 A  
HETATM    8  C   UNL     1     -12.079  12.778  64.805  1.00  0.00    -0.488 A  
HETATM    9  C   UNL     1     -11.632  12.201  65.992  1.00  0.00    -0.420 A  
HETATM   10  C   UNL     1     -10.599  11.337  63.551  1.00  0.00    -0.436 A  
HETATM   11  C   UNL     1     -11.562  12.346  63.585  1.00  0.00    -0.580 A  
ENDBRANCH   5   6
ENDBRANCH   4   5
ENDBRANCH   3   4
ENDBRANCH   2   3
BRANCH   2  12
HETATM   12  O   UNL     1     -10.576   8.251  67.971  1.00  0.00    -0.201 OA 
BRANCH  12  13
HETATM   13  C   UNL     1     -10.817   7.744  69.297  1.00  0.00    -0.080 C  
BRANCH  13  14
HETATM   14  C   UNL     1      -9.758   8.285  70.263  1.00  0.00    -0.175 C  
BRANCH  14  15
HETATM   15  O   UNL     1      -9.396   7.243  71.192  1.00  0.00    -0.156 OA 
BRANCH  15  16
HETATM   16  C   UNL     1      -8.152   7.331  71.734  1.00  0.00    -0.100 C  
HETATM   17  O   UNL     1      -7.888   7.277  72.925  1.00  0.00    -0.091 OA 
BRANCH  16  18
HETATM   18  C   UNL     1      -7.131   7.537  70.643  1.00  0.00    -0.059 C  
BRANCH  18  19
HETATM   19  C   UNL     1      -7.570   6.901  69.329  1.00  0.00    -0.096 C  
BRANCH  19  20
HETATM   20  C   UNL     1      -6.638   5.774  68.867  1.00  0.00    -0.054 C  
BRANCH  20  21
HETATM   21  C   UNL     1      -7.383   4.846  67.942  1.00  0.00    -0.071 A  
HETATM   22  C   UNL     1      -8.874   3.314  66.135  1.00  0.00    -0.139 A  
HETATM   23  C   UNL     1      -8.626   4.321  68.316  1.00  0.00    -0.108 A  
HETATM   24  C   UNL     1      -6.885   4.577  66.660  1.00  0.00    -0.052 A  
HETATM   25  C   UNL     1      -9.367   3.556  67.413  1.00  0.00    -0.246 A  
HETATM   26  C   UNL     1      -7.628   3.815  65.760  1.00  0.00    -0.081 A  
ENDBRANCH  20  21
ENDBRANCH  19  20
ENDBRANCH  18  19
ENDBRANCH  16  18
ENDBRANCH  15  16
ENDBRANCH  14  15
BRANCH  14  27
HETATM   27  C   UNL     1     -10.302   9.466  71.075  1.00  0.00    -0.312 C  
BRANCH  27  28
HETATM   28  O   UNL     1     -11.736   9.443  71.139  1.00  0.00    -0.295 OA 
BRANCH  28  29
HETATM   29  C   UNL     1     -12.331  10.663  71.026  1.00  0.00    -0.403 C  
HETATM   30  O   UNL     1     -13.024  11.186  71.887  1.00  0.00    -0.458 OA 
BRANCH  29  31
HETATM   31  C   UNL     1     -12.004  11.278  69.688  1.00  0.00    -0.423 C  
BRANCH  31  32
HETATM   32  C   UNL     1     -11.456  12.693  69.834  1.00  0.00    -0.153 C  
BRANCH  32  33
HETATM   33  C   UNL     1     -12.406  13.761  69.276  1.00  0.00    -0.185 C  
BRANCH  33  34
HETATM   34  C   UNL     1     -11.630  14.987  68.868  1.00  0.00    -0.349 A  
HETATM   35  C   UNL     1     -10.347  17.356  68.102  1.00  0.00    -0.366 A  
HETATM   36  C   UNL     1     -11.213  15.911  69.835  1.00  0.00    -0.348 A  
HETATM   37  C   UNL     1     -10.574  17.091  69.452  1.00  0.00    -0.236 A  
HETATM   38  C   UNL     1     -10.748  16.436  67.135  1.00  0.00    -0.233 A  
HETATM   39  C   UNL     1     -11.386  15.256  67.515  1.00  0.00    -0.300 A  
ENDBRANCH  33  34
ENDBRANCH  32  33
ENDBRANCH  31  32
ENDBRANCH  29  31
ENDBRANCH  28  29
ENDBRANCH  27  28
ENDBRANCH  14  27
ENDBRANCH  13  14
ENDBRANCH  12  13
ENDBRANCH   2  12
TORSDOF 20
ENDMDL
MODEL      297
REMARK 921   NORMALIZED FREE ENERGY PREDICTED BY IDOCK:   -3.60 KCAL/MOL
REMARK 922        TOTAL FREE ENERGY PREDICTED BY IDOCK:  -12.48 KCAL/MOL
REMARK 923 INTER-LIGAND FREE ENERGY PREDICTED BY IDOCK:  -10.03 KCAL/MOL
REMARK 924 INTRA-LIGAND FREE ENERGY PREDICTED BY IDOCK:   -2.45 KCAL/MOL
REMARK 927      BINDING AFFINITY PREDICTED BY RF-SCORE:    0.00 PKD
ROOT
HETATM    1  O   UNL     1      -6.805  15.401  67.917  1.00  0.00    -0.121 OA 
HETATM    2  C   UNL     1      -7.477  14.398  67.726  1.00  0.00    -0.170 C  
ENDROOT
BRANCH   2   3
HETATM    3  C   UNL     1      -6.913  12.999  67.649  1.00  0.00    -0.154 C  
BRANCH   3   4
HETATM    4  C   UNL     1      -7.820  11.972  68.329  1.00  0.00    -0.145 C  
BRANCH   4   5
HETATM    5  C   UNL     1      -7.377  10.531  68.050  1.00  0.00    -0.089 C  
BRANCH   5   6
HETATM    6  C   UNL     1      -8.545   9.579  68.003  1.00  0.00    -0.120 A  
HETATM    7  C   UNL     1      -9.474   9.547  69.053  1.00  0.00    -0.158 A  
HETATM    8  C   UNL     1     -10.711   7.799  67.933  1.00  0.00    -0.165 A  
HETATM    9  C   UNL     1     -10.553   8.662  69.015  1.00  0.00    -0.179 A  
HETATM   10  C   UNL     1      -8.712   8.704  66.922  1.00  0.00    -0.133 A  
HETATM   11  C   UNL     1      -9.790   7.820  66.886  1.00  0.00    -0.305 A  
ENDBRANCH   5   6
ENDBRANCH   4   5
ENDBRANCH   3   4
ENDBRANCH   2   3
BRANCH   2  12
HETATM   12  O   UNL     1      -8.828  14.377  67.551  1.00  0.00    -0.175 OA 
BRANCH  12  13
HETATM   13  C   UNL     1      -9.446  15.619  67.163  1.00  0.00    -0.217 C  
BRANCH  13  14
HETATM   14  C   UNL     1     -10.522  16.007  68.181  1.00  0.00    -0.269 C  
BRANCH  14  15
HETATM   15  O   UNL     1     -10.772  17.424  68.079  1.00  0.00    -0.387 OA 
BRANCH  15  16
HETATM   16  C   UNL     1      -9.782  18.240  68.531  1.00  0.00    -0.362 C  
HETATM   17  O   UNL     1      -8.704  17.874  68.973  1.00  0.00    -0.157 OA 
BRANCH  16  18
HETATM   18  C   UNL     1     -10.221  19.680  68.436  1.00  0.00    -0.553 C  
BRANCH  18  19
HETATM   19  C   UNL     1      -9.572  20.393  67.255  1.00  0.00    -0.592 C  
BRANCH  19  20
HETATM   20  C   UNL     1      -9.335  19.469  66.054  1.00  0.00    -0.280 C  
BRANCH  20  21
HETATM   21  C   UNL     1      -7.861  19.404  65.746  1.00  0.00    -0.120 A  
HETATM   22  C   UNL     1      -5.183  19.246  64.947  1.00  0.00    -0.207 A  
HETATM   23  C   UNL     1      -7.185  18.177  65.772  1.00  0.00    -0.216 A  
HETATM   24  C   UNL     1      -7.174  20.555  65.336  1.00  0.00    -0.081 A  
HETATM   25  C   UNL     1      -5.850  18.102  65.374  1.00  0.00    -0.200 A  
HETATM   26  C   UNL     1      -5.840  20.475  64.936  1.00  0.00    -0.271 A  
ENDBRANCH  20  21
ENDBRANCH  19  20
ENDBRANCH  18  19
ENDBRANCH  16  18
ENDBRANCH  15  16
ENDBRANCH  14  15
BRANCH  14  27
HETATM   27  C   UNL     1     -10.057  15.717  69.613  1.00  0.00    -0.289 C  
BRANCH  27  28
HETATM   28  O   UNL     1     -10.300  14.351  69.978  1.00  0.00     0.193 OA 
BRANCH  28  29
HETATM   29  C   UNL     1     -11.592  14.071  70.312  1.00  0.00    -0.171 C  
HETATM   30  O   UNL     1     -12.413  14.898  70.682  1.00  0.00    -0.309 OA 
BRANCH  29  31
HETATM   31  C   UNL     1     -11.861  12.597  70.152  1.00  0.00    -0.326 C  
BRANCH  31  32
HETATM   32  C   UNL     1     -11.573  12.119  68.733  1.00  0.00    -0.380 C  
BRANCH  32  33
HETATM   33  C   UNL     1     -12.173  13.039  67.661  1.00  0.00    -0.104 C  
BRANCH  33  34
HETATM   34  C   UNL     1     -11.886  12.492  66.286  1.00  0.00    -0.453 A  
HETATM   35  C   UNL     1     -11.236  11.618  63.706  1.00  0.00    -0.498 A  
HETATM   36  C   UNL     1     -10.799  11.631  66.082  1.00  0.00    -0.343 A  
HETATM   37  C   UNL     1     -10.477  11.196  64.797  1.00  0.00    -0.388 A  
HETATM   38  C   UNL     1     -12.326  12.464  63.901  1.00  0.00    -0.602 A  
HETATM   39  C   UNL     1     -12.651  12.900  65.185  1.00  0.00    -0.536 A  
ENDBRANCH  33  34
ENDBRANCH  32  33
ENDBRANCH  31  32
ENDBRANCH  29  31
ENDBRANCH  28  29
ENDBRANCH  27  28
ENDBRANCH  14  27
ENDBRANCH  13  14
ENDBRANCH  12  13
ENDBRANCH   2  12
TORSDOF 20
ENDMDL
MODEL      298
REMARK 921   NORMALIZED FREE ENERGY PREDICTED BY IDOCK:   -3.59 KCAL/MOL
REMARK 922        TOTAL FREE ENERGY PREDICTED BY IDOCK:  -12.47 KCAL/MOL
REMARK 923 INTER-LIGAND FREE ENERGY PREDICTED BY IDOCK:   -9.21 KCAL/MOL
REMARK 924 INTRA-LIGAND FREE ENERGY PREDICTED BY IDOCK:   -3.26 KCAL/MOL
REMARK 927      BINDING AFFINITY PREDICTED BY RF-SCORE:    0.00 PKD
ROOT
HETATM    1  O   UNL     1      -6.704   9.641  69.458  1.00  0.00    -0.046 OA 
HETATM    2  C   UNL     1      -7.917   9.496  69.525  1.00  0.00    -0.110 C  
ENDROOT
BRANCH   2   3
HETATM    3  C   UNL     1      -8.909  10.233  68.659  1.00  0.00    -0.137 C  
BRANCH   3   4
HETATM    4  C   UNL     1      -8.471  11.671  68.372  1.00  0.00    -0.157 C  
BRANCH   4   5
HETATM    5  C   UNL     1      -8.593  12.030  66.887  1.00  0.00    -0.189 C  
BRANCH   5   6
HETATM    6  C   UNL     1      -9.927  12.655  66.564  1.00  0.00    -0.256 A  
HETATM    7  C   UNL     1     -10.865  11.959  65.788  1.00  0.00    -0.341 A  
HETATM    8  C   UNL     1     -12.402  13.817  65.942  1.00  0.00    -0.516 A  
HETATM    9  C   UNL     1     -12.097  12.537  65.482  1.00  0.00    -0.481 A  
HETATM   10  C   UNL     1     -10.242  13.942  67.018  1.00  0.00    -0.254 A  
HETATM   11  C   UNL     1     -11.474  14.519  66.710  1.00  0.00    -0.376 A  
ENDBRANCH   5   6
ENDBRANCH   4   5
ENDBRANCH   3   4
ENDBRANCH   2   3
BRANCH   2  12
HETATM   12  O   UNL     1      -8.563   8.659  70.383  1.00  0.00    -0.134 OA 
BRANCH  12  13
HETATM   13  C   UNL     1      -9.769   8.041  69.893  1.00  0.00    -0.180 C  
BRANCH  13  14
HETATM   14  C   UNL     1      -9.865   6.602  70.407  1.00  0.00    -0.175 C  
BRANCH  14  15
HETATM   15  O   UNL     1      -8.844   5.808  69.768  1.00  0.00    -0.124 OA 
BRANCH  15  16
HETATM   16  C   UNL     1      -8.884   4.471  70.016  1.00  0.00    -0.082 C  
HETATM   17  O   UNL     1      -8.992   3.954  71.117  1.00  0.00    -0.094 OA 
BRANCH  16  18
HETATM   18  C   UNL     1      -8.745   3.706  68.724  1.00  0.00    -0.137 C  
BRANCH  18  19
HETATM   19  C   UNL     1      -8.506   4.634  67.539  1.00  0.00    -0.104 C  
BRANCH  19  20
HETATM   20  C   UNL     1      -7.039   4.673  67.094  1.00  0.00    -0.068 C  
BRANCH  20  21
HETATM   21  C   UNL     1      -6.936   5.335  65.743  1.00  0.00    -0.066 A  
HETATM   22  C   UNL     1      -6.836   6.758  63.335  1.00  0.00    -0.050 A  
HETATM   23  C   UNL     1      -8.008   5.280  64.844  1.00  0.00    -0.105 A  
HETATM   24  C   UNL     1      -5.804   6.092  65.413  1.00  0.00    -0.025 A  
HETATM   25  C   UNL     1      -7.956   5.990  63.643  1.00  0.00    -0.108 A  
HETATM   26  C   UNL     1      -5.756   6.802  64.214  1.00  0.00    -0.031 A  
ENDBRANCH  20  21
ENDBRANCH  19  20
ENDBRANCH  18  19
ENDBRANCH  16  18
ENDBRANCH  15  16
ENDBRANCH  14  15
BRANCH  14  27
HETATM   27  C   UNL     1     -11.223   5.981  70.062  1.00  0.00    -0.355 C  
BRANCH  27  28
HETATM   28  O   UNL     1     -12.301   6.885  70.345  1.00  0.00    -0.254 OA 
BRANCH  28  29
HETATM   29  C   UNL     1     -12.856   6.741  71.581  1.00  0.00    -0.276 C  
HETATM   30  O   UNL     1     -12.282   6.277  72.556  1.00  0.00    -0.152 OA 
BRANCH  29  31
HETATM   31  C   UNL     1     -14.278   7.244  71.573  1.00  0.00    -0.540 C  
BRANCH  31  32
HETATM   32  C   UNL     1     -14.346   8.743  71.302  1.00  0.00    -0.185 C  
BRANCH  32  33
HETATM   33  C   UNL     1     -13.432   9.559  72.226  1.00  0.00    -0.521 C  
BRANCH  33  34
HETATM   34  C   UNL     1     -12.953  10.801  71.519  1.00  0.00    -0.562 A  
HETATM   35  C   UNL     1     -12.228  13.119  70.125  1.00  0.00    -0.360 A  
HETATM   36  C   UNL     1     -13.214  12.066  72.063  1.00  0.00    -0.481 A  
HETATM   37  C   UNL     1     -12.853  13.220  71.367  1.00  0.00    -0.411 A  
HETATM   38  C   UNL     1     -11.953  11.864  69.583  1.00  0.00    -0.365 A  
HETATM   39  C   UNL     1     -12.312  10.709  70.277  1.00  0.00    -0.406 A  
ENDBRANCH  33  34
ENDBRANCH  32  33
ENDBRANCH  31  32
ENDBRANCH  29  31
ENDBRANCH  28  29
ENDBRANCH  27  28
ENDBRANCH  14  27
ENDBRANCH  13  14
ENDBRANCH  12  13
ENDBRANCH   2  12
TORSDOF 20
ENDMDL
MODEL      299
REMARK 921   NORMALIZED FREE ENERGY PREDICTED BY IDOCK:   -3.59 KCAL/MOL
REMARK 922        TOTAL FREE ENERGY PREDICTED BY IDOCK:  -12.47 KCAL/MOL
REMARK 923 INTER-LIGAND FREE ENERGY PREDICTED BY IDOCK:   -7.14 KCAL/MOL
REMARK 924 INTRA-LIGAND FREE ENERGY PREDICTED BY IDOCK:   -5.33 KCAL/MOL
REMARK 927      BINDING AFFINITY PREDICTED BY RF-SCORE:    0.00 PKD
ROOT
HETATM    1  O   UNL     1      -6.669   8.878  72.607  1.00  0.00    -0.293 OA 
HETATM    2  C   UNL     1      -7.238   8.383  71.644  1.00  0.00    -0.091 C  
ENDROOT
BRANCH   2   3
HETATM    3  C   UNL     1      -8.738   8.357  71.466  1.00  0.00    -0.227 C  
BRANCH   3   4
HETATM    4  C   UNL     1      -9.481   8.509  72.794  1.00  0.00    -0.244 C  
BRANCH   4   5
HETATM    5  C   UNL     1     -10.484   7.375  73.031  1.00  0.00    -0.373 C  
BRANCH   5   6
HETATM    6  C   UNL     1     -11.849   7.701  72.478  1.00  0.00    -0.312 A  
HETATM    7  C   UNL     1     -12.683   6.679  72.004  1.00  0.00    -0.204 A  
HETATM    8  C   UNL     1     -14.381   8.301  71.433  1.00  0.00    -0.461 A  
HETATM    9  C   UNL     1     -13.944   6.979  71.486  1.00  0.00    -0.372 A  
HETATM   10  C   UNL     1     -12.296   9.027  72.416  1.00  0.00    -0.350 A  
HETATM   11  C   UNL     1     -13.557   9.325  71.898  1.00  0.00    -0.494 A  
ENDBRANCH   5   6
ENDBRANCH   4   5
ENDBRANCH   3   4
ENDBRANCH   2   3
BRANCH   2  12
HETATM   12  O   UNL     1      -6.623   7.780  70.590  1.00  0.00    -0.038 OA 
BRANCH  12  13
HETATM   13  C   UNL     1      -7.451   7.468  69.453  1.00  0.00    -0.087 C  
BRANCH  13  14
HETATM   14  C   UNL     1      -6.823   8.038  68.178  1.00  0.00    -0.069 C  
BRANCH  14  15
HETATM   15  O   UNL     1      -5.867   7.088  67.663  1.00  0.00    -0.019 OA 
BRANCH  15  16
HETATM   16  C   UNL     1      -6.318   6.254  66.688  1.00  0.00    -0.041 C  
HETATM   17  O   UNL     1      -6.761   6.599  65.604  1.00  0.00    -0.048 OA 
BRANCH  16  18
HETATM   18  C   UNL     1      -6.220   4.823  67.153  1.00  0.00    -0.035 C  
BRANCH  18  19
HETATM   19  C   UNL     1      -7.587   4.249  67.511  1.00  0.00    -0.073 C  
BRANCH  19  20
HETATM   20  C   UNL     1      -7.500   2.999  68.394  1.00  0.00    -0.049 C  
BRANCH  20  21
HETATM   21  C   UNL     1      -8.352   3.185  69.623  1.00  0.00    -0.085 A  
HETATM   22  C   UNL     1      -9.747   3.464  72.035  1.00  0.00    -0.234 A  
HETATM   23  C   UNL     1      -9.086   2.112  70.145  1.00  0.00    -0.172 A  
HETATM   24  C   UNL     1      -8.342   4.405  70.311  1.00  0.00    -0.086 A  
HETATM   25  C   UNL     1      -9.781   2.254  71.347  1.00  0.00    -0.216 A  
HETATM   26  C   UNL     1      -9.036   4.543  71.513  1.00  0.00    -0.164 A  
ENDBRANCH  20  21
ENDBRANCH  19  20
ENDBRANCH  18  19
ENDBRANCH  16  18
ENDBRANCH  15  16
ENDBRANCH  14  15
BRANCH  14  27
HETATM   27  C   UNL     1      -6.075   9.344  68.466  1.00  0.00    -0.044 C  
BRANCH  27  28
HETATM   28  O   UNL     1      -6.981  10.449  68.604  1.00  0.00    -0.063 OA 
BRANCH  28  29
HETATM   29  C   UNL     1      -7.231  11.129  67.449  1.00  0.00    -0.107 C  
HETATM   30  O   UNL     1      -6.438  11.257  66.528  1.00  0.00    -0.130 OA 
BRANCH  29  31
HETATM   31  C   UNL     1      -8.630  11.690  67.471  1.00  0.00    -0.149 C  
BRANCH  31  32
HETATM   32  C   UNL     1      -9.553  10.877  68.373  1.00  0.00    -0.177 C  
BRANCH  32  33
HETATM   33  C   UNL     1     -10.715  10.230  67.609  1.00  0.00    -0.339 C  
BRANCH  33  34
HETATM   34  C   UNL     1     -10.643   8.729  67.724  1.00  0.00    -0.256 A  
HETATM   35  C   UNL     1     -10.682   5.932  67.877  1.00  0.00    -0.336 A  
HETATM   36  C   UNL     1     -10.293   7.953  66.611  1.00  0.00    -0.270 A  
HETATM   37  C   UNL     1     -10.313   6.560  66.688  1.00  0.00    -0.217 A  
HETATM   38  C   UNL     1     -11.019   6.697  68.993  1.00  0.00    -0.332 A  
HETATM   39  C   UNL     1     -10.999   8.089  68.918  1.00  0.00     0.114 A  
ENDBRANCH  33  34
ENDBRANCH  32  33
ENDBRANCH  31  32
ENDBRANCH  29  31
ENDBRANCH  28  29
ENDBRANCH  27  28
ENDBRANCH  14  27
ENDBRANCH  13  14
ENDBRANCH  12  13
ENDBRANCH   2  12
TORSDOF 20
ENDMDL
MODEL      300
REMARK 921   NORMALIZED FREE ENERGY PREDICTED BY IDOCK:   -3.59 KCAL/MOL
REMARK 922        TOTAL FREE ENERGY PREDICTED BY IDOCK:  -12.46 KCAL/MOL
REMARK 923 INTER-LIGAND FREE ENERGY PREDICTED BY IDOCK:  -10.07 KCAL/MOL
REMARK 924 INTRA-LIGAND FREE ENERGY PREDICTED BY IDOCK:   -2.39 KCAL/MOL
REMARK 927      BINDING AFFINITY PREDICTED BY RF-SCORE:    0.00 PKD
ROOT
HETATM    1  O   UNL     1     -11.814   7.813  72.803  1.00  0.00    -0.301 OA 
HETATM    2  C   UNL     1     -12.378   7.871  71.720  1.00  0.00    -0.320 C  
ENDROOT
BRANCH   2   3
HETATM    3  C   UNL     1     -13.282   9.003  71.293  1.00  0.00    -0.262 C  
BRANCH   3   4
HETATM    4  C   UNL     1     -12.816  10.353  71.839  1.00  0.00    -0.519 C  
BRANCH   4   5
HETATM    5  C   UNL     1     -12.250  11.260  70.740  1.00  0.00    -0.479 C  
BRANCH   5   6
HETATM    6  C   UNL     1     -12.625  12.705  70.950  1.00  0.00    -0.338 A  
HETATM    7  C   UNL     1     -13.556  13.058  71.937  1.00  0.00    -0.419 A  
HETATM    8  C   UNL     1     -13.341  15.389  71.336  1.00  0.00    -0.601 A  
HETATM    9  C   UNL     1     -13.910  14.395  72.130  1.00  0.00    -0.572 A  
HETATM   10  C   UNL     1     -12.062  13.712  70.155  1.00  0.00    -0.431 A  
HETATM   11  C   UNL     1     -12.418  15.047  70.349  1.00  0.00    -0.407 A  
ENDBRANCH   5   6
ENDBRANCH   4   5
ENDBRANCH   3   4
ENDBRANCH   2   3
BRANCH   2  12
HETATM   12  O   UNL     1     -12.288   6.936  70.734  1.00  0.00    -0.376 OA 
BRANCH  12  13
HETATM   13  C   UNL     1     -11.206   5.991  70.840  1.00  0.00    -0.265 C  
BRANCH  13  14
HETATM   14  C   UNL     1     -10.160   6.271  69.757  1.00  0.00    -0.176 C  
BRANCH  14  15
HETATM   15  O   UNL     1     -10.725   7.173  68.782  1.00  0.00    -0.212 OA 
BRANCH  15  16
HETATM   16  C   UNL     1      -9.904   8.161  68.337  1.00  0.00    -0.171 C  
HETATM   17  O   UNL     1      -8.953   8.627  68.947  1.00  0.00    -0.140 OA 
BRANCH  16  18
HETATM   18  C   UNL     1     -10.357   8.631  66.978  1.00  0.00    -0.368 C  
BRANCH  18  19
HETATM   19  C   UNL     1     -10.090  10.118  66.774  1.00  0.00    -0.277 C  
BRANCH  19  20
HETATM   20  C   UNL     1     -11.297  10.997  67.123  1.00  0.00    -0.214 C  
BRANCH  20  21
HETATM   21  C   UNL     1     -11.335  12.194  66.208  1.00  0.00    -0.411 A  
HETATM   22  C   UNL     1     -11.240  14.516  64.647  1.00  0.00    -0.359 A  
HETATM   23  C   UNL     1     -12.199  13.264  66.477  1.00  0.00    -0.389 A  
HETATM   24  C   UNL     1     -10.438  12.292  65.136  1.00  0.00    -0.320 A  
HETATM   25  C   UNL     1     -12.150  14.420  65.696  1.00  0.00    -0.359 A  
HETATM   26  C   UNL     1     -10.390  13.449  64.360  1.00  0.00    -0.347 A  
ENDBRANCH  20  21
ENDBRANCH  19  20
ENDBRANCH  18  19
ENDBRANCH  16  18
ENDBRANCH  15  16
ENDBRANCH  14  15
BRANCH  14  27
HETATM   27  C   UNL     1      -9.765   4.983  69.025  1.00  0.00    -0.170 C  
BRANCH  27  28
HETATM   28  O   UNL     1      -9.067   5.266  67.803  1.00  0.00    -0.109 OA 
BRANCH  28  29
HETATM   29  C   UNL     1      -7.722   5.436  67.941  1.00  0.00    -0.092 C  
HETATM   30  O   UNL     1      -6.989   4.712  68.599  1.00  0.00    -0.050 OA 
BRANCH  29  31
HETATM   31  C   UNL     1      -7.269   6.642  67.158  1.00  0.00    -0.081 C  
BRANCH  31  32
HETATM   32  C   UNL     1      -6.850   6.271  65.739  1.00  0.00    -0.053 C  
BRANCH  32  33
HETATM   33  C   UNL     1      -7.984   6.435  64.719  1.00  0.00    -0.121 C  
BRANCH  33  34
HETATM   34  C   UNL     1      -8.131   5.181  63.897  1.00  0.00    -0.119 A  
HETATM   35  C   UNL     1      -8.400   2.753  62.526  1.00  0.00    -0.074 A  
HETATM   36  C   UNL     1      -9.401   4.636  63.661  1.00  0.00     0.019 A  
HETATM   37  C   UNL     1      -9.533   3.427  62.978  1.00  0.00    -0.099 A  
HETATM   38  C   UNL     1      -7.134   3.294  62.746  1.00  0.00    -0.040 A  
HETATM   39  C   UNL     1      -6.999   4.502  63.428  1.00  0.00    -0.044 A  
ENDBRANCH  33  34
ENDBRANCH  32  33
ENDBRANCH  31  32
ENDBRANCH  29  31
ENDBRANCH  28  29
ENDBRANCH  27  28
ENDBRANCH  14  27
ENDBRANCH  13  14
ENDBRANCH  12  13
ENDBRANCH   2  12
TORSDOF 20
ENDMDL
MODEL      301
REMARK 921   NORMALIZED FREE ENERGY PREDICTED BY IDOCK:   -3.59 KCAL/MOL
REMARK 922        TOTAL FREE ENERGY PREDICTED BY IDOCK:  -12.46 KCAL/MOL
REMARK 923 INTER-LIGAND FREE ENERGY PREDICTED BY IDOCK:   -8.40 KCAL/MOL
REMARK 924 INTRA-LIGAND FREE ENERGY PREDICTED BY IDOCK:   -4.06 KCAL/MOL
REMARK 927      BINDING AFFINITY PREDICTED BY RF-SCORE:    0.00 PKD
ROOT
HETATM    1  O   UNL     1      -9.525   4.261  67.898  1.00  0.00    -0.149 OA 
HETATM    2  C   UNL     1      -9.306   5.238  67.196  1.00  0.00    -0.122 C  
ENDROOT
BRANCH   2   3
HETATM    3  C   UNL     1      -8.706   5.171  65.812  1.00  0.00    -0.139 C  
BRANCH   3   4
HETATM    4  C   UNL     1      -7.946   6.449  65.450  1.00  0.00    -0.116 C  
BRANCH   4   5
HETATM    5  C   UNL     1      -7.680   6.559  63.944  1.00  0.00    -0.108 C  
BRANCH   5   6
HETATM    6  C   UNL     1      -7.321   7.965  63.535  1.00  0.00    -0.104 A  
HETATM    7  C   UNL     1      -5.983   8.385  63.542  1.00  0.00    -0.072 A  
HETATM    8  C   UNL     1      -6.646  10.584  62.792  1.00  0.00    -0.097 A  
HETATM    9  C   UNL     1      -5.649   9.687  63.170  1.00  0.00    -0.083 A  
HETATM   10  C   UNL     1      -8.316   8.876  63.156  1.00  0.00    -0.185 A  
HETATM   11  C   UNL     1      -7.980  10.178  62.785  1.00  0.00    -0.150 A  
ENDBRANCH   5   6
ENDBRANCH   4   5
ENDBRANCH   3   4
ENDBRANCH   2   3
BRANCH   2  12
HETATM   12  O   UNL     1      -9.563   6.529  67.542  1.00  0.00    -0.123 OA 
BRANCH  12  13
HETATM   13  C   UNL     1      -9.634   6.816  68.952  1.00  0.00    -0.137 C  
BRANCH  13  14
HETATM   14  C   UNL     1      -8.226   7.050  69.508  1.00  0.00    -0.132 C  
BRANCH  14  15
HETATM   15  O   UNL     1      -8.333   7.532  70.864  1.00  0.00    -0.112 OA 
BRANCH  15  16
HETATM   16  C   UNL     1      -7.980   6.653  71.840  1.00  0.00    -0.102 C  
HETATM   17  O   UNL     1      -6.917   6.647  72.443  1.00  0.00    -0.067 OA 
BRANCH  16  18
HETATM   18  C   UNL     1      -9.088   5.654  72.056  1.00  0.00    -0.145 C  
BRANCH  18  19
HETATM   19  C   UNL     1     -10.270   6.271  72.797  1.00  0.00    -0.202 C  
BRANCH  19  20
HETATM   20  C   UNL     1     -11.608   6.044  72.085  1.00  0.00    -0.348 C  
BRANCH  20  21
HETATM   21  C   UNL     1     -12.276   7.370  71.824  1.00  0.00    -0.359 A  
HETATM   22  C   UNL     1     -13.533   9.859  71.574  1.00  0.00    -0.393 A  
HETATM   23  C   UNL     1     -13.669   7.451  71.705  1.00  0.00    -0.468 A  
HETATM   24  C   UNL     1     -11.518   8.548  71.795  1.00  0.00    -0.378 A  
HETATM   25  C   UNL     1     -14.294   8.692  71.579  1.00  0.00    -0.402 A  
HETATM   26  C   UNL     1     -12.145   9.787  71.671  1.00  0.00    -0.475 A  
ENDBRANCH  20  21
ENDBRANCH  19  20
ENDBRANCH  18  19
ENDBRANCH  16  18
ENDBRANCH  15  16
ENDBRANCH  14  15
BRANCH  14  27
HETATM   27  C   UNL     1      -7.480   8.113  68.693  1.00  0.00    -0.098 C  
BRANCH  27  28
HETATM   28  O   UNL     1      -7.665   9.424  69.246  1.00  0.00    -0.077 OA 
BRANCH  28  29
HETATM   29  C   UNL     1      -7.722  10.428  68.326  1.00  0.00    -0.096 C  
HETATM   30  O   UNL     1      -7.560  11.614  68.575  1.00  0.00    -0.114 OA 
BRANCH  29  31
HETATM   31  C   UNL     1      -8.004   9.862  66.958  1.00  0.00    -0.109 C  
BRANCH  31  32
HETATM   32  C   UNL     1      -9.278  10.445  66.355  1.00  0.00    -0.187 C  
BRANCH  32  33
HETATM   33  C   UNL     1     -10.513  10.217  67.237  1.00  0.00    -0.307 C  
BRANCH  33  34
HETATM   34  C   UNL     1     -11.099  11.539  67.664  1.00  0.00    -0.324 A  
HETATM   35  C   UNL     1     -12.019  14.069  68.437  1.00  0.00    -0.378 A  
HETATM   36  C   UNL     1     -11.554  12.452  66.703  1.00  0.00    -0.447 A  
HETATM   37  C   UNL     1     -12.012  13.711  67.090  1.00  0.00    -0.434 A  
HETATM   38  C   UNL     1     -11.579  13.162  69.400  1.00  0.00    -0.360 A  
HETATM   39  C   UNL     1     -11.122  11.902  69.017  1.00  0.00    -0.300 A  
ENDBRANCH  33  34
ENDBRANCH  32  33
ENDBRANCH  31  32
ENDBRANCH  29  31
ENDBRANCH  28  29
ENDBRANCH  27  28
ENDBRANCH  14  27
ENDBRANCH  13  14
ENDBRANCH  12  13
ENDBRANCH   2  12
TORSDOF 20
ENDMDL
MODEL      302
REMARK 921   NORMALIZED FREE ENERGY PREDICTED BY IDOCK:   -3.58 KCAL/MOL
REMARK 922        TOTAL FREE ENERGY PREDICTED BY IDOCK:  -12.45 KCAL/MOL
REMARK 923 INTER-LIGAND FREE ENERGY PREDICTED BY IDOCK:   -9.75 KCAL/MOL
REMARK 924 INTRA-LIGAND FREE ENERGY PREDICTED BY IDOCK:   -2.69 KCAL/MOL
REMARK 927      BINDING AFFINITY PREDICTED BY RF-SCORE:    0.00 PKD
ROOT
HETATM    1  O   UNL     1      -6.033  11.398  68.993  1.00  0.00    -0.047 OA 
HETATM    2  C   UNL     1      -7.162  11.631  68.582  1.00  0.00    -0.104 C  
ENDROOT
BRANCH   2   3
HETATM    3  C   UNL     1      -7.476  12.586  67.456  1.00  0.00    -0.151 C  
BRANCH   3   4
HETATM    4  C   UNL     1      -6.918  13.987  67.714  1.00  0.00    -0.188 C  
BRANCH   4   5
HETATM    5  C   UNL     1      -7.798  14.794  68.675  1.00  0.00    -0.140 C  
BRANCH   5   6
HETATM    6  C   UNL     1      -8.604  15.846  67.957  1.00  0.00    -0.164 A  
HETATM    7  C   UNL     1      -8.761  17.122  68.517  1.00  0.00    -0.261 A  
HETATM    8  C   UNL     1     -10.117  17.804  66.637  1.00  0.00    -0.350 A  
HETATM    9  C   UNL     1      -9.512  18.096  67.858  1.00  0.00    -0.284 A  
HETATM   10  C   UNL     1      -9.220  15.562  66.732  1.00  0.00    -0.272 A  
HETATM   11  C   UNL     1      -9.971  16.537  66.075  1.00  0.00    -0.359 A  
ENDBRANCH   5   6
ENDBRANCH   4   5
ENDBRANCH   3   4
ENDBRANCH   2   3
BRANCH   2  12
HETATM   12  O   UNL     1      -8.306  11.076  69.069  1.00  0.00    -0.147 OA 
BRANCH  12  13
HETATM   13  C   UNL     1      -8.451   9.652  68.905  1.00  0.00    -0.125 C  
BRANCH  13  14
HETATM   14  C   UNL     1      -9.698   9.165  69.650  1.00  0.00    -0.176 C  
BRANCH  14  15
HETATM   15  O   UNL     1     -10.177   7.958  69.022  1.00  0.00    -0.200 OA 
BRANCH  15  16
HETATM   16  C   UNL     1      -9.312   6.909  69.007  1.00  0.00    -0.135 C  
HETATM   17  O   UNL     1      -8.784   6.407  69.988  1.00  0.00    -0.139 OA 
BRANCH  16  18
HETATM   18  C   UNL     1      -9.070   6.463  67.587  1.00  0.00    -0.114 C  
BRANCH  18  19
HETATM   19  C   UNL     1     -10.279   5.738  67.007  1.00  0.00    -0.258 C  
BRANCH  19  20
HETATM   20  C   UNL     1     -10.038   4.238  66.803  1.00  0.00    -0.116 C  
BRANCH  20  21
HETATM   21  C   UNL     1      -9.815   3.954  65.339  1.00  0.00    -0.167 A  
HETATM   22  C   UNL     1      -9.332   3.653  62.598  1.00  0.00    -0.100 A  
HETATM   23  C   UNL     1     -10.841   4.173  64.411  1.00  0.00    -0.115 A  
HETATM   24  C   UNL     1      -8.550   3.562  64.881  1.00  0.00    -0.109 A  
HETATM   25  C   UNL     1     -10.598   4.021  63.045  1.00  0.00    -0.119 A  
HETATM   26  C   UNL     1      -8.310   3.414  63.515  1.00  0.00    -0.089 A  
ENDBRANCH  20  21
ENDBRANCH  19  20
ENDBRANCH  18  19
ENDBRANCH  16  18
ENDBRANCH  15  16
ENDBRANCH  14  15
BRANCH  14  27
HETATM   27  C   UNL     1     -10.823  10.204  69.582  1.00  0.00    -0.263 C  
BRANCH  27  28
HETATM   28  O   UNL     1     -11.410  10.257  68.273  1.00  0.00    -0.266 OA 
BRANCH  28  29
HETATM   29  C   UNL     1     -11.843  11.492  67.892  1.00  0.00    -0.184 C  
HETATM   30  O   UNL     1     -12.079  11.825  66.740  1.00  0.00    -0.547 OA 
BRANCH  29  31
HETATM   31  C   UNL     1     -11.996  12.384  69.098  1.00  0.00    -0.291 C  
BRANCH  31  32
HETATM   32  C   UNL     1     -12.257  13.833  68.702  1.00  0.00    -0.202 C  
BRANCH  32  33
HETATM   33  C   UNL     1     -11.420  14.832  69.511  1.00  0.00    -0.331 C  
BRANCH  33  34
HETATM   34  C   UNL     1     -12.141  15.209  70.780  1.00  0.00    -0.387 A  
HETATM   35  C   UNL     1     -13.462  15.732  73.193  1.00  0.00    -0.652 A  
HETATM   36  C   UNL     1     -11.415  15.583  71.918  1.00  0.00    -0.506 A  
HETATM   37  C   UNL     1     -12.074  15.844  73.120  1.00  0.00    -0.611 A  
HETATM   38  C   UNL     1     -14.192  15.372  72.062  1.00  0.00    -0.650 A  
HETATM   39  C   UNL     1     -13.536  15.112  70.860  1.00  0.00    -0.432 A  
ENDBRANCH  33  34
ENDBRANCH  32  33
ENDBRANCH  31  32
ENDBRANCH  29  31
ENDBRANCH  28  29
ENDBRANCH  27  28
ENDBRANCH  14  27
ENDBRANCH  13  14
ENDBRANCH  12  13
ENDBRANCH   2  12
TORSDOF 20
ENDMDL
MODEL      303
REMARK 921   NORMALIZED FREE ENERGY PREDICTED BY IDOCK:   -3.57 KCAL/MOL
REMARK 922        TOTAL FREE ENERGY PREDICTED BY IDOCK:  -12.43 KCAL/MOL
REMARK 923 INTER-LIGAND FREE ENERGY PREDICTED BY IDOCK:   -9.82 KCAL/MOL
REMARK 924 INTRA-LIGAND FREE ENERGY PREDICTED BY IDOCK:   -2.61 KCAL/MOL
REMARK 927      BINDING AFFINITY PREDICTED BY RF-SCORE:    0.00 PKD
ROOT
HETATM    1  O   UNL     1     -12.518  13.125  66.227  1.00  0.00    -0.386 OA 
HETATM    2  C   UNL     1     -11.662  12.586  66.915  1.00  0.00    -0.377 C  
ENDROOT
BRANCH   2   3
HETATM    3  C   UNL     1     -10.299  13.174  67.191  1.00  0.00    -0.247 C  
BRANCH   3   4
HETATM    4  C   UNL     1     -10.378  14.641  67.618  1.00  0.00    -0.233 C  
BRANCH   4   5
HETATM    5  C   UNL     1     -10.131  15.600  66.449  1.00  0.00    -0.301 C  
BRANCH   5   6
HETATM    6  C   UNL     1      -9.880  17.011  66.918  1.00  0.00    -0.273 A  
HETATM    7  C   UNL     1      -9.385  17.250  68.208  1.00  0.00    -0.272 A  
HETATM    8  C   UNL     1      -9.428  19.633  67.805  1.00  0.00    -0.446 A  
HETATM    9  C   UNL     1      -9.158  18.555  68.646  1.00  0.00    -0.325 A  
HETATM   10  C   UNL     1     -10.152  18.101  66.081  1.00  0.00    -0.338 A  
HETATM   11  C   UNL     1      -9.925  19.405  66.522  1.00  0.00    -0.485 A  
ENDBRANCH   5   6
ENDBRANCH   4   5
ENDBRANCH   3   4
ENDBRANCH   2   3
BRANCH   2  12
HETATM   12  O   UNL     1     -11.795  11.381  67.537  1.00  0.00    -0.614 OA 
BRANCH  12  13
HETATM   13  C   UNL     1     -12.270  11.408  68.897  1.00  0.00    -0.087 C  
BRANCH  13  14
HETATM   14  C   UNL     1     -11.290  10.659  69.805  1.00  0.00    -0.301 C  
BRANCH  14  15
HETATM   15  O   UNL     1     -10.798   9.497  69.106  1.00  0.00    -0.222 OA 
BRANCH  15  16
HETATM   16  C   UNL     1      -9.464   9.254  69.217  1.00  0.00    -0.160 C  
HETATM   17  O   UNL     1      -8.823   9.256  70.256  1.00  0.00    -0.183 OA 
BRANCH  16  18
HETATM   18  C   UNL     1      -8.874   9.005  67.852  1.00  0.00    -0.129 C  
BRANCH  18  19
HETATM   19  C   UNL     1      -8.329  10.286  67.229  1.00  0.00    -0.121 C  
BRANCH  19  20
HETATM   20  C   UNL     1      -6.871  10.566  67.612  1.00  0.00    -0.074 C  
BRANCH  20  21
HETATM   21  C   UNL     1      -6.776  11.899  68.309  1.00  0.00    -0.063 A  
HETATM   22  C   UNL     1      -6.372  14.383  69.536  1.00  0.00    -0.128 A  
HETATM   23  C   UNL     1      -6.370  11.970  69.648  1.00  0.00    -0.120 A  
HETATM   24  C   UNL     1      -6.998  13.085  67.598  1.00  0.00    -0.154 A  
HETATM   25  C   UNL     1      -6.171  13.210  70.258  1.00  0.00    -0.004 A  
HETATM   26  C   UNL     1      -6.795  14.322  68.209  1.00  0.00    -0.109 A  
ENDBRANCH  20  21
ENDBRANCH  19  20
ENDBRANCH  18  19
ENDBRANCH  16  18
ENDBRANCH  15  16
ENDBRANCH  14  15
BRANCH  14  27
HETATM   27  C   UNL     1     -11.983  10.175  71.085  1.00  0.00    -0.386 C  
BRANCH  27  28
HETATM   28  O   UNL     1     -12.441   8.821  70.953  1.00  0.00    -0.181 OA 
BRANCH  28  29
HETATM   29  C   UNL     1     -11.915   7.951  71.861  1.00  0.00    -0.305 C  
HETATM   30  O   UNL     1     -11.332   8.276  72.885  1.00  0.00    -0.342 OA 
BRANCH  29  31
HETATM   31  C   UNL     1     -12.165   6.530  71.422  1.00  0.00    -0.304 C  
BRANCH  31  32
HETATM   32  C   UNL     1     -11.256   6.126  70.266  1.00  0.00    -0.439 C  
BRANCH  32  33
HETATM   33  C   UNL     1      -9.910   5.560  70.735  1.00  0.00    -0.247 C  
BRANCH  33  34
HETATM   34  C   UNL     1     -10.128   4.348  71.603  1.00  0.00    -0.230 A  
HETATM   35  C   UNL     1     -10.697   2.069  73.130  1.00  0.00    -0.247 A  
HETATM   36  C   UNL     1      -9.753   3.077  71.147  1.00  0.00    -0.192 A  
HETATM   37  C   UNL     1     -10.037   1.943  71.908  1.00  0.00    -0.210 A  
HETATM   38  C   UNL     1     -11.062   3.331  73.596  1.00  0.00    -0.316 A  
HETATM   39  C   UNL     1     -10.779   4.466  72.838  1.00  0.00    -0.263 A  
ENDBRANCH  33  34
ENDBRANCH  32  33
ENDBRANCH  31  32
ENDBRANCH  29  31
ENDBRANCH  28  29
ENDBRANCH  27  28
ENDBRANCH  14  27
ENDBRANCH  13  14
ENDBRANCH  12  13
ENDBRANCH   2  12
TORSDOF 20
ENDMDL
MODEL      304
REMARK 921   NORMALIZED FREE ENERGY PREDICTED BY IDOCK:   -3.56 KCAL/MOL
REMARK 922        TOTAL FREE ENERGY PREDICTED BY IDOCK:  -12.40 KCAL/MOL
REMARK 923 INTER-LIGAND FREE ENERGY PREDICTED BY IDOCK:   -8.18 KCAL/MOL
REMARK 924 INTRA-LIGAND FREE ENERGY PREDICTED BY IDOCK:   -4.22 KCAL/MOL
REMARK 927      BINDING AFFINITY PREDICTED BY RF-SCORE:    0.00 PKD
ROOT
HETATM    1  O   UNL     1     -10.193  12.536  63.254  1.00  0.00    -0.370 OA 
HETATM    2  C   UNL     1     -10.266  11.466  63.843  1.00  0.00    -0.363 C  
ENDROOT
BRANCH   2   3
HETATM    3  C   UNL     1      -9.820  10.145  63.263  1.00  0.00     0.039 C  
BRANCH   3   4
HETATM    4  C   UNL     1      -8.299   9.985  63.293  1.00  0.00    -0.168 C  
BRANCH   4   5
HETATM    5  C   UNL     1      -7.779   9.640  64.693  1.00  0.00    -0.130 C  
BRANCH   5   6
HETATM    6  C   UNL     1      -8.232   8.275  65.145  1.00  0.00    -0.156 A  
HETATM    7  C   UNL     1      -9.037   8.138  66.285  1.00  0.00    -0.231 A  
HETATM    8  C   UNL     1      -9.066   5.738  66.003  1.00  0.00    -0.163 A  
HETATM    9  C   UNL     1      -9.453   6.875  66.709  1.00  0.00    -0.204 A  
HETATM   10  C   UNL     1      -7.845   7.125  64.444  1.00  0.00    -0.115 A  
HETATM   11  C   UNL     1      -8.262   5.864  64.871  1.00  0.00    -0.135 A  
ENDBRANCH   5   6
ENDBRANCH   4   5
ENDBRANCH   3   4
ENDBRANCH   2   3
BRANCH   2  12
HETATM   12  O   UNL     1     -10.757  11.292  65.101  1.00  0.00    -0.288 OA 
BRANCH  12  13
HETATM   13  C   UNL     1     -11.394  12.433  65.707  1.00  0.00    -0.352 C  
BRANCH  13  14
HETATM   14  C   UNL     1     -10.733  12.747  67.052  1.00  0.00    -0.253 C  
BRANCH  14  15
HETATM   15  O   UNL     1      -9.555  11.925  67.198  1.00  0.00    -0.183 OA 
BRANCH  15  16
HETATM   16  C   UNL     1      -8.405  12.580  67.509  1.00  0.00    -0.175 C  
HETATM   17  O   UNL     1      -8.244  13.790  67.481  1.00  0.00    -0.164 OA 
BRANCH  16  18
HETATM   18  C   UNL     1      -7.331  11.585  67.872  1.00  0.00    -0.094 C  
BRANCH  18  19
HETATM   19  C   UNL     1      -7.662  10.839  69.160  1.00  0.00    -0.138 C  
BRANCH  19  20
HETATM   20  C   UNL     1      -6.418  10.461  69.971  1.00  0.00    -0.126 C  
BRANCH  20  21
HETATM   21  C   UNL     1      -6.731   9.289  70.866  1.00  0.00    -0.094 A  
HETATM   22  C   UNL     1      -7.478   7.247  72.629  1.00  0.00    -0.080 A  
HETATM   23  C   UNL     1      -6.081   9.145  72.099  1.00  0.00     0.012 A  
HETATM   24  C   UNL     1      -7.743   8.386  70.517  1.00  0.00    -0.080 A  
HETATM   25  C   UNL     1      -6.455   8.126  72.976  1.00  0.00    -0.092 A  
HETATM   26  C   UNL     1      -8.116   7.370  71.396  1.00  0.00    -0.097 A  
ENDBRANCH  20  21
ENDBRANCH  19  20
ENDBRANCH  18  19
ENDBRANCH  16  18
ENDBRANCH  15  16
ENDBRANCH  14  15
BRANCH  14  27
HETATM   27  C   UNL     1     -11.673  12.424  68.219  1.00  0.00    -0.345 C  
BRANCH  27  28
HETATM   28  O   UNL     1     -12.115  11.060  68.175  1.00  0.00    -0.610 OA 
BRANCH  28  29
HETATM   29  C   UNL     1     -11.532  10.242  69.096  1.00  0.00    -0.147 C  
HETATM   30  O   UNL     1     -10.805   9.296  68.830  1.00  0.00    -0.187 OA 
BRANCH  29  31
HETATM   31  C   UNL     1     -11.906  10.679  70.489  1.00  0.00    -0.453 C  
BRANCH  31  32
HETATM   32  C   UNL     1     -11.765   9.543  71.497  1.00  0.00    -0.472 C  
BRANCH  32  33
HETATM   33  C   UNL     1     -12.659   8.340  71.169  1.00  0.00    -0.152 C  
BRANCH  33  34
HETATM   34  C   UNL     1     -11.848   7.070  71.179  1.00  0.00    -0.380 A  
HETATM   35  C   UNL     1     -10.499   4.615  71.190  1.00  0.00    -0.065 A  
HETATM   36  C   UNL     1     -11.499   6.447  69.972  1.00  0.00    -0.496 A  
HETATM   37  C   UNL     1     -10.827   5.225  69.979  1.00  0.00    -0.074 A  
HETATM   38  C   UNL     1     -10.832   5.234  72.393  1.00  0.00    -0.283 A  
HETATM   39  C   UNL     1     -11.503   6.456  72.389  1.00  0.00    -0.320 A  
ENDBRANCH  33  34
ENDBRANCH  32  33
ENDBRANCH  31  32
ENDBRANCH  29  31
ENDBRANCH  28  29
ENDBRANCH  27  28
ENDBRANCH  14  27
ENDBRANCH  13  14
ENDBRANCH  12  13
ENDBRANCH   2  12
TORSDOF 20
ENDMDL
MODEL      305
REMARK 921   NORMALIZED FREE ENERGY PREDICTED BY IDOCK:   -3.56 KCAL/MOL
REMARK 922        TOTAL FREE ENERGY PREDICTED BY IDOCK:  -12.39 KCAL/MOL
REMARK 923 INTER-LIGAND FREE ENERGY PREDICTED BY IDOCK:   -8.32 KCAL/MOL
REMARK 924 INTRA-LIGAND FREE ENERGY PREDICTED BY IDOCK:   -4.07 KCAL/MOL
REMARK 927      BINDING AFFINITY PREDICTED BY RF-SCORE:    0.00 PKD
ROOT
HETATM    1  O   UNL     1      -9.683  11.911  68.399  1.00  0.00    -0.203 OA 
HETATM    2  C   UNL     1     -10.751  11.320  68.313  1.00  0.00    -0.194 C  
ENDROOT
BRANCH   2   3
HETATM    3  C   UNL     1     -11.000  10.147  67.395  1.00  0.00    -0.295 C  
BRANCH   3   4
HETATM    4  C   UNL     1      -9.848   9.927  66.412  1.00  0.00    -0.288 C  
BRANCH   4   5
HETATM    5  C   UNL     1      -9.453   8.450  66.302  1.00  0.00    -0.292 C  
BRANCH   5   6
HETATM    6  C   UNL     1      -8.125   8.169  66.959  1.00  0.00    -0.108 A  
HETATM    7  C   UNL     1      -7.412   7.004  66.642  1.00  0.00    -0.081 A  
HETATM    8  C   UNL     1      -5.663   7.628  68.188  1.00  0.00    -0.028 A  
HETATM    9  C   UNL     1      -6.186   6.738  67.252  1.00  0.00    -0.036 A  
HETATM   10  C   UNL     1      -7.593   9.055  67.904  1.00  0.00    -0.093 A  
HETATM   11  C   UNL     1      -6.367   8.787  68.513  1.00  0.00    -0.054 A  
ENDBRANCH   5   6
ENDBRANCH   4   5
ENDBRANCH   3   4
ENDBRANCH   2   3
BRANCH   2  12
HETATM   12  O   UNL     1     -11.876  11.620  69.018  1.00  0.00    -0.297 OA 
BRANCH  12  13
HETATM   13  C   UNL     1     -12.453  10.551  69.793  1.00  0.00    -0.064 C  
BRANCH  13  14
HETATM   14  C   UNL     1     -12.360  10.880  71.286  1.00  0.00    -0.343 C  
BRANCH  14  15
HETATM   15  O   UNL     1     -12.828   9.747  72.046  1.00  0.00    -0.395 OA 
BRANCH  15  16
HETATM   16  C   UNL     1     -12.223   8.558  71.780  1.00  0.00    -0.334 C  
HETATM   17  O   UNL     1     -12.788   7.532  71.433  1.00  0.00    -0.347 OA 
BRANCH  16  18
HETATM   18  C   UNL     1     -10.737   8.678  72.006  1.00  0.00    -0.427 C  
BRANCH  18  19
HETATM   19  C   UNL     1     -10.007   7.383  71.668  1.00  0.00    -0.193 C  
BRANCH  19  20
HETATM   20  C   UNL     1      -9.179   7.479  70.381  1.00  0.00    -0.157 C  
BRANCH  20  21
HETATM   21  C   UNL     1      -9.272   6.182  69.618  1.00  0.00    -0.148 A  
HETATM   22  C   UNL     1      -9.322   3.879  68.028  1.00  0.00    -0.226 A  
HETATM   23  C   UNL     1     -10.332   5.957  68.731  1.00  0.00    -0.279 A  
HETATM   24  C   UNL     1      -8.248   5.231  69.716  1.00  0.00    -0.098 A  
HETATM   25  C   UNL     1     -10.355   4.807  67.940  1.00  0.00     0.006 A  
HETATM   26  C   UNL     1      -8.273   4.084  68.922  1.00  0.00    -0.082 A  
ENDBRANCH  20  21
ENDBRANCH  19  20
ENDBRANCH  18  19
ENDBRANCH  16  18
ENDBRANCH  15  16
ENDBRANCH  14  15
BRANCH  14  27
HETATM   27  C   UNL     1     -13.245  12.080  71.645  1.00  0.00    -0.260 C  
BRANCH  27  28
HETATM   28  O   UNL     1     -12.468  13.275  71.811  1.00  0.00    -0.155 OA 
BRANCH  28  29
HETATM   29  C   UNL     1     -12.916  14.349  71.103  1.00  0.00    -0.349 C  
HETATM   30  O   UNL     1     -13.781  15.125  71.482  1.00  0.00    -0.418 OA 
BRANCH  29  31
HETATM   31  C   UNL     1     -12.183  14.447  69.789  1.00  0.00    -0.370 C  
BRANCH  31  32
HETATM   32  C   UNL     1     -12.024  15.893  69.334  1.00  0.00    -0.268 C  
BRANCH  32  33
HETATM   33  C   UNL     1     -10.648  16.479  69.676  1.00  0.00    -0.302 C  
BRANCH  33  34
HETATM   34  C   UNL     1      -9.568  15.744  68.924  1.00  0.00    -0.229 A  
HETATM   35  C   UNL     1      -7.462  14.535  67.529  1.00  0.00    -0.216 A  
HETATM   36  C   UNL     1      -8.514  15.137  69.620  1.00  0.00    -0.064 A  
HETATM   37  C   UNL     1      -7.466  14.534  68.924  1.00  0.00    -0.133 A  
HETATM   38  C   UNL     1      -8.512  15.127  66.831  1.00  0.00    -0.278 A  
HETATM   39  C   UNL     1      -9.562  15.728  67.524  1.00  0.00    -0.224 A  
ENDBRANCH  33  34
ENDBRANCH  32  33
ENDBRANCH  31  32
ENDBRANCH  29  31
ENDBRANCH  28  29
ENDBRANCH  27  28
ENDBRANCH  14  27
ENDBRANCH  13  14
ENDBRANCH  12  13
ENDBRANCH   2  12
TORSDOF 20
ENDMDL
MODEL      306
REMARK 921   NORMALIZED FREE ENERGY PREDICTED BY IDOCK:   -3.55 KCAL/MOL
REMARK 922        TOTAL FREE ENERGY PREDICTED BY IDOCK:  -12.37 KCAL/MOL
REMARK 923 INTER-LIGAND FREE ENERGY PREDICTED BY IDOCK:   -9.28 KCAL/MOL
REMARK 924 INTRA-LIGAND FREE ENERGY PREDICTED BY IDOCK:   -3.10 KCAL/MOL
REMARK 927      BINDING AFFINITY PREDICTED BY RF-SCORE:    0.00 PKD
ROOT
HETATM    1  O   UNL     1      -6.306  11.585  70.642  1.00  0.00    -0.287 OA 
HETATM    2  C   UNL     1      -6.499  11.290  69.471  1.00  0.00    -0.119 C  
ENDROOT
BRANCH   2   3
HETATM    3  C   UNL     1      -6.393  12.263  68.322  1.00  0.00    -0.055 C  
BRANCH   3   4
HETATM    4  C   UNL     1      -6.944  13.644  68.681  1.00  0.00    -0.103 C  
BRANCH   4   5
HETATM    5  C   UNL     1      -8.441  13.770  68.375  1.00  0.00    -0.154 C  
BRANCH   5   6
HETATM    6  C   UNL     1      -8.906  15.204  68.403  1.00  0.00    -0.174 A  
HETATM    7  C   UNL     1     -10.263  15.511  68.229  1.00  0.00    -0.222 A  
HETATM    8  C   UNL     1      -9.777  17.869  68.435  1.00  0.00    -0.340 A  
HETATM    9  C   UNL     1     -10.695  16.838  68.248  1.00  0.00    -0.364 A  
HETATM   10  C   UNL     1      -7.991  16.249  68.586  1.00  0.00    -0.215 A  
HETATM   11  C   UNL     1      -8.425  17.574  68.604  1.00  0.00    -0.258 A  
ENDBRANCH   5   6
ENDBRANCH   4   5
ENDBRANCH   3   4
ENDBRANCH   2   3
BRANCH   2  12
HETATM   12  O   UNL     1      -6.840  10.052  69.017  1.00  0.00    -0.052 OA 
BRANCH  12  13
HETATM   13  C   UNL     1      -7.678   9.258  69.879  1.00  0.00    -0.101 C  
BRANCH  13  14
HETATM   14  C   UNL     1      -8.387   8.174  69.062  1.00  0.00    -0.128 C  
BRANCH  14  15
HETATM   15  O   UNL     1      -9.422   8.788  68.266  1.00  0.00    -0.140 OA 
BRANCH  15  16
HETATM   16  C   UNL     1      -9.622   8.254  67.032  1.00  0.00    -0.191 C  
HETATM   17  O   UNL     1     -10.643   7.699  66.653  1.00  0.00    -0.274 OA 
BRANCH  16  18
HETATM   18  C   UNL     1      -8.380   8.418  66.193  1.00  0.00    -0.127 C  
BRANCH  18  19
HETATM   19  C   UNL     1      -8.343   7.426  65.036  1.00  0.00    -0.057 C  
BRANCH  19  20
HETATM   20  C   UNL     1      -7.296   6.322  65.226  1.00  0.00    -0.077 C  
BRANCH  20  21
HETATM   21  C   UNL     1      -7.872   5.216  66.073  1.00  0.00    -0.103 A  
HETATM   22  C   UNL     1      -9.076   3.328  67.752  1.00  0.00    -0.214 A  
HETATM   23  C   UNL     1      -7.295   4.897  67.309  1.00  0.00    -0.082 A  
HETATM   24  C   UNL     1      -9.047   4.563  65.678  1.00  0.00    -0.140 A  
HETATM   25  C   UNL     1      -7.896   3.955  68.144  1.00  0.00    -0.073 A  
HETATM   26  C   UNL     1      -9.647   3.623  66.516  1.00  0.00    -0.159 A  
ENDBRANCH  20  21
ENDBRANCH  19  20
ENDBRANCH  18  19
ENDBRANCH  16  18
ENDBRANCH  15  16
ENDBRANCH  14  15
BRANCH  14  27
HETATM   27  C   UNL     1      -9.055   7.141  69.977  1.00  0.00    -0.145 C  
BRANCH  27  28
HETATM   28  O   UNL     1     -10.070   7.742  70.795  1.00  0.00    -0.192 OA 
BRANCH  28  29
HETATM   29  C   UNL     1     -11.288   7.134  70.729  1.00  0.00    -0.289 C  
HETATM   30  O   UNL     1     -11.573   6.218  69.973  1.00  0.00    -0.425 OA 
BRANCH  29  31
HETATM   31  C   UNL     1     -12.230   7.752  71.732  1.00  0.00    -0.338 C  
BRANCH  31  32
HETATM   32  C   UNL     1     -11.983   9.247  71.895  1.00  0.00    -0.433 C  
BRANCH  32  33
HETATM   33  C   UNL     1     -13.280  10.067  71.917  1.00  0.00    -0.557 C  
BRANCH  33  34
HETATM   34  C   UNL     1     -12.992  11.506  71.571  1.00  0.00    -0.485 A  
HETATM   35  C   UNL     1     -12.606  14.175  70.815  1.00  0.00    -0.432 A  
HETATM   36  C   UNL     1     -13.631  12.540  72.269  1.00  0.00    -0.443 A  
HETATM   37  C   UNL     1     -13.437  13.869  71.892  1.00  0.00    -0.511 A  
HETATM   38  C   UNL     1     -11.957  13.153  70.124  1.00  0.00    -0.381 A  
HETATM   39  C   UNL     1     -12.148  11.824  70.499  1.00  0.00    -0.439 A  
ENDBRANCH  33  34
ENDBRANCH  32  33
ENDBRANCH  31  32
ENDBRANCH  29  31
ENDBRANCH  28  29
ENDBRANCH  27  28
ENDBRANCH  14  27
ENDBRANCH  13  14
ENDBRANCH  12  13
ENDBRANCH   2  12
TORSDOF 20
ENDMDL
MODEL      307
REMARK 921   NORMALIZED FREE ENERGY PREDICTED BY IDOCK:   -3.53 KCAL/MOL
REMARK 922        TOTAL FREE ENERGY PREDICTED BY IDOCK:  -12.34 KCAL/MOL
REMARK 923 INTER-LIGAND FREE ENERGY PREDICTED BY IDOCK:  -10.81 KCAL/MOL
REMARK 924 INTRA-LIGAND FREE ENERGY PREDICTED BY IDOCK:   -1.53 KCAL/MOL
REMARK 927      BINDING AFFINITY PREDICTED BY RF-SCORE:    0.00 PKD
ROOT
HETATM    1  O   UNL     1      -5.907  12.897  67.274  1.00  0.00    -0.308 OA 
HETATM    2  C   UNL     1      -7.037  12.583  67.618  1.00  0.00    -0.139 C  
ENDROOT
BRANCH   2   3
HETATM    3  C   UNL     1      -7.470  11.170  67.928  1.00  0.00    -0.094 C  
BRANCH   3   4
HETATM    4  C   UNL     1      -8.028  11.033  69.346  1.00  0.00     0.036 C  
BRANCH   4   5
HETATM    5  C   UNL     1      -7.927   9.598  69.874  1.00  0.00    -0.174 C  
BRANCH   5   6
HETATM    6  C   UNL     1      -9.158   9.190  70.644  1.00  0.00    -0.307 A  
HETATM    7  C   UNL     1     -10.366   9.879  70.462  1.00  0.00    -0.298 A  
HETATM    8  C   UNL     1     -11.447   8.450  72.084  1.00  0.00    -0.442 A  
HETATM    9  C   UNL     1     -11.505   9.508  71.178  1.00  0.00    -0.430 A  
HETATM   10  C   UNL     1      -9.110   8.132  71.560  1.00  0.00    -0.203 A  
HETATM   11  C   UNL     1     -10.250   7.763  72.274  1.00  0.00    -0.285 A  
ENDBRANCH   5   6
ENDBRANCH   4   5
ENDBRANCH   3   4
ENDBRANCH   2   3
BRANCH   2  12
HETATM   12  O   UNL     1      -8.080  13.445  67.775  1.00  0.00    -0.144 OA 
BRANCH  12  13
HETATM   13  C   UNL     1      -8.039  14.653  66.992  1.00  0.00    -0.120 C  
BRANCH  13  14
HETATM   14  C   UNL     1      -8.437  15.851  67.860  1.00  0.00    -0.161 C  
BRANCH  14  15
HETATM   15  O   UNL     1      -7.284  16.698  68.046  1.00  0.00    -0.148 OA 
BRANCH  15  16
HETATM   16  C   UNL     1      -6.585  16.511  69.197  1.00  0.00    -0.200 C  
HETATM   17  O   UNL     1      -6.716  15.571  69.966  1.00  0.00    -0.147 OA 
BRANCH  16  18
HETATM   18  C   UNL     1      -5.631  17.660  69.410  1.00  0.00    -0.208 C  
BRANCH  18  19
HETATM   19  C   UNL     1      -6.163  18.956  68.810  1.00  0.00    -0.249 C  
BRANCH  19  20
HETATM   20  C   UNL     1      -7.487  19.408  69.436  1.00  0.00    -0.195 C  
BRANCH  20  21
HETATM   21  C   UNL     1      -8.563  19.440  68.381  1.00  0.00    -0.397 A  
HETATM   22  C   UNL     1     -10.591  19.729  66.473  1.00  0.00    -0.580 A  
HETATM   23  C   UNL     1      -9.899  19.193  68.724  1.00  0.00    -0.502 A  
HETATM   24  C   UNL     1      -8.252  19.812  67.067  1.00  0.00    -0.340 A  
HETATM   25  C   UNL     1     -10.908  19.337  67.771  1.00  0.00    -0.416 A  
HETATM   26  C   UNL     1      -9.263  19.958  66.117  1.00  0.00    -0.414 A  
ENDBRANCH  20  21
ENDBRANCH  19  20
ENDBRANCH  18  19
ENDBRANCH  16  18
ENDBRANCH  15  16
ENDBRANCH  14  15
BRANCH  14  27
HETATM   27  C   UNL     1      -8.910  15.397  69.246  1.00  0.00    -0.258 C  
BRANCH  27  28
HETATM   28  O   UNL     1     -10.017  14.488  69.151  1.00  0.00    -0.197 OA 
BRANCH  28  29
HETATM   29  C   UNL     1     -11.241  15.062  69.320  1.00  0.00    -0.286 C  
HETATM   30  O   UNL     1     -11.450  16.266  69.355  1.00  0.00    -0.308 OA 
BRANCH  29  31
HETATM   31  C   UNL     1     -12.300  13.997  69.448  1.00  0.00    -0.247 C  
BRANCH  31  32
HETATM   32  C   UNL     1     -11.856  12.678  68.825  1.00  0.00    -0.341 C  
BRANCH  32  33
HETATM   33  C   UNL     1     -11.861  12.711  67.291  1.00  0.00    -0.395 C  
BRANCH  33  34
HETATM   34  C   UNL     1     -11.112  11.525  66.742  1.00  0.00    -0.361 A  
HETATM   35  C   UNL     1      -9.577   9.367  65.829  1.00  0.00    -0.340 A  
HETATM   36  C   UNL     1     -11.139  10.298  67.420  1.00  0.00    -0.261 A  
HETATM   37  C   UNL     1     -10.374   9.224  66.964  1.00  0.00    -0.325 A  
HETATM   38  C   UNL     1      -9.554  10.580  65.142  1.00  0.00    -0.316 A  
HETATM   39  C   UNL     1     -10.318  11.654  65.595  1.00  0.00    -0.306 A  
ENDBRANCH  33  34
ENDBRANCH  32  33
ENDBRANCH  31  32
ENDBRANCH  29  31
ENDBRANCH  28  29
ENDBRANCH  27  28
ENDBRANCH  14  27
ENDBRANCH  13  14
ENDBRANCH  12  13
ENDBRANCH   2  12
TORSDOF 20
ENDMDL
MODEL      308
REMARK 921   NORMALIZED FREE ENERGY PREDICTED BY IDOCK:   -3.51 KCAL/MOL
REMARK 922        TOTAL FREE ENERGY PREDICTED BY IDOCK:  -12.30 KCAL/MOL
REMARK 923 INTER-LIGAND FREE ENERGY PREDICTED BY IDOCK:   -7.37 KCAL/MOL
REMARK 924 INTRA-LIGAND FREE ENERGY PREDICTED BY IDOCK:   -4.93 KCAL/MOL
REMARK 927      BINDING AFFINITY PREDICTED BY RF-SCORE:    0.00 PKD
ROOT
HETATM    1  O   UNL     1     -10.180  13.992  64.424  1.00  0.00    -0.310 OA 
HETATM    2  C   UNL     1     -10.447  13.223  65.337  1.00  0.00    -0.297 C  
ENDROOT
BRANCH   2   3
HETATM    3  C   UNL     1     -11.117  11.883  65.150  1.00  0.00    -0.360 C  
BRANCH   3   4
HETATM    4  C   UNL     1     -10.297  10.945  64.263  1.00  0.00    -0.436 C  
BRANCH   4   5
HETATM    5  C   UNL     1      -9.868   9.673  65.003  1.00  0.00    -0.141 C  
BRANCH   5   6
HETATM    6  C   UNL     1      -8.433   9.308  64.716  1.00  0.00    -0.189 A  
HETATM    7  C   UNL     1      -7.444  10.302  64.679  1.00  0.00    -0.093 A  
HETATM    8  C   UNL     1      -5.765   8.642  64.167  1.00  0.00    -0.065 A  
HETATM    9  C   UNL     1      -6.117   9.969  64.408  1.00  0.00    -0.130 A  
HETATM   10  C   UNL     1      -8.069   7.979  64.469  1.00  0.00    -0.132 A  
HETATM   11  C   UNL     1      -6.741   7.648  64.198  1.00  0.00    -0.053 A  
ENDBRANCH   5   6
ENDBRANCH   4   5
ENDBRANCH   3   4
ENDBRANCH   2   3
BRANCH   2  12
HETATM   12  O   UNL     1     -10.191  13.447  66.655  1.00  0.00    -0.264 OA 
BRANCH  12  13
HETATM   13  C   UNL     1     -11.082  12.823  67.600  1.00  0.00    -0.258 C  
BRANCH  13  14
HETATM   14  C   UNL     1     -10.399  11.611  68.240  1.00  0.00    -0.200 C  
BRANCH  14  15
HETATM   15  O   UNL     1     -10.806  11.520  69.621  1.00  0.00    -0.139 OA 
BRANCH  15  16
HETATM   16  C   UNL     1     -11.779  10.612  69.898  1.00  0.00    -0.317 C  
HETATM   17  O   UNL     1     -12.953  10.704  69.574  1.00  0.00    -0.089 OA 
BRANCH  16  18
HETATM   18  C   UNL     1     -11.204   9.471  70.700  1.00  0.00    -0.364 C  
BRANCH  18  19
HETATM   19  C   UNL     1     -12.296   8.609  71.322  1.00  0.00    -0.298 C  
BRANCH  19  20
HETATM   20  C   UNL     1     -12.275   7.160  70.820  1.00  0.00    -0.308 C  
BRANCH  20  21
HETATM   21  C   UNL     1     -11.246   6.371  71.588  1.00  0.00    -0.327 A  
HETATM   22  C   UNL     1      -9.199   5.101  73.014  1.00  0.00    -0.129 A  
HETATM   23  C   UNL     1     -10.239   5.673  70.910  1.00  0.00    -0.286 A  
HETATM   24  C   UNL     1     -11.229   6.408  72.988  1.00  0.00    -0.176 A  
HETATM   25  C   UNL     1      -9.220   5.039  71.624  1.00  0.00    -0.178 A  
HETATM   26  C   UNL     1     -10.208   5.777  73.698  1.00  0.00    -0.232 A  
ENDBRANCH  20  21
ENDBRANCH  19  20
ENDBRANCH  18  19
ENDBRANCH  16  18
ENDBRANCH  15  16
ENDBRANCH  14  15
BRANCH  14  27
HETATM   27  C   UNL     1      -8.873  11.758  68.212  1.00  0.00    -0.172 C  
BRANCH  27  28
HETATM   28  O   UNL     1      -8.259  11.072  69.313  1.00  0.00    -0.099 OA 
BRANCH  28  29
HETATM   29  C   UNL     1      -6.945  10.760  69.130  1.00  0.00    -0.091 C  
HETATM   30  O   UNL     1      -6.011  11.312  69.691  1.00  0.00    -0.068 OA 
BRANCH  29  31
HETATM   31  C   UNL     1      -6.814   9.629  68.141  1.00  0.00    -0.069 C  
BRANCH  31  32
HETATM   32  C   UNL     1      -7.462   8.349  68.655  1.00  0.00    -0.093 C  
BRANCH  32  33
HETATM   33  C   UNL     1      -8.819   8.061  67.999  1.00  0.00    -0.128 C  
BRANCH  33  34
HETATM   34  C   UNL     1      -8.921   6.603  67.632  1.00  0.00    -0.111 A  
HETATM   35  C   UNL     1      -9.163   3.859  67.125  1.00  0.00    -0.197 A  
HETATM   36  C   UNL     1     -10.150   6.062  67.228  1.00  0.00    -0.205 A  
HETATM   37  C   UNL     1     -10.269   4.695  66.976  1.00  0.00    -0.174 A  
HETATM   38  C   UNL     1      -7.935   4.391  67.515  1.00  0.00    -0.096 A  
HETATM   39  C   UNL     1      -7.813   5.757  67.767  1.00  0.00    -0.098 A  
ENDBRANCH  33  34
ENDBRANCH  32  33
ENDBRANCH  31  32
ENDBRANCH  29  31
ENDBRANCH  28  29
ENDBRANCH  27  28
ENDBRANCH  14  27
ENDBRANCH  13  14
ENDBRANCH  12  13
ENDBRANCH   2  12
TORSDOF 20
ENDMDL
MODEL      309
REMARK 921   NORMALIZED FREE ENERGY PREDICTED BY IDOCK:   -3.50 KCAL/MOL
REMARK 922        TOTAL FREE ENERGY PREDICTED BY IDOCK:  -12.27 KCAL/MOL
REMARK 923 INTER-LIGAND FREE ENERGY PREDICTED BY IDOCK:   -9.15 KCAL/MOL
REMARK 924 INTRA-LIGAND FREE ENERGY PREDICTED BY IDOCK:   -3.12 KCAL/MOL
REMARK 927      BINDING AFFINITY PREDICTED BY RF-SCORE:    0.00 PKD
ROOT
HETATM    1  O   UNL     1     -11.500   7.762  70.763  1.00  0.00    -0.280 OA 
HETATM    2  C   UNL     1     -10.983   8.844  71.003  1.00  0.00    -0.276 C  
ENDROOT
BRANCH   2   3
HETATM    3  C   UNL     1      -9.912   9.061  72.044  1.00  0.00    -0.225 C  
BRANCH   3   4
HETATM    4  C   UNL     1      -8.966   7.864  72.160  1.00  0.00    -0.199 C  
BRANCH   4   5
HETATM    5  C   UNL     1      -8.889   7.322  73.592  1.00  0.00    -0.223 C  
BRANCH   5   6
HETATM    6  C   UNL     1      -9.508   5.952  73.713  1.00  0.00    -0.141 A  
HETATM    7  C   UNL     1     -10.770   5.696  73.158  1.00  0.00    -0.301 A  
HETATM    8  C   UNL     1     -10.676   3.414  73.948  1.00  0.00    -0.297 A  
HETATM    9  C   UNL     1     -11.349   4.431  73.274  1.00  0.00    -0.334 A  
HETATM   10  C   UNL     1      -8.842   4.924  74.392  1.00  0.00    -0.112 A  
HETATM   11  C   UNL     1      -9.423   3.661  74.507  1.00  0.00    -0.133 A  
ENDBRANCH   5   6
ENDBRANCH   4   5
ENDBRANCH   3   4
ENDBRANCH   2   3
BRANCH   2  12
HETATM   12  O   UNL     1     -11.286  10.016  70.380  1.00  0.00    -0.275 OA 
BRANCH  12  13
HETATM   13  C   UNL     1     -10.449  10.389  69.267  1.00  0.00    -0.234 C  
BRANCH  13  14
HETATM   14  C   UNL     1     -11.319  10.780  68.069  1.00  0.00    -0.307 C  
BRANCH  14  15
HETATM   15  O   UNL     1     -11.031   9.889  66.971  1.00  0.00    -0.177 OA 
BRANCH  15  16
HETATM   16  C   UNL     1      -9.731   9.518  66.827  1.00  0.00    -0.197 C  
HETATM   17  O   UNL     1      -8.775  10.277  66.779  1.00  0.00    -0.126 OA 
BRANCH  16  18
HETATM   18  C   UNL     1      -9.636   8.018  66.704  1.00  0.00    -0.297 C  
BRANCH  18  19
HETATM   19  C   UNL     1      -9.709   7.333  68.064  1.00  0.00    -0.157 C  
BRANCH  19  20
HETATM   20  C   UNL     1      -8.330   7.062  68.675  1.00  0.00    -0.122 C  
BRANCH  20  21
HETATM   21  C   UNL     1      -8.346   5.742  69.402  1.00  0.00    -0.112 A  
HETATM   22  C   UNL     1      -8.482   3.402  70.933  1.00  0.00    -0.099 A  
HETATM   23  C   UNL     1      -7.285   5.383  70.243  1.00  0.00    -0.066 A  
HETATM   24  C   UNL     1      -9.467   4.905  69.320  1.00  0.00    -0.206 A  
HETATM   25  C   UNL     1      -7.355   4.215  71.004  1.00  0.00    -0.044 A  
HETATM   26  C   UNL     1      -9.535   3.740  70.084  1.00  0.00    -0.259 A  
ENDBRANCH  20  21
ENDBRANCH  19  20
ENDBRANCH  18  19
ENDBRANCH  16  18
ENDBRANCH  15  16
ENDBRANCH  14  15
BRANCH  14  27
HETATM   27  C   UNL     1     -11.008  12.208  67.604  1.00  0.00    -0.243 C  
BRANCH  27  28
HETATM   28  O   UNL     1     -12.064  13.115  67.952  1.00  0.00    -0.321 OA 
BRANCH  28  29
HETATM   29  C   UNL     1     -12.107  14.254  67.205  1.00  0.00    -0.377 C  
HETATM   30  O   UNL     1     -12.414  14.304  66.023  1.00  0.00    -0.442 OA 
BRANCH  29  31
HETATM   31  C   UNL     1     -11.729  15.444  68.051  1.00  0.00    -0.235 C  
BRANCH  31  32
HETATM   32  C   UNL     1     -10.409  16.061  67.603  1.00  0.00    -0.284 C  
BRANCH  32  33
HETATM   33  C   UNL     1     -10.276  17.538  67.998  1.00  0.00    -0.354 C  
BRANCH  33  34
HETATM   34  C   UNL     1      -8.902  17.806  68.555  1.00  0.00    -0.284 A  
HETATM   35  C   UNL     1      -6.282  18.289  69.419  1.00  0.00    -0.261 A  
HETATM   36  C   UNL     1      -8.387  19.110  68.562  1.00  0.00    -0.399 A  
HETATM   37  C   UNL     1      -7.082  19.349  68.992  1.00  0.00    -0.397 A  
HETATM   38  C   UNL     1      -6.791  16.992  69.427  1.00  0.00    -0.179 A  
HETATM   39  C   UNL     1      -8.096  16.751  68.998  1.00  0.00    -0.179 A  
ENDBRANCH  33  34
ENDBRANCH  32  33
ENDBRANCH  31  32
ENDBRANCH  29  31
ENDBRANCH  28  29
ENDBRANCH  27  28
ENDBRANCH  14  27
ENDBRANCH  13  14
ENDBRANCH  12  13
ENDBRANCH   2  12
TORSDOF 20
ENDMDL
MODEL      310
REMARK 921   NORMALIZED FREE ENERGY PREDICTED BY IDOCK:   -3.49 KCAL/MOL
REMARK 922        TOTAL FREE ENERGY PREDICTED BY IDOCK:  -12.26 KCAL/MOL
REMARK 923 INTER-LIGAND FREE ENERGY PREDICTED BY IDOCK:   -8.91 KCAL/MOL
REMARK 924 INTRA-LIGAND FREE ENERGY PREDICTED BY IDOCK:   -3.35 KCAL/MOL
REMARK 927      BINDING AFFINITY PREDICTED BY RF-SCORE:    0.00 PKD
ROOT
HETATM    1  O   UNL     1     -13.305   7.524  70.756  1.00  0.00    -0.001 OA 
HETATM    2  C   UNL     1     -12.669   8.391  71.339  1.00  0.00    -0.262 C  
ENDROOT
BRANCH   2   3
HETATM    3  C   UNL     1     -11.729   8.126  72.490  1.00  0.00    -0.457 C  
BRANCH   3   4
HETATM    4  C   UNL     1     -11.149   6.711  72.449  1.00  0.00    -0.294 C  
BRANCH   4   5
HETATM    5  C   UNL     1      -9.856   6.637  71.630  1.00  0.00    -0.177 C  
BRANCH   5   6
HETATM    6  C   UNL     1      -8.850   5.697  72.244  1.00  0.00    -0.132 A  
HETATM    7  C   UNL     1      -7.522   6.108  72.431  1.00  0.00    -0.094 A  
HETATM    8  C   UNL     1      -6.966   3.951  73.370  1.00  0.00    -0.054 A  
HETATM    9  C   UNL     1      -6.586   5.238  72.994  1.00  0.00    -0.067 A  
HETATM   10  C   UNL     1      -9.220   4.400  72.622  1.00  0.00    -0.146 A  
HETATM   11  C   UNL     1      -8.283   3.533  73.183  1.00  0.00    -0.075 A  
ENDBRANCH   5   6
ENDBRANCH   4   5
ENDBRANCH   3   4
ENDBRANCH   2   3
BRANCH   2  12
HETATM   12  O   UNL     1     -12.704   9.722  71.049  1.00  0.00    -0.322 OA 
BRANCH  12  13
HETATM   13  C   UNL     1     -11.559  10.261  70.361  1.00  0.00    -0.328 C  
BRANCH  13  14
HETATM   14  C   UNL     1     -12.019  11.172  69.219  1.00  0.00    -0.351 C  
BRANCH  14  15
HETATM   15  O   UNL     1     -11.500  10.659  67.974  1.00  0.00    -0.396 OA 
BRANCH  15  16
HETATM   16  C   UNL     1     -10.407   9.855  68.068  1.00  0.00    -0.203 C  
HETATM   17  O   UNL     1      -9.353  10.147  68.611  1.00  0.00    -0.149 OA 
BRANCH  16  18
HETATM   18  C   UNL     1     -10.673   8.544  67.372  1.00  0.00    -0.215 C  
BRANCH  18  19
HETATM   19  C   UNL     1     -10.196   7.356  68.200  1.00  0.00    -0.223 C  
BRANCH  19  20
HETATM   20  C   UNL     1      -8.859   6.785  67.715  1.00  0.00    -0.118 C  
BRANCH  20  21
HETATM   21  C   UNL     1      -8.573   5.486  68.426  1.00  0.00    -0.099 A  
HETATM   22  C   UNL     1      -7.972   2.988  69.537  1.00  0.00    -0.058 A  
HETATM   23  C   UNL     1      -9.557   4.492  68.507  1.00  0.00    -0.212 A  
HETATM   24  C   UNL     1      -7.292   5.223  68.928  1.00  0.00    -0.070 A  
HETATM   25  C   UNL     1      -9.255   3.248  69.063  1.00  0.00    -0.224 A  
HETATM   26  C   UNL     1      -6.992   3.978  69.479  1.00  0.00    -0.045 A  
ENDBRANCH  20  21
ENDBRANCH  19  20
ENDBRANCH  18  19
ENDBRANCH  16  18
ENDBRANCH  15  16
ENDBRANCH  14  15
BRANCH  14  27
HETATM   27  C   UNL     1     -11.480  12.596  69.397  1.00  0.00    -0.266 C  
BRANCH  27  28
HETATM   28  O   UNL     1     -12.395  13.572  68.877  1.00  0.00    -0.248 OA 
BRANCH  28  29
HETATM   29  C   UNL     1     -11.906  14.322  67.849  1.00  0.00    -0.358 C  
HETATM   30  O   UNL     1     -12.263  14.228  66.684  1.00  0.00    -0.449 OA 
BRANCH  29  31
HETATM   31  C   UNL     1     -10.868  15.288  68.360  1.00  0.00    -0.257 C  
BRANCH  31  32
HETATM   32  C   UNL     1     -10.406  16.251  67.272  1.00  0.00    -0.285 C  
BRANCH  32  33
HETATM   33  C   UNL     1     -10.666  17.721  67.627  1.00  0.00    -0.330 C  
BRANCH  33  34
HETATM   34  C   UNL     1      -9.369  18.488  67.652  1.00  0.00    -0.295 A  
HETATM   35  C   UNL     1      -6.993  19.955  67.875  1.00  0.00    -0.308 A  
HETATM   36  C   UNL     1      -8.192  17.868  68.091  1.00  0.00    -0.269 A  
HETATM   37  C   UNL     1      -7.009  18.599  68.201  1.00  0.00    -0.257 A  
HETATM   38  C   UNL     1      -8.157  20.576  67.426  1.00  0.00    -0.345 A  
HETATM   39  C   UNL     1      -9.340  19.847  67.314  1.00  0.00    -0.470 A  
ENDBRANCH  33  34
ENDBRANCH  32  33
ENDBRANCH  31  32
ENDBRANCH  29  31
ENDBRANCH  28  29
ENDBRANCH  27  28
ENDBRANCH  14  27
ENDBRANCH  13  14
ENDBRANCH  12  13
ENDBRANCH   2  12
TORSDOF 20
ENDMDL
MODEL      311
REMARK 921   NORMALIZED FREE ENERGY PREDICTED BY IDOCK:   -3.49 KCAL/MOL
REMARK 922        TOTAL FREE ENERGY PREDICTED BY IDOCK:  -12.25 KCAL/MOL
REMARK 923 INTER-LIGAND FREE ENERGY PREDICTED BY IDOCK:   -8.51 KCAL/MOL
REMARK 924 INTRA-LIGAND FREE ENERGY PREDICTED BY IDOCK:   -3.74 KCAL/MOL
REMARK 927      BINDING AFFINITY PREDICTED BY RF-SCORE:    0.00 PKD
ROOT
HETATM    1  O   UNL     1     -10.797  11.187  63.934  1.00  0.00    -0.380 OA 
HETATM    2  C   UNL     1     -11.172  11.977  64.789  1.00  0.00    -0.318 C  
ENDROOT
BRANCH   2   3
HETATM    3  C   UNL     1     -11.625  13.388  64.502  1.00  0.00    -0.405 C  
BRANCH   3   4
HETATM    4  C   UNL     1     -10.709  14.431  65.144  1.00  0.00    -0.413 C  
BRANCH   4   5
HETATM    5  C   UNL     1     -11.184  14.840  66.542  1.00  0.00    -0.342 C  
BRANCH   5   6
HETATM    6  C   UNL     1     -10.848  16.276  66.857  1.00  0.00    -0.151 A  
HETATM    7  C   UNL     1     -10.772  16.709  68.189  1.00  0.00    -0.349 A  
HETATM    8  C   UNL     1     -10.240  18.948  67.453  1.00  0.00    -0.456 A  
HETATM    9  C   UNL     1     -10.467  18.038  68.484  1.00  0.00    -0.291 A  
HETATM   10  C   UNL     1     -10.622  17.200  65.829  1.00  0.00    -0.201 A  
HETATM   11  C   UNL     1     -10.318  18.528  66.126  1.00  0.00    -0.457 A  
ENDBRANCH   5   6
ENDBRANCH   4   5
ENDBRANCH   3   4
ENDBRANCH   2   3
BRANCH   2  12
HETATM   12  O   UNL     1     -11.240  11.717  66.124  1.00  0.00    -0.320 OA 
BRANCH  12  13
HETATM   13  C   UNL     1     -10.263  10.799  66.652  1.00  0.00    -0.233 C  
BRANCH  13  14
HETATM   14  C   UNL     1      -8.936  11.527  66.885  1.00  0.00    -0.179 C  
BRANCH  14  15
HETATM   15  O   UNL     1      -7.928  10.559  67.245  1.00  0.00    -0.112 OA 
BRANCH  15  16
HETATM   16  C   UNL     1      -8.311   9.598  68.128  1.00  0.00    -0.117 C  
HETATM   17  O   UNL     1      -8.772   9.797  69.242  1.00  0.00    -0.140 OA 
BRANCH  16  18
HETATM   18  C   UNL     1      -8.056   8.232  67.543  1.00  0.00    -0.122 C  
BRANCH  18  19
HETATM   19  C   UNL     1      -6.639   8.106  66.994  1.00  0.00    -0.058 C  
BRANCH  19  20
HETATM   20  C   UNL     1      -6.580   7.380  65.645  1.00  0.00    -0.045 C  
BRANCH  20  21
HETATM   21  C   UNL     1      -6.667   8.384  64.524  1.00  0.00    -0.069 A  
HETATM   22  C   UNL     1      -6.926  10.398  62.597  1.00  0.00    -0.130 A  
HETATM   23  C   UNL     1      -7.817   8.458  63.728  1.00  0.00    -0.151 A  
HETATM   24  C   UNL     1      -5.639   9.315  64.329  1.00  0.00    -0.068 A  
HETATM   25  C   UNL     1      -7.943   9.463  62.767  1.00  0.00    -0.130 A  
HETATM   26  C   UNL     1      -5.769  10.319  63.370  1.00  0.00    -0.145 A  
ENDBRANCH  20  21
ENDBRANCH  19  20
ENDBRANCH  18  19
ENDBRANCH  16  18
ENDBRANCH  15  16
ENDBRANCH  14  15
BRANCH  14  27
HETATM   27  C   UNL     1      -9.050  12.531  68.038  1.00  0.00    -0.200 C  
BRANCH  27  28
HETATM   28  O   UNL     1      -8.349  13.748  67.746  1.00  0.00    -0.153 OA 
BRANCH  28  29
HETATM   29  C   UNL     1      -7.121  13.852  68.327  1.00  0.00    -0.108 C  
HETATM   30  O   UNL     1      -6.704  13.124  69.216  1.00  0.00    -0.106 OA 
BRANCH  29  31
HETATM   31  C   UNL     1      -6.349  14.990  67.708  1.00  0.00    -0.176 C  
BRANCH  31  32
HETATM   32  C   UNL     1      -7.274  16.045  67.113  1.00  0.00    -0.257 C  
BRANCH  32  33
HETATM   33  C   UNL     1      -6.526  17.092  66.278  1.00  0.00    -0.166 C  
BRANCH  33  34
HETATM   34  C   UNL     1      -6.621  18.446  66.933  1.00  0.00    -0.206 A  
HETATM   35  C   UNL     1      -6.614  20.970  68.147  1.00  0.00    -0.190 A  
HETATM   36  C   UNL     1      -6.626  19.609  66.151  1.00  0.00    -0.223 A  
HETATM   37  C   UNL     1      -6.623  20.866  66.757  1.00  0.00    -0.367 A  
HETATM   38  C   UNL     1      -6.621  19.818  68.932  1.00  0.00    -0.352 A  
HETATM   39  C   UNL     1      -6.626  18.561  68.329  1.00  0.00    -0.225 A  
ENDBRANCH  33  34
ENDBRANCH  32  33
ENDBRANCH  31  32
ENDBRANCH  29  31
ENDBRANCH  28  29
ENDBRANCH  27  28
ENDBRANCH  14  27
ENDBRANCH  13  14
ENDBRANCH  12  13
ENDBRANCH   2  12
TORSDOF 20
ENDMDL
MODEL      312
REMARK 921   NORMALIZED FREE ENERGY PREDICTED BY IDOCK:   -3.47 KCAL/MOL
REMARK 922        TOTAL FREE ENERGY PREDICTED BY IDOCK:  -12.21 KCAL/MOL
REMARK 923 INTER-LIGAND FREE ENERGY PREDICTED BY IDOCK:   -6.76 KCAL/MOL
REMARK 924 INTRA-LIGAND FREE ENERGY PREDICTED BY IDOCK:   -5.45 KCAL/MOL
REMARK 927      BINDING AFFINITY PREDICTED BY RF-SCORE:    0.00 PKD
ROOT
HETATM    1  O   UNL     1     -11.046  14.553  64.077  1.00  0.00     0.063 OA 
HETATM    2  C   UNL     1     -11.016  13.723  64.975  1.00  0.00    -0.357 C  
ENDROOT
BRANCH   2   3
HETATM    3  C   UNL     1     -11.441  12.283  64.815  1.00  0.00    -0.382 C  
BRANCH   3   4
HETATM    4  C   UNL     1     -10.541  11.519  63.843  1.00  0.00    -0.448 C  
BRANCH   4   5
HETATM    5  C   UNL     1      -9.977  10.235  64.460  1.00  0.00    -0.359 C  
BRANCH   5   6
HETATM    6  C   UNL     1      -8.672   9.827  63.825  1.00  0.00    -0.239 A  
HETATM    7  C   UNL     1      -8.619   8.720  62.965  1.00  0.00    -0.095 A  
HETATM    8  C   UNL     1      -6.245   9.050  62.654  1.00  0.00    -0.094 A  
HETATM    9  C   UNL     1      -7.411   8.337  62.381  1.00  0.00    -0.101 A  
HETATM   10  C   UNL     1      -7.493  10.534  64.096  1.00  0.00     0.102 A  
HETATM   11  C   UNL     1      -6.287  10.148  63.511  1.00  0.00    -0.138 A  
ENDBRANCH   5   6
ENDBRANCH   4   5
ENDBRANCH   3   4
ENDBRANCH   2   3
BRANCH   2  12
HETATM   12  O   UNL     1     -10.602  13.959  66.251  1.00  0.00    -0.283 OA 
BRANCH  12  13
HETATM   13  C   UNL     1     -11.141  13.097  67.272  1.00  0.00    -0.279 C  
BRANCH  13  14
HETATM   14  C   UNL     1     -10.029  12.219  67.855  1.00  0.00    -0.202 C  
BRANCH  14  15
HETATM   15  O   UNL     1     -10.454  11.716  69.138  1.00  0.00    -0.172 OA 
BRANCH  15  16
HETATM   16  C   UNL     1     -11.422  10.762  69.115  1.00  0.00    -0.298 C  
HETATM   17  O   UNL     1     -12.578  10.927  68.756  1.00  0.00    -0.317 OA 
BRANCH  16  18
HETATM   18  C   UNL     1     -10.869   9.457  69.630  1.00  0.00    -0.245 C  
BRANCH  18  19
HETATM   19  C   UNL     1      -9.613   9.666  70.469  1.00  0.00    -0.261 C  
BRANCH  19  20
HETATM   20  C   UNL     1      -9.516   8.698  71.654  1.00  0.00    -0.339 C  
BRANCH  20  21
HETATM   21  C   UNL     1      -9.493   7.278  71.149  1.00  0.00    -0.156 A  
HETATM   22  C   UNL     1      -9.590   4.713  70.034  1.00  0.00    -0.259 A  
HETATM   23  C   UNL     1     -10.475   6.366  71.556  1.00  0.00    -0.256 A  
HETATM   24  C   UNL     1      -8.547   6.884  70.194  1.00  0.00    -0.141 A  
HETATM   25  C   UNL     1     -10.521   5.087  70.999  1.00  0.00    -0.211 A  
HETATM   26  C   UNL     1      -8.597   5.606  69.638  1.00  0.00    -0.110 A  
ENDBRANCH  20  21
ENDBRANCH  19  20
ENDBRANCH  18  19
ENDBRANCH  16  18
ENDBRANCH  15  16
ENDBRANCH  14  15
BRANCH  14  27
HETATM   27  C   UNL     1      -8.745  13.028  68.073  1.00  0.00    -0.187 C  
BRANCH  27  28
HETATM   28  O   UNL     1      -7.809  12.315  68.895  1.00  0.00    -0.043 OA 
BRANCH  28  29
HETATM   29  C   UNL     1      -6.511  12.402  68.488  1.00  0.00    -0.068 C  
HETATM   30  O   UNL     1      -5.672  13.142  68.981  1.00  0.00    -0.072 OA 
BRANCH  29  31
HETATM   31  C   UNL     1      -6.259  11.446  67.350  1.00  0.00    -0.078 C  
BRANCH  31  32
HETATM   32  C   UNL     1      -6.367   9.992  67.796  1.00  0.00    -0.058 C  
BRANCH  32  33
HETATM   33  C   UNL     1      -7.766   9.402  67.574  1.00  0.00    -0.091 C  
BRANCH  33  34
HETATM   34  C   UNL     1      -7.673   8.128  66.773  1.00  0.00    -0.095 A  
HETATM   35  C   UNL     1      -7.481   5.669  65.446  1.00  0.00    -0.074 A  
HETATM   36  C   UNL     1      -8.820   7.357  66.541  1.00  0.00    -0.165 A  
HETATM   37  C   UNL     1      -8.723   6.133  65.879  1.00  0.00    -0.158 A  
HETATM   38  C   UNL     1      -6.338   6.436  65.663  1.00  0.00    -0.038 A  
HETATM   39  C   UNL     1      -6.432   7.661  66.323  1.00  0.00    -0.049 A  
ENDBRANCH  33  34
ENDBRANCH  32  33
ENDBRANCH  31  32
ENDBRANCH  29  31
ENDBRANCH  28  29
ENDBRANCH  27  28
ENDBRANCH  14  27
ENDBRANCH  13  14
ENDBRANCH  12  13
ENDBRANCH   2  12
TORSDOF 20
ENDMDL
MODEL      313
REMARK 921   NORMALIZED FREE ENERGY PREDICTED BY IDOCK:   -3.46 KCAL/MOL
REMARK 922        TOTAL FREE ENERGY PREDICTED BY IDOCK:  -12.19 KCAL/MOL
REMARK 923 INTER-LIGAND FREE ENERGY PREDICTED BY IDOCK:   -8.34 KCAL/MOL
REMARK 924 INTRA-LIGAND FREE ENERGY PREDICTED BY IDOCK:   -3.85 KCAL/MOL
REMARK 927      BINDING AFFINITY PREDICTED BY RF-SCORE:    0.00 PKD
ROOT
HETATM    1  O   UNL     1      -8.105  13.548  68.306  1.00  0.00    -0.143 OA 
HETATM    2  C   UNL     1      -9.194  13.190  67.881  1.00  0.00    -0.207 C  
ENDROOT
BRANCH   2   3
HETATM    3  C   UNL     1     -10.332  14.130  67.563  1.00  0.00    -0.248 C  
BRANCH   3   4
HETATM    4  C   UNL     1     -10.518  15.199  68.642  1.00  0.00    -0.234 C  
BRANCH   4   5
HETATM    5  C   UNL     1     -11.262  16.432  68.116  1.00  0.00    -0.273 C  
BRANCH   5   6
HETATM    6  C   UNL     1     -10.351  17.625  67.972  1.00  0.00    -0.375 A  
HETATM    7  C   UNL     1     -10.813  18.797  67.358  1.00  0.00    -0.414 A  
HETATM    8  C   UNL     1      -8.659  19.842  67.684  1.00  0.00    -0.376 A  
HETATM    9  C   UNL     1      -9.971  19.901  67.218  1.00  0.00    -0.556 A  
HETATM   10  C   UNL     1      -9.030  17.575  68.434  1.00  0.00    -0.276 A  
HETATM   11  C   UNL     1      -8.189  18.679  68.292  1.00  0.00    -0.349 A  
ENDBRANCH   5   6
ENDBRANCH   4   5
ENDBRANCH   3   4
ENDBRANCH   2   3
BRANCH   2  12
HETATM   12  O   UNL     1      -9.556  11.902  67.629  1.00  0.00    -0.179 OA 
BRANCH  12  13
HETATM   13  C   UNL     1     -10.588  11.348  68.468  1.00  0.00    -0.198 C  
BRANCH  13  14
HETATM   14  C   UNL     1     -10.118  10.018  69.064  1.00  0.00    -0.200 C  
BRANCH  14  15
HETATM   15  O   UNL     1     -10.523   9.955  70.447  1.00  0.00    -0.274 OA 
BRANCH  15  16
HETATM   16  C   UNL     1     -11.563   9.126  70.728  1.00  0.00    -0.276 C  
HETATM   17  O   UNL     1     -12.693   9.478  71.030  1.00  0.00    -0.303 OA 
BRANCH  16  18
HETATM   18  C   UNL     1     -11.112   7.690  70.643  1.00  0.00    -0.269 C  
BRANCH  18  19
HETATM   19  C   UNL     1     -11.580   6.877  71.845  1.00  0.00    -0.321 C  
BRANCH  19  20
HETATM   20  C   UNL     1     -11.205   7.519  73.186  1.00  0.00    -0.318 C  
BRANCH  20  21
HETATM   21  C   UNL     1      -9.943   6.888  73.715  1.00  0.00    -0.345 A  
HETATM   22  C   UNL     1      -7.519   5.709  74.475  1.00  0.00    -0.087 A  
HETATM   23  C   UNL     1      -9.828   5.494  73.797  1.00  0.00    -0.174 A  
HETATM   24  C   UNL     1      -8.837   7.685  74.039  1.00  0.00    -0.305 A  
HETATM   25  C   UNL     1      -8.619   4.909  74.177  1.00  0.00    -0.111 A  
HETATM   26  C   UNL     1      -7.630   7.097  74.416  1.00  0.00    -0.139 A  
ENDBRANCH  20  21
ENDBRANCH  19  20
ENDBRANCH  18  19
ENDBRANCH  16  18
ENDBRANCH  15  16
ENDBRANCH  14  15
BRANCH  14  27
HETATM   27  C   UNL     1      -8.590   9.901  69.019  1.00  0.00    -0.149 C  
BRANCH  27  28
HETATM   28  O   UNL     1      -8.173   8.550  68.777  1.00  0.00    -0.118 OA 
BRANCH  28  29
HETATM   29  C   UNL     1      -7.021   8.187  69.409  1.00  0.00    -0.051 C  
HETATM   30  O   UNL     1      -5.895   8.375  68.973  1.00  0.00    -0.038 OA 
BRANCH  29  31
HETATM   31  C   UNL     1      -7.339   7.528  70.728  1.00  0.00    -0.068 C  
BRANCH  31  32
HETATM   32  C   UNL     1      -7.005   6.040  70.712  1.00  0.00    -0.067 C  
BRANCH  32  33
HETATM   33  C   UNL     1      -8.250   5.151  70.588  1.00  0.00    -0.107 C  
BRANCH  33  34
HETATM   34  C   UNL     1      -8.595   4.937  69.137  1.00  0.00    -0.091 A  
HETATM   35  C   UNL     1      -9.213   4.721  66.414  1.00  0.00    -0.135 A  
HETATM   36  C   UNL     1      -7.579   4.731  68.194  1.00  0.00    -0.081 A  
HETATM   37  C   UNL     1      -7.888   4.623  66.838  1.00  0.00    -0.099 A  
HETATM   38  C   UNL     1     -10.230   4.914  67.347  1.00  0.00    -0.173 A  
HETATM   39  C   UNL     1      -9.924   5.021  68.703  1.00  0.00    -0.215 A  
ENDBRANCH  33  34
ENDBRANCH  32  33
ENDBRANCH  31  32
ENDBRANCH  29  31
ENDBRANCH  28  29
ENDBRANCH  27  28
ENDBRANCH  14  27
ENDBRANCH  13  14
ENDBRANCH  12  13
ENDBRANCH   2  12
TORSDOF 20
ENDMDL
MODEL      314
REMARK 921   NORMALIZED FREE ENERGY PREDICTED BY IDOCK:   -3.46 KCAL/MOL
REMARK 922        TOTAL FREE ENERGY PREDICTED BY IDOCK:  -12.18 KCAL/MOL
REMARK 923 INTER-LIGAND FREE ENERGY PREDICTED BY IDOCK:   -9.14 KCAL/MOL
REMARK 924 INTRA-LIGAND FREE ENERGY PREDICTED BY IDOCK:   -3.04 KCAL/MOL
REMARK 927      BINDING AFFINITY PREDICTED BY RF-SCORE:    0.00 PKD
ROOT
HETATM    1  O   UNL     1      -9.519  11.670  68.412  1.00  0.00    -0.189 OA 
HETATM    2  C   UNL     1     -10.679  11.292  68.320  1.00  0.00    -0.194 C  
ENDROOT
BRANCH   2   3
HETATM    3  C   UNL     1     -11.128  10.129  67.468  1.00  0.00    -0.251 C  
BRANCH   3   4
HETATM    4  C   UNL     1      -9.965   9.218  67.073  1.00  0.00    -0.286 C  
BRANCH   4   5
HETATM    5  C   UNL     1     -10.263   7.741  67.353  1.00  0.00    -0.320 C  
BRANCH   5   6
HETATM    6  C   UNL     1      -9.306   7.150  68.357  1.00  0.00    -0.135 A  
HETATM    7  C   UNL     1      -9.341   5.778  68.645  1.00  0.00    -0.136 A  
HETATM    8  C   UNL     1      -7.543   6.046  70.237  1.00  0.00    -0.095 A  
HETATM    9  C   UNL     1      -8.461   5.230  69.579  1.00  0.00    -0.094 A  
HETATM   10  C   UNL     1      -8.382   7.962  69.027  1.00  0.00    -0.130 A  
HETATM   11  C   UNL     1      -7.504   7.411  69.961  1.00  0.00    -0.084 A  
ENDBRANCH   5   6
ENDBRANCH   4   5
ENDBRANCH   3   4
ENDBRANCH   2   3
BRANCH   2  12
HETATM   12  O   UNL     1     -11.742  11.852  68.961  1.00  0.00    -0.284 OA 
BRANCH  12  13
HETATM   13  C   UNL     1     -12.579  10.958  69.720  1.00  0.00    -0.083 C  
BRANCH  13  14
HETATM   14  C   UNL     1     -12.479  11.291  71.212  1.00  0.00    -0.336 C  
BRANCH  14  15
HETATM   15  O   UNL     1     -13.197  10.291  71.964  1.00  0.00    -0.450 OA 
BRANCH  15  16
HETATM   16  C   UNL     1     -12.837   9.000  71.736  1.00  0.00    -0.374 C  
HETATM   17  O   UNL     1     -13.571   8.118  71.316  1.00  0.00    -0.243 OA 
BRANCH  16  18
HETATM   18  C   UNL     1     -11.390   8.798  72.109  1.00  0.00    -0.411 C  
BRANCH  18  19
HETATM   19  C   UNL     1     -11.040   7.319  72.241  1.00  0.00    -0.298 C  
BRANCH  19  20
HETATM   20  C   UNL     1     -10.553   6.941  73.644  1.00  0.00    -0.371 C  
BRANCH  20  21
HETATM   21  C   UNL     1      -9.048   6.849  73.652  1.00  0.00    -0.182 A  
HETATM   22  C   UNL     1      -6.268   6.638  73.900  1.00  0.00    -0.064 A  
HETATM   23  C   UNL     1      -8.270   7.989  73.892  1.00  0.00    -0.306 A  
HETATM   24  C   UNL     1      -8.416   5.606  73.516  1.00  0.00    -0.115 A  
HETATM   25  C   UNL     1      -6.884   7.881  74.014  1.00  0.00    -0.131 A  
HETATM   26  C   UNL     1      -7.031   5.501  73.641  1.00  0.00    -0.085 A  
ENDBRANCH  20  21
ENDBRANCH  19  20
ENDBRANCH  18  19
ENDBRANCH  16  18
ENDBRANCH  15  16
ENDBRANCH  14  15
BRANCH  14  27
HETATM   27  C   UNL     1     -13.116  12.652  71.519  1.00  0.00    -0.278 C  
BRANCH  27  28
HETATM   28  O   UNL     1     -12.166  13.718  71.385  1.00  0.00    -0.305 OA 
BRANCH  28  29
HETATM   29  C   UNL     1     -12.588  14.766  70.622  1.00  0.00    -0.354 C  
HETATM   30  O   UNL     1     -13.331  15.657  71.008  1.00  0.00    -0.545 OA 
BRANCH  29  31
HETATM   31  C   UNL     1     -12.000  14.670  69.237  1.00  0.00    -0.337 C  
BRANCH  31  32
HETATM   32  C   UNL     1     -11.900  16.036  68.568  1.00  0.00    -0.126 C  
BRANCH  32  33
HETATM   33  C   UNL     1     -10.654  16.822  68.999  1.00  0.00    -0.343 C  
BRANCH  33  34
HETATM   34  C   UNL     1      -9.406  16.080  68.595  1.00  0.00    -0.214 A  
HETATM   35  C   UNL     1      -6.994  14.862  67.859  1.00  0.00    -0.170 A  
HETATM   36  C   UNL     1      -8.538  15.576  69.574  1.00  0.00    -0.218 A  
HETATM   37  C   UNL     1      -7.337  14.969  69.206  1.00  0.00    -0.184 A  
HETATM   38  C   UNL     1      -7.857  15.349  66.879  1.00  0.00    -0.196 A  
HETATM   39  C   UNL     1      -9.058  15.955  67.245  1.00  0.00    -0.218 A  
ENDBRANCH  33  34
ENDBRANCH  32  33
ENDBRANCH  31  32
ENDBRANCH  29  31
ENDBRANCH  28  29
ENDBRANCH  27  28
ENDBRANCH  14  27
ENDBRANCH  13  14
ENDBRANCH  12  13
ENDBRANCH   2  12
TORSDOF 20
ENDMDL
MODEL      315
REMARK 921   NORMALIZED FREE ENERGY PREDICTED BY IDOCK:   -3.45 KCAL/MOL
REMARK 922        TOTAL FREE ENERGY PREDICTED BY IDOCK:  -12.17 KCAL/MOL
REMARK 923 INTER-LIGAND FREE ENERGY PREDICTED BY IDOCK:   -9.04 KCAL/MOL
REMARK 924 INTRA-LIGAND FREE ENERGY PREDICTED BY IDOCK:   -3.13 KCAL/MOL
REMARK 927      BINDING AFFINITY PREDICTED BY RF-SCORE:    0.00 PKD
ROOT
HETATM    1  O   UNL     1     -10.255   5.320  67.902  1.00  0.00    -0.172 OA 
HETATM    2  C   UNL     1      -9.212   5.811  67.494  1.00  0.00    -0.108 C  
ENDROOT
BRANCH   2   3
HETATM    3  C   UNL     1      -7.888   5.087  67.462  1.00  0.00    -0.095 C  
BRANCH   3   4
HETATM    4  C   UNL     1      -7.104   5.257  68.765  1.00  0.00    -0.061 C  
BRANCH   4   5
HETATM    5  C   UNL     1      -7.475   4.197  69.808  1.00  0.00    -0.049 C  
BRANCH   5   6
HETATM    6  C   UNL     1      -7.207   4.670  71.215  1.00  0.00    -0.052 A  
HETATM    7  C   UNL     1      -7.564   3.870  72.310  1.00  0.00    -0.070 A  
HETATM    8  C   UNL     1      -6.728   5.548  73.835  1.00  0.00    -0.079 A  
HETATM    9  C   UNL     1      -7.323   4.308  73.613  1.00  0.00    -0.076 A  
HETATM   10  C   UNL     1      -6.613   5.916  71.449  1.00  0.00    -0.050 A  
HETATM   11  C   UNL     1      -6.373   6.352  72.752  1.00  0.00    -0.059 A  
ENDBRANCH   5   6
ENDBRANCH   4   5
ENDBRANCH   3   4
ENDBRANCH   2   3
BRANCH   2  12
HETATM   12  O   UNL     1      -9.075   7.076  67.009  1.00  0.00    -0.129 OA 
BRANCH  12  13
HETATM   13  C   UNL     1     -10.012   8.057  67.495  1.00  0.00    -0.194 C  
BRANCH  13  14
HETATM   14  C   UNL     1      -9.536   9.463  67.119  1.00  0.00    -0.154 C  
BRANCH  14  15
HETATM   15  O   UNL     1     -10.623  10.392  67.314  1.00  0.00    -0.235 OA 
BRANCH  15  16
HETATM   16  C   UNL     1     -10.406  11.385  68.217  1.00  0.00    -0.194 C  
HETATM   17  O   UNL     1      -9.357  11.994  68.368  1.00  0.00    -0.200 OA 
BRANCH  16  18
HETATM   18  C   UNL     1     -11.649  11.613  69.039  1.00  0.00    -0.379 C  
BRANCH  18  19
HETATM   19  C   UNL     1     -11.958  10.423  69.942  1.00  0.00    -0.289 C  
BRANCH  19  20
HETATM   20  C   UNL     1     -10.709   9.843  70.616  1.00  0.00    -0.372 C  
BRANCH  20  21
HETATM   21  C   UNL     1     -11.021   8.478  71.174  1.00  0.00    -0.306 A  
HETATM   22  C   UNL     1     -11.647   5.873  71.986  1.00  0.00    -0.289 A  
HETATM   23  C   UNL     1     -12.330   8.148  71.548  1.00  0.00    -0.335 A  
HETATM   24  C   UNL     1     -10.025   7.494  71.231  1.00  0.00    -0.196 A  
HETATM   25  C   UNL     1     -12.639   6.849  71.954  1.00  0.00    -0.336 A  
HETATM   26  C   UNL     1     -10.338   6.196  71.635  1.00  0.00    -0.259 A  
ENDBRANCH  20  21
ENDBRANCH  19  20
ENDBRANCH  18  19
ENDBRANCH  16  18
ENDBRANCH  15  16
ENDBRANCH  14  15
BRANCH  14  27
HETATM   27  C   UNL     1      -9.124   9.532  65.644  1.00  0.00    -0.201 C  
BRANCH  27  28
HETATM   28  O   UNL     1     -10.226   9.910  64.808  1.00  0.00    -0.134 OA 
BRANCH  28  29
HETATM   29  C   UNL     1      -9.994  10.992  64.013  1.00  0.00    -0.335 C  
HETATM   30  O   UNL     1      -9.377  10.966  62.958  1.00  0.00    -0.266 OA 
BRANCH  29  31
HETATM   31  C   UNL     1     -10.616  12.224  64.620  1.00  0.00    -0.338 C  
BRANCH  31  32
HETATM   32  C   UNL     1     -11.861  12.665  63.858  1.00  0.00    -0.544 C  
BRANCH  32  33
HETATM   33  C   UNL     1     -12.174  14.156  64.038  1.00  0.00    -0.369 C  
BRANCH  33  34
HETATM   34  C   UNL     1     -11.474  14.692  65.260  1.00  0.00    -0.361 A  
HETATM   35  C   UNL     1     -10.293  15.829  67.531  1.00  0.00    -0.280 A  
HETATM   36  C   UNL     1     -11.955  14.381  66.540  1.00  0.00    -0.406 A  
HETATM   37  C   UNL     1     -11.365  14.948  67.670  1.00  0.00    -0.348 A  
HETATM   38  C   UNL     1      -9.802  16.133  66.263  1.00  0.00    -0.329 A  
HETATM   39  C   UNL     1     -10.389  15.567  65.132  1.00  0.00    -0.388 A  
ENDBRANCH  33  34
ENDBRANCH  32  33
ENDBRANCH  31  32
ENDBRANCH  29  31
ENDBRANCH  28  29
ENDBRANCH  27  28
ENDBRANCH  14  27
ENDBRANCH  13  14
ENDBRANCH  12  13
ENDBRANCH   2  12
TORSDOF 20
ENDMDL
MODEL      316
REMARK 921   NORMALIZED FREE ENERGY PREDICTED BY IDOCK:   -3.45 KCAL/MOL
REMARK 922        TOTAL FREE ENERGY PREDICTED BY IDOCK:  -12.16 KCAL/MOL
REMARK 923 INTER-LIGAND FREE ENERGY PREDICTED BY IDOCK:   -9.54 KCAL/MOL
REMARK 924 INTRA-LIGAND FREE ENERGY PREDICTED BY IDOCK:   -2.62 KCAL/MOL
REMARK 927      BINDING AFFINITY PREDICTED BY RF-SCORE:    0.00 PKD
ROOT
HETATM    1  O   UNL     1      -5.672  10.682  69.294  1.00  0.00    -0.041 OA 
HETATM    2  C   UNL     1      -6.672  11.208  68.825  1.00  0.00    -0.067 C  
ENDROOT
BRANCH   2   3
HETATM    3  C   UNL     1      -6.645  12.325  67.810  1.00  0.00    -0.108 C  
BRANCH   3   4
HETATM    4  C   UNL     1      -6.954  13.686  68.438  1.00  0.00    -0.104 C  
BRANCH   4   5
HETATM    5  C   UNL     1      -8.267  14.281  67.918  1.00  0.00    -0.156 C  
BRANCH   5   6
HETATM    6  C   UNL     1      -8.169  15.770  67.705  1.00  0.00    -0.154 A  
HETATM    7  C   UNL     1      -8.542  16.657  68.725  1.00  0.00    -0.261 A  
HETATM    8  C   UNL     1      -8.006  18.542  67.313  1.00  0.00    -0.241 A  
HETATM    9  C   UNL     1      -8.458  18.036  68.529  1.00  0.00    -0.314 A  
HETATM   10  C   UNL     1      -7.719  16.290  66.485  1.00  0.00    -0.260 A  
HETATM   11  C   UNL     1      -7.636  17.669  66.291  1.00  0.00    -0.334 A  
ENDBRANCH   5   6
ENDBRANCH   4   5
ENDBRANCH   3   4
ENDBRANCH   2   3
BRANCH   2  12
HETATM   12  O   UNL     1      -7.955  10.880  69.139  1.00  0.00    -0.147 OA 
BRANCH  12  13
HETATM   13  C   UNL     1      -8.279   9.476  69.140  1.00  0.00    -0.111 C  
BRANCH  13  14
HETATM   14  C   UNL     1      -9.383   9.196  70.164  1.00  0.00    -0.209 C  
BRANCH  14  15
HETATM   15  O   UNL     1      -9.758   7.806  70.079  1.00  0.00    -0.175 OA 
BRANCH  15  16
HETATM   16  C   UNL     1      -9.927   7.159  71.263  1.00  0.00    -0.189 C  
HETATM   17  O   UNL     1     -10.906   7.244  71.989  1.00  0.00    -0.225 OA 
BRANCH  16  18
HETATM   18  C   UNL     1      -8.704   6.332  71.574  1.00  0.00    -0.134 C  
BRANCH  18  19
HETATM   19  C   UNL     1      -8.627   5.085  70.700  1.00  0.00    -0.125 C  
BRANCH  19  20
HETATM   20  C   UNL     1      -7.502   5.150  69.660  1.00  0.00    -0.061 C  
BRANCH  20  21
HETATM   21  C   UNL     1      -8.087   5.065  68.273  1.00  0.00    -0.086 A  
HETATM   22  C   UNL     1      -9.383   4.959  65.794  1.00  0.00    -0.165 A  
HETATM   23  C   UNL     1      -8.606   3.854  67.797  1.00  0.00    -0.110 A  
HETATM   24  C   UNL     1      -8.204   6.217  67.485  1.00  0.00    -0.113 A  
HETATM   25  C   UNL     1      -9.251   3.804  66.560  1.00  0.00    -0.178 A  
HETATM   26  C   UNL     1      -8.852   6.164  66.251  1.00  0.00    -0.150 A  
ENDBRANCH  20  21
ENDBRANCH  19  20
ENDBRANCH  18  19
ENDBRANCH  16  18
ENDBRANCH  15  16
ENDBRANCH  14  15
BRANCH  14  27
HETATM   27  C   UNL     1     -10.633  10.035  69.872  1.00  0.00    -0.282 C  
BRANCH  27  28
HETATM   28  O   UNL     1     -10.899  10.109  68.464  1.00  0.00    -0.217 OA 
BRANCH  28  29
HETATM   29  C   UNL     1     -11.380  11.310  68.037  1.00  0.00    -0.304 C  
HETATM   30  O   UNL     1     -11.460  11.655  66.867  1.00  0.00    -0.426 OA 
BRANCH  29  31
HETATM   31  C   UNL     1     -11.807  12.147  69.216  1.00  0.00    -0.370 C  
BRANCH  31  32
HETATM   32  C   UNL     1     -12.145  13.576  68.803  1.00  0.00    -0.305 C  
BRANCH  32  33
HETATM   33  C   UNL     1     -11.319  14.626  69.558  1.00  0.00    -0.314 C  
BRANCH  33  34
HETATM   34  C   UNL     1     -12.078  15.117  70.764  1.00  0.00    -0.387 A  
HETATM   35  C   UNL     1     -13.409  15.893  73.104  1.00  0.00    -0.681 A  
HETATM   36  C   UNL     1     -11.481  16.022  71.652  1.00  0.00    -0.443 A  
HETATM   37  C   UNL     1     -12.145  16.409  72.816  1.00  0.00    -0.570 A  
HETATM   38  C   UNL     1     -14.014  15.002  72.220  1.00  0.00    -0.611 A  
HETATM   39  C   UNL     1     -13.353  14.615  71.054  1.00  0.00    -0.410 A  
ENDBRANCH  33  34
ENDBRANCH  32  33
ENDBRANCH  31  32
ENDBRANCH  29  31
ENDBRANCH  28  29
ENDBRANCH  27  28
ENDBRANCH  14  27
ENDBRANCH  13  14
ENDBRANCH  12  13
ENDBRANCH   2  12
TORSDOF 20
ENDMDL
MODEL      317
REMARK 921   NORMALIZED FREE ENERGY PREDICTED BY IDOCK:   -3.45 KCAL/MOL
REMARK 922        TOTAL FREE ENERGY PREDICTED BY IDOCK:  -12.16 KCAL/MOL
REMARK 923 INTER-LIGAND FREE ENERGY PREDICTED BY IDOCK:   -8.61 KCAL/MOL
REMARK 924 INTRA-LIGAND FREE ENERGY PREDICTED BY IDOCK:   -3.55 KCAL/MOL
REMARK 927      BINDING AFFINITY PREDICTED BY RF-SCORE:    0.00 PKD
ROOT
HETATM    1  O   UNL     1      -6.611   9.632  68.565  1.00  0.00    -0.052 OA 
HETATM    2  C   UNL     1      -7.789   9.429  68.821  1.00  0.00    -0.084 C  
ENDROOT
BRANCH   2   3
HETATM    3  C   UNL     1      -8.935  10.206  68.220  1.00  0.00    -0.120 C  
BRANCH   3   4
HETATM    4  C   UNL     1      -8.603  11.690  68.053  1.00  0.00    -0.152 C  
BRANCH   4   5
HETATM    5  C   UNL     1      -9.470  12.363  66.984  1.00  0.00    -0.211 C  
BRANCH   5   6
HETATM    6  C   UNL     1      -9.426  13.867  67.082  1.00  0.00    -0.246 A  
HETATM    7  C   UNL     1     -10.613  14.613  67.052  1.00  0.00    -0.280 A  
HETATM    8  C   UNL     1      -9.351  16.665  67.247  1.00  0.00    -0.234 A  
HETATM    9  C   UNL     1     -10.574  16.006  67.137  1.00  0.00    -0.305 A  
HETATM   10  C   UNL     1      -8.202  14.540  67.189  1.00  0.00    -0.214 A  
HETATM   11  C   UNL     1      -8.166  15.932  67.273  1.00  0.00    -0.211 A  
ENDBRANCH   5   6
ENDBRANCH   4   5
ENDBRANCH   3   4
ENDBRANCH   2   3
BRANCH   2  12
HETATM   12  O   UNL     1      -8.255   8.481  69.681  1.00  0.00    -0.111 OA 
BRANCH  12  13
HETATM   13  C   UNL     1      -9.533   7.896  69.363  1.00  0.00    -0.156 C  
BRANCH  13  14
HETATM   14  C   UNL     1      -9.610   6.474  69.925  1.00  0.00    -0.154 C  
BRANCH  14  15
HETATM   15  O   UNL     1      -8.808   5.601  69.103  1.00  0.00    -0.110 OA 
BRANCH  15  16
HETATM   16  C   UNL     1      -7.637   5.175  69.649  1.00  0.00    -0.061 C  
HETATM   17  O   UNL     1      -7.354   5.203  70.837  1.00  0.00    -0.068 OA 
BRANCH  16  18
HETATM   18  C   UNL     1      -6.714   4.682  68.564  1.00  0.00    -0.050 C  
BRANCH  18  19
HETATM   19  C   UNL     1      -7.201   5.091  67.178  1.00  0.00    -0.077 C  
BRANCH  19  20
HETATM   20  C   UNL     1      -6.160   5.893  66.389  1.00  0.00    -0.029 C  
BRANCH  20  21
HETATM   21  C   UNL     1      -6.777   7.175  65.891  1.00  0.00    -0.053 A  
HETATM   22  C   UNL     1      -7.944   9.451  64.752  1.00  0.00    -0.122 A  
HETATM   23  C   UNL     1      -5.975   8.178  65.333  1.00  0.00    -0.045 A  
HETATM   24  C   UNL     1      -8.170   7.334  65.891  1.00  0.00    -0.132 A  
HETATM   25  C   UNL     1      -6.559   9.313  64.767  1.00  0.00    -0.076 A  
HETATM   26  C   UNL     1      -8.750   8.468  65.323  1.00  0.00    -0.175 A  
ENDBRANCH  20  21
ENDBRANCH  19  20
ENDBRANCH  18  19
ENDBRANCH  16  18
ENDBRANCH  15  16
ENDBRANCH  14  15
BRANCH  14  27
HETATM   27  C   UNL     1     -11.049   5.946  69.899  1.00  0.00    -0.347 C  
BRANCH  27  28
HETATM   28  O   UNL     1     -11.990   6.968  70.260  1.00  0.00    -0.251 OA 
BRANCH  28  29
HETATM   29  C   UNL     1     -12.602   6.780  71.463  1.00  0.00    -0.322 C  
HETATM   30  O   UNL     1     -12.094   6.224  72.426  1.00  0.00    -0.258 OA 
BRANCH  29  31
HETATM   31  C   UNL     1     -13.991   7.364  71.435  1.00  0.00    -0.464 C  
BRANCH  31  32
HETATM   32  C   UNL     1     -14.012   8.800  71.947  1.00  0.00    -0.493 C  
BRANCH  32  33
HETATM   33  C   UNL     1     -12.610   9.413  72.062  1.00  0.00    -0.462 C  
BRANCH  33  34
HETATM   34  C   UNL     1     -12.550  10.720  71.315  1.00  0.00    -0.532 A  
HETATM   35  C   UNL     1     -12.264  13.170  69.988  1.00  0.00    -0.323 A  
HETATM   36  C   UNL     1     -12.029  10.766  70.015  1.00  0.00    -0.427 A  
HETATM   37  C   UNL     1     -11.888  11.986  69.355  1.00  0.00    -0.384 A  
HETATM   38  C   UNL     1     -12.793  13.132  71.277  1.00  0.00    -0.384 A  
HETATM   39  C   UNL     1     -12.937  11.913  71.938  1.00  0.00    -0.434 A  
ENDBRANCH  33  34
ENDBRANCH  32  33
ENDBRANCH  31  32
ENDBRANCH  29  31
ENDBRANCH  28  29
ENDBRANCH  27  28
ENDBRANCH  14  27
ENDBRANCH  13  14
ENDBRANCH  12  13
ENDBRANCH   2  12
TORSDOF 20
ENDMDL
MODEL      318
REMARK 921   NORMALIZED FREE ENERGY PREDICTED BY IDOCK:   -3.44 KCAL/MOL
REMARK 922        TOTAL FREE ENERGY PREDICTED BY IDOCK:  -12.15 KCAL/MOL
REMARK 923 INTER-LIGAND FREE ENERGY PREDICTED BY IDOCK:   -9.25 KCAL/MOL
REMARK 924 INTRA-LIGAND FREE ENERGY PREDICTED BY IDOCK:   -2.90 KCAL/MOL
REMARK 927      BINDING AFFINITY PREDICTED BY RF-SCORE:    0.00 PKD
ROOT
HETATM    1  O   UNL     1     -13.209  10.636  69.977  1.00  0.00    -0.023 OA 
HETATM    2  C   UNL     1     -12.015  10.428  70.142  1.00  0.00    -0.276 C  
ENDROOT
BRANCH   2   3
HETATM    3  C   UNL     1     -11.424   9.825  71.394  1.00  0.00    -0.435 C  
BRANCH   3   4
HETATM    4  C   UNL     1     -10.557   8.601  71.092  1.00  0.00    -0.291 C  
BRANCH   4   5
HETATM    5  C   UNL     1      -9.071   8.958  70.968  1.00  0.00    -0.303 C  
BRANCH   5   6
HETATM    6  C   UNL     1      -8.287   8.555  72.191  1.00  0.00    -0.197 A  
HETATM    7  C   UNL     1      -8.954   8.135  73.351  1.00  0.00    -0.313 A  
HETATM    8  C   UNL     1      -6.838   7.820  74.476  1.00  0.00    -0.132 A  
HETATM    9  C   UNL     1      -8.231   7.767  74.487  1.00  0.00    -0.259 A  
HETATM   10  C   UNL     1      -6.888   8.608  72.192  1.00  0.00    -0.069 A  
HETATM   11  C   UNL     1      -6.167   8.240  73.329  1.00  0.00    -0.106 A  
ENDBRANCH   5   6
ENDBRANCH   4   5
ENDBRANCH   3   4
ENDBRANCH   2   3
BRANCH   2  12
HETATM   12  O   UNL     1     -11.035  10.704  69.238  1.00  0.00    -0.211 OA 
BRANCH  12  13
HETATM   13  C   UNL     1     -11.044   9.931  68.023  1.00  0.00    -0.158 C  
BRANCH  13  14
HETATM   14  C   UNL     1     -10.906  10.859  66.813  1.00  0.00    -0.224 C  
BRANCH  14  15
HETATM   15  O   UNL     1      -9.505  11.109  66.573  1.00  0.00    -0.185 OA 
BRANCH  15  16
HETATM   16  C   UNL     1      -8.700  10.013  66.539  1.00  0.00    -0.132 C  
HETATM   17  O   UNL     1      -8.854   9.038  65.819  1.00  0.00    -0.156 OA 
BRANCH  16  18
HETATM   18  C   UNL     1      -7.591  10.160  67.550  1.00  0.00    -0.091 C  
BRANCH  18  19
HETATM   19  C   UNL     1      -7.583  11.547  68.185  1.00  0.00    -0.113 C  
BRANCH  19  20
HETATM   20  C   UNL     1      -6.544  12.486  67.560  1.00  0.00    -0.150 C  
BRANCH  20  21
HETATM   21  C   UNL     1      -6.580  13.820  68.260  1.00  0.00    -0.109 A  
HETATM   22  C   UNL     1      -6.738  16.389  69.362  1.00  0.00    -0.215 A  
HETATM   23  C   UNL     1      -5.496  14.702  68.159  1.00  0.00    -0.123 A  
HETATM   24  C   UNL     1      -7.735  14.231  68.938  1.00  0.00    -0.112 A  
HETATM   25  C   UNL     1      -5.577  15.982  68.710  1.00  0.00    -0.108 A  
HETATM   26  C   UNL     1      -7.814  15.511  69.485  1.00  0.00    -0.194 A  
ENDBRANCH  20  21
ENDBRANCH  19  20
ENDBRANCH  18  19
ENDBRANCH  16  18
ENDBRANCH  15  16
ENDBRANCH  14  15
BRANCH  14  27
HETATM   27  C   UNL     1     -11.582  12.210  67.072  1.00  0.00    -0.337 C  
BRANCH  27  28
HETATM   28  O   UNL     1     -11.191  13.189  66.098  1.00  0.00    -0.287 OA 
BRANCH  28  29
HETATM   29  C   UNL     1     -12.095  13.391  65.098  1.00  0.00    -0.409 C  
HETATM   30  O   UNL     1     -13.103  12.723  64.922  1.00  0.00    -0.833 OA 
BRANCH  29  31
HETATM   31  C   UNL     1     -11.674  14.563  64.248  1.00  0.00    -0.312 C  
BRANCH  31  32
HETATM   32  C   UNL     1     -11.309  15.776  65.096  1.00  0.00    -0.155 C  
BRANCH  32  33
HETATM   33  C   UNL     1      -9.884  15.704  65.659  1.00  0.00    -0.369 C  
BRANCH  33  34
HETATM   34  C   UNL     1      -9.584  16.933  66.478  1.00  0.00    -0.295 A  
HETATM   35  C   UNL     1      -8.917  19.112  68.106  1.00  0.00    -0.365 A  
HETATM   36  C   UNL     1      -8.454  17.711  66.193  1.00  0.00    -0.167 A  
HETATM   37  C   UNL     1      -8.123  18.797  67.004  1.00  0.00    -0.266 A  
HETATM   38  C   UNL     1     -10.049  18.350  68.390  1.00  0.00    -0.418 A  
HETATM   39  C   UNL     1     -10.382  17.265  67.579  1.00  0.00    -0.346 A  
ENDBRANCH  33  34
ENDBRANCH  32  33
ENDBRANCH  31  32
ENDBRANCH  29  31
ENDBRANCH  28  29
ENDBRANCH  27  28
ENDBRANCH  14  27
ENDBRANCH  13  14
ENDBRANCH  12  13
ENDBRANCH   2  12
TORSDOF 20
ENDMDL
MODEL      319
REMARK 921   NORMALIZED FREE ENERGY PREDICTED BY IDOCK:   -3.44 KCAL/MOL
REMARK 922        TOTAL FREE ENERGY PREDICTED BY IDOCK:  -12.14 KCAL/MOL
REMARK 923 INTER-LIGAND FREE ENERGY PREDICTED BY IDOCK:   -9.81 KCAL/MOL
REMARK 924 INTRA-LIGAND FREE ENERGY PREDICTED BY IDOCK:   -2.33 KCAL/MOL
REMARK 927      BINDING AFFINITY PREDICTED BY RF-SCORE:    0.00 PKD
ROOT
HETATM    1  O   UNL     1     -10.686   8.789  66.637  1.00  0.00    -0.171 OA 
HETATM    2  C   UNL     1     -10.623   9.745  67.396  1.00  0.00    -0.267 C  
ENDROOT
BRANCH   2   3
HETATM    3  C   UNL     1     -10.899  11.173  66.989  1.00  0.00    -0.338 C  
BRANCH   3   4
HETATM    4  C   UNL     1     -10.067  11.599  65.777  1.00  0.00    -0.278 C  
BRANCH   4   5
HETATM    5  C   UNL     1      -8.664  10.982  65.789  1.00  0.00    -0.179 C  
BRANCH   5   6
HETATM    6  C   UNL     1      -8.464  10.010  64.654  1.00  0.00    -0.182 A  
HETATM    7  C   UNL     1      -9.183  10.159  63.460  1.00  0.00    -0.322 A  
HETATM    8  C   UNL     1      -8.110   8.197  62.544  1.00  0.00    -0.164 A  
HETATM    9  C   UNL     1      -9.004   9.257  62.410  1.00  0.00    -0.216 A  
HETATM   10  C   UNL     1      -7.571   8.938  64.780  1.00  0.00    -0.106 A  
HETATM   11  C   UNL     1      -7.394   8.038  63.729  1.00  0.00    -0.102 A  
ENDBRANCH   5   6
ENDBRANCH   4   5
ENDBRANCH   3   4
ENDBRANCH   2   3
BRANCH   2  12
HETATM   12  O   UNL     1     -10.297   9.682  68.717  1.00  0.00    -0.198 OA 
BRANCH  12  13
HETATM   13  C   UNL     1     -10.618  10.837  69.515  1.00  0.00    -0.196 C  
BRANCH  13  14
HETATM   14  C   UNL     1     -11.592  10.447  70.631  1.00  0.00    -0.349 C  
BRANCH  14  15
HETATM   15  O   UNL     1     -12.064   9.104  70.391  1.00  0.00    -0.066 OA 
BRANCH  15  16
HETATM   16  C   UNL     1     -12.005   8.252  71.449  1.00  0.00    -0.299 C  
HETATM   17  O   UNL     1     -11.739   8.563  72.600  1.00  0.00    -0.363 OA 
BRANCH  16  18
HETATM   18  C   UNL     1     -12.290   6.844  70.990  1.00  0.00    -0.401 C  
BRANCH  18  19
HETATM   19  C   UNL     1     -11.165   6.293  70.121  1.00  0.00    -0.470 C  
BRANCH  19  20
HETATM   20  C   UNL     1     -10.286   5.274  70.854  1.00  0.00    -0.304 C  
BRANCH  20  21
HETATM   21  C   UNL     1      -9.741   5.888  72.118  1.00  0.00    -0.175 A  
HETATM   22  C   UNL     1      -8.587   6.841  74.484  1.00  0.00    -0.195 A  
HETATM   23  C   UNL     1     -10.308   5.573  73.360  1.00  0.00    -0.243 A  
HETATM   24  C   UNL     1      -8.603   6.703  72.074  1.00  0.00    -0.123 A  
HETATM   25  C   UNL     1      -9.731   6.050  74.538  1.00  0.00    -0.263 A  
HETATM   26  C   UNL     1      -8.027   7.176  73.252  1.00  0.00    -0.114 A  
ENDBRANCH  20  21
ENDBRANCH  19  20
ENDBRANCH  18  19
ENDBRANCH  16  18
ENDBRANCH  15  16
ENDBRANCH  14  15
BRANCH  14  27
HETATM   27  C   UNL     1     -12.813  11.374  70.648  1.00  0.00    -0.104 C  
BRANCH  27  28
HETATM   28  O   UNL     1     -12.933  12.060  71.903  1.00  0.00    -0.400 OA 
BRANCH  28  29
HETATM   29  C   UNL     1     -13.327  13.361  71.806  1.00  0.00    -0.394 C  
HETATM   30  O   UNL     1     -14.025  13.942  72.624  1.00  0.00    -0.684 OA 
BRANCH  29  31
HETATM   31  C   UNL     1     -12.770  13.980  70.549  1.00  0.00    -0.347 C  
BRANCH  31  32
HETATM   32  C   UNL     1     -11.485  14.754  70.821  1.00  0.00    -0.273 C  
BRANCH  32  33
HETATM   33  C   UNL     1     -11.277  15.924  69.850  1.00  0.00    -0.348 C  
BRANCH  33  34
HETATM   34  C   UNL     1     -10.008  15.727  69.061  1.00  0.00    -0.234 A  
HETATM   35  C   UNL     1      -7.573  15.289  67.748  1.00  0.00    -0.171 A  
HETATM   36  C   UNL     1      -9.754  14.504  68.427  1.00  0.00    -0.224 A  
HETATM   37  C   UNL     1      -8.542  14.287  67.773  1.00  0.00    -0.177 A  
HETATM   38  C   UNL     1      -7.822  16.513  68.366  1.00  0.00    -0.187 A  
HETATM   39  C   UNL     1      -9.034  16.733  69.020  1.00  0.00    -0.188 A  
ENDBRANCH  33  34
ENDBRANCH  32  33
ENDBRANCH  31  32
ENDBRANCH  29  31
ENDBRANCH  28  29
ENDBRANCH  27  28
ENDBRANCH  14  27
ENDBRANCH  13  14
ENDBRANCH  12  13
ENDBRANCH   2  12
TORSDOF 20
ENDMDL
MODEL      320
REMARK 921   NORMALIZED FREE ENERGY PREDICTED BY IDOCK:   -3.42 KCAL/MOL
REMARK 922        TOTAL FREE ENERGY PREDICTED BY IDOCK:  -12.09 KCAL/MOL
REMARK 923 INTER-LIGAND FREE ENERGY PREDICTED BY IDOCK:  -10.21 KCAL/MOL
REMARK 924 INTRA-LIGAND FREE ENERGY PREDICTED BY IDOCK:   -1.88 KCAL/MOL
REMARK 927      BINDING AFFINITY PREDICTED BY RF-SCORE:    0.00 PKD
ROOT
HETATM    1  O   UNL     1     -13.041  13.833  71.748  1.00  0.00    -0.342 OA 
HETATM    2  C   UNL     1     -12.413  14.141  70.745  1.00  0.00    -0.366 C  
ENDROOT
BRANCH   2   3
HETATM    3  C   UNL     1     -12.272  15.553  70.230  1.00  0.00    -0.432 C  
BRANCH   3   4
HETATM    4  C   UNL     1     -11.114  15.696  69.242  1.00  0.00    -0.293 C  
BRANCH   4   5
HETATM    5  C   UNL     1     -10.560  17.125  69.198  1.00  0.00    -0.259 C  
BRANCH   5   6
HETATM    6  C   UNL     1      -9.390  17.250  68.255  1.00  0.00    -0.272 A  
HETATM    7  C   UNL     1      -8.414  18.234  68.466  1.00  0.00    -0.325 A  
HETATM    8  C   UNL     1      -7.220  17.502  66.497  1.00  0.00    -0.298 A  
HETATM    9  C   UNL     1      -7.334  18.357  67.591  1.00  0.00    -0.219 A  
HETATM   10  C   UNL     1      -9.269  16.399  67.149  1.00  0.00    -0.225 A  
HETATM   11  C   UNL     1      -8.188  16.523  66.276  1.00  0.00    -0.360 A  
ENDBRANCH   5   6
ENDBRANCH   4   5
ENDBRANCH   3   4
ENDBRANCH   2   3
BRANCH   2  12
HETATM   12  O   UNL     1     -11.749  13.271  69.935  1.00  0.00    -0.297 OA 
BRANCH  12  13
HETATM   13  C   UNL     1     -12.378  11.995  69.707  1.00  0.00    -0.047 C  
BRANCH  13  14
HETATM   14  C   UNL     1     -11.821  10.956  70.684  1.00  0.00    -0.352 C  
BRANCH  14  15
HETATM   15  O   UNL     1     -10.552  10.481  70.188  1.00  0.00    -0.246 OA 
BRANCH  15  16
HETATM   16  C   UNL     1     -10.580   9.845  68.986  1.00  0.00    -0.220 C  
HETATM   17  O   UNL     1     -10.809   8.657  68.813  1.00  0.00    -0.116 OA 
BRANCH  16  18
HETATM   18  C   UNL     1     -10.255  10.819  67.882  1.00  0.00    -0.203 C  
BRANCH  18  19
HETATM   19  C   UNL     1      -9.809  10.106  66.610  1.00  0.00    -0.253 C  
BRANCH  19  20
HETATM   20  C   UNL     1      -9.236  11.061  65.557  1.00  0.00    -0.235 C  
BRANCH  20  21
HETATM   21  C   UNL     1     -10.327  11.968  65.046  1.00  0.00    -0.318 A  
HETATM   22  C   UNL     1     -12.215  13.692  63.908  1.00  0.00    -0.429 A  
HETATM   23  C   UNL     1     -10.313  13.335  65.352  1.00  0.00    -0.316 A  
HETATM   24  C   UNL     1     -11.310  11.471  64.181  1.00  0.00    -0.349 A  
HETATM   25  C   UNL     1     -11.256  14.192  64.784  1.00  0.00    -0.379 A  
HETATM   26  C   UNL     1     -12.250  12.330  63.613  1.00  0.00    -0.665 A  
ENDBRANCH  20  21
ENDBRANCH  19  20
ENDBRANCH  18  19
ENDBRANCH  16  18
ENDBRANCH  15  16
ENDBRANCH  14  15
BRANCH  14  27
HETATM   27  C   UNL     1     -12.758   9.748  70.800  1.00  0.00    -0.175 C  
BRANCH  27  28
HETATM   28  O   UNL     1     -12.664   9.133  72.093  1.00  0.00    -0.368 OA 
BRANCH  28  29
HETATM   29  C   UNL     1     -12.256   7.833  72.077  1.00  0.00    -0.305 C  
HETATM   30  O   UNL     1     -12.842   6.923  71.509  1.00  0.00    -0.374 OA 
BRANCH  29  31
HETATM   31  C   UNL     1     -10.973   7.682  72.854  1.00  0.00    -0.456 C  
BRANCH  31  32
HETATM   32  C   UNL     1      -9.779   7.443  71.936  1.00  0.00    -0.179 C  
BRANCH  32  33
HETATM   33  C   UNL     1      -9.459   5.954  71.748  1.00  0.00    -0.168 C  
BRANCH  33  34
HETATM   34  C   UNL     1      -8.098   5.639  72.314  1.00  0.00    -0.108 A  
HETATM   35  C   UNL     1      -5.529   4.969  73.206  1.00  0.00    -0.013 A  
HETATM   36  C   UNL     1      -7.017   6.497  72.071  1.00  0.00    -0.073 A  
HETATM   37  C   UNL     1      -5.738   6.162  72.516  1.00  0.00    -0.037 A  
HETATM   38  C   UNL     1      -6.601   4.116  73.462  1.00  0.00    -0.051 A  
HETATM   39  C   UNL     1      -7.881   4.449  73.020  1.00  0.00    -0.091 A  
ENDBRANCH  33  34
ENDBRANCH  32  33
ENDBRANCH  31  32
ENDBRANCH  29  31
ENDBRANCH  28  29
ENDBRANCH  27  28
ENDBRANCH  14  27
ENDBRANCH  13  14
ENDBRANCH  12  13
ENDBRANCH   2  12
TORSDOF 20
ENDMDL
MODEL      321
REMARK 921   NORMALIZED FREE ENERGY PREDICTED BY IDOCK:   -3.39 KCAL/MOL
REMARK 922        TOTAL FREE ENERGY PREDICTED BY IDOCK:  -12.03 KCAL/MOL
REMARK 923 INTER-LIGAND FREE ENERGY PREDICTED BY IDOCK:   -9.93 KCAL/MOL
REMARK 924 INTRA-LIGAND FREE ENERGY PREDICTED BY IDOCK:   -2.10 KCAL/MOL
REMARK 927      BINDING AFFINITY PREDICTED BY RF-SCORE:    0.00 PKD
ROOT
HETATM    1  O   UNL     1      -5.732  12.571  68.053  1.00  0.00    -0.064 OA 
HETATM    2  C   UNL     1      -6.684  13.338  68.007  1.00  0.00    -0.127 C  
ENDROOT
BRANCH   2   3
HETATM    3  C   UNL     1      -6.561  14.836  67.857  1.00  0.00    -0.175 C  
BRANCH   3   4
HETATM    4  C   UNL     1      -7.377  15.591  68.908  1.00  0.00    -0.150 C  
BRANCH   4   5
HETATM    5  C   UNL     1      -7.164  17.107  68.830  1.00  0.00    -0.242 C  
BRANCH   5   6
HETATM    6  C   UNL     1      -8.354  17.816  68.235  1.00  0.00    -0.276 A  
HETATM    7  C   UNL     1      -8.230  19.130  67.761  1.00  0.00    -0.319 A  
HETATM    8  C   UNL     1     -10.566  19.149  67.143  1.00  0.00    -0.564 A  
HETATM    9  C   UNL     1      -9.331  19.791  67.216  1.00  0.00    -0.452 A  
HETATM   10  C   UNL     1      -9.600  17.182  68.160  1.00  0.00    -0.270 A  
HETATM   11  C   UNL     1     -10.700  17.845  67.615  1.00  0.00    -0.343 A  
ENDBRANCH   5   6
ENDBRANCH   4   5
ENDBRANCH   3   4
ENDBRANCH   2   3
BRANCH   2  12
HETATM   12  O   UNL     1      -7.994  12.973  68.085  1.00  0.00    -0.135 OA 
BRANCH  12  13
HETATM   13  C   UNL     1      -8.265  11.654  68.597  1.00  0.00    -0.110 C  
BRANCH  13  14
HETATM   14  C   UNL     1      -8.974  10.816  67.530  1.00  0.00    -0.132 C  
BRANCH  14  15
HETATM   15  O   UNL     1      -9.850   9.873  68.181  1.00  0.00    -0.143 OA 
BRANCH  15  16
HETATM   16  C   UNL     1      -9.356   9.269  69.295  1.00  0.00    -0.160 C  
HETATM   17  O   UNL     1      -9.355   9.743  70.422  1.00  0.00    -0.242 OA 
BRANCH  16  18
HETATM   18  C   UNL     1      -8.773   7.926  68.936  1.00  0.00    -0.135 C  
BRANCH  18  19
HETATM   19  C   UNL     1      -9.834   6.976  68.391  1.00  0.00    -0.148 C  
BRANCH  19  20
HETATM   20  C   UNL     1     -11.108   6.947  69.243  1.00  0.00    -0.229 C  
BRANCH  20  21
HETATM   21  C   UNL     1     -10.918   6.010  70.409  1.00  0.00    -0.399 A  
HETATM   22  C   UNL     1     -10.387   4.409  72.643  1.00  0.00    -0.248 A  
HETATM   23  C   UNL     1     -10.036   4.926  70.310  1.00  0.00    -0.321 A  
HETATM   24  C   UNL     1     -11.548   6.270  71.633  1.00  0.00    -0.353 A  
HETATM   25  C   UNL     1      -9.774   4.129  71.425  1.00  0.00    -0.251 A  
HETATM   26  C   UNL     1     -11.282   5.473  72.746  1.00  0.00    -0.358 A  
ENDBRANCH  20  21
ENDBRANCH  19  20
ENDBRANCH  18  19
ENDBRANCH  16  18
ENDBRANCH  15  16
ENDBRANCH  14  15
BRANCH  14  27
HETATM   27  C   UNL     1      -7.967  10.017  66.695  1.00  0.00    -0.115 C  
BRANCH  27  28
HETATM   28  O   UNL     1      -7.513  10.768  65.559  1.00  0.00    -0.104 OA 
BRANCH  28  29
HETATM   29  C   UNL     1      -7.887  10.257  64.352  1.00  0.00    -0.117 C  
HETATM   30  O   UNL     1      -7.150  10.144  63.383  1.00  0.00    -0.133 OA 
BRANCH  29  31
HETATM   31  C   UNL     1      -9.336   9.844  64.389  1.00  0.00    -0.326 C  
BRANCH  31  32
HETATM   32  C   UNL     1     -10.160  10.574  63.334  1.00  0.00    -0.154 C  
BRANCH  32  33
HETATM   33  C   UNL     1      -9.831  12.070  63.250  1.00  0.00    -0.258 C  
BRANCH  33  34
HETATM   34  C   UNL     1     -10.670  12.844  64.234  1.00  0.00    -0.430 A  
HETATM   35  C   UNL     1     -12.216  14.139  66.178  1.00  0.00    -0.465 A  
HETATM   36  C   UNL     1     -10.056  13.613  65.232  1.00  0.00    -0.297 A  
HETATM   37  C   UNL     1     -10.827  14.257  66.200  1.00  0.00    -0.310 A  
HETATM   38  C   UNL     1     -12.835  13.386  65.182  1.00  0.00    -0.380 A  
HETATM   39  C   UNL     1     -12.066  12.742  64.213  1.00  0.00    -0.497 A  
ENDBRANCH  33  34
ENDBRANCH  32  33
ENDBRANCH  31  32
ENDBRANCH  29  31
ENDBRANCH  28  29
ENDBRANCH  27  28
ENDBRANCH  14  27
ENDBRANCH  13  14
ENDBRANCH  12  13
ENDBRANCH   2  12
TORSDOF 20
ENDMDL
MODEL      322
REMARK 921   NORMALIZED FREE ENERGY PREDICTED BY IDOCK:   -3.39 KCAL/MOL
REMARK 922        TOTAL FREE ENERGY PREDICTED BY IDOCK:  -12.03 KCAL/MOL
REMARK 923 INTER-LIGAND FREE ENERGY PREDICTED BY IDOCK:   -8.50 KCAL/MOL
REMARK 924 INTRA-LIGAND FREE ENERGY PREDICTED BY IDOCK:   -3.53 KCAL/MOL
REMARK 927      BINDING AFFINITY PREDICTED BY RF-SCORE:    0.00 PKD
ROOT
HETATM    1  O   UNL     1      -6.066   9.212  72.998  1.00  0.00    -0.286 OA 
HETATM    2  C   UNL     1      -6.714   8.725  72.081  1.00  0.00    -0.019 C  
ENDROOT
BRANCH   2   3
HETATM    3  C   UNL     1      -8.222   8.700  72.027  1.00  0.00    -0.149 C  
BRANCH   3   4
HETATM    4  C   UNL     1      -8.828   7.867  73.158  1.00  0.00    -0.293 C  
BRANCH   4   5
HETATM    5  C   UNL     1      -9.910   6.904  72.656  1.00  0.00    -0.184 C  
BRANCH   5   6
HETATM    6  C   UNL     1     -11.157   7.631  72.221  1.00  0.00    -0.336 A  
HETATM    7  C   UNL     1     -12.390   6.964  72.191  1.00  0.00    -0.227 A  
HETATM    8  C   UNL     1     -13.479   8.969  71.396  1.00  0.00    -0.331 A  
HETATM    9  C   UNL     1     -13.545   7.632  71.783  1.00  0.00    -0.392 A  
HETATM   10  C   UNL     1     -11.101   8.974  71.827  1.00  0.00    -0.444 A  
HETATM   11  C   UNL     1     -12.257   9.640  71.419  1.00  0.00    -0.471 A  
ENDBRANCH   5   6
ENDBRANCH   4   5
ENDBRANCH   3   4
ENDBRANCH   2   3
BRANCH   2  12
HETATM   12  O   UNL     1      -6.188   8.132  70.974  1.00  0.00    -0.033 OA 
BRANCH  12  13
HETATM   13  C   UNL     1      -7.124   7.533  70.059  1.00  0.00    -0.060 C  
BRANCH  13  14
HETATM   14  C   UNL     1      -6.636   7.715  68.619  1.00  0.00    -0.053 C  
BRANCH  14  15
HETATM   15  O   UNL     1      -5.414   6.970  68.441  1.00  0.00    -0.018 OA 
BRANCH  15  16
HETATM   16  C   UNL     1      -5.394   6.095  67.400  1.00  0.00    -0.005 C  
HETATM   17  O   UNL     1      -5.191   6.383  66.230  1.00  0.00    -0.012 OA 
BRANCH  16  18
HETATM   18  C   UNL     1      -5.691   4.702  67.895  1.00  0.00    -0.021 C  
BRANCH  18  19
HETATM   19  C   UNL     1      -6.854   4.068  67.138  1.00  0.00    -0.051 C  
BRANCH  19  20
HETATM   20  C   UNL     1      -7.923   3.480  68.066  1.00  0.00    -0.075 C  
BRANCH  20  21
HETATM   21  C   UNL     1      -9.091   4.430  68.160  1.00  0.00    -0.161 A  
HETATM   22  C   UNL     1     -11.105   6.358  68.410  1.00  0.00    -0.374 A  
HETATM   23  C   UNL     1      -9.804   4.558  69.359  1.00  0.00    -0.260 A  
HETATM   24  C   UNL     1      -9.412   5.263  67.081  1.00  0.00    -0.132 A  
HETATM   25  C   UNL     1     -10.808   5.519  69.481  1.00  0.00    -0.254 A  
HETATM   26  C   UNL     1     -10.414   6.225  67.206  1.00  0.00    -0.316 A  
ENDBRANCH  20  21
ENDBRANCH  19  20
ENDBRANCH  18  19
ENDBRANCH  16  18
ENDBRANCH  15  16
ENDBRANCH  14  15
BRANCH  14  27
HETATM   27  C   UNL     1      -6.331   9.188  68.321  1.00  0.00    -0.054 C  
BRANCH  27  28
HETATM   28  O   UNL     1      -7.420  10.038  68.708  1.00  0.00    -0.076 OA 
BRANCH  28  29
HETATM   29  C   UNL     1      -8.413  10.150  67.781  1.00  0.00    -0.114 C  
HETATM   30  O   UNL     1      -8.246  10.466  66.612  1.00  0.00    -0.123 OA 
BRANCH  29  31
HETATM   31  C   UNL     1      -9.745   9.820  68.406  1.00  0.00    -0.162 C  
BRANCH  31  32
HETATM   32  C   UNL     1     -10.908  10.330  67.562  1.00  0.00    -0.355 C  
BRANCH  32  33
HETATM   33  C   UNL     1     -11.212  11.815  67.799  1.00  0.00    -0.331 C  
BRANCH  33  34
HETATM   34  C   UNL     1     -11.547  12.493  66.495  1.00  0.00    -0.447 A  
HETATM   35  C   UNL     1     -12.349  13.724  64.110  1.00  0.00    -0.382 A  
HETATM   36  C   UNL     1     -11.835  13.864  66.467  1.00  0.00    -0.440 A  
HETATM   37  C   UNL     1     -12.234  14.476  65.279  1.00  0.00    -0.321 A  
HETATM   38  C   UNL     1     -12.053  12.362  64.127  1.00  0.00    -0.539 A  
HETATM   39  C   UNL     1     -11.653  11.748  65.313  1.00  0.00    -0.193 A  
ENDBRANCH  33  34
ENDBRANCH  32  33
ENDBRANCH  31  32
ENDBRANCH  29  31
ENDBRANCH  28  29
ENDBRANCH  27  28
ENDBRANCH  14  27
ENDBRANCH  13  14
ENDBRANCH  12  13
ENDBRANCH   2  12
TORSDOF 20
ENDMDL
MODEL      323
REMARK 921   NORMALIZED FREE ENERGY PREDICTED BY IDOCK:   -3.38 KCAL/MOL
REMARK 922        TOTAL FREE ENERGY PREDICTED BY IDOCK:  -12.00 KCAL/MOL
REMARK 923 INTER-LIGAND FREE ENERGY PREDICTED BY IDOCK:   -9.89 KCAL/MOL
REMARK 924 INTRA-LIGAND FREE ENERGY PREDICTED BY IDOCK:   -2.11 KCAL/MOL
REMARK 927      BINDING AFFINITY PREDICTED BY RF-SCORE:    0.00 PKD
ROOT
HETATM    1  O   UNL     1     -11.399  19.677  67.414  1.00  0.00    -0.154 OA 
HETATM    2  C   UNL     1     -10.356  19.140  67.759  1.00  0.00    -0.421 C  
ENDROOT
BRANCH   2   3
HETATM    3  C   UNL     1      -8.984  19.730  67.540  1.00  0.00    -0.401 C  
BRANCH   3   4
HETATM    4  C   UNL     1      -7.964  19.219  68.560  1.00  0.00    -0.396 C  
BRANCH   4   5
HETATM    5  C   UNL     1      -6.544  19.707  68.256  1.00  0.00    -0.294 C  
BRANCH   5   6
HETATM    6  C   UNL     1      -6.238  19.678  66.780  1.00  0.00    -0.186 A  
HETATM    7  C   UNL     1      -6.053  18.455  66.119  1.00  0.00    -0.221 A  
HETATM    8  C   UNL     1      -5.652  19.615  64.038  1.00  0.00    -0.304 A  
HETATM    9  C   UNL     1      -5.764  18.425  64.755  1.00  0.00    -0.127 A  
HETATM   10  C   UNL     1      -6.120  20.868  66.051  1.00  0.00    -0.294 A  
HETATM   11  C   UNL     1      -5.830  20.836  64.686  1.00  0.00    -0.293 A  
ENDBRANCH   5   6
ENDBRANCH   4   5
ENDBRANCH   3   4
ENDBRANCH   2   3
BRANCH   2  12
HETATM   12  O   UNL     1     -10.261  17.935  68.387  1.00  0.00    -0.357 OA 
BRANCH  12  13
HETATM   13  C   UNL     1     -10.935  16.827  67.760  1.00  0.00    -0.217 C  
BRANCH  13  14
HETATM   14  C   UNL     1     -10.530  15.517  68.442  1.00  0.00    -0.240 C  
BRANCH  14  15
HETATM   15  O   UNL     1      -9.090  15.429  68.469  1.00  0.00    -0.183 OA 
BRANCH  15  16
HETATM   16  C   UNL     1      -8.489  15.090  67.297  1.00  0.00    -0.198 C  
HETATM   17  O   UNL     1      -8.811  15.493  66.189  1.00  0.00    -0.320 OA 
BRANCH  16  18
HETATM   18  C   UNL     1      -7.374  14.109  67.557  1.00  0.00    -0.193 C  
BRANCH  18  19
HETATM   19  C   UNL     1      -7.829  12.955  68.443  1.00  0.00    -0.133 C  
BRANCH  19  20
HETATM   20  C   UNL     1      -6.991  11.686  68.252  1.00  0.00    -0.074 C  
BRANCH  20  21
HETATM   21  C   UNL     1      -7.261  11.098  66.891  1.00  0.00    -0.138 A  
HETATM   22  C   UNL     1      -7.739   9.792  64.461  1.00  0.00    -0.137 A  
HETATM   23  C   UNL     1      -6.203  10.820  66.016  1.00  0.00    -0.134 A  
HETATM   24  C   UNL     1      -8.564  10.734  66.525  1.00  0.00    -0.150 A  
HETATM   25  C   UNL     1      -6.444  10.170  64.805  1.00  0.00    -0.128 A  
HETATM   26  C   UNL     1      -8.801  10.083  65.315  1.00  0.00    -0.205 A  
ENDBRANCH  20  21
ENDBRANCH  19  20
ENDBRANCH  18  19
ENDBRANCH  16  18
ENDBRANCH  15  16
ENDBRANCH  14  15
BRANCH  14  27
HETATM   27  C   UNL     1     -11.056  14.304  67.665  1.00  0.00    -0.292 C  
BRANCH  27  28
HETATM   28  O   UNL     1     -11.892  13.477  68.487  1.00  0.00    -0.329 OA 
BRANCH  28  29
HETATM   29  C   UNL     1     -11.866  12.151  68.174  1.00  0.00    -0.299 C  
HETATM   30  O   UNL     1     -11.821  11.701  67.038  1.00  0.00    -0.591 OA 
BRANCH  29  31
HETATM   31  C   UNL     1     -11.892  11.320  69.432  1.00  0.00    -0.424 C  
BRANCH  31  32
HETATM   32  C   UNL     1     -10.583  10.568  69.641  1.00  0.00    -0.281 C  
BRANCH  32  33
HETATM   33  C   UNL     1     -10.767   9.249  70.403  1.00  0.00    -0.300 C  
BRANCH  33  34
HETATM   34  C   UNL     1      -9.551   8.959  71.245  1.00  0.00    -0.348 A  
HETATM   35  C   UNL     1      -7.291   8.249  72.739  1.00  0.00    -0.143 A  
HETATM   36  C   UNL     1      -8.267   9.108  70.702  1.00  0.00    -0.220 A  
HETATM   37  C   UNL     1      -7.142   8.755  71.448  1.00  0.00    -0.099 A  
HETATM   38  C   UNL     1      -8.563   8.109  73.289  1.00  0.00    -0.308 A  
HETATM   39  C   UNL     1      -9.689   8.463  72.547  1.00  0.00    -0.359 A  
ENDBRANCH  33  34
ENDBRANCH  32  33
ENDBRANCH  31  32
ENDBRANCH  29  31
ENDBRANCH  28  29
ENDBRANCH  27  28
ENDBRANCH  14  27
ENDBRANCH  13  14
ENDBRANCH  12  13
ENDBRANCH   2  12
TORSDOF 20
ENDMDL
MODEL      324
REMARK 921   NORMALIZED FREE ENERGY PREDICTED BY IDOCK:   -3.37 KCAL/MOL
REMARK 922        TOTAL FREE ENERGY PREDICTED BY IDOCK:  -11.98 KCAL/MOL
REMARK 923 INTER-LIGAND FREE ENERGY PREDICTED BY IDOCK:   -9.21 KCAL/MOL
REMARK 924 INTRA-LIGAND FREE ENERGY PREDICTED BY IDOCK:   -2.78 KCAL/MOL
REMARK 927      BINDING AFFINITY PREDICTED BY RF-SCORE:    0.00 PKD
ROOT
HETATM    1  O   UNL     1     -10.381   8.282  66.292  1.00  0.00    -0.134 OA 
HETATM    2  C   UNL     1      -9.336   8.798  65.920  1.00  0.00    -0.218 C  
ENDROOT
BRANCH   2   3
HETATM    3  C   UNL     1      -9.033   9.163  64.486  1.00  0.00    -0.129 C  
BRANCH   3   4
HETATM    4  C   UNL     1      -9.153  10.667  64.235  1.00  0.00    -0.244 C  
BRANCH   4   5
HETATM    5  C   UNL     1     -10.443  11.031  63.492  1.00  0.00    -0.365 C  
BRANCH   5   6
HETATM    6  C   UNL     1     -11.215  12.118  64.195  1.00  0.00    -0.433 A  
HETATM    7  C   UNL     1     -11.561  11.979  65.547  1.00  0.00    -0.352 A  
HETATM    8  C   UNL     1     -12.666  14.128  65.507  1.00  0.00    -0.468 A  
HETATM    9  C   UNL     1     -12.281  12.981  66.199  1.00  0.00    -0.428 A  
HETATM   10  C   UNL     1     -11.610  13.273  63.508  1.00  0.00    -0.301 A  
HETATM   11  C   UNL     1     -12.330  14.273  64.162  1.00  0.00    -0.361 A  
ENDBRANCH   5   6
ENDBRANCH   4   5
ENDBRANCH   3   4
ENDBRANCH   2   3
BRANCH   2  12
HETATM   12  O   UNL     1      -8.287   9.121  66.725  1.00  0.00    -0.120 OA 
BRANCH  12  13
HETATM   13  C   UNL     1      -8.608   9.763  67.974  1.00  0.00    -0.122 C  
BRANCH  13  14
HETATM   14  C   UNL     1      -7.687  10.967  68.193  1.00  0.00    -0.103 C  
BRANCH  14  15
HETATM   15  O   UNL     1      -7.741  11.816  67.028  1.00  0.00    -0.154 OA 
BRANCH  15  16
HETATM   16  C   UNL     1      -7.538  13.143  67.246  1.00  0.00    -0.080 C  
HETATM   17  O   UNL     1      -6.460  13.671  67.471  1.00  0.00    -0.209 OA 
BRANCH  16  18
HETATM   18  C   UNL     1      -8.854  13.878  67.200  1.00  0.00    -0.236 C  
BRANCH  18  19
HETATM   19  C   UNL     1      -9.387  14.173  68.597  1.00  0.00    -0.152 C  
BRANCH  19  20
HETATM   20  C   UNL     1     -10.686  13.422  68.914  1.00  0.00    -0.219 C  
BRANCH  20  21
HETATM   21  C   UNL     1     -11.461  14.170  69.968  1.00  0.00    -0.258 A  
HETATM   22  C   UNL     1     -13.036  15.646  71.752  1.00  0.00    -0.546 A  
HETATM   23  C   UNL     1     -11.096  15.475  70.324  1.00  0.00    -0.345 A  
HETATM   24  C   UNL     1     -12.612  13.605  70.533  1.00  0.00    -0.337 A  
HETATM   25  C   UNL     1     -11.882  16.208  71.214  1.00  0.00    -0.458 A  
HETATM   26  C   UNL     1     -13.397  14.341  71.420  1.00  0.00    -0.411 A  
ENDBRANCH  20  21
ENDBRANCH  19  20
ENDBRANCH  18  19
ENDBRANCH  16  18
ENDBRANCH  15  16
ENDBRANCH  14  15
BRANCH  14  27
HETATM   27  C   UNL     1      -6.231  10.523  68.380  1.00  0.00    -0.050 C  
BRANCH  27  28
HETATM   28  O   UNL     1      -6.114   9.526  69.405  1.00  0.00    -0.036 OA 
BRANCH  28  29
HETATM   29  C   UNL     1      -6.168  10.008  70.678  1.00  0.00    -0.103 C  
HETATM   30  O   UNL     1      -5.759  11.106  71.028  1.00  0.00    -0.303 OA 
BRANCH  29  31
HETATM   31  C   UNL     1      -6.813   8.995  71.590  1.00  0.00    -0.024 C  
BRANCH  31  32
HETATM   32  C   UNL     1      -7.737   8.053  70.826  1.00  0.00    -0.082 C  
BRANCH  32  33
HETATM   33  C   UNL     1      -7.551   6.583  71.224  1.00  0.00    -0.094 C  
BRANCH  33  34
HETATM   34  C   UNL     1      -8.809   6.053  71.864  1.00  0.00    -0.138 A  
HETATM   35  C   UNL     1     -11.225   5.072  72.886  1.00  0.00    -0.344 A  
HETATM   36  C   UNL     1      -9.059   4.675  71.891  1.00  0.00    -0.162 A  
HETATM   37  C   UNL     1     -10.263   4.187  72.400  1.00  0.00    -0.239 A  
HETATM   38  C   UNL     1     -10.978   6.444  72.874  1.00  0.00    -0.281 A  
HETATM   39  C   UNL     1      -9.775   6.934  72.366  1.00  0.00    -0.168 A  
ENDBRANCH  33  34
ENDBRANCH  32  33
ENDBRANCH  31  32
ENDBRANCH  29  31
ENDBRANCH  28  29
ENDBRANCH  27  28
ENDBRANCH  14  27
ENDBRANCH  13  14
ENDBRANCH  12  13
ENDBRANCH   2  12
TORSDOF 20
ENDMDL
MODEL      325
REMARK 921   NORMALIZED FREE ENERGY PREDICTED BY IDOCK:   -3.33 KCAL/MOL
REMARK 922        TOTAL FREE ENERGY PREDICTED BY IDOCK:  -11.90 KCAL/MOL
REMARK 923 INTER-LIGAND FREE ENERGY PREDICTED BY IDOCK:   -8.63 KCAL/MOL
REMARK 924 INTRA-LIGAND FREE ENERGY PREDICTED BY IDOCK:   -3.26 KCAL/MOL
REMARK 927      BINDING AFFINITY PREDICTED BY RF-SCORE:    0.00 PKD
ROOT
HETATM    1  O   UNL     1      -7.485  10.219  70.392  1.00  0.00    -0.250 OA 
HETATM    2  C   UNL     1      -7.294   9.612  69.348  1.00  0.00    -0.081 C  
ENDROOT
BRANCH   2   3
HETATM    3  C   UNL     1      -7.240  10.260  67.985  1.00  0.00    -0.085 C  
BRANCH   3   4
HETATM    4  C   UNL     1      -8.614  10.313  67.315  1.00  0.00    -0.125 C  
BRANCH   4   5
HETATM    5  C   UNL     1      -8.662  11.327  66.167  1.00  0.00    -0.179 C  
BRANCH   5   6
HETATM    6  C   UNL     1      -9.884  12.207  66.240  1.00  0.00    -0.250 A  
HETATM    7  C   UNL     1      -9.861  13.388  66.996  1.00  0.00    -0.250 A  
HETATM    8  C   UNL     1     -12.158  13.842  66.397  1.00  0.00    -0.483 A  
HETATM    9  C   UNL     1     -10.992  14.202  67.071  1.00  0.00    -0.303 A  
HETATM   10  C   UNL     1     -11.062  11.853  65.570  1.00  0.00    -0.356 A  
HETATM   11  C   UNL     1     -12.192  12.667  65.647  1.00  0.00    -0.474 A  
ENDBRANCH   5   6
ENDBRANCH   4   5
ENDBRANCH   3   4
ENDBRANCH   2   3
BRANCH   2  12
HETATM   12  O   UNL     1      -7.103   8.267  69.243  1.00  0.00    -0.057 OA 
BRANCH  12  13
HETATM   13  C   UNL     1      -7.507   7.470  70.373  1.00  0.00    -0.081 C  
BRANCH  13  14
HETATM   14  C   UNL     1      -7.968   6.089  69.899  1.00  0.00    -0.113 C  
BRANCH  14  15
HETATM   15  O   UNL     1      -9.213   6.231  69.185  1.00  0.00    -0.129 OA 
BRANCH  15  16
HETATM   16  C   UNL     1      -9.352   5.468  68.068  1.00  0.00    -0.110 C  
HETATM   17  O   UNL     1     -10.131   4.536  67.933  1.00  0.00    -0.091 OA 
BRANCH  16  18
HETATM   18  C   UNL     1      -8.374   5.920  67.013  1.00  0.00    -0.105 C  
BRANCH  18  19
HETATM   19  C   UNL     1      -8.865   5.590  65.607  1.00  0.00    -0.154 C  
BRANCH  19  20
HETATM   20  C   UNL     1      -7.944   4.615  64.864  1.00  0.00    -0.099 C  
BRANCH  20  21
HETATM   21  C   UNL     1      -8.775   3.609  64.108  1.00  0.00    -0.101 A  
HETATM   22  C   UNL     1     -10.296   1.882  62.515  1.00  0.00    -0.100 A  
HETATM   23  C   UNL     1     -10.169   3.737  64.056  1.00  0.00    -0.233 A  
HETATM   24  C   UNL     1      -8.153   2.592  63.371  1.00  0.00    -0.074 A  
HETATM   25  C   UNL     1     -10.925   2.874  63.261  1.00  0.00    -0.170 A  
HETATM   26  C   UNL     1      -8.911   1.733  62.577  1.00  0.00    -0.072 A  
ENDBRANCH  20  21
ENDBRANCH  19  20
ENDBRANCH  18  19
ENDBRANCH  16  18
ENDBRANCH  15  16
ENDBRANCH  14  15
BRANCH  14  27
HETATM   27  C   UNL     1      -8.216   5.151  71.087  1.00  0.00    -0.116 C  
BRANCH  27  28
HETATM   28  O   UNL     1      -8.825   5.845  72.185  1.00  0.00    -0.136 OA 
BRANCH  28  29
HETATM   29  C   UNL     1      -9.977   5.282  72.646  1.00  0.00    -0.163 C  
HETATM   30  O   UNL     1     -10.266   4.098  72.547  1.00  0.00    -0.167 OA 
BRANCH  29  31
HETATM   31  C   UNL     1     -10.839   6.330  73.304  1.00  0.00    -0.269 C  
BRANCH  31  32
HETATM   32  C   UNL     1     -10.716   7.682  72.611  1.00  0.00    -0.377 C  
BRANCH  32  33
HETATM   33  C   UNL     1     -12.067   8.388  72.435  1.00  0.00    -0.443 C  
BRANCH  33  34
HETATM   34  C   UNL     1     -11.908   9.609  71.567  1.00  0.00    -0.483 A  
HETATM   35  C   UNL     1     -11.747  11.813  69.846  1.00  0.00    -0.399 A  
HETATM   36  C   UNL     1     -12.719  10.733  71.776  1.00  0.00    -0.464 A  
HETATM   37  C   UNL     1     -12.638  11.830  70.919  1.00  0.00    -0.384 A  
HETATM   38  C   UNL     1     -10.928  10.704  69.639  1.00  0.00    -0.331 A  
HETATM   39  C   UNL     1     -11.007   9.607  70.495  1.00  0.00    -0.374 A  
ENDBRANCH  33  34
ENDBRANCH  32  33
ENDBRANCH  31  32
ENDBRANCH  29  31
ENDBRANCH  28  29
ENDBRANCH  27  28
ENDBRANCH  14  27
ENDBRANCH  13  14
ENDBRANCH  12  13
ENDBRANCH   2  12
TORSDOF 20
ENDMDL
MODEL      326
REMARK 921   NORMALIZED FREE ENERGY PREDICTED BY IDOCK:   -3.32 KCAL/MOL
REMARK 922        TOTAL FREE ENERGY PREDICTED BY IDOCK:  -11.89 KCAL/MOL
REMARK 923 INTER-LIGAND FREE ENERGY PREDICTED BY IDOCK:   -9.62 KCAL/MOL
REMARK 924 INTRA-LIGAND FREE ENERGY PREDICTED BY IDOCK:   -2.27 KCAL/MOL
REMARK 927      BINDING AFFINITY PREDICTED BY RF-SCORE:    0.00 PKD
ROOT
HETATM    1  O   UNL     1      -6.239  10.827  70.243  1.00  0.00    -0.124 OA 
HETATM    2  C   UNL     1      -6.952  10.685  69.259  1.00  0.00    -0.096 C  
ENDROOT
BRANCH   2   3
HETATM    3  C   UNL     1      -6.684   9.693  68.152  1.00  0.00    -0.062 C  
BRANCH   3   4
HETATM    4  C   UNL     1      -7.790   8.643  68.037  1.00  0.00    -0.103 C  
BRANCH   4   5
HETATM    5  C   UNL     1      -7.509   7.406  68.898  1.00  0.00    -0.101 C  
BRANCH   5   6
HETATM    6  C   UNL     1      -7.739   6.124  68.139  1.00  0.00    -0.103 A  
HETATM    7  C   UNL     1      -6.997   4.975  68.450  1.00  0.00    -0.057 A  
HETATM    8  C   UNL     1      -8.146   3.739  66.721  1.00  0.00    -0.096 A  
HETATM    9  C   UNL     1      -7.203   3.789  67.745  1.00  0.00    -0.062 A  
HETATM   10  C   UNL     1      -8.682   6.064  67.105  1.00  0.00    -0.109 A  
HETATM   11  C   UNL     1      -8.886   4.877  66.401  1.00  0.00    -0.113 A  
ENDBRANCH   5   6
ENDBRANCH   4   5
ENDBRANCH   3   4
ENDBRANCH   2   3
BRANCH   2  12
HETATM   12  O   UNL     1      -8.088  11.390  69.002  1.00  0.00    -0.106 OA 
BRANCH  12  13
HETATM   13  C   UNL     1      -8.072  12.234  67.834  1.00  0.00    -0.155 C  
BRANCH  13  14
HETATM   14  C   UNL     1      -9.505  12.590  67.428  1.00  0.00    -0.184 C  
BRANCH  14  15
HETATM   15  O   UNL     1      -9.526  13.943  66.926  1.00  0.00    -0.240 OA 
BRANCH  15  16
HETATM   16  C   UNL     1      -9.427  14.928  67.858  1.00  0.00    -0.200 C  
HETATM   17  O   UNL     1      -8.668  14.930  68.815  1.00  0.00    -0.170 OA 
BRANCH  16  18
HETATM   18  C   UNL     1     -10.422  16.021  67.557  1.00  0.00    -0.297 C  
BRANCH  18  19
HETATM   19  C   UNL     1     -11.557  16.049  68.574  1.00  0.00    -0.316 C  
BRANCH  19  20
HETATM   20  C   UNL     1     -11.101  16.487  69.970  1.00  0.00    -0.217 C  
BRANCH  20  21
HETATM   21  C   UNL     1     -11.965  15.830  71.017  1.00  0.00    -0.462 A  
HETATM   22  C   UNL     1     -13.410  14.435  72.967  1.00  0.00    -0.484 A  
HETATM   23  C   UNL     1     -12.958  14.915  70.643  1.00  0.00    -0.389 A  
HETATM   24  C   UNL     1     -11.719  16.054  72.378  1.00  0.00    -0.573 A  
HETATM   25  C   UNL     1     -13.677  14.221  71.617  1.00  0.00    -0.466 A  
HETATM   26  C   UNL     1     -12.438  15.358  73.349  1.00  0.00    -0.633 A  
ENDBRANCH  20  21
ENDBRANCH  19  20
ENDBRANCH  18  19
ENDBRANCH  16  18
ENDBRANCH  15  16
ENDBRANCH  14  15
BRANCH  14  27
HETATM   27  C   UNL     1     -10.453  12.525  68.631  1.00  0.00    -0.200 C  
BRANCH  27  28
HETATM   28  O   UNL     1     -11.486  11.549  68.433  1.00  0.00    -0.246 OA 
BRANCH  28  29
HETATM   29  C   UNL     1     -11.924  10.943  69.572  1.00  0.00    -0.330 C  
HETATM   30  O   UNL     1     -13.023  11.116  70.079  1.00  0.00    -0.039 OA 
BRANCH  29  31
HETATM   31  C   UNL     1     -10.859  10.021  70.111  1.00  0.00    -0.365 C  
BRANCH  31  32
HETATM   32  C   UNL     1     -11.171   9.565  71.532  1.00  0.00    -0.437 C  
BRANCH  32  33
HETATM   33  C   UNL     1     -12.221   8.448  71.583  1.00  0.00    -0.358 C  
BRANCH  33  34
HETATM   34  C   UNL     1     -11.547   7.103  71.679  1.00  0.00    -0.309 A  
HETATM   35  C   UNL     1     -10.134   4.693  71.883  1.00  0.00    -0.266 A  
HETATM   36  C   UNL     1     -11.345   6.503  72.930  1.00  0.00    -0.172 A  
HETATM   37  C   UNL     1     -10.642   5.303  73.030  1.00  0.00    -0.278 A  
HETATM   38  C   UNL     1     -10.341   5.277  70.635  1.00  0.00    -0.324 A  
HETATM   39  C   UNL     1     -11.045   6.476  70.532  1.00  0.00    -0.375 A  
ENDBRANCH  33  34
ENDBRANCH  32  33
ENDBRANCH  31  32
ENDBRANCH  29  31
ENDBRANCH  28  29
ENDBRANCH  27  28
ENDBRANCH  14  27
ENDBRANCH  13  14
ENDBRANCH  12  13
ENDBRANCH   2  12
TORSDOF 20
ENDMDL
MODEL      327
REMARK 921   NORMALIZED FREE ENERGY PREDICTED BY IDOCK:   -3.31 KCAL/MOL
REMARK 922        TOTAL FREE ENERGY PREDICTED BY IDOCK:  -11.86 KCAL/MOL
REMARK 923 INTER-LIGAND FREE ENERGY PREDICTED BY IDOCK:   -9.06 KCAL/MOL
REMARK 924 INTRA-LIGAND FREE ENERGY PREDICTED BY IDOCK:   -2.81 KCAL/MOL
REMARK 927      BINDING AFFINITY PREDICTED BY RF-SCORE:    0.00 PKD
ROOT
HETATM    1  O   UNL     1     -10.004   2.521  72.164  1.00  0.00    -0.149 OA 
HETATM    2  C   UNL     1      -9.093   3.277  71.858  1.00  0.00    -0.109 C  
ENDROOT
BRANCH   2   3
HETATM    3  C   UNL     1      -7.640   3.035  72.190  1.00  0.00    -0.053 C  
BRANCH   3   4
HETATM    4  C   UNL     1      -7.335   3.283  73.669  1.00  0.00    -0.055 C  
BRANCH   4   5
HETATM    5  C   UNL     1      -8.250   4.351  74.279  1.00  0.00    -0.091 C  
BRANCH   5   6
HETATM    6  C   UNL     1      -7.711   5.743  74.073  1.00  0.00    -0.099 A  
HETATM    7  C   UNL     1      -8.437   6.856  74.522  1.00  0.00    -0.195 A  
HETATM    8  C   UNL     1      -6.725   8.339  73.679  1.00  0.00    -0.145 A  
HETATM    9  C   UNL     1      -7.943   8.147  74.327  1.00  0.00    -0.310 A  
HETATM   10  C   UNL     1      -6.490   5.948  73.419  1.00  0.00    -0.072 A  
HETATM   11  C   UNL     1      -5.998   7.239  73.225  1.00  0.00    -0.056 A  
ENDBRANCH   5   6
ENDBRANCH   4   5
ENDBRANCH   3   4
ENDBRANCH   2   3
BRANCH   2  12
HETATM   12  O   UNL     1      -9.237   4.448  71.178  1.00  0.00    -0.123 OA 
BRANCH  12  13
HETATM   13  C   UNL     1     -10.012   4.397  69.965  1.00  0.00    -0.175 C  
BRANCH  13  14
HETATM   14  C   UNL     1     -10.458   5.808  69.570  1.00  0.00    -0.293 C  
BRANCH  14  15
HETATM   15  O   UNL     1     -11.556   6.206  70.418  1.00  0.00    -0.343 OA 
BRANCH  15  16
HETATM   16  C   UNL     1     -11.219   6.840  71.573  1.00  0.00    -0.260 C  
HETATM   17  O   UNL     1     -11.445   6.431  72.702  1.00  0.00    -0.256 OA 
BRANCH  16  18
HETATM   18  C   UNL     1     -10.544   8.152  71.261  1.00  0.00    -0.258 C  
BRANCH  18  19
HETATM   19  C   UNL     1     -11.465   9.094  70.493  1.00  0.00    -0.271 C  
BRANCH  19  20
HETATM   20  C   UNL     1     -12.578   9.687  71.365  1.00  0.00    -0.463 C  
BRANCH  20  21
HETATM   21  C   UNL     1     -12.565  11.190  71.252  1.00  0.00    -0.503 A  
HETATM   22  C   UNL     1     -12.740  13.964  70.914  1.00  0.00    -0.410 A  
HETATM   23  C   UNL     1     -11.927  11.814  70.171  1.00  0.00    -0.421 A  
HETATM   24  C   UNL     1     -13.273  11.974  72.173  1.00  0.00    -0.400 A  
HETATM   25  C   UNL     1     -12.015  13.197  70.006  1.00  0.00    -0.391 A  
HETATM   26  C   UNL     1     -13.361  13.355  72.003  1.00  0.00    -0.569 A  
ENDBRANCH  20  21
ENDBRANCH  19  20
ENDBRANCH  18  19
ENDBRANCH  16  18
ENDBRANCH  15  16
ENDBRANCH  14  15
BRANCH  14  27
HETATM   27  C   UNL     1     -10.952   5.846  68.120  1.00  0.00    -0.162 C  
BRANCH  27  28
HETATM   28  O   UNL     1      -9.901   6.219  67.217  1.00  0.00    -0.125 OA 
BRANCH  28  29
HETATM   29  C   UNL     1      -9.759   7.562  67.031  1.00  0.00    -0.198 C  
HETATM   30  O   UNL     1     -10.622   8.395  67.266  1.00  0.00    -0.302 OA 
BRANCH  29  31
HETATM   31  C   UNL     1      -8.381   7.870  66.503  1.00  0.00    -0.127 C  
BRANCH  31  32
HETATM   32  C   UNL     1      -8.423   8.885  65.366  1.00  0.00    -0.176 C  
BRANCH  32  33
HETATM   33  C   UNL     1      -7.657  10.175  65.688  1.00  0.00    -0.144 C  
BRANCH  33  34
HETATM   34  C   UNL     1      -8.600  11.221  66.224  1.00  0.00    -0.172 A  
HETATM   35  C   UNL     1     -10.288  13.282  67.090  1.00  0.00    -0.248 A  
HETATM   36  C   UNL     1      -9.868  11.387  65.650  1.00  0.00    -0.274 A  
HETATM   37  C   UNL     1     -10.708  12.413  66.083  1.00  0.00    -0.292 A  
HETATM   38  C   UNL     1      -9.033  13.115  67.674  1.00  0.00    -0.192 A  
HETATM   39  C   UNL     1      -8.192  12.090  67.244  1.00  0.00    -0.173 A  
ENDBRANCH  33  34
ENDBRANCH  32  33
ENDBRANCH  31  32
ENDBRANCH  29  31
ENDBRANCH  28  29
ENDBRANCH  27  28
ENDBRANCH  14  27
ENDBRANCH  13  14
ENDBRANCH  12  13
ENDBRANCH   2  12
TORSDOF 20
ENDMDL
MODEL      328
REMARK 921   NORMALIZED FREE ENERGY PREDICTED BY IDOCK:   -3.29 KCAL/MOL
REMARK 922        TOTAL FREE ENERGY PREDICTED BY IDOCK:  -11.83 KCAL/MOL
REMARK 923 INTER-LIGAND FREE ENERGY PREDICTED BY IDOCK:   -8.41 KCAL/MOL
REMARK 924 INTRA-LIGAND FREE ENERGY PREDICTED BY IDOCK:   -3.41 KCAL/MOL
REMARK 927      BINDING AFFINITY PREDICTED BY RF-SCORE:    0.00 PKD
ROOT
HETATM    1  O   UNL     1     -12.926  13.269  71.092  1.00  0.00    -0.296 OA 
HETATM    2  C   UNL     1     -12.356  13.631  70.073  1.00  0.00    -0.278 C  
ENDROOT
BRANCH   2   3
HETATM    3  C   UNL     1     -12.764  14.830  69.251  1.00  0.00     0.256 C  
BRANCH   3   4
HETATM    4  C   UNL     1     -11.557  15.609  68.725  1.00  0.00    -0.393 C  
BRANCH   4   5
HETATM    5  C   UNL     1     -11.621  15.823  67.208  1.00  0.00     0.146 C  
BRANCH   5   6
HETATM    6  C   UNL     1     -11.575  14.520  66.450  1.00  0.00    -0.370 A  
HETATM    7  C   UNL     1     -10.405  13.747  66.443  1.00  0.00    -0.290 A  
HETATM    8  C   UNL     1     -11.474  12.105  65.029  1.00  0.00    -0.377 A  
HETATM    9  C   UNL     1     -10.357  12.544  65.737  1.00  0.00    -0.288 A  
HETATM   10  C   UNL     1     -12.690  14.072  65.732  1.00  0.00    -0.487 A  
HETATM   11  C   UNL     1     -12.640  12.869  65.027  1.00  0.00    -0.538 A  
ENDBRANCH   5   6
ENDBRANCH   4   5
ENDBRANCH   3   4
ENDBRANCH   2   3
BRANCH   2  12
HETATM   12  O   UNL     1     -11.274  13.019  69.516  1.00  0.00    -0.187 OA 
BRANCH  12  13
HETATM   13  C   UNL     1     -11.392  11.606  69.265  1.00  0.00    -0.290 C  
BRANCH  13  14
HETATM   14  C   UNL     1     -10.187  10.868  69.857  1.00  0.00     0.273 C  
BRANCH  14  15
HETATM   15  O   UNL     1      -9.405  10.311  68.780  1.00  0.00    -0.150 OA 
BRANCH  15  16
HETATM   16  C   UNL     1      -8.058  10.467  68.878  1.00  0.00    -0.129 C  
HETATM   17  O   UNL     1      -7.341   9.958  69.726  1.00  0.00    -0.094 OA 
BRANCH  16  18
HETATM   18  C   UNL     1      -7.569  11.393  67.793  1.00  0.00    -0.105 C  
BRANCH  18  19
HETATM   19  C   UNL     1      -6.905  12.639  68.369  1.00  0.00    -0.090 C  
BRANCH  19  20
HETATM   20  C   UNL     1      -7.911  13.638  68.953  1.00  0.00     0.035 C  
BRANCH  20  21
HETATM   21  C   UNL     1      -7.291  15.012  69.003  1.00  0.00    -0.151 A  
HETATM   22  C   UNL     1      -6.005  17.497  68.912  1.00  0.00    -0.186 A  
HETATM   23  C   UNL     1      -6.146  15.245  69.774  1.00  0.00    -0.144 A  
HETATM   24  C   UNL     1      -7.798  16.044  68.202  1.00  0.00    -0.142 A  
HETATM   25  C   UNL     1      -5.507  16.485  69.728  1.00  0.00    -0.165 A  
HETATM   26  C   UNL     1      -7.156  17.281  68.156  1.00  0.00    -0.190 A  
ENDBRANCH  20  21
ENDBRANCH  19  20
ENDBRANCH  18  19
ENDBRANCH  16  18
ENDBRANCH  15  16
ENDBRANCH  14  15
BRANCH  14  27
HETATM   27  C   UNL     1     -10.635   9.710  70.756  1.00  0.00    -0.322 C  
BRANCH  27  28
HETATM   28  O   UNL     1     -12.057   9.711  70.944  1.00  0.00    -0.293 OA 
BRANCH  28  29
HETATM   29  C   UNL     1     -12.501   8.903  71.948  1.00  0.00    -0.378 C  
HETATM   30  O   UNL     1     -13.653   8.859  72.353  1.00  0.00    -0.426 OA 
BRANCH  29  31
HETATM   31  C   UNL     1     -11.365   8.064  72.478  1.00  0.00    -0.469 C  
BRANCH  31  32
HETATM   32  C   UNL     1     -11.550   6.587  72.147  1.00  0.00    -0.349 C  
BRANCH  32  33
HETATM   33  C   UNL     1     -11.543   6.307  70.639  1.00  0.00    -0.350 C  
BRANCH  33  34
HETATM   34  C   UNL     1     -10.382   5.417  70.279  1.00  0.00    -0.357 A  
HETATM   35  C   UNL     1      -8.346   3.637  69.548  1.00  0.00    -0.077 A  
HETATM   36  C   UNL     1      -9.841   5.451  68.986  1.00  0.00    -0.231 A  
HETATM   37  C   UNL     1      -8.827   4.564  68.624  1.00  0.00    -0.130 A  
HETATM   38  C   UNL     1      -8.870   3.605  70.839  1.00  0.00    -0.138 A  
HETATM   39  C   UNL     1      -9.883   4.491  71.204  1.00  0.00    -0.263 A  
ENDBRANCH  33  34
ENDBRANCH  32  33
ENDBRANCH  31  32
ENDBRANCH  29  31
ENDBRANCH  28  29
ENDBRANCH  27  28
ENDBRANCH  14  27
ENDBRANCH  13  14
ENDBRANCH  12  13
ENDBRANCH   2  12
TORSDOF 20
ENDMDL
MODEL      329
REMARK 921   NORMALIZED FREE ENERGY PREDICTED BY IDOCK:   -3.29 KCAL/MOL
REMARK 922        TOTAL FREE ENERGY PREDICTED BY IDOCK:  -11.82 KCAL/MOL
REMARK 923 INTER-LIGAND FREE ENERGY PREDICTED BY IDOCK:   -8.44 KCAL/MOL
REMARK 924 INTRA-LIGAND FREE ENERGY PREDICTED BY IDOCK:   -3.38 KCAL/MOL
REMARK 927      BINDING AFFINITY PREDICTED BY RF-SCORE:    0.00 PKD
ROOT
HETATM    1  O   UNL     1      -5.866   8.147  70.086  1.00  0.00    -0.023 OA 
HETATM    2  C   UNL     1      -6.487   9.095  69.627  1.00  0.00    -0.042 C  
ENDROOT
BRANCH   2   3
HETATM    3  C   UNL     1      -6.112   9.820  68.356  1.00  0.00    -0.046 C  
BRANCH   3   4
HETATM    4  C   UNL     1      -5.770   8.856  67.219  1.00  0.00    -0.042 C  
BRANCH   4   5
HETATM    5  C   UNL     1      -7.023   8.278  66.552  1.00  0.00    -0.068 C  
BRANCH   5   6
HETATM    6  C   UNL     1      -7.089   8.614  65.084  1.00  0.00    -0.086 A  
HETATM    7  C   UNL     1      -7.562   7.668  64.162  1.00  0.00    -0.113 A  
HETATM    8  C   UNL     1      -7.198   9.223  62.349  1.00  0.00    -0.100 A  
HETATM    9  C   UNL     1      -7.618   7.974  62.802  1.00  0.00    -0.123 A  
HETATM   10  C   UNL     1      -6.665   9.865  64.617  1.00  0.00    -0.123 A  
HETATM   11  C   UNL     1      -6.722  10.168  63.256  1.00  0.00    -0.131 A  
ENDBRANCH   5   6
ENDBRANCH   4   5
ENDBRANCH   3   4
ENDBRANCH   2   3
BRANCH   2  12
HETATM   12  O   UNL     1      -7.603   9.647  70.178  1.00  0.00    -0.122 OA 
BRANCH  12  13
HETATM   13  C   UNL     1      -8.247  10.690  69.421  1.00  0.00    -0.078 C  
BRANCH  13  14
HETATM   14  C   UNL     1      -9.745  10.398  69.300  1.00  0.00    -0.214 C  
BRANCH  14  15
HETATM   15  O   UNL     1     -10.203   9.783  70.523  1.00  0.00    -0.274 OA 
BRANCH  15  16
HETATM   16  C   UNL     1     -11.500  10.013  70.858  1.00  0.00    -0.371 C  
HETATM   17  O   UNL     1     -12.222  10.868  70.368  1.00  0.00    -0.306 OA 
BRANCH  16  18
HETATM   18  C   UNL     1     -11.921   9.069  71.957  1.00  0.00    -0.433 C  
BRANCH  18  19
HETATM   19  C   UNL     1     -11.209   7.725  71.852  1.00  0.00    -0.310 C  
BRANCH  19  20
HETATM   20  C   UNL     1     -11.842   6.790  70.815  1.00  0.00    -0.446 C  
BRANCH  20  21
HETATM   21  C   UNL     1     -10.787   6.318  69.846  1.00  0.00    -0.399 A  
HETATM   22  C   UNL     1      -8.794   5.670  67.991  1.00  0.00    -0.105 A  
HETATM   23  C   UNL     1     -11.123   6.034  68.517  1.00  0.00    -0.279 A  
HETATM   24  C   UNL     1      -9.445   6.253  70.241  1.00  0.00    -0.173 A  
HETATM   25  C   UNL     1     -10.128   5.710  67.594  1.00  0.00    -0.208 A  
HETATM   26  C   UNL     1      -8.452   5.932  69.316  1.00  0.00    -0.113 A  
ENDBRANCH  20  21
ENDBRANCH  19  20
ENDBRANCH  18  19
ENDBRANCH  16  18
ENDBRANCH  15  16
ENDBRANCH  14  15
BRANCH  14  27
HETATM   27  C   UNL     1     -10.028   9.421  68.153  1.00  0.00    -0.175 C  
BRANCH  27  28
HETATM   28  O   UNL     1     -11.092   9.891  67.313  1.00  0.00    -0.208 OA 
BRANCH  28  29
HETATM   29  C   UNL     1     -10.684  10.558  66.196  1.00  0.00    -0.045 C  
HETATM   30  O   UNL     1      -9.975  10.085  65.320  1.00  0.00    -0.315 OA 
BRANCH  29  31
HETATM   31  C   UNL     1     -11.243  11.958  66.194  1.00  0.00    -0.387 C  
BRANCH  31  32
HETATM   32  C   UNL     1     -10.646  12.805  65.076  1.00  0.00    -0.330 C  
BRANCH  32  33
HETATM   33  C   UNL     1     -11.301  14.187  64.959  1.00  0.00    -0.350 C  
BRANCH  33  34
HETATM   34  C   UNL     1     -10.808  15.092  66.059  1.00  0.00    -0.335 A  
HETATM   35  C   UNL     1     -10.008  16.903  68.040  1.00  0.00    -0.279 A  
HETATM   36  C   UNL     1     -11.485  15.147  67.284  1.00  0.00    -0.284 A  
HETATM   37  C   UNL     1     -11.086  16.049  68.271  1.00  0.00    -0.351 A  
HETATM   38  C   UNL     1      -9.322  16.847  66.829  1.00  0.00    -0.267 A  
HETATM   39  C   UNL     1      -9.718  15.945  65.842  1.00  0.00    -0.386 A  
ENDBRANCH  33  34
ENDBRANCH  32  33
ENDBRANCH  31  32
ENDBRANCH  29  31
ENDBRANCH  28  29
ENDBRANCH  27  28
ENDBRANCH  14  27
ENDBRANCH  13  14
ENDBRANCH  12  13
ENDBRANCH   2  12
TORSDOF 20
ENDMDL
MODEL      330
REMARK 921   NORMALIZED FREE ENERGY PREDICTED BY IDOCK:   -3.28 KCAL/MOL
REMARK 922        TOTAL FREE ENERGY PREDICTED BY IDOCK:  -11.79 KCAL/MOL
REMARK 923 INTER-LIGAND FREE ENERGY PREDICTED BY IDOCK:   -9.73 KCAL/MOL
REMARK 924 INTRA-LIGAND FREE ENERGY PREDICTED BY IDOCK:   -2.06 KCAL/MOL
REMARK 927      BINDING AFFINITY PREDICTED BY RF-SCORE:    0.00 PKD
ROOT
HETATM    1  O   UNL     1      -8.111   5.979  67.714  1.00  0.00    -0.108 OA 
HETATM    2  C   UNL     1      -8.498   7.082  67.352  1.00  0.00    -0.122 C  
ENDROOT
BRANCH   2   3
HETATM    3  C   UNL     1      -9.892   7.612  67.587  1.00  0.00    -0.207 C  
BRANCH   3   4
HETATM    4  C   UNL     1     -10.642   6.813  68.655  1.00  0.00    -0.263 C  
BRANCH   4   5
HETATM    5  C   UNL     1     -10.271   7.251  70.076  1.00  0.00    -0.206 C  
BRANCH   5   6
HETATM    6  C   UNL     1     -11.412   7.951  70.769  1.00  0.00    -0.273 A  
HETATM    7  C   UNL     1     -11.393   9.344  70.933  1.00  0.00    -0.386 A  
HETATM    8  C   UNL     1     -13.522   9.260  72.072  1.00  0.00    -0.519 A  
HETATM    9  C   UNL     1     -12.445   9.994  71.579  1.00  0.00    -0.516 A  
HETATM   10  C   UNL     1     -12.498   7.223  71.271  1.00  0.00    -0.402 A  
HETATM   11  C   UNL     1     -13.548   7.875  71.918  1.00  0.00    -0.346 A  
ENDBRANCH   5   6
ENDBRANCH   4   5
ENDBRANCH   3   4
ENDBRANCH   2   3
BRANCH   2  12
HETATM   12  O   UNL     1      -7.746   7.999  66.683  1.00  0.00    -0.091 OA 
BRANCH  12  13
HETATM   13  C   UNL     1      -7.662   9.313  67.269  1.00  0.00    -0.095 C  
BRANCH  13  14
HETATM   14  C   UNL     1      -7.065  10.297  66.259  1.00  0.00    -0.117 C  
BRANCH  14  15
HETATM   15  O   UNL     1      -6.944  11.592  66.884  1.00  0.00    -0.140 OA 
BRANCH  15  16
HETATM   16  C   UNL     1      -7.891  11.900  67.810  1.00  0.00    -0.138 C  
HETATM   17  O   UNL     1      -8.379  11.122  68.615  1.00  0.00    -0.146 OA 
BRANCH  16  18
HETATM   18  C   UNL     1      -8.283  13.350  67.681  1.00  0.00    -0.177 C  
BRANCH  18  19
HETATM   19  C   UNL     1      -7.089  14.279  67.877  1.00  0.00    -0.169 C  
BRANCH  19  20
HETATM   20  C   UNL     1      -7.360  15.398  68.889  1.00  0.00    -0.147 C  
BRANCH  20  21
HETATM   21  C   UNL     1      -7.551  16.705  68.161  1.00  0.00    -0.171 A  
HETATM   22  C   UNL     1      -7.687  19.102  66.721  1.00  0.00    -0.259 A  
HETATM   23  C   UNL     1      -7.153  17.910  68.753  1.00  0.00    -0.268 A  
HETATM   24  C   UNL     1      -8.038  16.716  66.847  1.00  0.00    -0.249 A  
HETATM   25  C   UNL     1      -7.223  19.104  68.034  1.00  0.00    -0.286 A  
HETATM   26  C   UNL     1      -8.104  17.910  66.130  1.00  0.00    -0.208 A  
ENDBRANCH  20  21
ENDBRANCH  19  20
ENDBRANCH  18  19
ENDBRANCH  16  18
ENDBRANCH  15  16
ENDBRANCH  14  15
BRANCH  14  27
HETATM   27  C   UNL     1      -7.974  10.453  65.035  1.00  0.00    -0.126 C  
BRANCH  27  28
HETATM   28  O   UNL     1      -9.360  10.448  65.407  1.00  0.00    -0.176 OA 
BRANCH  28  29
HETATM   29  C   UNL     1     -10.167  11.204  64.610  1.00  0.00    -0.317 C  
HETATM   30  O   UNL     1     -10.911  10.761  63.747  1.00  0.00    -0.141 OA 
BRANCH  29  31
HETATM   31  C   UNL     1     -10.015  12.665  64.954  1.00  0.00    -0.169 C  
BRANCH  31  32
HETATM   32  C   UNL     1     -11.302  13.442  64.704  1.00  0.00    -0.372 C  
BRANCH  32  33
HETATM   33  C   UNL     1     -11.317  14.810  65.400  1.00  0.00    -0.356 C  
BRANCH  33  34
HETATM   34  C   UNL     1     -11.418  14.634  66.893  1.00  0.00    -0.372 A  
HETATM   35  C   UNL     1     -11.423  14.269  69.670  1.00  0.00    -0.334 A  
HETATM   36  C   UNL     1     -11.139  15.708  67.750  1.00  0.00    -0.311 A  
HETATM   37  C   UNL     1     -11.142  15.525  69.133  1.00  0.00    -0.272 A  
HETATM   38  C   UNL     1     -11.713  13.200  68.826  1.00  0.00    -0.363 A  
HETATM   39  C   UNL     1     -11.711  13.380  67.443  1.00  0.00    -0.415 A  
ENDBRANCH  33  34
ENDBRANCH  32  33
ENDBRANCH  31  32
ENDBRANCH  29  31
ENDBRANCH  28  29
ENDBRANCH  27  28
ENDBRANCH  14  27
ENDBRANCH  13  14
ENDBRANCH  12  13
ENDBRANCH   2  12
TORSDOF 20
ENDMDL
MODEL      331
REMARK 921   NORMALIZED FREE ENERGY PREDICTED BY IDOCK:   -3.28 KCAL/MOL
REMARK 922        TOTAL FREE ENERGY PREDICTED BY IDOCK:  -11.79 KCAL/MOL
REMARK 923 INTER-LIGAND FREE ENERGY PREDICTED BY IDOCK:   -8.02 KCAL/MOL
REMARK 924 INTRA-LIGAND FREE ENERGY PREDICTED BY IDOCK:   -3.77 KCAL/MOL
REMARK 927      BINDING AFFINITY PREDICTED BY RF-SCORE:    0.00 PKD
ROOT
HETATM    1  O   UNL     1     -11.483  13.451  66.353  1.00  0.00    -0.308 OA 
HETATM    2  C   UNL     1     -10.360  13.025  66.583  1.00  0.00    -0.260 C  
ENDROOT
BRANCH   2   3
HETATM    3  C   UNL     1      -9.263  13.831  67.236  1.00  0.00    -0.239 C  
BRANCH   3   4
HETATM    4  C   UNL     1      -9.656  15.298  67.421  1.00  0.00    -0.207 C  
BRANCH   4   5
HETATM    5  C   UNL     1      -9.059  16.201  66.337  1.00  0.00    -0.339 C  
BRANCH   5   6
HETATM    6  C   UNL     1      -9.235  17.664  66.657  1.00  0.00    -0.284 A  
HETATM    7  C   UNL     1     -10.514  18.185  66.901  1.00  0.00    -0.372 A  
HETATM    8  C   UNL     1      -9.576  20.386  67.235  1.00  0.00    -0.592 A  
HETATM    9  C   UNL     1     -10.682  19.539  67.191  1.00  0.00    -0.599 A  
HETATM   10  C   UNL     1      -8.131  18.525  66.700  1.00  0.00    -0.280 A  
HETATM   11  C   UNL     1      -8.301  19.879  66.990  1.00  0.00    -0.364 A  
ENDBRANCH   5   6
ENDBRANCH   4   5
ENDBRANCH   3   4
ENDBRANCH   2   3
BRANCH   2  12
HETATM   12  O   UNL     1      -9.919  11.770  66.290  1.00  0.00    -0.208 OA 
BRANCH  12  13
HETATM   13  C   UNL     1     -10.661  10.677  66.862  1.00  0.00    -0.237 C  
BRANCH  13  14
HETATM   14  C   UNL     1      -9.771   9.890  67.828  1.00  0.00    -0.150 C  
BRANCH  14  15
HETATM   15  O   UNL     1      -8.568   9.492  67.138  1.00  0.00    -0.130 OA 
BRANCH  15  16
HETATM   16  C   UNL     1      -7.406   9.638  67.829  1.00  0.00    -0.086 C  
HETATM   17  O   UNL     1      -7.253   9.415  69.020  1.00  0.00    -0.069 OA 
BRANCH  16  18
HETATM   18  C   UNL     1      -6.325  10.151  66.912  1.00  0.00    -0.069 C  
BRANCH  18  19
HETATM   19  C   UNL     1      -6.261  11.675  66.908  1.00  0.00    -0.149 C  
BRANCH  19  20
HETATM   20  C   UNL     1      -5.342  12.239  67.998  1.00  0.00    -0.068 C  
BRANCH  20  21
HETATM   21  C   UNL     1      -5.817  13.611  68.403  1.00  0.00    -0.098 A  
HETATM   22  C   UNL     1      -6.487  16.192  69.255  1.00  0.00    -0.182 A  
HETATM   23  C   UNL     1      -6.439  13.809  69.642  1.00  0.00    -0.094 A  
HETATM   24  C   UNL     1      -5.554  14.718  67.586  1.00  0.00     0.015 A  
HETATM   25  C   UNL     1      -6.773  15.096  70.065  1.00  0.00    -0.129 A  
HETATM   26  C   UNL     1      -5.887  16.004  68.011  1.00  0.00    -0.135 A  
ENDBRANCH  20  21
ENDBRANCH  19  20
ENDBRANCH  18  19
ENDBRANCH  16  18
ENDBRANCH  15  16
ENDBRANCH  14  15
BRANCH  14  27
HETATM   27  C   UNL     1     -10.473   8.616  68.314  1.00  0.00    -0.184 C  
BRANCH  27  28
HETATM   28  O   UNL     1     -10.540   7.626  67.278  1.00  0.00    -0.295 OA 
BRANCH  28  29
HETATM   29  C   UNL     1     -10.856   6.372  67.708  1.00  0.00    -0.334 C  
HETATM   30  O   UNL     1     -11.231   6.094  68.838  1.00  0.00    -0.372 OA 
BRANCH  29  31
HETATM   31  C   UNL     1     -10.684   5.380  66.585  1.00  0.00    -0.309 C  
BRANCH  31  32
HETATM   32  C   UNL     1      -9.721   4.260  66.961  1.00  0.00    -0.237 C  
BRANCH  32  33
HETATM   33  C   UNL     1      -8.877   3.776  65.774  1.00  0.00    -0.124 C  
BRANCH  33  34
HETATM   34  C   UNL     1      -8.175   4.940  65.124  1.00  0.00    -0.124 A  
HETATM   35  C   UNL     1      -7.012   7.211  63.969  1.00  0.00    -0.057 A  
HETATM   36  C   UNL     1      -7.344   5.775  65.883  1.00  0.00    -0.073 A  
HETATM   37  C   UNL     1      -6.765   6.905  65.307  1.00  0.00    -0.051 A  
HETATM   38  C   UNL     1      -7.827   6.379  63.204  1.00  0.00    -0.102 A  
HETATM   39  C   UNL     1      -8.406   5.248  63.778  1.00  0.00    -0.123 A  
ENDBRANCH  33  34
ENDBRANCH  32  33
ENDBRANCH  31  32
ENDBRANCH  29  31
ENDBRANCH  28  29
ENDBRANCH  27  28
ENDBRANCH  14  27
ENDBRANCH  13  14
ENDBRANCH  12  13
ENDBRANCH   2  12
TORSDOF 20
ENDMDL
MODEL      332
REMARK 921   NORMALIZED FREE ENERGY PREDICTED BY IDOCK:   -3.28 KCAL/MOL
REMARK 922        TOTAL FREE ENERGY PREDICTED BY IDOCK:  -11.79 KCAL/MOL
REMARK 923 INTER-LIGAND FREE ENERGY PREDICTED BY IDOCK:   -9.17 KCAL/MOL
REMARK 924 INTRA-LIGAND FREE ENERGY PREDICTED BY IDOCK:   -2.62 KCAL/MOL
REMARK 927      BINDING AFFINITY PREDICTED BY RF-SCORE:    0.00 PKD
ROOT
HETATM    1  O   UNL     1     -12.246   8.921  71.017  1.00  0.00    -0.282 OA 
HETATM    2  C   UNL     1     -11.055   8.771  70.781  1.00  0.00    -0.260 C  
ENDROOT
BRANCH   2   3
HETATM    3  C   UNL     1     -10.238   7.592  71.253  1.00  0.00    -0.204 C  
BRANCH   3   4
HETATM    4  C   UNL     1     -10.636   6.294  70.548  1.00  0.00    -0.305 C  
BRANCH   4   5
HETATM    5  C   UNL     1      -9.557   5.213  70.671  1.00  0.00    -0.242 C  
BRANCH   5   6
HETATM    6  C   UNL     1      -9.931   4.151  71.674  1.00  0.00    -0.240 A  
HETATM    7  C   UNL     1     -10.767   4.463  72.756  1.00  0.00    -0.235 A  
HETATM    8  C   UNL     1     -10.617   2.188  73.555  1.00  0.00    -0.231 A  
HETATM    9  C   UNL     1     -11.110   3.484  73.689  1.00  0.00    -0.314 A  
HETATM   10  C   UNL     1      -9.437   2.846  71.551  1.00  0.00    -0.216 A  
HETATM   11  C   UNL     1      -9.781   1.869  72.486  1.00  0.00    -0.168 A  
ENDBRANCH   5   6
ENDBRANCH   4   5
ENDBRANCH   3   4
ENDBRANCH   2   3
BRANCH   2  12
HETATM   12  O   UNL     1     -10.279   9.633  70.066  1.00  0.00    -0.220 OA 
BRANCH  12  13
HETATM   13  C   UNL     1      -9.867   9.193  68.758  1.00  0.00    -0.167 C  
BRANCH  13  14
HETATM   14  C   UNL     1      -9.996  10.344  67.756  1.00  0.00    -0.175 C  
BRANCH  14  15
HETATM   15  O   UNL     1      -8.998  10.182  66.727  1.00  0.00    -0.132 OA 
BRANCH  15  16
HETATM   16  C   UNL     1      -9.456   9.796  65.506  1.00  0.00    -0.262 C  
HETATM   17  O   UNL     1     -10.428  10.262  64.930  1.00  0.00    -0.212 OA 
BRANCH  16  18
HETATM   18  C   UNL     1      -8.601   8.677  64.968  1.00  0.00    -0.185 C  
BRANCH  18  19
HETATM   19  C   UNL     1      -8.482   7.527  65.962  1.00  0.00    -0.152 C  
BRANCH  19  20
HETATM   20  C   UNL     1      -8.762   6.158  65.331  1.00  0.00    -0.071 C  
BRANCH  20  21
HETATM   21  C   UNL     1      -8.571   5.075  66.363  1.00  0.00    -0.111 A  
HETATM   22  C   UNL     1      -8.175   2.915  68.099  1.00  0.00    -0.085 A  
HETATM   23  C   UNL     1      -9.655   4.289  66.774  1.00  0.00    -0.221 A  
HETATM   24  C   UNL     1      -7.290   4.781  66.848  1.00  0.00    -0.082 A  
HETATM   25  C   UNL     1      -9.455   3.213  67.640  1.00  0.00    -0.202 A  
HETATM   26  C   UNL     1      -7.093   3.703  67.711  1.00  0.00    -0.055 A  
ENDBRANCH  20  21
ENDBRANCH  19  20
ENDBRANCH  18  19
ENDBRANCH  16  18
ENDBRANCH  15  16
ENDBRANCH  14  15
BRANCH  14  27
HETATM   27  C   UNL     1      -9.752  11.697  68.434  1.00  0.00    -0.199 C  
BRANCH  27  28
HETATM   28  O   UNL     1      -8.801  12.486  67.704  1.00  0.00    -0.161 OA 
BRANCH  28  29
HETATM   29  C   UNL     1      -9.319  13.598  67.111  1.00  0.00    -0.240 C  
HETATM   30  O   UNL     1     -10.069  13.591  66.145  1.00  0.00    -0.290 OA 
BRANCH  29  31
HETATM   31  C   UNL     1      -8.841  14.837  67.825  1.00  0.00    -0.175 C  
BRANCH  31  32
HETATM   32  C   UNL     1      -9.901  15.390  68.772  1.00  0.00    -0.211 C  
BRANCH  32  33
HETATM   33  C   UNL     1     -11.016  16.150  68.041  1.00  0.00    -0.338 C  
BRANCH  33  34
HETATM   34  C   UNL     1     -10.606  17.582  67.811  1.00  0.00    -0.375 A  
HETATM   35  C   UNL     1      -9.678  20.180  67.326  1.00  0.00    -0.574 A  
HETATM   36  C   UNL     1     -10.750  18.162  66.543  1.00  0.00    -0.173 A  
HETATM   37  C   UNL     1     -10.289  19.456  66.303  1.00  0.00    -0.584 A  
HETATM   38  C   UNL     1      -9.542  19.615  68.593  1.00  0.00    -0.457 A  
HETATM   39  C   UNL     1     -10.003  18.322  68.836  1.00  0.00    -0.361 A  
ENDBRANCH  33  34
ENDBRANCH  32  33
ENDBRANCH  31  32
ENDBRANCH  29  31
ENDBRANCH  28  29
ENDBRANCH  27  28
ENDBRANCH  14  27
ENDBRANCH  13  14
ENDBRANCH  12  13
ENDBRANCH   2  12
TORSDOF 20
ENDMDL
MODEL      333
REMARK 921   NORMALIZED FREE ENERGY PREDICTED BY IDOCK:   -3.27 KCAL/MOL
REMARK 922        TOTAL FREE ENERGY PREDICTED BY IDOCK:  -11.77 KCAL/MOL
REMARK 923 INTER-LIGAND FREE ENERGY PREDICTED BY IDOCK:   -6.29 KCAL/MOL
REMARK 924 INTRA-LIGAND FREE ENERGY PREDICTED BY IDOCK:   -5.47 KCAL/MOL
REMARK 927      BINDING AFFINITY PREDICTED BY RF-SCORE:    0.00 PKD
ROOT
HETATM    1  O   UNL     1     -10.082  12.061  63.546  1.00  0.00    -0.408 OA 
HETATM    2  C   UNL     1      -9.717  10.930  63.833  1.00  0.00    -0.303 C  
ENDROOT
BRANCH   2   3
HETATM    3  C   UNL     1      -9.103   9.961  62.850  1.00  0.00    -0.291 C  
BRANCH   3   4
HETATM    4  C   UNL     1      -7.609  10.217  62.643  1.00  0.00    -0.151 C  
BRANCH   4   5
HETATM    5  C   UNL     1      -6.763   9.696  63.809  1.00  0.00    -0.112 C  
BRANCH   5   6
HETATM    6  C   UNL     1      -6.813   8.193  63.917  1.00  0.00    -0.074 A  
HETATM    7  C   UNL     1      -6.219   7.392  62.930  1.00  0.00    -0.054 A  
HETATM    8  C   UNL     1      -6.916   5.396  64.100  1.00  0.00    -0.048 A  
HETATM    9  C   UNL     1      -6.269   6.001  63.024  1.00  0.00    -0.025 A  
HETATM   10  C   UNL     1      -7.463   7.575  64.993  1.00  0.00    -0.084 A  
HETATM   11  C   UNL     1      -7.512   6.183  65.084  1.00  0.00    -0.085 A  
ENDBRANCH   5   6
ENDBRANCH   4   5
ENDBRANCH   3   4
ENDBRANCH   2   3
BRANCH   2  12
HETATM   12  O   UNL     1      -9.805  10.364  65.068  1.00  0.00    -0.273 OA 
BRANCH  12  13
HETATM   13  C   UNL     1     -10.305  11.203  66.126  1.00  0.00    -0.250 C  
BRANCH  13  14
HETATM   14  C   UNL     1      -9.611  10.849  67.445  1.00  0.00    -0.163 C  
BRANCH  14  15
HETATM   15  O   UNL     1      -8.383  10.150  67.155  1.00  0.00    -0.124 OA 
BRANCH  15  16
HETATM   16  C   UNL     1      -7.316  10.468  67.936  1.00  0.00    -0.089 C  
HETATM   17  O   UNL     1      -7.003  11.594  68.291  1.00  0.00    -0.066 OA 
BRANCH  16  18
HETATM   18  C   UNL     1      -6.545   9.219  68.285  1.00  0.00    -0.059 C  
BRANCH  18  19
HETATM   19  C   UNL     1      -7.202   8.448  69.425  1.00  0.00    -0.059 C  
BRANCH  19  20
HETATM   20  C   UNL     1      -7.741   9.361  70.533  1.00  0.00    -0.177 C  
BRANCH  20  21
HETATM   21  C   UNL     1      -8.012   8.548  71.773  1.00  0.00    -0.177 A  
HETATM   22  C   UNL     1      -8.464   7.233  74.203  1.00  0.00    -0.223 A  
HETATM   23  C   UNL     1      -6.972   7.859  72.410  1.00  0.00    -0.080 A  
HETATM   24  C   UNL     1      -9.286   8.553  72.356  1.00  0.00    -0.349 A  
HETATM   25  C   UNL     1      -7.200   7.203  73.621  1.00  0.00    -0.086 A  
HETATM   26  C   UNL     1      -9.510   7.899  73.567  1.00  0.00    -0.312 A  
ENDBRANCH  20  21
ENDBRANCH  19  20
ENDBRANCH  18  19
ENDBRANCH  16  18
ENDBRANCH  15  16
ENDBRANCH  14  15
BRANCH  14  27
HETATM   27  C   UNL     1     -10.485   9.921  68.298  1.00  0.00    -0.210 C  
BRANCH  27  28
HETATM   28  O   UNL     1     -11.159   8.946  67.490  1.00  0.00    -0.020 OA 
BRANCH  28  29
HETATM   29  C   UNL     1     -10.743   7.662  67.680  1.00  0.00    -0.175 C  
HETATM   30  O   UNL     1     -10.449   6.882  66.786  1.00  0.00    -0.257 OA 
BRANCH  29  31
HETATM   31  C   UNL     1     -10.689   7.347  69.154  1.00  0.00    -0.180 C  
BRANCH  31  32
HETATM   32  C   UNL     1     -10.681   5.844  69.412  1.00  0.00    -0.406 C  
BRANCH  32  33
HETATM   33  C   UNL     1     -10.825   5.494  70.899  1.00  0.00    -0.246 C  
BRANCH  33  34
HETATM   34  C   UNL     1      -9.569   4.829  71.402  1.00  0.00    -0.224 A  
HETATM   35  C   UNL     1      -7.192   3.753  72.420  1.00  0.00    -0.049 A  
HETATM   36  C   UNL     1      -9.549   4.225  72.666  1.00  0.00    -0.175 A  
HETATM   37  C   UNL     1      -8.365   3.689  73.172  1.00  0.00    -0.087 A  
HETATM   38  C   UNL     1      -7.207   4.341  71.156  1.00  0.00    -0.040 A  
HETATM   39  C   UNL     1      -8.390   4.876  70.648  1.00  0.00    -0.102 A  
ENDBRANCH  33  34
ENDBRANCH  32  33
ENDBRANCH  31  32
ENDBRANCH  29  31
ENDBRANCH  28  29
ENDBRANCH  27  28
ENDBRANCH  14  27
ENDBRANCH  13  14
ENDBRANCH  12  13
ENDBRANCH   2  12
TORSDOF 20
ENDMDL
MODEL      334
REMARK 921   NORMALIZED FREE ENERGY PREDICTED BY IDOCK:   -3.27 KCAL/MOL
REMARK 922        TOTAL FREE ENERGY PREDICTED BY IDOCK:  -11.77 KCAL/MOL
REMARK 923 INTER-LIGAND FREE ENERGY PREDICTED BY IDOCK:   -8.88 KCAL/MOL
REMARK 924 INTRA-LIGAND FREE ENERGY PREDICTED BY IDOCK:   -2.88 KCAL/MOL
REMARK 927      BINDING AFFINITY PREDICTED BY RF-SCORE:    0.00 PKD
ROOT
HETATM    1  O   UNL     1      -7.477  10.291  67.154  1.00  0.00    -0.090 OA 
HETATM    2  C   UNL     1      -8.594  10.191  66.665  1.00  0.00    -0.126 C  
ENDROOT
BRANCH   2   3
HETATM    3  C   UNL     1      -9.410  11.360  66.166  1.00  0.00    -0.232 C  
BRANCH   3   4
HETATM    4  C   UNL     1     -10.909  11.156  66.391  1.00  0.00    -0.284 C  
BRANCH   4   5
HETATM    5  C   UNL     1     -11.751  12.244  65.715  1.00  0.00    -0.445 C  
BRANCH   5   6
HETATM    6  C   UNL     1     -11.358  13.627  66.169  1.00  0.00    -0.324 A  
HETATM    7  C   UNL     1     -10.840  14.553  65.251  1.00  0.00    -0.377 A  
HETATM    8  C   UNL     1     -10.608  16.196  67.007  1.00  0.00    -0.292 A  
HETATM    9  C   UNL     1     -10.470  15.831  65.670  1.00  0.00    -0.402 A  
HETATM   10  C   UNL     1     -11.489  14.003  67.512  1.00  0.00    -0.369 A  
HETATM   11  C   UNL     1     -11.118  15.282  67.928  1.00  0.00    -0.321 A  
ENDBRANCH   5   6
ENDBRANCH   4   5
ENDBRANCH   3   4
ENDBRANCH   2   3
BRANCH   2  12
HETATM   12  O   UNL     1      -9.277   9.026  66.494  1.00  0.00    -0.156 OA 
BRANCH  12  13
HETATM   13  C   UNL     1      -8.497   7.869  66.136  1.00  0.00    -0.133 C  
BRANCH  13  14
HETATM   14  C   UNL     1      -8.367   6.933  67.341  1.00  0.00    -0.122 C  
BRANCH  14  15
HETATM   15  O   UNL     1      -7.822   5.673  66.899  1.00  0.00    -0.100 OA 
BRANCH  15  16
HETATM   16  C   UNL     1      -6.650   5.294  67.475  1.00  0.00    -0.054 C  
HETATM   17  O   UNL     1      -5.928   6.006  68.156  1.00  0.00    -0.015 OA 
BRANCH  16  18
HETATM   18  C   UNL     1      -6.347   3.859  67.125  1.00  0.00    -0.037 C  
BRANCH  18  19
HETATM   19  C   UNL     1      -6.689   3.545  65.672  1.00  0.00    -0.045 C  
BRANCH  19  20
HETATM   20  C   UNL     1      -7.725   2.424  65.528  1.00  0.00    -0.077 C  
BRANCH  20  21
HETATM   21  C   UNL     1      -8.761   2.818  64.507  1.00  0.00    -0.099 A  
HETATM   22  C   UNL     1     -10.548   3.445  62.445  1.00  0.00    -0.177 A  
HETATM   23  C   UNL     1      -8.660   4.040  63.830  1.00  0.00    -0.100 A  
HETATM   24  C   UNL     1      -9.780   1.923  64.154  1.00  0.00    -0.113 A  
HETATM   25  C   UNL     1      -9.553   4.351  62.803  1.00  0.00    -0.088 A  
HETATM   26  C   UNL     1     -10.669   2.235  63.126  1.00  0.00    -0.214 A  
ENDBRANCH  20  21
ENDBRANCH  19  20
ENDBRANCH  18  19
ENDBRANCH  16  18
ENDBRANCH  15  16
ENDBRANCH  14  15
BRANCH  14  27
HETATM   27  C   UNL     1      -9.735   6.654  67.974  1.00  0.00    -0.123 C  
BRANCH  27  28
HETATM   28  O   UNL     1      -9.601   6.071  69.279  1.00  0.00    -0.133 OA 
BRANCH  28  29
HETATM   29  C   UNL     1     -10.745   6.062  70.019  1.00  0.00    -0.311 C  
HETATM   30  O   UNL     1     -11.873   6.192  69.565  1.00  0.00    -0.128 OA 
BRANCH  29  31
HETATM   31  C   UNL     1     -10.418   5.859  71.477  1.00  0.00    -0.287 C  
BRANCH  31  32
HETATM   32  C   UNL     1      -9.905   7.140  72.126  1.00  0.00    -0.171 C  
BRANCH  32  33
HETATM   33  C   UNL     1     -11.026   7.989  72.739  1.00  0.00    -0.449 C  
BRANCH  33  34
HETATM   34  C   UNL     1     -11.356   9.148  71.834  1.00  0.00    -0.416 A  
HETATM   35  C   UNL     1     -12.064  11.184  70.045  1.00  0.00    -0.437 A  
HETATM   36  C   UNL     1     -12.558   9.850  71.999  1.00  0.00    -0.410 A  
HETATM   37  C   UNL     1     -12.909  10.864  71.108  1.00  0.00    -0.508 A  
HETATM   38  C   UNL     1     -10.861  10.498  69.882  1.00  0.00    -0.334 A  
HETATM   39  C   UNL     1     -10.508   9.485  70.773  1.00  0.00    -0.384 A  
ENDBRANCH  33  34
ENDBRANCH  32  33
ENDBRANCH  31  32
ENDBRANCH  29  31
ENDBRANCH  28  29
ENDBRANCH  27  28
ENDBRANCH  14  27
ENDBRANCH  13  14
ENDBRANCH  12  13
ENDBRANCH   2  12
TORSDOF 20
ENDMDL
MODEL      335
REMARK 921   NORMALIZED FREE ENERGY PREDICTED BY IDOCK:   -3.27 KCAL/MOL
REMARK 922        TOTAL FREE ENERGY PREDICTED BY IDOCK:  -11.77 KCAL/MOL
REMARK 923 INTER-LIGAND FREE ENERGY PREDICTED BY IDOCK:   -9.77 KCAL/MOL
REMARK 924 INTRA-LIGAND FREE ENERGY PREDICTED BY IDOCK:   -2.00 KCAL/MOL
REMARK 927      BINDING AFFINITY PREDICTED BY RF-SCORE:    0.00 PKD
ROOT
HETATM    1  O   UNL     1      -6.029  13.264  67.135  1.00  0.00    -0.304 OA 
HETATM    2  C   UNL     1      -7.122  12.744  67.313  1.00  0.00    -0.082 C  
ENDROOT
BRANCH   2   3
HETATM    3  C   UNL     1      -7.386  11.262  67.192  1.00  0.00    -0.130 C  
BRANCH   3   4
HETATM    4  C   UNL     1      -8.392  10.767  68.233  1.00  0.00    -0.125 C  
BRANCH   4   5
HETATM    5  C   UNL     1      -7.954   9.450  68.883  1.00  0.00    -0.087 C  
BRANCH   5   6
HETATM    6  C   UNL     1      -8.579   8.253  68.213  1.00  0.00    -0.133 A  
HETATM    7  C   UNL     1      -9.921   8.288  67.809  1.00  0.00    -0.235 A  
HETATM    8  C   UNL     1      -9.754   6.024  66.982  1.00  0.00    -0.159 A  
HETATM    9  C   UNL     1     -10.503   7.179  67.194  1.00  0.00    -0.389 A  
HETATM   10  C   UNL     1      -7.835   7.085  67.999  1.00  0.00    -0.114 A  
HETATM   11  C   UNL     1      -8.420   5.977  67.384  1.00  0.00    -0.104 A  
ENDBRANCH   5   6
ENDBRANCH   4   5
ENDBRANCH   3   4
ENDBRANCH   2   3
BRANCH   2  12
HETATM   12  O   UNL     1      -8.265  13.406  67.643  1.00  0.00    -0.151 OA 
BRANCH  12  13
HETATM   13  C   UNL     1      -8.515  14.643  66.949  1.00  0.00    -0.173 C  
BRANCH  13  14
HETATM   14  C   UNL     1      -8.733  15.773  67.960  1.00  0.00    -0.171 C  
BRANCH  14  15
HETATM   15  O   UNL     1      -7.474  16.435  68.200  1.00  0.00    -0.143 OA 
BRANCH  15  16
HETATM   16  C   UNL     1      -6.861  16.144  69.379  1.00  0.00    -0.214 C  
HETATM   17  O   UNL     1      -6.886  15.062  69.946  1.00  0.00    -0.175 OA 
BRANCH  16  18
HETATM   18  C   UNL     1      -6.161  17.369  69.910  1.00  0.00    -0.187 C  
BRANCH  18  19
HETATM   19  C   UNL     1      -6.327  18.565  68.978  1.00  0.00    -0.248 C  
BRANCH  19  20
HETATM   20  C   UNL     1      -7.453  19.511  69.413  1.00  0.00    -0.197 C  
BRANCH  20  21
HETATM   21  C   UNL     1      -8.507  19.574  68.337  1.00  0.00    -0.387 A  
HETATM   22  C   UNL     1     -10.508  19.913  66.408  1.00  0.00    -0.589 A  
HETATM   23  C   UNL     1      -9.833  19.226  68.623  1.00  0.00    -0.500 A  
HETATM   24  C   UNL     1      -8.190  20.073  67.066  1.00  0.00    -0.364 A  
HETATM   25  C   UNL     1     -10.829  19.395  67.660  1.00  0.00    -0.470 A  
HETATM   26  C   UNL     1      -9.187  20.243  66.107  1.00  0.00    -0.267 A  
ENDBRANCH  20  21
ENDBRANCH  19  20
ENDBRANCH  18  19
ENDBRANCH  16  18
ENDBRANCH  15  16
ENDBRANCH  14  15
BRANCH  14  27
HETATM   27  C   UNL     1      -9.236  15.226  69.301  1.00  0.00    -0.233 C  
BRANCH  27  28
HETATM   28  O   UNL     1     -10.565  14.698  69.187  1.00  0.00    -0.239 OA 
BRANCH  28  29
HETATM   29  C   UNL     1     -11.280  14.699  70.347  1.00  0.00    -0.124 C  
HETATM   30  O   UNL     1     -10.957  15.290  71.367  1.00  0.00    -0.314 OA 
BRANCH  29  31
HETATM   31  C   UNL     1     -12.532  13.874  70.186  1.00  0.00    -0.355 C  
BRANCH  31  32
HETATM   32  C   UNL     1     -12.411  12.520  70.878  1.00  0.00    -0.349 C  
BRANCH  32  33
HETATM   33  C   UNL     1     -12.227  11.360  69.891  1.00  0.00    -0.346 C  
BRANCH  33  34
HETATM   34  C   UNL     1     -12.170  10.049  70.633  1.00  0.00    -0.360 A  
HETATM   35  C   UNL     1     -12.108   7.706  72.165  1.00  0.00    -0.325 A  
HETATM   36  C   UNL     1     -13.336   9.294  70.820  1.00  0.00     0.127 A  
HETATM   37  C   UNL     1     -13.304   8.127  71.583  1.00  0.00    -0.358 A  
HETATM   38  C   UNL     1     -10.942   8.445  71.973  1.00  0.00    -0.394 A  
HETATM   39  C   UNL     1     -10.971   9.611  71.210  1.00  0.00    -0.399 A  
ENDBRANCH  33  34
ENDBRANCH  32  33
ENDBRANCH  31  32
ENDBRANCH  29  31
ENDBRANCH  28  29
ENDBRANCH  27  28
ENDBRANCH  14  27
ENDBRANCH  13  14
ENDBRANCH  12  13
ENDBRANCH   2  12
TORSDOF 20
ENDMDL
MODEL      336
REMARK 921   NORMALIZED FREE ENERGY PREDICTED BY IDOCK:   -3.25 KCAL/MOL
REMARK 922        TOTAL FREE ENERGY PREDICTED BY IDOCK:  -11.72 KCAL/MOL
REMARK 923 INTER-LIGAND FREE ENERGY PREDICTED BY IDOCK:   -8.65 KCAL/MOL
REMARK 924 INTRA-LIGAND FREE ENERGY PREDICTED BY IDOCK:   -3.07 KCAL/MOL
REMARK 927      BINDING AFFINITY PREDICTED BY RF-SCORE:    0.00 PKD
ROOT
HETATM    1  O   UNL     1      -6.962   9.645  68.348  1.00  0.00    -0.064 OA 
HETATM    2  C   UNL     1      -7.917   8.887  68.258  1.00  0.00    -0.105 C  
ENDROOT
BRANCH   2   3
HETATM    3  C   UNL     1      -8.750   8.715  67.010  1.00  0.00    -0.135 C  
BRANCH   3   4
HETATM    4  C   UNL     1      -9.842   9.780  66.893  1.00  0.00    -0.256 C  
BRANCH   4   5
HETATM    5  C   UNL     1      -9.724  10.594  65.599  1.00  0.00    -0.283 C  
BRANCH   5   6
HETATM    6  C   UNL     1     -10.732  11.713  65.541  1.00  0.00    -0.333 A  
HETATM    7  C   UNL     1     -10.813  12.647  66.584  1.00  0.00    -0.286 A  
HETATM    8  C   UNL     1     -12.617  13.788  65.450  1.00  0.00    -0.534 A  
HETATM    9  C   UNL     1     -11.750  13.681  66.536  1.00  0.00    -0.414 A  
HETATM   10  C   UNL     1     -11.611  11.828  64.457  1.00  0.00    -0.299 A  
HETATM   11  C   UNL     1     -12.547  12.861  64.411  1.00  0.00    -0.392 A  
ENDBRANCH   5   6
ENDBRANCH   4   5
ENDBRANCH   3   4
ENDBRANCH   2   3
BRANCH   2  12
HETATM   12  O   UNL     1      -8.383   8.084  69.254  1.00  0.00    -0.130 OA 
BRANCH  12  13
HETATM   13  C   UNL     1      -8.949   6.822  68.853  1.00  0.00    -0.131 C  
BRANCH  13  14
HETATM   14  C   UNL     1      -9.598   6.135  70.058  1.00  0.00    -0.160 C  
BRANCH  14  15
HETATM   15  O   UNL     1      -8.981   4.845  70.249  1.00  0.00    -0.103 OA 
BRANCH  15  16
HETATM   16  C   UNL     1      -8.207   4.711  71.360  1.00  0.00    -0.102 C  
HETATM   17  O   UNL     1      -8.347   5.330  72.404  1.00  0.00    -0.116 OA 
BRANCH  16  18
HETATM   18  C   UNL     1      -7.119   3.698  71.108  1.00  0.00    -0.033 C  
BRANCH  18  19
HETATM   19  C   UNL     1      -6.684   3.686  69.647  1.00  0.00    -0.034 C  
BRANCH  19  20
HETATM   20  C   UNL     1      -5.583   4.708  69.341  1.00  0.00    -0.016 C  
BRANCH  20  21
HETATM   21  C   UNL     1      -5.733   5.208  67.926  1.00  0.00    -0.017 A  
HETATM   22  C   UNL     1      -5.801   6.038  65.254  1.00  0.00    -0.025 A  
HETATM   23  C   UNL     1      -5.234   6.465  67.563  1.00  0.00    -0.005 A  
HETATM   24  C   UNL     1      -6.286   4.380  66.940  1.00  0.00    -0.037 A  
HETATM   25  C   UNL     1      -5.270   6.877  66.230  1.00  0.00    -0.022 A  
HETATM   26  C   UNL     1      -6.318   4.794  65.609  1.00  0.00    -0.035 A  
ENDBRANCH  20  21
ENDBRANCH  19  20
ENDBRANCH  18  19
ENDBRANCH  16  18
ENDBRANCH  15  16
ENDBRANCH  14  15
BRANCH  14  27
HETATM   27  C   UNL     1     -11.096   5.905  69.823  1.00  0.00    -0.352 C  
BRANCH  27  28
HETATM   28  O   UNL     1     -11.864   7.070  70.157  1.00  0.00    -0.241 OA 
BRANCH  28  29
HETATM   29  C   UNL     1     -12.653   6.935  71.260  1.00  0.00    -0.345 C  
HETATM   30  O   UNL     1     -12.380   6.249  72.235  1.00  0.00    -0.268 OA 
BRANCH  29  31
HETATM   31  C   UNL     1     -13.904   7.763  71.108  1.00  0.00    -0.200 C  
BRANCH  31  32
HETATM   32  C   UNL     1     -13.958   8.900  72.123  1.00  0.00    -0.520 C  
BRANCH  32  33
HETATM   33  C   UNL     1     -12.589   9.549  72.365  1.00  0.00    -0.261 C  
BRANCH  33  34
HETATM   34  C   UNL     1     -12.448  10.795  71.529  1.00  0.00    -0.447 A  
HETATM   35  C   UNL     1     -12.036  13.153  70.074  1.00  0.00    -0.375 A  
HETATM   36  C   UNL     1     -11.622  10.794  70.396  1.00  0.00    -0.431 A  
HETATM   37  C   UNL     1     -11.418  11.969  69.673  1.00  0.00    -0.322 A  
HETATM   38  C   UNL     1     -12.869  13.159  71.192  1.00  0.00    -0.349 A  
HETATM   39  C   UNL     1     -13.075  11.986  71.916  1.00  0.00    -0.475 A  
ENDBRANCH  33  34
ENDBRANCH  32  33
ENDBRANCH  31  32
ENDBRANCH  29  31
ENDBRANCH  28  29
ENDBRANCH  27  28
ENDBRANCH  14  27
ENDBRANCH  13  14
ENDBRANCH  12  13
ENDBRANCH   2  12
TORSDOF 20
ENDMDL
MODEL      337
REMARK 921   NORMALIZED FREE ENERGY PREDICTED BY IDOCK:   -3.20 KCAL/MOL
REMARK 922        TOTAL FREE ENERGY PREDICTED BY IDOCK:  -11.62 KCAL/MOL
REMARK 923 INTER-LIGAND FREE ENERGY PREDICTED BY IDOCK:   -8.36 KCAL/MOL
REMARK 924 INTRA-LIGAND FREE ENERGY PREDICTED BY IDOCK:   -3.26 KCAL/MOL
REMARK 927      BINDING AFFINITY PREDICTED BY RF-SCORE:    0.00 PKD
ROOT
HETATM    1  O   UNL     1     -10.856   9.467  72.104  1.00  0.00    -0.097 OA 
HETATM    2  C   UNL     1     -11.423   9.050  71.103  1.00  0.00    -0.308 C  
ENDROOT
BRANCH   2   3
HETATM    3  C   UNL     1     -12.407   9.854  70.288  1.00  0.00    -0.073 C  
BRANCH   3   4
HETATM    4  C   UNL     1     -12.820  11.148  70.990  1.00  0.00    -0.424 C  
BRANCH   4   5
HETATM    5  C   UNL     1     -12.231  12.390  70.312  1.00  0.00    -0.345 C  
BRANCH   5   6
HETATM    6  C   UNL     1     -12.443  13.638  71.132  1.00  0.00    -0.442 A  
HETATM    7  C   UNL     1     -11.774  14.824  70.801  1.00  0.00    -0.355 A  
HETATM    8  C   UNL     1     -12.817  15.958  72.663  1.00  0.00    -0.548 A  
HETATM    9  C   UNL     1     -11.963  15.979  71.562  1.00  0.00    -0.539 A  
HETATM   10  C   UNL     1     -13.296  13.626  72.243  1.00  0.00    -0.622 A  
HETATM   11  C   UNL     1     -13.484  14.781  73.003  1.00  0.00    -0.473 A  
ENDBRANCH   5   6
ENDBRANCH   4   5
ENDBRANCH   3   4
ENDBRANCH   2   3
BRANCH   2  12
HETATM   12  O   UNL     1     -11.263   7.808  70.568  1.00  0.00    -0.265 OA 
BRANCH  12  13
HETATM   13  C   UNL     1     -10.511   6.862  71.351  1.00  0.00    -0.209 C  
BRANCH  13  14
HETATM   14  C   UNL     1      -9.475   6.160  70.468  1.00  0.00    -0.164 C  
BRANCH  14  15
HETATM   15  O   UNL     1      -8.947   7.110  69.520  1.00  0.00    -0.140 OA 
BRANCH  15  16
HETATM   16  C   UNL     1      -7.812   7.759  69.893  1.00  0.00    -0.105 C  
HETATM   17  O   UNL     1      -7.059   7.417  70.792  1.00  0.00    -0.061 OA 
BRANCH  16  18
HETATM   18  C   UNL     1      -7.624   8.993  69.047  1.00  0.00    -0.078 C  
BRANCH  18  19
HETATM   19  C   UNL     1      -8.833   9.920  69.122  1.00  0.00    -0.165 C  
BRANCH  19  20
HETATM   20  C   UNL     1      -8.532  11.339  68.628  1.00  0.00    -0.143 C  
BRANCH  20  21
HETATM   21  C   UNL     1      -9.626  11.796  67.698  1.00  0.00    -0.184 A  
HETATM   22  C   UNL     1     -11.501  12.630  65.793  1.00  0.00    -0.399 A  
HETATM   23  C   UNL     1      -9.802  13.159  67.426  1.00  0.00    -0.226 A  
HETATM   24  C   UNL     1     -10.415  10.857  67.021  1.00  0.00    -0.291 A  
HETATM   25  C   UNL     1     -10.738  13.572  66.477  1.00  0.00    -0.287 A  
HETATM   26  C   UNL     1     -11.348  11.273  66.071  1.00  0.00    -0.004 A  
ENDBRANCH  20  21
ENDBRANCH  19  20
ENDBRANCH  18  19
ENDBRANCH  16  18
ENDBRANCH  15  16
ENDBRANCH  14  15
BRANCH  14  27
HETATM   27  C   UNL     1     -10.111   5.013  69.674  1.00  0.00    -0.251 C  
BRANCH  27  28
HETATM   28  O   UNL     1      -9.721   3.734  70.195  1.00  0.00    -0.196 OA 
BRANCH  28  29
HETATM   29  C   UNL     1      -8.385   3.597  70.426  1.00  0.00    -0.056 C  
HETATM   30  O   UNL     1      -7.847   3.730  71.516  1.00  0.00    -0.059 OA 
BRANCH  29  31
HETATM   31  C   UNL     1      -7.670   3.248  69.145  1.00  0.00    -0.051 C  
BRANCH  31  32
HETATM   32  C   UNL     1      -8.628   2.705  68.091  1.00  0.00    -0.116 C  
BRANCH  32  33
HETATM   33  C   UNL     1      -8.259   3.143  66.668  1.00  0.00    -0.089 C  
BRANCH  33  34
HETATM   34  C   UNL     1      -8.347   4.642  66.545  1.00  0.00    -0.106 A  
HETATM   35  C   UNL     1      -8.492   7.409  66.134  1.00  0.00    -0.147 A  
HETATM   36  C   UNL     1      -9.580   5.258  66.288  1.00  0.00    -0.175 A  
HETATM   37  C   UNL     1      -9.651   6.636  66.084  1.00  0.00    -0.020 A  
HETATM   38  C   UNL     1      -7.264   6.807  66.402  1.00  0.00    -0.072 A  
HETATM   39  C   UNL     1      -7.191   5.430  66.608  1.00  0.00    -0.074 A  
ENDBRANCH  33  34
ENDBRANCH  32  33
ENDBRANCH  31  32
ENDBRANCH  29  31
ENDBRANCH  28  29
ENDBRANCH  27  28
ENDBRANCH  14  27
ENDBRANCH  13  14
ENDBRANCH  12  13
ENDBRANCH   2  12
TORSDOF 20
ENDMDL
MODEL      338
REMARK 921   NORMALIZED FREE ENERGY PREDICTED BY IDOCK:   -3.18 KCAL/MOL
REMARK 922        TOTAL FREE ENERGY PREDICTED BY IDOCK:  -11.58 KCAL/MOL
REMARK 923 INTER-LIGAND FREE ENERGY PREDICTED BY IDOCK:   -9.41 KCAL/MOL
REMARK 924 INTRA-LIGAND FREE ENERGY PREDICTED BY IDOCK:   -2.17 KCAL/MOL
REMARK 927      BINDING AFFINITY PREDICTED BY RF-SCORE:    0.00 PKD
ROOT
HETATM    1  O   UNL     1      -8.263   9.851  70.666  1.00  0.00    -0.210 OA 
HETATM    2  C   UNL     1      -7.108   9.556  70.390  1.00  0.00    -0.120 C  
ENDROOT
BRANCH   2   3
HETATM    3  C   UNL     1      -6.028   9.305  71.415  1.00  0.00    -0.075 C  
BRANCH   3   4
HETATM    4  C   UNL     1      -6.516   8.422  72.565  1.00  0.00    -0.093 C  
BRANCH   4   5
HETATM    5  C   UNL     1      -6.890   7.011  72.097  1.00  0.00    -0.057 C  
BRANCH   5   6
HETATM    6  C   UNL     1      -8.269   6.610  72.554  1.00  0.00    -0.105 A  
HETATM    7  C   UNL     1      -8.795   7.122  73.749  1.00  0.00    -0.214 A  
HETATM    8  C   UNL     1     -10.827   5.856  73.422  1.00  0.00    -0.275 A  
HETATM    9  C   UNL     1     -10.069   6.748  74.178  1.00  0.00    -0.381 A  
HETATM   10  C   UNL     1      -9.038   5.712  71.804  1.00  0.00    -0.145 A  
HETATM   11  C   UNL     1     -10.311   5.338  72.235  1.00  0.00    -0.265 A  
ENDBRANCH   5   6
ENDBRANCH   4   5
ENDBRANCH   3   4
ENDBRANCH   2   3
BRANCH   2  12
HETATM   12  O   UNL     1      -6.613   9.408  69.131  1.00  0.00    -0.048 OA 
BRANCH  12  13
HETATM   13  C   UNL     1      -6.537  10.600  68.325  1.00  0.00    -0.062 C  
BRANCH  13  14
HETATM   14  C   UNL     1      -7.948  11.089  67.982  1.00  0.00    -0.115 C  
BRANCH  14  15
HETATM   15  O   UNL     1      -8.250  10.727  66.619  1.00  0.00    -0.129 OA 
BRANCH  15  16
HETATM   16  C   UNL     1      -9.059   9.647  66.453  1.00  0.00    -0.156 C  
HETATM   17  O   UNL     1      -9.235   9.043  65.405  1.00  0.00    -0.220 OA 
BRANCH  16  18
HETATM   18  C   UNL     1      -9.741   9.311  67.755  1.00  0.00    -0.182 C  
BRANCH  18  19
HETATM   19  C   UNL     1     -11.123   9.947  67.850  1.00  0.00    -0.216 C  
BRANCH  19  20
HETATM   20  C   UNL     1     -11.203  11.054  68.907  1.00  0.00    -0.326 C  
BRANCH  20  21
HETATM   21  C   UNL     1     -11.793  10.501  70.179  1.00  0.00    -0.404 A  
HETATM   22  C   UNL     1     -13.076   9.401  72.411  1.00  0.00    -0.458 A  
HETATM   23  C   UNL     1     -12.650  11.286  70.962  1.00  0.00    -0.495 A  
HETATM   24  C   UNL     1     -11.569   9.166  70.539  1.00  0.00    -0.238 A  
HETATM   25  C   UNL     1     -13.288  10.735  72.075  1.00  0.00    -0.403 A  
HETATM   26  C   UNL     1     -12.209   8.618  71.651  1.00  0.00    -0.388 A  
ENDBRANCH  20  21
ENDBRANCH  19  20
ENDBRANCH  18  19
ENDBRANCH  16  18
ENDBRANCH  15  16
ENDBRANCH  14  15
BRANCH  14  27
HETATM   27  C   UNL     1      -8.045  12.615  68.092  1.00  0.00    -0.164 C  
BRANCH  27  28
HETATM   28  O   UNL     1      -8.518  13.200  66.870  1.00  0.00    -0.170 OA 
BRANCH  28  29
HETATM   29  C   UNL     1      -9.445  14.186  67.031  1.00  0.00    -0.251 C  
HETATM   30  O   UNL     1     -10.541  14.037  67.550  1.00  0.00    -0.257 OA 
BRANCH  29  31
HETATM   31  C   UNL     1      -8.917  15.489  66.485  1.00  0.00    -0.348 C  
BRANCH  31  32
HETATM   32  C   UNL     1      -8.224  16.315  67.562  1.00  0.00    -0.165 C  
BRANCH  32  33
HETATM   33  C   UNL     1      -9.012  17.574  67.947  1.00  0.00    -0.251 C  
BRANCH  33  34
HETATM   34  C   UNL     1      -8.086  18.760  68.043  1.00  0.00    -0.308 A  
HETATM   35  C   UNL     1      -6.257  20.880  68.095  1.00  0.00    -0.374 A  
HETATM   36  C   UNL     1      -8.217  19.831  67.150  1.00  0.00    -0.335 A  
HETATM   37  C   UNL     1      -7.306  20.887  67.177  1.00  0.00    -0.369 A  
HETATM   38  C   UNL     1      -6.126  19.824  68.995  1.00  0.00    -0.311 A  
HETATM   39  C   UNL     1      -7.036  18.768  68.971  1.00  0.00    -0.324 A  
ENDBRANCH  33  34
ENDBRANCH  32  33
ENDBRANCH  31  32
ENDBRANCH  29  31
ENDBRANCH  28  29
ENDBRANCH  27  28
ENDBRANCH  14  27
ENDBRANCH  13  14
ENDBRANCH  12  13
ENDBRANCH   2  12
TORSDOF 20
ENDMDL
MODEL      339
REMARK 921   NORMALIZED FREE ENERGY PREDICTED BY IDOCK:   -3.18 KCAL/MOL
REMARK 922        TOTAL FREE ENERGY PREDICTED BY IDOCK:  -11.58 KCAL/MOL
REMARK 923 INTER-LIGAND FREE ENERGY PREDICTED BY IDOCK:   -8.88 KCAL/MOL
REMARK 924 INTRA-LIGAND FREE ENERGY PREDICTED BY IDOCK:   -2.69 KCAL/MOL
REMARK 927      BINDING AFFINITY PREDICTED BY RF-SCORE:    0.00 PKD
ROOT
HETATM    1  O   UNL     1     -11.792  12.490  70.055  1.00  0.00    -0.331 OA 
HETATM    2  C   UNL     1     -11.453  12.993  68.993  1.00  0.00    -0.303 C  
ENDROOT
BRANCH   2   3
HETATM    3  C   UNL     1     -12.410  13.610  68.001  1.00  0.00     0.021 C  
BRANCH   3   4
HETATM    4  C   UNL     1     -11.702  14.546  67.020  1.00  0.00    -0.412 C  
BRANCH   4   5
HETATM    5  C   UNL     1     -12.324  14.497  65.620  1.00  0.00    -0.258 C  
BRANCH   5   6
HETATM    6  C   UNL     1     -11.727  13.402  64.772  1.00  0.00    -0.393 A  
HETATM    7  C   UNL     1     -12.558  12.537  64.045  1.00  0.00    -0.481 A  
HETATM    8  C   UNL     1     -10.626  11.352  63.208  1.00  0.00    -0.374 A  
HETATM    9  C   UNL     1     -12.008  11.519  63.265  1.00  0.00    -0.072 A  
HETATM   10  C   UNL     1     -10.339  13.222  64.711  1.00  0.00    -0.381 A  
HETATM   11  C   UNL     1      -9.792  12.203  63.931  1.00  0.00    -0.240 A  
ENDBRANCH   5   6
ENDBRANCH   4   5
ENDBRANCH   3   4
ENDBRANCH   2   3
BRANCH   2  12
HETATM   12  O   UNL     1     -10.174  13.076  68.534  1.00  0.00    -0.241 OA 
BRANCH  12  13
HETATM   13  C   UNL     1      -9.508  11.830  68.255  1.00  0.00    -0.193 C  
BRANCH  13  14
HETATM   14  C   UNL     1      -8.425  11.569  69.306  1.00  0.00     0.377 C  
BRANCH  14  15
HETATM   15  O   UNL     1      -7.138  11.899  68.744  1.00  0.00    -0.099 OA 
BRANCH  15  16
HETATM   16  C   UNL     1      -6.780  13.210  68.800  1.00  0.00    -0.100 C  
HETATM   17  O   UNL     1      -6.516  13.834  69.817  1.00  0.00    -0.125 OA 
BRANCH  16  18
HETATM   18  C   UNL     1      -6.783  13.802  67.413  1.00  0.00    -0.006 C  
BRANCH  18  19
HETATM   19  C   UNL     1      -7.053  15.302  67.439  1.00  0.00    -0.223 C  
BRANCH  19  20
HETATM   20  C   UNL     1      -8.473  15.663  66.986  1.00  0.00    -0.257 C  
BRANCH  20  21
HETATM   21  C   UNL     1      -8.766  17.101  67.333  1.00  0.00    -0.211 A  
HETATM   22  C   UNL     1      -9.511  19.749  67.849  1.00  0.00    -0.458 A  
HETATM   23  C   UNL     1      -8.335  18.135  66.492  1.00  0.00    -0.288 A  
HETATM   24  C   UNL     1      -9.556  17.411  68.447  1.00  0.00    -0.292 A  
HETATM   25  C   UNL     1      -8.706  19.454  66.752  1.00  0.00    -0.349 A  
HETATM   26  C   UNL     1      -9.928  18.730  68.703  1.00  0.00    -0.444 A  
ENDBRANCH  20  21
ENDBRANCH  19  20
ENDBRANCH  18  19
ENDBRANCH  16  18
ENDBRANCH  15  16
ENDBRANCH  14  15
BRANCH  14  27
HETATM   27  C   UNL     1      -8.392  10.091  69.711  1.00  0.00    -0.172 C  
BRANCH  27  28
HETATM   28  O   UNL     1      -9.701   9.504  69.663  1.00  0.00    -0.176 OA 
BRANCH  28  29
HETATM   29  C   UNL     1     -10.277   9.296  70.880  1.00  0.00    -0.301 C  
HETATM   30  O   UNL     1     -11.338   9.784  71.244  1.00  0.00    -0.361 OA 
BRANCH  29  31
HETATM   31  C   UNL     1      -9.423   8.370  71.708  1.00  0.00    -0.302 C  
BRANCH  31  32
HETATM   32  C   UNL     1     -10.245   7.251  72.338  1.00  0.00    -0.229 C  
BRANCH  32  33
HETATM   33  C   UNL     1     -10.258   5.971  71.492  1.00  0.00    -0.249 C  
BRANCH  33  34
HETATM   34  C   UNL     1      -9.812   4.794  72.321  1.00  0.00    -0.221 A  
HETATM   35  C   UNL     1      -8.972   2.722  74.007  1.00  0.00    -0.079 A  
HETATM   36  C   UNL     1     -10.749   4.053  73.053  1.00  0.00    -0.251 A  
HETATM   37  C   UNL     1     -10.329   3.020  73.892  1.00  0.00    -0.225 A  
HETATM   38  C   UNL     1      -8.036   3.447  73.273  1.00  0.00    -0.070 A  
HETATM   39  C   UNL     1      -8.452   4.478  72.432  1.00  0.00    -0.110 A  
ENDBRANCH  33  34
ENDBRANCH  32  33
ENDBRANCH  31  32
ENDBRANCH  29  31
ENDBRANCH  28  29
ENDBRANCH  27  28
ENDBRANCH  14  27
ENDBRANCH  13  14
ENDBRANCH  12  13
ENDBRANCH   2  12
TORSDOF 20
ENDMDL
MODEL      340
REMARK 921   NORMALIZED FREE ENERGY PREDICTED BY IDOCK:   -3.16 KCAL/MOL
REMARK 922        TOTAL FREE ENERGY PREDICTED BY IDOCK:  -11.54 KCAL/MOL
REMARK 923 INTER-LIGAND FREE ENERGY PREDICTED BY IDOCK:  -10.03 KCAL/MOL
REMARK 924 INTRA-LIGAND FREE ENERGY PREDICTED BY IDOCK:   -1.51 KCAL/MOL
REMARK 927      BINDING AFFINITY PREDICTED BY RF-SCORE:    0.00 PKD
ROOT
HETATM    1  O   UNL     1      -6.534  17.810  68.197  1.00  0.00    -0.176 OA 
HETATM    2  C   UNL     1      -7.258  17.026  67.600  1.00  0.00    -0.153 C  
ENDROOT
BRANCH   2   3
HETATM    3  C   UNL     1      -6.762  15.806  66.861  1.00  0.00     0.136 C  
BRANCH   3   4
HETATM    4  C   UNL     1      -6.638  14.587  67.776  1.00  0.00    -0.189 C  
BRANCH   4   5
HETATM    5  C   UNL     1      -5.237  14.457  68.383  1.00  0.00    -0.105 C  
BRANCH   5   6
HETATM    6  C   UNL     1      -5.247  13.662  69.665  1.00  0.00    -0.085 A  
HETATM    7  C   UNL     1      -5.292  12.261  69.629  1.00  0.00    -0.078 A  
HETATM    8  C   UNL     1      -5.284  12.178  72.044  1.00  0.00     0.224 A  
HETATM    9  C   UNL     1      -5.307  11.524  70.813  1.00  0.00    -0.138 A  
HETATM   10  C   UNL     1      -5.227  14.310  70.907  1.00  0.00    -0.131 A  
HETATM   11  C   UNL     1      -5.243  13.570  72.090  1.00  0.00    -0.134 A  
ENDBRANCH   5   6
ENDBRANCH   4   5
ENDBRANCH   3   4
ENDBRANCH   2   3
BRANCH   2  12
HETATM   12  O   UNL     1      -8.613  17.124  67.502  1.00  0.00    -0.200 OA 
BRANCH  12  13
HETATM   13  C   UNL     1      -9.208  16.625  66.289  1.00  0.00    -0.294 C  
BRANCH  13  14
HETATM   14  C   UNL     1     -10.557  15.971  66.601  1.00  0.00    -0.297 C  
BRANCH  14  15
HETATM   15  O   UNL     1     -10.640  15.722  68.020  1.00  0.00    -0.263 OA 
BRANCH  15  16
HETATM   16  C   UNL     1     -10.422  14.439  68.415  1.00  0.00    -0.246 C  
HETATM   17  O   UNL     1      -9.434  13.771  68.153  1.00  0.00    -0.201 OA 
BRANCH  16  18
HETATM   18  C   UNL     1     -11.602  13.940  69.210  1.00  0.00    -0.358 C  
BRANCH  18  19
HETATM   19  C   UNL     1     -11.915  12.480  68.902  1.00  0.00    -0.282 C  
BRANCH  19  20
HETATM   20  C   UNL     1     -10.834  11.516  69.405  1.00  0.00    -0.180 C  
BRANCH  20  21
HETATM   21  C   UNL     1     -11.450  10.506  70.340  1.00  0.00    -0.427 A  
HETATM   22  C   UNL     1     -12.504   8.757  72.255  1.00  0.00    -0.455 A  
HETATM   23  C   UNL     1     -10.713   9.393  70.764  1.00  0.00    -0.373 A  
HETATM   24  C   UNL     1     -12.729  10.721  70.869  1.00  0.00    -0.478 A  
HETATM   25  C   UNL     1     -11.242   8.522  71.719  1.00  0.00    -0.379 A  
HETATM   26  C   UNL     1     -13.253   9.851  71.824  1.00  0.00    -0.535 A  
ENDBRANCH  20  21
ENDBRANCH  19  20
ENDBRANCH  18  19
ENDBRANCH  16  18
ENDBRANCH  15  16
ENDBRANCH  14  15
BRANCH  14  27
HETATM   27  C   UNL     1     -10.698  14.624  65.882  1.00  0.00    -0.309 C  
BRANCH  27  28
HETATM   28  O   UNL     1     -11.327  14.775  64.602  1.00  0.00    -0.389 OA 
BRANCH  28  29
HETATM   29  C   UNL     1     -12.117  13.730  64.228  1.00  0.00    -0.440 C  
HETATM   30  O   UNL     1     -12.781  13.687  63.203  1.00  0.00    -0.737 OA 
BRANCH  29  31
HETATM   31  C   UNL     1     -12.046  12.631  65.258  1.00  0.00    -0.519 C  
BRANCH  31  32
HETATM   32  C   UNL     1     -11.121  11.502  64.819  1.00  0.00    -0.300 C  
BRANCH  32  33
HETATM   33  C   UNL     1     -10.219  10.995  65.952  1.00  0.00    -0.309 C  
BRANCH  33  34
HETATM   34  C   UNL     1      -9.412   9.811  65.485  1.00  0.00    -0.324 A  
HETATM   35  C   UNL     1      -8.062   7.551  64.528  1.00  0.00    -0.086 A  
HETATM   36  C   UNL     1      -8.763   9.846  64.243  1.00  0.00    -0.229 A  
HETATM   37  C   UNL     1      -8.090   8.720  63.768  1.00  0.00    -0.165 A  
HETATM   38  C   UNL     1      -8.694   7.512  65.769  1.00  0.00    -0.142 A  
HETATM   39  C   UNL     1      -9.366   8.637  66.247  1.00  0.00    -0.282 A  
ENDBRANCH  33  34
ENDBRANCH  32  33
ENDBRANCH  31  32
ENDBRANCH  29  31
ENDBRANCH  28  29
ENDBRANCH  27  28
ENDBRANCH  14  27
ENDBRANCH  13  14
ENDBRANCH  12  13
ENDBRANCH   2  12
TORSDOF 20
ENDMDL
MODEL      341
REMARK 921   NORMALIZED FREE ENERGY PREDICTED BY IDOCK:   -3.10 KCAL/MOL
REMARK 922        TOTAL FREE ENERGY PREDICTED BY IDOCK:  -11.41 KCAL/MOL
REMARK 923 INTER-LIGAND FREE ENERGY PREDICTED BY IDOCK:   -7.99 KCAL/MOL
REMARK 924 INTRA-LIGAND FREE ENERGY PREDICTED BY IDOCK:   -3.42 KCAL/MOL
REMARK 927      BINDING AFFINITY PREDICTED BY RF-SCORE:    0.00 PKD
ROOT
HETATM    1  O   UNL     1      -9.735   8.512  68.251  1.00  0.00    -0.149 OA 
HETATM    2  C   UNL     1      -9.748   9.735  68.241  1.00  0.00    -0.145 C  
ENDROOT
BRANCH   2   3
HETATM    3  C   UNL     1     -10.599  10.568  67.313  1.00  0.00    -0.317 C  
BRANCH   3   4
HETATM    4  C   UNL     1     -10.444  10.146  65.851  1.00  0.00    -0.141 C  
BRANCH   4   5
HETATM    5  C   UNL     1      -9.824  11.253  64.990  1.00  0.00    -0.307 C  
BRANCH   5   6
HETATM    6  C   UNL     1     -10.613  12.536  65.063  1.00  0.00    -0.329 A  
HETATM    7  C   UNL     1     -12.003  12.502  65.247  1.00  0.00    -0.490 A  
HETATM    8  C   UNL     1     -12.091  14.916  65.181  1.00  0.00    -0.163 A  
HETATM    9  C   UNL     1     -12.737  13.687  65.309  1.00  0.00    -0.478 A  
HETATM   10  C   UNL     1      -9.975  13.776  64.931  1.00  0.00    -0.178 A  
HETATM   11  C   UNL     1     -10.711  14.959  64.993  1.00  0.00    -0.451 A  
ENDBRANCH   5   6
ENDBRANCH   4   5
ENDBRANCH   3   4
ENDBRANCH   2   3
BRANCH   2  12
HETATM   12  O   UNL     1      -9.005  10.536  69.053  1.00  0.00    -0.166 OA 
BRANCH  12  13
HETATM   13  C   UNL     1      -7.581  10.320  69.043  1.00  0.00    -0.102 C  
BRANCH  13  14
HETATM   14  C   UNL     1      -7.091  10.141  67.603  1.00  0.00    -0.086 C  
BRANCH  14  15
HETATM   15  O   UNL     1      -5.873   9.367  67.616  1.00  0.00    -0.044 OA 
BRANCH  15  16
HETATM   16  C   UNL     1      -5.799   8.354  66.712  1.00  0.00    -0.049 C  
HETATM   17  O   UNL     1      -5.341   8.439  65.582  1.00  0.00    -0.031 OA 
BRANCH  16  18
HETATM   18  C   UNL     1      -6.396   7.099  67.297  1.00  0.00    -0.049 C  
BRANCH  18  19
HETATM   19  C   UNL     1      -7.042   6.226  66.226  1.00  0.00    -0.068 C  
BRANCH  19  20
HETATM   20  C   UNL     1      -7.760   5.001  66.804  1.00  0.00    -0.092 C  
BRANCH  20  21
HETATM   21  C   UNL     1      -8.422   4.229  65.692  1.00  0.00    -0.114 A  
HETATM   22  C   UNL     1      -9.589   2.972  63.479  1.00  0.00    -0.101 A  
HETATM   23  C   UNL     1      -9.769   4.454  65.378  1.00  0.00    -0.203 A  
HETATM   24  C   UNL     1      -7.673   3.351  64.898  1.00  0.00    -0.078 A  
HETATM   25  C   UNL     1     -10.349   3.826  64.275  1.00  0.00    -0.253 A  
HETATM   26  C   UNL     1      -8.254   2.726  63.795  1.00  0.00    -0.082 A  
ENDBRANCH  20  21
ENDBRANCH  19  20
ENDBRANCH  18  19
ENDBRANCH  16  18
ENDBRANCH  15  16
ENDBRANCH  14  15
BRANCH  14  27
HETATM   27  C   UNL     1      -6.778  11.493  66.952  1.00  0.00    -0.139 C  
BRANCH  27  28
HETATM   28  O   UNL     1      -6.006  12.329  67.826  1.00  0.00    -0.072 OA 
BRANCH  28  29
HETATM   29  C   UNL     1      -6.121  13.666  67.585  1.00  0.00    -0.097 C  
HETATM   30  O   UNL     1      -5.183  14.446  67.512  1.00  0.00    -0.333 OA 
BRANCH  29  31
HETATM   31  C   UNL     1      -7.572  14.039  67.414  1.00  0.00    -0.167 C  
BRANCH  31  32
HETATM   32  C   UNL     1      -8.050  14.975  68.518  1.00  0.00    -0.148 C  
BRANCH  32  33
HETATM   33  C   UNL     1      -9.324  15.743  68.139  1.00  0.00    -0.194 C  
BRANCH  33  34
HETATM   34  C   UNL     1     -10.486  15.267  68.973  1.00  0.00    -0.248 A  
HETATM   35  C   UNL     1     -12.524  14.330  70.650  1.00  0.00    -0.428 A  
HETATM   36  C   UNL     1     -11.047  16.107  69.944  1.00  0.00    -0.357 A  
HETATM   37  C   UNL     1     -12.063  15.640  70.778  1.00  0.00    -0.454 A  
HETATM   38  C   UNL     1     -11.979  13.492  69.679  1.00  0.00    -0.397 A  
HETATM   39  C   UNL     1     -10.965  13.958  68.843  1.00  0.00    -0.290 A  
ENDBRANCH  33  34
ENDBRANCH  32  33
ENDBRANCH  31  32
ENDBRANCH  29  31
ENDBRANCH  28  29
ENDBRANCH  27  28
ENDBRANCH  14  27
ENDBRANCH  13  14
ENDBRANCH  12  13
ENDBRANCH   2  12
TORSDOF 20
ENDMDL
MODEL      342
REMARK 921   NORMALIZED FREE ENERGY PREDICTED BY IDOCK:   -3.10 KCAL/MOL
REMARK 922        TOTAL FREE ENERGY PREDICTED BY IDOCK:  -11.41 KCAL/MOL
REMARK 923 INTER-LIGAND FREE ENERGY PREDICTED BY IDOCK:   -6.73 KCAL/MOL
REMARK 924 INTRA-LIGAND FREE ENERGY PREDICTED BY IDOCK:   -4.68 KCAL/MOL
REMARK 927      BINDING AFFINITY PREDICTED BY RF-SCORE:    0.00 PKD
ROOT
HETATM    1  O   UNL     1      -8.908  13.429  66.428  1.00  0.00    -0.055 OA 
HETATM    2  C   UNL     1      -9.275  12.262  66.446  1.00  0.00    -0.203 C  
ENDROOT
BRANCH   2   3
HETATM    3  C   UNL     1      -8.736  11.188  65.532  1.00  0.00    -0.098 C  
BRANCH   3   4
HETATM    4  C   UNL     1      -7.289  10.819  65.864  1.00  0.00    -0.094 C  
BRANCH   4   5
HETATM    5  C   UNL     1      -6.890   9.457  65.286  1.00  0.00    -0.083 C  
BRANCH   5   6
HETATM    6  C   UNL     1      -6.615   8.441  66.366  1.00  0.00    -0.058 A  
HETATM    7  C   UNL     1      -7.152   7.149  66.275  1.00  0.00    -0.074 A  
HETATM    8  C   UNL     1      -6.124   6.552  68.379  1.00  0.00    -0.025 A  
HETATM    9  C   UNL     1      -6.904   6.209  67.277  1.00  0.00    -0.063 A  
HETATM   10  C   UNL     1      -5.835   8.776  67.480  1.00  0.00    -0.043 A  
HETATM   11  C   UNL     1      -5.590   7.835  68.481  1.00  0.00    -0.028 A  
ENDBRANCH   5   6
ENDBRANCH   4   5
ENDBRANCH   3   4
ENDBRANCH   2   3
BRANCH   2  12
HETATM   12  O   UNL     1     -10.219  11.747  67.281  1.00  0.00    -0.200 OA 
BRANCH  12  13
HETATM   13  C   UNL     1     -10.818  10.499  66.883  1.00  0.00    -0.187 C  
BRANCH  13  14
HETATM   14  C   UNL     1     -11.003   9.596  68.106  1.00  0.00    -0.132 C  
BRANCH  14  15
HETATM   15  O   UNL     1     -10.853  10.390  69.301  1.00  0.00    -0.210 OA 
BRANCH  15  16
HETATM   16  C   UNL     1     -11.998  10.909  69.820  1.00  0.00    -0.351 C  
HETATM   17  O   UNL     1     -12.756  11.677  69.248  1.00  0.00     0.041 OA 
BRANCH  16  18
HETATM   18  C   UNL     1     -12.188  10.420  71.234  1.00  0.00    -0.491 C  
BRANCH  18  19
HETATM   19  C   UNL     1     -11.463   9.101  71.480  1.00  0.00    -0.437 C  
BRANCH  19  20
HETATM   20  C   UNL     1     -12.373   8.018  72.072  1.00  0.00    -0.366 C  
BRANCH  20  21
HETATM   21  C   UNL     1     -11.534   6.973  72.762  1.00  0.00    -0.207 A  
HETATM   22  C   UNL     1     -10.124   5.051  74.230  1.00  0.00    -0.261 A  
HETATM   23  C   UNL     1     -10.454   7.351  73.569  1.00  0.00    -0.396 A  
HETATM   24  C   UNL     1     -11.887   5.619  72.682  1.00  0.00    -0.192 A  
HETATM   25  C   UNL     1      -9.752   6.390  74.299  1.00  0.00    -0.292 A  
HETATM   26  C   UNL     1     -11.185   4.662  73.414  1.00  0.00    -0.423 A  
ENDBRANCH  20  21
ENDBRANCH  19  20
ENDBRANCH  18  19
ENDBRANCH  16  18
ENDBRANCH  15  16
ENDBRANCH  14  15
BRANCH  14  27
HETATM   27  C   UNL     1      -9.939   8.492  68.143  1.00  0.00    -0.181 C  
BRANCH  27  28
HETATM   28  O   UNL     1     -10.394   7.302  67.484  1.00  0.00    -0.197 OA 
BRANCH  28  29
HETATM   29  C   UNL     1     -10.854   6.328  68.320  1.00  0.00    -0.319 C  
HETATM   30  O   UNL     1     -11.732   6.481  69.156  1.00  0.00    -0.193 OA 
BRANCH  29  31
HETATM   31  C   UNL     1     -10.128   5.033  68.056  1.00  0.00    -0.169 C  
BRANCH  31  32
HETATM   32  C   UNL     1      -9.365   4.551  69.285  1.00  0.00    -0.215 C  
BRANCH  32  33
HETATM   33  C   UNL     1      -9.096   5.671  70.298  1.00  0.00    -0.163 C  
BRANCH  33  34
HETATM   34  C   UNL     1      -8.053   5.234  71.294  1.00  0.00    -0.114 A  
HETATM   35  C   UNL     1      -5.998   4.396  73.003  1.00  0.00    -0.012 A  
HETATM   36  C   UNL     1      -7.130   6.160  71.800  1.00  0.00    -0.085 A  
HETATM   37  C   UNL     1      -6.108   5.741  72.652  1.00  0.00    -0.041 A  
HETATM   38  C   UNL     1      -6.920   3.472  72.514  1.00  0.00    -0.042 A  
HETATM   39  C   UNL     1      -7.944   3.888  71.664  1.00  0.00    -0.066 A  
ENDBRANCH  33  34
ENDBRANCH  32  33
ENDBRANCH  31  32
ENDBRANCH  29  31
ENDBRANCH  28  29
ENDBRANCH  27  28
ENDBRANCH  14  27
ENDBRANCH  13  14
ENDBRANCH  12  13
ENDBRANCH   2  12
TORSDOF 20
ENDMDL
MODEL      343
REMARK 921   NORMALIZED FREE ENERGY PREDICTED BY IDOCK:   -3.09 KCAL/MOL
REMARK 922        TOTAL FREE ENERGY PREDICTED BY IDOCK:  -11.38 KCAL/MOL
REMARK 923 INTER-LIGAND FREE ENERGY PREDICTED BY IDOCK:   -7.07 KCAL/MOL
REMARK 924 INTRA-LIGAND FREE ENERGY PREDICTED BY IDOCK:   -4.31 KCAL/MOL
REMARK 927      BINDING AFFINITY PREDICTED BY RF-SCORE:    0.00 PKD
ROOT
HETATM    1  O   UNL     1     -13.474  10.807  69.797  1.00  0.00     0.256 OA 
HETATM    2  C   UNL     1     -12.398  10.783  70.377  1.00  0.00    -0.353 C  
ENDROOT
BRANCH   2   3
HETATM    3  C   UNL     1     -11.373  11.890  70.311  1.00  0.00     0.153 C  
BRANCH   3   4
HETATM    4  C   UNL     1     -11.754  12.971  69.297  1.00  0.00    -0.375 C  
BRANCH   4   5
HETATM    5  C   UNL     1     -11.027  12.795  67.959  1.00  0.00    -0.266 C  
BRANCH   5   6
HETATM    6  C   UNL     1     -10.670  14.118  67.330  1.00  0.00    -0.284 A  
HETATM    7  C   UNL     1     -10.264  14.176  65.989  1.00  0.00    -0.318 A  
HETATM    8  C   UNL     1      -9.986  16.571  66.157  1.00  0.00    -0.363 A  
HETATM    9  C   UNL     1      -9.927  15.399  65.406  1.00  0.00    -0.356 A  
HETATM   10  C   UNL     1     -10.722  15.301  68.077  1.00  0.00    -0.268 A  
HETATM   11  C   UNL     1     -10.383  16.522  67.492  1.00  0.00    -0.294 A  
ENDBRANCH   5   6
ENDBRANCH   4   5
ENDBRANCH   3   4
ENDBRANCH   2   3
BRANCH   2  12
HETATM   12  O   UNL     1     -11.950   9.767  71.165  1.00  0.00    -0.320 OA 
BRANCH  12  13
HETATM   13  C   UNL     1     -10.523   9.579  71.224  1.00  0.00    -0.250 C  
BRANCH  13  14
HETATM   14  C   UNL     1     -10.122   8.364  70.382  1.00  0.00    -0.187 C  
BRANCH  14  15
HETATM   15  O   UNL     1      -9.422   7.423  71.222  1.00  0.00    -0.154 OA 
BRANCH  15  16
HETATM   16  C   UNL     1     -10.020   6.213  71.390  1.00  0.00    -0.187 C  
HETATM   17  O   UNL     1      -9.942   5.512  72.388  1.00  0.00    -0.164 OA 
BRANCH  16  18
HETATM   18  C   UNL     1     -10.779   5.837  70.142  1.00  0.00    -0.390 C  
BRANCH  18  19
HETATM   19  C   UNL     1     -10.090   4.713  69.377  1.00  0.00    -0.194 C  
BRANCH  19  20
HETATM   20  C   UNL     1      -8.616   5.009  69.075  1.00  0.00    -0.091 C  
BRANCH  20  21
HETATM   21  C   UNL     1      -8.462   5.401  67.628  1.00  0.00    -0.105 A  
HETATM   22  C   UNL     1      -8.044   5.933  64.912  1.00  0.00    -0.132 A  
HETATM   23  C   UNL     1      -7.384   6.196  67.220  1.00  0.00    -0.077 A  
HETATM   24  C   UNL     1      -9.341   4.893  66.662  1.00  0.00    -0.140 A  
HETATM   25  C   UNL     1      -7.178   6.461  65.865  1.00  0.00    -0.078 A  
HETATM   26  C   UNL     1      -9.131   5.157  65.309  1.00  0.00    -0.126 A  
ENDBRANCH  20  21
ENDBRANCH  19  20
ENDBRANCH  18  19
ENDBRANCH  16  18
ENDBRANCH  15  16
ENDBRANCH  14  15
BRANCH  14  27
HETATM   27  C   UNL     1      -9.177   8.768  69.245  1.00  0.00    -0.149 C  
BRANCH  27  28
HETATM   28  O   UNL     1      -8.519  10.012  69.526  1.00  0.00    -0.150 OA 
BRANCH  28  29
HETATM   29  C   UNL     1      -7.196   9.900  69.835  1.00  0.00    -0.129 C  
HETATM   30  O   UNL     1      -6.714  10.129  70.935  1.00  0.00    -0.328 OA 
BRANCH  29  31
HETATM   31  C   UNL     1      -6.417   9.446  68.627  1.00  0.00    -0.052 C  
BRANCH  31  32
HETATM   32  C   UNL     1      -5.959  10.622  67.773  1.00  0.00    -0.043 C  
BRANCH  32  33
HETATM   33  C   UNL     1      -7.128  11.446  67.216  1.00  0.00    -0.119 C  
BRANCH  33  34
HETATM   34  C   UNL     1      -7.717  10.764  66.008  1.00  0.00    -0.139 A  
HETATM   35  C   UNL     1      -8.801   9.336  63.856  1.00  0.00    -0.160 A  
HETATM   36  C   UNL     1      -9.099  10.546  65.926  1.00  0.00    -0.192 A  
HETATM   37  C   UNL     1      -9.638   9.835  64.854  1.00  0.00    -0.316 A  
HETATM   38  C   UNL     1      -7.427   9.559  63.924  1.00  0.00    -0.117 A  
HETATM   39  C   UNL     1      -6.886  10.271  64.995  1.00  0.00    -0.111 A  
ENDBRANCH  33  34
ENDBRANCH  32  33
ENDBRANCH  31  32
ENDBRANCH  29  31
ENDBRANCH  28  29
ENDBRANCH  27  28
ENDBRANCH  14  27
ENDBRANCH  13  14
ENDBRANCH  12  13
ENDBRANCH   2  12
TORSDOF 20
ENDMDL
MODEL      344
REMARK 921   NORMALIZED FREE ENERGY PREDICTED BY IDOCK:   -3.06 KCAL/MOL
REMARK 922        TOTAL FREE ENERGY PREDICTED BY IDOCK:  -11.31 KCAL/MOL
REMARK 923 INTER-LIGAND FREE ENERGY PREDICTED BY IDOCK:   -7.50 KCAL/MOL
REMARK 924 INTRA-LIGAND FREE ENERGY PREDICTED BY IDOCK:   -3.81 KCAL/MOL
REMARK 927      BINDING AFFINITY PREDICTED BY RF-SCORE:    0.00 PKD
ROOT
HETATM    1  O   UNL     1     -11.647  13.424  66.288  1.00  0.00    -0.318 OA 
HETATM    2  C   UNL     1     -10.479  13.079  66.396  1.00  0.00    -0.276 C  
ENDROOT
BRANCH   2   3
HETATM    3  C   UNL     1      -9.357  13.998  66.814  1.00  0.00    -0.289 C  
BRANCH   3   4
HETATM    4  C   UNL     1      -9.865  15.380  67.230  1.00  0.00    -0.217 C  
BRANCH   4   5
HETATM    5  C   UNL     1      -9.811  16.389  66.077  1.00  0.00    -0.362 C  
BRANCH   5   6
HETATM    6  C   UNL     1      -9.755  17.811  66.573  1.00  0.00    -0.324 A  
HETATM    7  C   UNL     1     -10.579  18.226  67.629  1.00  0.00    -0.427 A  
HETATM    8  C   UNL     1      -9.670  20.460  67.489  1.00  0.00    -0.571 A  
HETATM    9  C   UNL     1     -10.534  19.544  68.085  1.00  0.00    -0.497 A  
HETATM   10  C   UNL     1      -8.894  18.742  65.977  1.00  0.00    -0.003 A  
HETATM   11  C   UNL     1      -8.851  20.059  66.435  1.00  0.00    -0.388 A  
ENDBRANCH   5   6
ENDBRANCH   4   5
ENDBRANCH   3   4
ENDBRANCH   2   3
BRANCH   2  12
HETATM   12  O   UNL     1     -10.004  11.825  66.157  1.00  0.00    -0.214 OA 
BRANCH  12  13
HETATM   13  C   UNL     1     -10.767  10.732  66.704  1.00  0.00    -0.207 C  
BRANCH  13  14
HETATM   14  C   UNL     1     -10.043  10.147  67.920  1.00  0.00    -0.176 C  
BRANCH  14  15
HETATM   15  O   UNL     1      -8.697   9.795  67.538  1.00  0.00    -0.125 OA 
BRANCH  15  16
HETATM   16  C   UNL     1      -7.700  10.385  68.250  1.00  0.00    -0.096 C  
HETATM   17  O   UNL     1      -7.716  10.605  69.452  1.00  0.00    -0.139 OA 
BRANCH  16  18
HETATM   18  C   UNL     1      -6.566  10.763  67.331  1.00  0.00    -0.071 C  
BRANCH  18  19
HETATM   19  C   UNL     1      -6.521  12.265  67.075  1.00  0.00    -0.051 C  
BRANCH  19  20
HETATM   20  C   UNL     1      -5.611  13.013  68.056  1.00  0.00    -0.106 C  
BRANCH  20  21
HETATM   21  C   UNL     1      -6.160  14.395  68.306  1.00  0.00    -0.119 A  
HETATM   22  C   UNL     1      -6.973  17.013  68.874  1.00  0.00    -0.219 A  
HETATM   23  C   UNL     1      -6.835  14.684  69.498  1.00  0.00    -0.165 A  
HETATM   24  C   UNL     1      -5.915  15.428  67.391  1.00  0.00     0.032 A  
HETATM   25  C   UNL     1      -7.240  15.990  69.779  1.00  0.00     0.056 A  
HETATM   26  C   UNL     1      -6.319  16.732  67.675  1.00  0.00    -0.172 A  
ENDBRANCH  20  21
ENDBRANCH  19  20
ENDBRANCH  18  19
ENDBRANCH  16  18
ENDBRANCH  15  16
ENDBRANCH  14  15
BRANCH  14  27
HETATM   27  C   UNL     1     -10.735   8.872  68.416  1.00  0.00    -0.076 C  
BRANCH  27  28
HETATM   28  O   UNL     1     -10.544   7.782  67.502  1.00  0.00    -0.260 OA 
BRANCH  28  29
HETATM   29  C   UNL     1     -10.734   6.546  68.043  1.00  0.00    -0.283 C  
HETATM   30  O   UNL     1     -11.148   6.333  69.174  1.00  0.00    -0.337 OA 
BRANCH  29  31
HETATM   31  C   UNL     1     -10.368   5.480  67.041  1.00  0.00    -0.306 C  
BRANCH  31  32
HETATM   32  C   UNL     1      -9.275   4.557  67.569  1.00  0.00    -0.156 C  
BRANCH  32  33
HETATM   33  C   UNL     1      -7.955   5.291  67.842  1.00  0.00    -0.095 C  
BRANCH  33  34
HETATM   34  C   UNL     1      -7.855   5.659  69.300  1.00  0.00    -0.089 A  
HETATM   35  C   UNL     1      -7.835   6.420  71.996  1.00  0.00    -0.100 A  
HETATM   36  C   UNL     1      -8.404   4.819  70.278  1.00  0.00    -0.083 A  
HETATM   37  C   UNL     1      -8.394   5.199  71.620  1.00  0.00    -0.117 A  
HETATM   38  C   UNL     1      -7.276   7.256  71.030  1.00  0.00    -0.073 A  
HETATM   39  C   UNL     1      -7.285   6.877  69.688  1.00  0.00    -0.080 A  
ENDBRANCH  33  34
ENDBRANCH  32  33
ENDBRANCH  31  32
ENDBRANCH  29  31
ENDBRANCH  28  29
ENDBRANCH  27  28
ENDBRANCH  14  27
ENDBRANCH  13  14
ENDBRANCH  12  13
ENDBRANCH   2  12
TORSDOF 20
ENDMDL
MODEL      345
REMARK 921   NORMALIZED FREE ENERGY PREDICTED BY IDOCK:   -3.05 KCAL/MOL
REMARK 922        TOTAL FREE ENERGY PREDICTED BY IDOCK:  -11.29 KCAL/MOL
REMARK 923 INTER-LIGAND FREE ENERGY PREDICTED BY IDOCK:   -7.93 KCAL/MOL
REMARK 924 INTRA-LIGAND FREE ENERGY PREDICTED BY IDOCK:   -3.36 KCAL/MOL
REMARK 927      BINDING AFFINITY PREDICTED BY RF-SCORE:    0.00 PKD
ROOT
HETATM    1  O   UNL     1     -11.562  13.137  66.403  1.00  0.00    -0.317 OA 
HETATM    2  C   UNL     1     -10.452  12.659  66.584  1.00  0.00    -0.245 C  
ENDROOT
BRANCH   2   3
HETATM    3  C   UNL     1      -9.168  13.453  66.545  1.00  0.00    -0.182 C  
BRANCH   3   4
HETATM    4  C   UNL     1      -9.324  14.835  67.181  1.00  0.00    -0.233 C  
BRANCH   4   5
HETATM    5  C   UNL     1      -9.727  15.903  66.159  1.00  0.00    -0.351 C  
BRANCH   5   6
HETATM    6  C   UNL     1      -9.520  17.300  66.687  1.00  0.00    -0.278 A  
HETATM    7  C   UNL     1      -8.225  17.819  66.826  1.00  0.00    -0.275 A  
HETATM    8  C   UNL     1      -9.124  19.890  67.686  1.00  0.00    -0.431 A  
HETATM    9  C   UNL     1      -8.029  19.109  67.320  1.00  0.00    -0.277 A  
HETATM   10  C   UNL     1     -10.613  18.092  67.061  1.00  0.00    -0.346 A  
HETATM   11  C   UNL     1     -10.415  19.382  67.556  1.00  0.00    -0.577 A  
ENDBRANCH   5   6
ENDBRANCH   4   5
ENDBRANCH   3   4
ENDBRANCH   2   3
BRANCH   2  12
HETATM   12  O   UNL     1     -10.192  11.348  66.844  1.00  0.00    -0.208 OA 
BRANCH  12  13
HETATM   13  C   UNL     1     -11.023  10.712  67.835  1.00  0.00    -0.295 C  
BRANCH  13  14
HETATM   14  C   UNL     1     -10.201  10.414  69.092  1.00  0.00    -0.222 C  
BRANCH  14  15
HETATM   15  O   UNL     1      -9.042   9.639  68.722  1.00  0.00    -0.130 OA 
BRANCH  15  16
HETATM   16  C   UNL     1      -7.852  10.068  69.221  1.00  0.00    -0.125 C  
HETATM   17  O   UNL     1      -7.679  10.565  70.323  1.00  0.00    -0.082 OA 
BRANCH  16  18
HETATM   18  C   UNL     1      -6.764   9.868  68.196  1.00  0.00    -0.060 C  
BRANCH  18  19
HETATM   19  C   UNL     1      -6.328  11.187  67.568  1.00  0.00    -0.065 C  
BRANCH  19  20
HETATM   20  C   UNL     1      -5.205  11.881  68.349  1.00  0.00    -0.046 C  
BRANCH  20  21
HETATM   21  C   UNL     1      -5.617  13.291  68.685  1.00  0.00    -0.076 A  
HETATM   22  C   UNL     1      -6.164  15.942  69.401  1.00  0.00    -0.153 A  
HETATM   23  C   UNL     1      -6.186  13.585  69.931  1.00  0.00    -0.108 A  
HETATM   24  C   UNL     1      -5.345  14.338  67.794  1.00  0.00    -0.009 A  
HETATM   25  C   UNL     1      -6.459  14.907  70.285  1.00  0.00    -0.124 A  
HETATM   26  C   UNL     1      -5.616  15.658  68.152  1.00  0.00    -0.126 A  
ENDBRANCH  20  21
ENDBRANCH  19  20
ENDBRANCH  18  19
ENDBRANCH  16  18
ENDBRANCH  15  16
ENDBRANCH  14  15
BRANCH  14  27
HETATM   27  C   UNL     1     -11.011   9.590  70.100  1.00  0.00    -0.262 C  
BRANCH  27  28
HETATM   28  O   UNL     1     -10.987   8.193  69.775  1.00  0.00    -0.225 OA 
BRANCH  28  29
HETATM   29  C   UNL     1     -11.345   7.363  70.795  1.00  0.00    -0.280 C  
HETATM   30  O   UNL     1     -11.882   7.723  71.833  1.00  0.00    -0.275 OA 
BRANCH  29  31
HETATM   31  C   UNL     1     -10.992   5.938  70.454  1.00  0.00    -0.376 C  
BRANCH  31  32
HETATM   32  C   UNL     1      -9.895   5.393  71.362  1.00  0.00    -0.221 C  
BRANCH  32  33
HETATM   33  C   UNL     1      -8.510   5.970  71.037  1.00  0.00    -0.124 C  
BRANCH  33  34
HETATM   34  C   UNL     1      -7.996   6.779  72.200  1.00  0.00    -0.096 A  
HETATM   35  C   UNL     1      -6.982   8.124  74.437  1.00  0.00    -0.183 A  
HETATM   36  C   UNL     1      -6.665   7.218  72.220  1.00  0.00    -0.059 A  
HETATM   37  C   UNL     1      -6.161   7.888  73.334  1.00  0.00    -0.069 A  
HETATM   38  C   UNL     1      -8.309   7.701  74.420  1.00  0.00    -0.268 A  
HETATM   39  C   UNL     1      -8.816   7.032  73.307  1.00  0.00    -0.155 A  
ENDBRANCH  33  34
ENDBRANCH  32  33
ENDBRANCH  31  32
ENDBRANCH  29  31
ENDBRANCH  28  29
ENDBRANCH  27  28
ENDBRANCH  14  27
ENDBRANCH  13  14
ENDBRANCH  12  13
ENDBRANCH   2  12
TORSDOF 20
ENDMDL
MODEL      346
REMARK 921   NORMALIZED FREE ENERGY PREDICTED BY IDOCK:   -3.04 KCAL/MOL
REMARK 922        TOTAL FREE ENERGY PREDICTED BY IDOCK:  -11.27 KCAL/MOL
REMARK 923 INTER-LIGAND FREE ENERGY PREDICTED BY IDOCK:   -9.19 KCAL/MOL
REMARK 924 INTRA-LIGAND FREE ENERGY PREDICTED BY IDOCK:   -2.08 KCAL/MOL
REMARK 927      BINDING AFFINITY PREDICTED BY RF-SCORE:    0.00 PKD
ROOT
HETATM    1  O   UNL     1      -5.515  14.018  67.350  1.00  0.00    -0.342 OA 
HETATM    2  C   UNL     1      -6.305  14.840  67.792  1.00  0.00    -0.153 C  
ENDROOT
BRANCH   2   3
HETATM    3  C   UNL     1      -5.973  16.292  68.037  1.00  0.00    -0.127 C  
BRANCH   3   4
HETATM    4  C   UNL     1      -7.068  17.011  68.827  1.00  0.00    -0.219 C  
BRANCH   4   5
HETATM    5  C   UNL     1      -7.233  18.472  68.393  1.00  0.00    -0.292 C  
BRANCH   5   6
HETATM    6  C   UNL     1      -8.509  18.693  67.622  1.00  0.00    -0.284 A  
HETATM    7  C   UNL     1      -9.167  19.931  67.682  1.00  0.00    -0.447 A  
HETATM    8  C   UNL     1     -10.893  19.108  66.205  1.00  0.00    -0.315 A  
HETATM    9  C   UNL     1     -10.352  20.136  66.974  1.00  0.00    -0.502 A  
HETATM   10  C   UNL     1      -9.064  17.666  66.849  1.00  0.00    -0.262 A  
HETATM   11  C   UNL     1     -10.249  17.873  66.142  1.00  0.00    -0.343 A  
ENDBRANCH   5   6
ENDBRANCH   4   5
ENDBRANCH   3   4
ENDBRANCH   2   3
BRANCH   2  12
HETATM   12  O   UNL     1      -7.598  14.584  68.134  1.00  0.00    -0.106 OA 
BRANCH  12  13
HETATM   13  C   UNL     1      -8.434  14.012  67.109  1.00  0.00    -0.190 C  
BRANCH  13  14
HETATM   14  C   UNL     1      -8.900  12.616  67.534  1.00  0.00    -0.186 C  
BRANCH  14  15
HETATM   15  O   UNL     1     -10.308  12.668  67.845  1.00  0.00    -0.208 OA 
BRANCH  15  16
HETATM   16  C   UNL     1     -11.047  11.597  67.448  1.00  0.00    -0.281 C  
HETATM   17  O   UNL     1     -11.554  11.451  66.346  1.00  0.00    -0.369 OA 
BRANCH  16  18
HETATM   18  C   UNL     1     -11.179  10.615  68.584  1.00  0.00    -0.337 C  
BRANCH  18  19
HETATM   19  C   UNL     1     -12.328  10.981  69.518  1.00  0.00    -0.266 C  
BRANCH  19  20
HETATM   20  C   UNL     1     -11.861  11.694  70.792  1.00  0.00    -0.119 C  
BRANCH  20  21
HETATM   21  C   UNL     1     -12.568  13.020  70.920  1.00  0.00    -0.364 A  
HETATM   22  C   UNL     1     -13.711  15.545  71.311  1.00  0.00    -0.482 A  
HETATM   23  C   UNL     1     -13.536  13.213  71.915  1.00  0.00    -0.513 A  
HETATM   24  C   UNL     1     -12.195  14.100  70.110  1.00  0.00    -0.415 A  
HETATM   25  C   UNL     1     -14.105  14.473  72.107  1.00  0.00    -0.616 A  
HETATM   26  C   UNL     1     -12.764  15.358  70.306  1.00  0.00    -0.338 A  
ENDBRANCH  20  21
ENDBRANCH  19  20
ENDBRANCH  18  19
ENDBRANCH  16  18
ENDBRANCH  15  16
ENDBRANCH  14  15
BRANCH  14  27
HETATM   27  C   UNL     1      -8.161  12.146  68.793  1.00  0.00     0.033 C  
BRANCH  27  28
HETATM   28  O   UNL     1      -7.113  11.220  68.471  1.00  0.00    -0.072 OA 
BRANCH  28  29
HETATM   29  C   UNL     1      -6.845  10.302  69.442  1.00  0.00    -0.076 C  
HETATM   30  O   UNL     1      -6.949  10.505  70.643  1.00  0.00    -0.300 OA 
BRANCH  29  31
HETATM   31  C   UNL     1      -6.411   9.000  68.819  1.00  0.00    -0.053 C  
BRANCH  31  32
HETATM   32  C   UNL     1      -7.562   8.003  68.732  1.00  0.00    -0.103 C  
BRANCH  32  33
HETATM   33  C   UNL     1      -7.541   7.179  67.438  1.00  0.00    -0.109 C  
BRANCH  33  34
HETATM   34  C   UNL     1      -7.534   5.706  67.758  1.00  0.00    -0.077 A  
HETATM   35  C   UNL     1      -7.530   3.014  68.532  1.00  0.00    -0.049 A  
HETATM   36  C   UNL     1      -8.742   5.021  67.948  1.00  0.00    -0.104 A  
HETATM   37  C   UNL     1      -8.739   3.680  68.333  1.00  0.00    -0.135 A  
HETATM   38  C   UNL     1      -6.324   3.686  68.334  1.00  0.00    -0.033 A  
HETATM   39  C   UNL     1      -6.325   5.025  67.948  1.00  0.00    -0.040 A  
ENDBRANCH  33  34
ENDBRANCH  32  33
ENDBRANCH  31  32
ENDBRANCH  29  31
ENDBRANCH  28  29
ENDBRANCH  27  28
ENDBRANCH  14  27
ENDBRANCH  13  14
ENDBRANCH  12  13
ENDBRANCH   2  12
TORSDOF 20
ENDMDL
MODEL      347
REMARK 921   NORMALIZED FREE ENERGY PREDICTED BY IDOCK:   -3.02 KCAL/MOL
REMARK 922        TOTAL FREE ENERGY PREDICTED BY IDOCK:  -11.23 KCAL/MOL
REMARK 923 INTER-LIGAND FREE ENERGY PREDICTED BY IDOCK:   -8.73 KCAL/MOL
REMARK 924 INTRA-LIGAND FREE ENERGY PREDICTED BY IDOCK:   -2.50 KCAL/MOL
REMARK 927      BINDING AFFINITY PREDICTED BY RF-SCORE:    0.00 PKD
ROOT
HETATM    1  O   UNL     1      -6.371  10.101  71.543  1.00  0.00    -0.306 OA 
HETATM    2  C   UNL     1      -7.020   9.451  70.735  1.00  0.00    -0.114 C  
ENDROOT
BRANCH   2   3
HETATM    3  C   UNL     1      -7.524   8.050  70.982  1.00  0.00    -0.071 C  
BRANCH   3   4
HETATM    4  C   UNL     1      -8.923   8.038  71.600  1.00  0.00    -0.192 C  
BRANCH   4   5
HETATM    5  C   UNL     1     -10.000   7.625  70.592  1.00  0.00    -0.183 C  
BRANCH   5   6
HETATM    6  C   UNL     1     -11.387   7.978  71.068  1.00  0.00    -0.294 A  
HETATM    7  C   UNL     1     -11.667   9.271  71.533  1.00  0.00    -0.450 A  
HETATM    8  C   UNL     1     -13.958   8.638  71.972  1.00  0.00    -0.506 A  
HETATM    9  C   UNL     1     -12.948   9.598  71.980  1.00  0.00    -0.518 A  
HETATM   10  C   UNL     1     -12.408   7.019  71.068  1.00  0.00    -0.402 A  
HETATM   11  C   UNL     1     -13.687   7.349  71.516  1.00  0.00    -0.467 A  
ENDBRANCH   5   6
ENDBRANCH   4   5
ENDBRANCH   3   4
ENDBRANCH   2   3
BRANCH   2  12
HETATM   12  O   UNL     1      -7.387   9.878  69.495  1.00  0.00    -0.077 OA 
BRANCH  12  13
HETATM   13  C   UNL     1      -8.251  11.030  69.441  1.00  0.00     0.113 C  
BRANCH  13  14
HETATM   14  C   UNL     1      -8.253  11.615  68.025  1.00  0.00    -0.146 C  
BRANCH  14  15
HETATM   15  O   UNL     1      -9.563  11.439  67.448  1.00  0.00    -0.172 OA 
BRANCH  15  16
HETATM   16  C   UNL     1     -10.601  11.970  68.149  1.00  0.00    -0.210 C  
HETATM   17  O   UNL     1     -11.542  11.344  68.613  1.00  0.00    -0.266 OA 
BRANCH  16  18
HETATM   18  C   UNL     1     -10.440  13.466  68.250  1.00  0.00    -0.256 C  
BRANCH  18  19
HETATM   19  C   UNL     1     -11.100  14.187  67.079  1.00  0.00    -0.314 C  
BRANCH  19  20
HETATM   20  C   UNL     1     -10.092  14.682  66.035  1.00  0.00    -0.330 C  
BRANCH  20  21
HETATM   21  C   UNL     1      -9.656  16.084  66.375  1.00  0.00    -0.309 A  
HETATM   22  C   UNL     1      -8.801  18.610  67.226  1.00  0.00    -0.283 A  
HETATM   23  C   UNL     1     -10.576  17.006  66.892  1.00  0.00    -0.208 A  
HETATM   24  C   UNL     1      -8.308  16.449  66.269  1.00  0.00    -0.362 A  
HETATM   25  C   UNL     1     -10.147  18.265  67.315  1.00  0.00    -0.366 A  
HETATM   26  C   UNL     1      -7.882  17.707  66.695  1.00  0.00    -0.283 A  
ENDBRANCH  20  21
ENDBRANCH  19  20
ENDBRANCH  18  19
ENDBRANCH  16  18
ENDBRANCH  15  16
ENDBRANCH  14  15
BRANCH  14  27
HETATM   27  C   UNL     1      -7.246  10.888  67.126  1.00  0.00    -0.104 C  
BRANCH  27  28
HETATM   28  O   UNL     1      -7.786   9.657  66.622  1.00  0.00    -0.097 OA 
BRANCH  28  29
HETATM   29  C   UNL     1      -7.365   9.322  65.369  1.00  0.00    -0.090 C  
HETATM   30  O   UNL     1      -6.396   9.806  64.804  1.00  0.00    -0.084 OA 
BRANCH  29  31
HETATM   31  C   UNL     1      -8.264   8.260  64.788  1.00  0.00    -0.147 C  
BRANCH  31  32
HETATM   32  C   UNL     1      -8.660   7.220  65.830  1.00  0.00    -0.143 C  
BRANCH  32  33
HETATM   33  C   UNL     1      -8.281   5.791  65.419  1.00  0.00    -0.138 C  
BRANCH  33  34
HETATM   34  C   UNL     1      -8.581   4.830  66.541  1.00  0.00    -0.109 A  
HETATM   35  C   UNL     1      -9.318   3.054  68.578  1.00  0.00    -0.243 A  
HETATM   36  C   UNL     1      -8.657   3.453  66.288  1.00  0.00    -0.119 A  
HETATM   37  C   UNL     1      -9.024   2.570  67.303  1.00  0.00    -0.182 A  
HETATM   38  C   UNL     1      -9.232   4.420  68.840  1.00  0.00    -0.199 A  
HETATM   39  C   UNL     1      -8.864   5.305  67.827  1.00  0.00    -0.105 A  
ENDBRANCH  33  34
ENDBRANCH  32  33
ENDBRANCH  31  32
ENDBRANCH  29  31
ENDBRANCH  28  29
ENDBRANCH  27  28
ENDBRANCH  14  27
ENDBRANCH  13  14
ENDBRANCH  12  13
ENDBRANCH   2  12
TORSDOF 20
ENDMDL
MODEL      348
REMARK 921   NORMALIZED FREE ENERGY PREDICTED BY IDOCK:   -3.00 KCAL/MOL
REMARK 922        TOTAL FREE ENERGY PREDICTED BY IDOCK:  -11.19 KCAL/MOL
REMARK 923 INTER-LIGAND FREE ENERGY PREDICTED BY IDOCK:   -8.52 KCAL/MOL
REMARK 924 INTRA-LIGAND FREE ENERGY PREDICTED BY IDOCK:   -2.66 KCAL/MOL
REMARK 927      BINDING AFFINITY PREDICTED BY RF-SCORE:    0.00 PKD
ROOT
HETATM    1  O   UNL     1     -10.532  17.823  69.291  1.00  0.00    -0.267 OA 
HETATM    2  C   UNL     1      -9.554  17.300  68.776  1.00  0.00    -0.269 C  
ENDROOT
BRANCH   2   3
HETATM    3  C   UNL     1      -8.584  18.019  67.870  1.00  0.00    -0.258 C  
BRANCH   3   4
HETATM    4  C   UNL     1      -7.933  19.220  68.557  1.00  0.00    -0.396 C  
BRANCH   4   5
HETATM    5  C   UNL     1      -6.432  19.315  68.262  1.00  0.00    -0.262 C  
BRANCH   5   6
HETATM    6  C   UNL     1      -6.153  19.467  66.788  1.00  0.00    -0.175 A  
HETATM    7  C   UNL     1      -6.675  20.558  66.078  1.00  0.00    -0.270 A  
HETATM    8  C   UNL     1      -5.655  19.748  64.043  1.00  0.00    -0.297 A  
HETATM    9  C   UNL     1      -6.424  20.698  64.713  1.00  0.00    -0.310 A  
HETATM   10  C   UNL     1      -5.385  18.516  66.105  1.00  0.00    -0.184 A  
HETATM   11  C   UNL     1      -5.135  18.658  64.739  1.00  0.00    -0.207 A  
ENDBRANCH   5   6
ENDBRANCH   4   5
ENDBRANCH   3   4
ENDBRANCH   2   3
BRANCH   2  12
HETATM   12  O   UNL     1      -9.185  15.998  68.931  1.00  0.00    -0.207 OA 
BRANCH  12  13
HETATM   13  C   UNL     1     -10.214  15.009  68.736  1.00  0.00    -0.235 C  
BRANCH  13  14
HETATM   14  C   UNL     1     -10.094  14.399  67.337  1.00  0.00    -0.243 C  
BRANCH  14  15
HETATM   15  O   UNL     1     -11.011  13.290  67.229  1.00  0.00    -0.261 OA 
BRANCH  15  16
HETATM   16  C   UNL     1     -11.969  13.398  66.271  1.00  0.00    -0.411 C  
HETATM   17  O   UNL     1     -12.762  14.321  66.156  1.00  0.00    -0.401 OA 
BRANCH  16  18
HETATM   18  C   UNL     1     -11.935  12.188  65.372  1.00  0.00    -0.296 C  
BRANCH  18  19
HETATM   19  C   UNL     1     -10.755  12.231  64.408  1.00  0.00    -0.369 C  
BRANCH  19  20
HETATM   20  C   UNL     1     -10.546  10.911  63.657  1.00  0.00    -0.226 C  
BRANCH  20  21
HETATM   21  C   UNL     1      -9.379  10.166  64.253  1.00  0.00    -0.349 A  
HETATM   22  C   UNL     1      -7.271   8.600  65.222  1.00  0.00    -0.083 A  
HETATM   23  C   UNL     1      -9.556   9.364  65.387  1.00  0.00    -0.296 A  
HETATM   24  C   UNL     1      -8.128  10.192  63.622  1.00  0.00    -0.163 A  
HETATM   25  C   UNL     1      -8.503   8.584  65.869  1.00  0.00    -0.164 A  
HETATM   26  C   UNL     1      -7.079   9.411  64.104  1.00  0.00    -0.102 A  
ENDBRANCH  20  21
ENDBRANCH  19  20
ENDBRANCH  18  19
ENDBRANCH  16  18
ENDBRANCH  15  16
ENDBRANCH  14  15
BRANCH  14  27
HETATM   27  C   UNL     1      -8.680  13.861  67.088  1.00  0.00    -0.221 C  
BRANCH  27  28
HETATM   28  O   UNL     1      -8.216  13.074  68.195  1.00  0.00    -0.142 OA 
BRANCH  28  29
HETATM   29  C   UNL     1      -7.604  11.907  67.848  1.00  0.00    -0.128 C  
HETATM   30  O   UNL     1      -7.239  11.618  66.718  1.00  0.00    -0.137 OA 
BRANCH  29  31
HETATM   31  C   UNL     1      -7.435  11.029  69.062  1.00  0.00    -0.129 C  
BRANCH  31  32
HETATM   32  C   UNL     1      -8.552   9.998  69.176  1.00  0.00    -0.158 C  
BRANCH  32  33
HETATM   33  C   UNL     1      -8.486   9.187  70.477  1.00  0.00    -0.236 C  
BRANCH  33  34
HETATM   34  C   UNL     1      -8.422   7.713  70.170  1.00  0.00    -0.138 A  
HETATM   35  C   UNL     1      -8.371   4.942  69.767  1.00  0.00    -0.077 A  
HETATM   36  C   UNL     1      -9.542   7.052  69.648  1.00  0.00    -0.150 A  
HETATM   37  C   UNL     1      -9.516   5.672  69.447  1.00  0.00    -0.169 A  
HETATM   38  C   UNL     1      -7.249   5.594  70.275  1.00  0.00    -0.067 A  
HETATM   39  C   UNL     1      -7.273   6.973  70.475  1.00  0.00    -0.068 A  
ENDBRANCH  33  34
ENDBRANCH  32  33
ENDBRANCH  31  32
ENDBRANCH  29  31
ENDBRANCH  28  29
ENDBRANCH  27  28
ENDBRANCH  14  27
ENDBRANCH  13  14
ENDBRANCH  12  13
ENDBRANCH   2  12
TORSDOF 20
ENDMDL
MODEL      349
REMARK 921   NORMALIZED FREE ENERGY PREDICTED BY IDOCK:   -2.97 KCAL/MOL
REMARK 922        TOTAL FREE ENERGY PREDICTED BY IDOCK:  -11.12 KCAL/MOL
REMARK 923 INTER-LIGAND FREE ENERGY PREDICTED BY IDOCK:   -8.05 KCAL/MOL
REMARK 924 INTRA-LIGAND FREE ENERGY PREDICTED BY IDOCK:   -3.07 KCAL/MOL
REMARK 927      BINDING AFFINITY PREDICTED BY RF-SCORE:    0.00 PKD
ROOT
HETATM    1  O   UNL     1      -7.687   8.974  72.067  1.00  0.00    -0.348 OA 
HETATM    2  C   UNL     1      -7.421   8.641  70.921  1.00  0.00    -0.083 C  
ENDROOT
BRANCH   2   3
HETATM    3  C   UNL     1      -7.165   9.610  69.792  1.00  0.00    -0.094 C  
BRANCH   3   4
HETATM    4  C   UNL     1      -8.463  10.141  69.180  1.00  0.00    -0.157 C  
BRANCH   4   5
HETATM    5  C   UNL     1      -8.894   9.340  67.947  1.00  0.00    -0.124 C  
BRANCH   5   6
HETATM    6  C   UNL     1      -9.648  10.190  66.955  1.00  0.00    -0.209 A  
HETATM    7  C   UNL     1      -9.437  10.026  65.578  1.00  0.00    -0.296 A  
HETATM    8  C   UNL     1     -11.032  11.778  65.104  1.00  0.00    -0.351 A  
HETATM    9  C   UNL     1     -10.129  10.815  64.659  1.00  0.00    -0.410 A  
HETATM   10  C   UNL     1     -10.555  11.164  67.392  1.00  0.00    -0.272 A  
HETATM   11  C   UNL     1     -11.245  11.952  66.471  1.00  0.00    -0.383 A  
ENDBRANCH   5   6
ENDBRANCH   4   5
ENDBRANCH   3   4
ENDBRANCH   2   3
BRANCH   2  12
HETATM   12  O   UNL     1      -7.314   7.357  70.479  1.00  0.00    -0.073 OA 
BRANCH  12  13
HETATM   13  C   UNL     1      -7.652   6.322  71.422  1.00  0.00    -0.098 C  
BRANCH  13  14
HETATM   14  C   UNL     1      -8.026   5.038  70.676  1.00  0.00    -0.083 C  
BRANCH  14  15
HETATM   15  O   UNL     1      -9.230   5.271  69.916  1.00  0.00    -0.129 OA 
BRANCH  15  16
HETATM   16  C   UNL     1      -9.180   4.937  68.599  1.00  0.00    -0.120 C  
HETATM   17  O   UNL     1      -9.712   3.961  68.091  1.00  0.00    -0.146 OA 
BRANCH  16  18
HETATM   18  C   UNL     1      -8.339   5.937  67.847  1.00  0.00    -0.111 C  
BRANCH  18  19
HETATM   19  C   UNL     1      -8.755   6.040  66.384  1.00  0.00    -0.133 C  
BRANCH  19  20
HETATM   20  C   UNL     1      -7.562   6.137  65.426  1.00  0.00    -0.087 C  
BRANCH  20  21
HETATM   21  C   UNL     1      -7.522   4.919  64.539  1.00  0.00    -0.071 A  
HETATM   22  C   UNL     1      -7.212   2.661  62.914  1.00  0.00    -0.044 A  
HETATM   23  C   UNL     1      -7.395   5.058  63.151  1.00  0.00    -0.049 A  
HETATM   24  C   UNL     1      -7.514   3.636  65.102  1.00  0.00    -0.073 A  
HETATM   25  C   UNL     1      -7.241   3.930  62.343  1.00  0.00    -0.036 A  
HETATM   26  C   UNL     1      -7.358   2.511  64.292  1.00  0.00    -0.058 A  
ENDBRANCH  20  21
ENDBRANCH  19  20
ENDBRANCH  18  19
ENDBRANCH  16  18
ENDBRANCH  15  16
ENDBRANCH  14  15
BRANCH  14  27
HETATM   27  C   UNL     1      -8.307   3.891  71.654  1.00  0.00    -0.078 C  
BRANCH  27  28
HETATM   28  O   UNL     1      -8.921   4.369  72.860  1.00  0.00    -0.116 OA 
BRANCH  28  29
HETATM   29  C   UNL     1     -10.174   3.884  73.092  1.00  0.00    -0.156 C  
HETATM   30  O   UNL     1     -10.504   2.713  72.969  1.00  0.00    -0.139 OA 
BRANCH  29  31
HETATM   31  C   UNL     1     -11.089   4.999  73.531  1.00  0.00    -0.386 C  
BRANCH  31  32
HETATM   32  C   UNL     1     -11.009   6.199  72.595  1.00  0.00    -0.291 C  
BRANCH  32  33
HETATM   33  C   UNL     1     -12.380   6.629  72.056  1.00  0.00    -0.316 C  
BRANCH  33  34
HETATM   34  C   UNL     1     -12.382   8.106  71.756  1.00  0.00    -0.357 A  
HETATM   35  C   UNL     1     -12.492  10.814  71.051  1.00  0.00    -0.522 A  
HETATM   36  C   UNL     1     -13.424   8.919  72.224  1.00  0.00    -0.503 A  
HETATM   37  C   UNL     1     -13.477  10.267  71.873  1.00  0.00    -0.403 A  
HETATM   38  C   UNL     1     -11.447  10.015  70.591  1.00  0.00    -0.425 A  
HETATM   39  C   UNL     1     -11.391   8.667  70.942  1.00  0.00    -0.314 A  
ENDBRANCH  33  34
ENDBRANCH  32  33
ENDBRANCH  31  32
ENDBRANCH  29  31
ENDBRANCH  28  29
ENDBRANCH  27  28
ENDBRANCH  14  27
ENDBRANCH  13  14
ENDBRANCH  12  13
ENDBRANCH   2  12
TORSDOF 20
ENDMDL
MODEL      350
REMARK 921   NORMALIZED FREE ENERGY PREDICTED BY IDOCK:   -2.96 KCAL/MOL
REMARK 922        TOTAL FREE ENERGY PREDICTED BY IDOCK:  -11.10 KCAL/MOL
REMARK 923 INTER-LIGAND FREE ENERGY PREDICTED BY IDOCK:   -7.85 KCAL/MOL
REMARK 924 INTRA-LIGAND FREE ENERGY PREDICTED BY IDOCK:   -3.25 KCAL/MOL
REMARK 927      BINDING AFFINITY PREDICTED BY RF-SCORE:    0.00 PKD
ROOT
HETATM    1  O   UNL     1      -7.133   9.469  66.733  1.00  0.00    -0.084 OA 
HETATM    2  C   UNL     1      -7.229   9.656  67.938  1.00  0.00    -0.081 C  
ENDROOT
BRANCH   2   3
HETATM    3  C   UNL     1      -8.154  10.668  68.570  1.00  0.00    -0.125 C  
BRANCH   3   4
HETATM    4  C   UNL     1      -8.892  11.507  67.526  1.00  0.00    -0.155 C  
BRANCH   4   5
HETATM    5  C   UNL     1     -10.245  10.898  67.140  1.00  0.00    -0.249 C  
BRANCH   5   6
HETATM    6  C   UNL     1     -10.853  11.581  65.942  1.00  0.00    -0.316 A  
HETATM    7  C   UNL     1     -11.925  12.471  66.104  1.00  0.00    -0.432 A  
HETATM    8  C   UNL     1     -12.003  12.843  63.717  1.00  0.00    -0.582 A  
HETATM    9  C   UNL     1     -12.495  13.100  64.996  1.00  0.00    -0.516 A  
HETATM   10  C   UNL     1     -10.370  11.327  64.652  1.00  0.00    -0.373 A  
HETATM   11  C   UNL     1     -10.941  11.957  63.546  1.00  0.00    -0.505 A  
ENDBRANCH   5   6
ENDBRANCH   4   5
ENDBRANCH   3   4
ENDBRANCH   2   3
BRANCH   2  12
HETATM   12  O   UNL     1      -6.524   8.992  68.896  1.00  0.00    -0.047 OA 
BRANCH  12  13
HETATM   13  C   UNL     1      -6.050   7.677  68.550  1.00  0.00    -0.032 C  
BRANCH  13  14
HETATM   14  C   UNL     1      -6.702   6.631  69.459  1.00  0.00    -0.050 C  
BRANCH  14  15
HETATM   15  O   UNL     1      -8.135   6.713  69.314  1.00  0.00    -0.113 OA 
BRANCH  15  16
HETATM   16  C   UNL     1      -8.655   6.153  68.190  1.00  0.00    -0.115 C  
HETATM   17  O   UNL     1      -9.171   6.761  67.264  1.00  0.00    -0.129 OA 
BRANCH  16  18
HETATM   18  C   UNL     1      -8.531   4.652  68.260  1.00  0.00    -0.101 C  
BRANCH  18  19
HETATM   19  C   UNL     1      -9.534   3.957  67.345  1.00  0.00    -0.236 C  
BRANCH  19  20
HETATM   20  C   UNL     1      -8.875   2.980  66.365  1.00  0.00    -0.148 C  
BRANCH  20  21
HETATM   21  C   UNL     1      -8.970   3.525  64.963  1.00  0.00    -0.133 A  
HETATM   22  C   UNL     1      -9.190   4.750  62.456  1.00  0.00    -0.073 A  
HETATM   23  C   UNL     1     -10.205   3.572  64.303  1.00  0.00    -0.200 A  
HETATM   24  C   UNL     1      -7.842   4.080  64.344  1.00  0.00    -0.085 A  
HETATM   25  C   UNL     1     -10.311   4.182  63.053  1.00  0.00    -0.075 A  
HETATM   26  C   UNL     1      -7.953   4.691  63.095  1.00  0.00    -0.082 A  
ENDBRANCH  20  21
ENDBRANCH  19  20
ENDBRANCH  18  19
ENDBRANCH  16  18
ENDBRANCH  15  16
ENDBRANCH  14  15
BRANCH  14  27
HETATM   27  C   UNL     1      -6.367   6.892  70.932  1.00  0.00    -0.040 C  
BRANCH  27  28
HETATM   28  O   UNL     1      -7.550   7.147  71.703  1.00  0.00    -0.086 OA 
BRANCH  28  29
HETATM   29  C   UNL     1      -7.607   6.488  72.895  1.00  0.00    -0.097 C  
HETATM   30  O   UNL     1      -7.043   6.846  73.919  1.00  0.00    -0.081 OA 
BRANCH  29  31
HETATM   31  C   UNL     1      -8.473   5.261  72.768  1.00  0.00    -0.116 C  
BRANCH  31  32
HETATM   32  C   UNL     1      -9.671   5.313  73.709  1.00  0.00    -0.151 C  
BRANCH  32  33
HETATM   33  C   UNL     1     -11.014   5.258  72.969  1.00  0.00    -0.354 C  
BRANCH  33  34
HETATM   34  C   UNL     1     -11.227   6.525  72.181  1.00  0.00    -0.308 A  
HETATM   35  C   UNL     1     -11.440   8.887  70.690  1.00  0.00    -0.280 A  
HETATM   36  C   UNL     1     -11.354   6.474  70.786  1.00  0.00    -0.399 A  
HETATM   37  C   UNL     1     -11.460   7.651  70.045  1.00  0.00    -0.012 A  
HETATM   38  C   UNL     1     -11.326   8.945  72.078  1.00  0.00    -0.427 A  
HETATM   39  C   UNL     1     -11.221   7.770  72.821  1.00  0.00    -0.456 A  
ENDBRANCH  33  34
ENDBRANCH  32  33
ENDBRANCH  31  32
ENDBRANCH  29  31
ENDBRANCH  28  29
ENDBRANCH  27  28
ENDBRANCH  14  27
ENDBRANCH  13  14
ENDBRANCH  12  13
ENDBRANCH   2  12
TORSDOF 20
ENDMDL
MODEL      351
REMARK 921   NORMALIZED FREE ENERGY PREDICTED BY IDOCK:   -2.95 KCAL/MOL
REMARK 922        TOTAL FREE ENERGY PREDICTED BY IDOCK:  -11.08 KCAL/MOL
REMARK 923 INTER-LIGAND FREE ENERGY PREDICTED BY IDOCK:   -8.41 KCAL/MOL
REMARK 924 INTRA-LIGAND FREE ENERGY PREDICTED BY IDOCK:   -2.67 KCAL/MOL
REMARK 927      BINDING AFFINITY PREDICTED BY RF-SCORE:    0.00 PKD
ROOT
HETATM    1  O   UNL     1     -12.641  10.588  71.399  1.00  0.00    -0.369 OA 
HETATM    2  C   UNL     1     -12.122   9.930  70.508  1.00  0.00    -0.207 C  
ENDROOT
BRANCH   2   3
HETATM    3  C   UNL     1     -12.096   8.421  70.472  1.00  0.00     0.148 C  
BRANCH   3   4
HETATM    4  C   UNL     1     -12.383   7.804  71.842  1.00  0.00    -0.342 C  
BRANCH   4   5
HETATM    5  C   UNL     1     -12.025   6.315  71.896  1.00  0.00    -0.342 C  
BRANCH   5   6
HETATM    6  C   UNL     1     -10.821   6.053  72.765  1.00  0.00    -0.284 A  
HETATM    7  C   UNL     1     -10.118   4.845  72.654  1.00  0.00    -0.222 A  
HETATM    8  C   UNL     1      -8.592   5.550  74.390  1.00  0.00    -0.114 A  
HETATM    9  C   UNL     1      -9.007   4.597  73.462  1.00  0.00    -0.104 A  
HETATM   10  C   UNL     1     -10.397   7.002  73.704  1.00  0.00    -0.412 A  
HETATM   11  C   UNL     1      -9.287   6.753  74.511  1.00  0.00    -0.248 A  
ENDBRANCH   5   6
ENDBRANCH   4   5
ENDBRANCH   3   4
ENDBRANCH   2   3
BRANCH   2  12
HETATM   12  O   UNL     1     -11.490  10.443  69.417  1.00  0.00    -0.243 OA 
BRANCH  12  13
HETATM   13  C   UNL     1     -10.194   9.896  69.107  1.00  0.00    -0.205 C  
BRANCH  13  14
HETATM   14  C   UNL     1     -10.114   9.556  67.616  1.00  0.00    -0.205 C  
BRANCH  14  15
HETATM   15  O   UNL     1      -9.446   8.287  67.461  1.00  0.00    -0.144 OA 
BRANCH  15  16
HETATM   16  C   UNL     1     -10.205   7.181  67.687  1.00  0.00    -0.198 C  
HETATM   17  O   UNL     1     -11.255   6.911  67.125  1.00  0.00    -0.352 OA 
BRANCH  16  18
HETATM   18  C   UNL     1      -9.573   6.337  68.765  1.00  0.00    -0.128 C  
BRANCH  18  19
HETATM   19  C   UNL     1      -8.101   6.681  68.965  1.00  0.00    -0.116 C  
BRANCH  19  20
HETATM   20  C   UNL     1      -7.405   5.769  69.981  1.00  0.00    -0.074 C  
BRANCH  20  21
HETATM   21  C   UNL     1      -6.732   4.627  69.263  1.00  0.00    -0.045 A  
HETATM   22  C   UNL     1      -5.275   2.613  67.976  1.00  0.00    -0.012 A  
HETATM   23  C   UNL     1      -6.461   4.715  67.891  1.00  0.00    -0.041 A  
HETATM   24  C   UNL     1      -6.284   3.509  69.978  1.00  0.00    -0.027 A  
HETATM   25  C   UNL     1      -5.736   3.709  67.252  1.00  0.00    -0.022 A  
HETATM   26  C   UNL     1      -5.557   2.507  69.337  1.00  0.00    -0.018 A  
ENDBRANCH  20  21
ENDBRANCH  19  20
ENDBRANCH  18  19
ENDBRANCH  16  18
ENDBRANCH  15  16
ENDBRANCH  14  15
BRANCH  14  27
HETATM   27  C   UNL     1      -9.300  10.607  66.852  1.00  0.00    -0.159 C  
BRANCH  27  28
HETATM   28  O   UNL     1      -9.052  11.767  67.660  1.00  0.00    -0.167 OA 
BRANCH  28  29
HETATM   29  C   UNL     1      -9.721  12.888  67.269  1.00  0.00    -0.220 C  
HETATM   30  O   UNL     1     -10.542  12.932  66.364  1.00  0.00    -0.266 OA 
BRANCH  29  31
HETATM   31  C   UNL     1      -9.308  14.062  68.120  1.00  0.00    -0.201 C  
BRANCH  31  32
HETATM   32  C   UNL     1     -10.106  15.317  67.779  1.00  0.00    -0.230 C  
BRANCH  32  33
HETATM   33  C   UNL     1      -9.751  16.511  68.675  1.00  0.00    -0.247 C  
BRANCH  33  34
HETATM   34  C   UNL     1     -10.039  17.804  67.957  1.00  0.00    -0.355 A  
HETATM   35  C   UNL     1     -10.398  20.204  66.558  1.00  0.00    -0.508 A  
HETATM   36  C   UNL     1     -10.470  17.790  66.624  1.00  0.00    -0.300 A  
HETATM   37  C   UNL     1     -10.649  18.985  65.928  1.00  0.00    -0.466 A  
HETATM   38  C   UNL     1      -9.981  20.227  67.888  1.00  0.00    -0.492 A  
HETATM   39  C   UNL     1      -9.802  19.033  68.586  1.00  0.00    -0.474 A  
ENDBRANCH  33  34
ENDBRANCH  32  33
ENDBRANCH  31  32
ENDBRANCH  29  31
ENDBRANCH  28  29
ENDBRANCH  27  28
ENDBRANCH  14  27
ENDBRANCH  13  14
ENDBRANCH  12  13
ENDBRANCH   2  12
TORSDOF 20
ENDMDL
MODEL      352
REMARK 921   NORMALIZED FREE ENERGY PREDICTED BY IDOCK:   -2.88 KCAL/MOL
REMARK 922        TOTAL FREE ENERGY PREDICTED BY IDOCK:  -10.92 KCAL/MOL
REMARK 923 INTER-LIGAND FREE ENERGY PREDICTED BY IDOCK:   -7.70 KCAL/MOL
REMARK 924 INTRA-LIGAND FREE ENERGY PREDICTED BY IDOCK:   -3.22 KCAL/MOL
REMARK 927      BINDING AFFINITY PREDICTED BY RF-SCORE:    0.00 PKD
ROOT
HETATM    1  O   UNL     1     -11.585  19.183  67.400  1.00  0.00     0.318 OA 
HETATM    2  C   UNL     1     -10.565  18.814  67.965  1.00  0.00    -0.296 C  
ENDROOT
BRANCH   2   3
HETATM    3  C   UNL     1      -9.381  19.707  68.247  1.00  0.00    -0.426 C  
BRANCH   3   4
HETATM    4  C   UNL     1      -8.573  19.231  69.456  1.00  0.00     0.273 C  
BRANCH   4   5
HETATM    5  C   UNL     1      -7.063  19.403  69.250  1.00  0.00    -0.358 C  
BRANCH   5   6
HETATM    6  C   UNL     1      -6.688  19.407  67.789  1.00  0.00    -0.251 A  
HETATM    7  C   UNL     1      -6.501  18.199  67.103  1.00  0.00    -0.192 A  
HETATM    8  C   UNL     1      -5.973  19.406  65.078  1.00  0.00    -0.282 A  
HETATM    9  C   UNL     1      -6.148  18.200  65.753  1.00  0.00    -0.274 A  
HETATM   10  C   UNL     1      -6.506  20.614  67.102  1.00  0.00    -0.327 A  
HETATM   11  C   UNL     1      -6.152  20.613  65.752  1.00  0.00    -0.260 A  
ENDBRANCH   5   6
ENDBRANCH   4   5
ENDBRANCH   3   4
ENDBRANCH   2   3
BRANCH   2  12
HETATM   12  O   UNL     1     -10.331  17.554  68.424  1.00  0.00    -0.339 OA 
BRANCH  12  13
HETATM   13  C   UNL     1     -10.655  16.472  67.530  1.00  0.00    -0.313 C  
BRANCH  13  14
HETATM   14  C   UNL     1     -10.568  15.136  68.274  1.00  0.00    -0.243 C  
BRANCH  14  15
HETATM   15  O   UNL     1      -9.179  14.798  68.467  1.00  0.00    -0.183 OA 
BRANCH  15  16
HETATM   16  C   UNL     1      -8.404  14.793  67.349  1.00  0.00    -0.200 C  
HETATM   17  O   UNL     1      -8.518  15.553  66.400  1.00  0.00    -0.282 OA 
BRANCH  16  18
HETATM   18  C   UNL     1      -7.388  13.682  67.434  1.00  0.00    -0.127 C  
BRANCH  18  19
HETATM   19  C   UNL     1      -7.904  12.505  68.255  1.00  0.00    -0.144 C  
BRANCH  19  20
HETATM   20  C   UNL     1      -7.325  11.159  67.802  1.00  0.00    -0.093 C  
BRANCH  20  21
HETATM   21  C   UNL     1      -7.898  10.786  66.459  1.00  0.00    -0.145 A  
HETATM   22  C   UNL     1      -9.049   9.897  64.067  1.00  0.00    -0.300 A  
HETATM   23  C   UNL     1      -7.160   9.996  65.568  1.00  0.00    -0.132 A  
HETATM   24  C   UNL     1      -9.212  11.143  66.128  1.00  0.00    -0.216 A  
HETATM   25  C   UNL     1      -7.736   9.555  64.376  1.00  0.00    -0.123 A  
HETATM   26  C   UNL     1      -9.785  10.699  64.937  1.00  0.00    -0.341 A  
ENDBRANCH  20  21
ENDBRANCH  19  20
ENDBRANCH  18  19
ENDBRANCH  16  18
ENDBRANCH  15  16
ENDBRANCH  14  15
BRANCH  14  27
HETATM   27  C   UNL     1     -11.214  14.008  67.461  1.00  0.00    -0.309 C  
BRANCH  27  28
HETATM   28  O   UNL     1     -12.137  13.250  68.256  1.00  0.00    -0.333 OA 
BRANCH  28  29
HETATM   29  C   UNL     1     -12.160  11.915  67.985  1.00  0.00     0.060 C  
HETATM   30  O   UNL     1     -12.263  11.430  66.867  1.00  0.00     0.026 OA 
BRANCH  29  31
HETATM   31  C   UNL     1     -12.032  11.123  69.261  1.00  0.00    -0.421 C  
BRANCH  31  32
HETATM   32  C   UNL     1     -10.577  10.795  69.581  1.00  0.00    -0.222 C  
BRANCH  32  33
HETATM   33  C   UNL     1     -10.373   9.334  70.001  1.00  0.00    -0.245 C  
BRANCH  33  34
HETATM   34  C   UNL     1      -9.951   8.505  68.815  1.00  0.00    -0.197 A  
HETATM   35  C   UNL     1      -9.241   6.817  66.696  1.00  0.00    -0.184 A  
HETATM   36  C   UNL     1     -10.846   8.276  67.761  1.00  0.00    -0.061 A  
HETATM   37  C   UNL     1     -10.491   7.435  66.706  1.00  0.00    -0.316 A  
HETATM   38  C   UNL     1      -8.341   7.050  67.734  1.00  0.00    -0.117 A  
HETATM   39  C   UNL     1      -8.693   7.890  68.790  1.00  0.00    -0.128 A  
ENDBRANCH  33  34
ENDBRANCH  32  33
ENDBRANCH  31  32
ENDBRANCH  29  31
ENDBRANCH  28  29
ENDBRANCH  27  28
ENDBRANCH  14  27
ENDBRANCH  13  14
ENDBRANCH  12  13
ENDBRANCH   2  12
TORSDOF 20
ENDMDL
MODEL      353
REMARK 921   NORMALIZED FREE ENERGY PREDICTED BY IDOCK:   -2.86 KCAL/MOL
REMARK 922        TOTAL FREE ENERGY PREDICTED BY IDOCK:  -10.88 KCAL/MOL
REMARK 923 INTER-LIGAND FREE ENERGY PREDICTED BY IDOCK:   -9.31 KCAL/MOL
REMARK 924 INTRA-LIGAND FREE ENERGY PREDICTED BY IDOCK:   -1.57 KCAL/MOL
REMARK 927      BINDING AFFINITY PREDICTED BY RF-SCORE:    0.00 PKD
ROOT
HETATM    1  O   UNL     1     -10.446  10.528  68.061  1.00  0.00    -0.174 OA 
HETATM    2  C   UNL     1      -9.268  10.268  67.861  1.00  0.00    -0.138 C  
ENDROOT
BRANCH   2   3
HETATM    3  C   UNL     1      -8.211  11.301  67.552  1.00  0.00    -0.124 C  
BRANCH   3   4
HETATM    4  C   UNL     1      -8.618  12.701  68.017  1.00  0.00    -0.189 C  
BRANCH   4   5
HETATM    5  C   UNL     1      -8.672  13.704  66.860  1.00  0.00    -0.162 C  
BRANCH   5   6
HETATM    6  C   UNL     1     -10.072  13.880  66.329  1.00  0.00    -0.306 A  
HETATM    7  C   UNL     1     -11.164  13.330  67.015  1.00  0.00    -0.319 A  
HETATM    8  C   UNL     1     -12.678  14.187  65.338  1.00  0.00    -0.453 A  
HETATM    9  C   UNL     1     -12.460  13.485  66.522  1.00  0.00    -0.309 A  
HETATM   10  C   UNL     1     -10.302  14.580  65.137  1.00  0.00    -0.438 A  
HETATM   11  C   UNL     1     -11.598  14.734  64.646  1.00  0.00    -0.401 A  
ENDBRANCH   5   6
ENDBRANCH   4   5
ENDBRANCH   3   4
ENDBRANCH   2   3
BRANCH   2  12
HETATM   12  O   UNL     1      -8.723   9.020  67.880  1.00  0.00    -0.128 OA 
BRANCH  12  13
HETATM   13  C   UNL     1      -9.635   7.922  68.071  1.00  0.00    -0.151 C  
BRANCH  13  14
HETATM   14  C   UNL     1      -9.289   7.175  69.362  1.00  0.00    -0.147 C  
BRANCH  14  15
HETATM   15  O   UNL     1      -8.868   5.836  69.030  1.00  0.00    -0.111 OA 
BRANCH  15  16
HETATM   16  C   UNL     1      -8.874   4.936  70.050  1.00  0.00    -0.094 C  
HETATM   17  O   UNL     1      -9.840   4.287  70.422  1.00  0.00    -0.202 OA 
BRANCH  16  18
HETATM   18  C   UNL     1      -7.509   4.873  70.687  1.00  0.00    -0.065 C  
BRANCH  18  19
HETATM   19  C   UNL     1      -6.434   5.466  69.783  1.00  0.00    -0.035 C  
BRANCH  19  20
HETATM   20  C   UNL     1      -5.659   6.612  70.444  1.00  0.00    -0.023 C  
BRANCH  20  21
HETATM   21  C   UNL     1      -6.207   6.865  71.826  1.00  0.00    -0.038 A  
HETATM   22  C   UNL     1      -7.027   7.458  74.436  1.00  0.00    -0.109 A  
HETATM   23  C   UNL     1      -5.905   5.992  72.879  1.00  0.00    -0.037 A  
HETATM   24  C   UNL     1      -6.943   8.027  72.091  1.00  0.00    -0.081 A  
HETATM   25  C   UNL     1      -6.316   6.289  74.179  1.00  0.00    -0.070 A  
HETATM   26  C   UNL     1      -7.350   8.323  73.391  1.00  0.00    -0.160 A  
ENDBRANCH  20  21
ENDBRANCH  19  20
ENDBRANCH  18  19
ENDBRANCH  16  18
ENDBRANCH  15  16
ENDBRANCH  14  15
BRANCH  14  27
HETATM   27  C   UNL     1     -10.512   7.064  70.281  1.00  0.00    -0.208 C  
BRANCH  27  28
HETATM   28  O   UNL     1     -11.136   8.340  70.480  1.00  0.00    -0.250 OA 
BRANCH  28  29
HETATM   29  C   UNL     1     -11.910   8.428  71.598  1.00  0.00    -0.304 C  
HETATM   30  O   UNL     1     -11.522   8.208  72.736  1.00  0.00    -0.408 OA 
BRANCH  29  31
HETATM   31  C   UNL     1     -13.312   8.844  71.228  1.00  0.00    -0.227 C  
BRANCH  31  32
HETATM   32  C   UNL     1     -13.390  10.328  70.886  1.00  0.00    -0.242 C  
BRANCH  32  33
HETATM   33  C   UNL     1     -12.963  11.232  72.050  1.00  0.00    -0.379 C  
BRANCH  33  34
HETATM   34  C   UNL     1     -13.091  12.681  71.658  1.00  0.00    -0.421 A  
HETATM   35  C   UNL     1     -13.463  15.326  70.812  1.00  0.00    -0.359 A  
HETATM   36  C   UNL     1     -14.029  13.504  72.296  1.00  0.00    -0.638 A  
HETATM   37  C   UNL     1     -14.213  14.821  71.875  1.00  0.00    -0.632 A  
HETATM   38  C   UNL     1     -12.520  14.517  70.180  1.00  0.00    -0.375 A  
HETATM   39  C   UNL     1     -12.333  13.201  70.601  1.00  0.00    -0.405 A  
ENDBRANCH  33  34
ENDBRANCH  32  33
ENDBRANCH  31  32
ENDBRANCH  29  31
ENDBRANCH  28  29
ENDBRANCH  27  28
ENDBRANCH  14  27
ENDBRANCH  13  14
ENDBRANCH  12  13
ENDBRANCH   2  12
TORSDOF 20
ENDMDL
MODEL      354
REMARK 921   NORMALIZED FREE ENERGY PREDICTED BY IDOCK:   -2.80 KCAL/MOL
REMARK 922        TOTAL FREE ENERGY PREDICTED BY IDOCK:  -10.76 KCAL/MOL
REMARK 923 INTER-LIGAND FREE ENERGY PREDICTED BY IDOCK:   -7.98 KCAL/MOL
REMARK 924 INTRA-LIGAND FREE ENERGY PREDICTED BY IDOCK:   -2.78 KCAL/MOL
REMARK 927      BINDING AFFINITY PREDICTED BY RF-SCORE:    0.00 PKD
ROOT
HETATM    1  O   UNL     1      -9.022   9.238  66.027  1.00  0.00    -0.154 OA 
HETATM    2  C   UNL     1      -8.259   9.907  65.343  1.00  0.00    -0.139 C  
ENDROOT
BRANCH   2   3
HETATM    3  C   UNL     1      -8.067   9.721  63.857  1.00  0.00    -0.150 C  
BRANCH   3   4
HETATM    4  C   UNL     1      -8.926  10.685  63.037  1.00  0.00    -0.254 C  
BRANCH   4   5
HETATM    5  C   UNL     1      -9.174  12.008  63.769  1.00  0.00     0.333 C  
BRANCH   5   6
HETATM    6  C   UNL     1     -10.637  12.229  64.059  1.00  0.00    -0.434 A  
HETATM    7  C   UNL     1     -11.605  11.387  63.494  1.00  0.00    -0.127 A  
HETATM    8  C   UNL     1     -13.361  12.643  64.579  1.00  0.00     0.477 A  
HETATM    9  C   UNL     1     -12.960  11.593  63.756  1.00  0.00    -0.031 A  
HETATM   10  C   UNL     1     -11.051  13.285  64.882  1.00  0.00    -0.345 A  
HETATM   11  C   UNL     1     -12.406  13.489  65.142  1.00  0.00    -0.488 A  
ENDBRANCH   5   6
ENDBRANCH   4   5
ENDBRANCH   3   4
ENDBRANCH   2   3
BRANCH   2  12
HETATM   12  O   UNL     1      -7.468  10.915  65.803  1.00  0.00    -0.111 OA 
BRANCH  12  13
HETATM   13  C   UNL     1      -6.590  10.594  66.900  1.00  0.00    -0.086 C  
BRANCH  13  14
HETATM   14  C   UNL     1      -7.358  10.673  68.223  1.00  0.00    -0.089 C  
BRANCH  14  15
HETATM   15  O   UNL     1      -7.327  12.034  68.702  1.00  0.00    -0.103 OA 
BRANCH  15  16
HETATM   16  C   UNL     1      -8.110  12.921  68.032  1.00  0.00    -0.159 C  
HETATM   17  O   UNL     1      -7.711  13.885  67.397  1.00  0.00    -0.171 OA 
BRANCH  16  18
HETATM   18  C   UNL     1      -9.563  12.559  68.210  1.00  0.00    -0.209 C  
BRANCH  18  19
HETATM   19  C   UNL     1     -10.441  13.797  68.359  1.00  0.00    -0.256 C  
BRANCH  19  20
HETATM   20  C   UNL     1     -10.045  14.672  69.555  1.00  0.00     0.004 C  
BRANCH  20  21
HETATM   21  C   UNL     1     -11.250  14.915  70.427  1.00  0.00    -0.252 A  
HETATM   22  C   UNL     1     -13.469  15.596  71.992  1.00  0.00    -0.538 A  
HETATM   23  C   UNL     1     -11.091  15.228  71.783  1.00  0.00    -0.235 A  
HETATM   24  C   UNL     1     -12.535  14.925  69.869  1.00  0.00    -0.273 A  
HETATM   25  C   UNL     1     -12.199  15.567  72.561  1.00  0.00    -0.512 A  
HETATM   26  C   UNL     1     -13.640  15.266  70.648  1.00  0.00    -0.187 A  
ENDBRANCH  20  21
ENDBRANCH  19  20
ENDBRANCH  18  19
ENDBRANCH  16  18
ENDBRANCH  15  16
ENDBRANCH  14  15
BRANCH  14  27
HETATM   27  C   UNL     1      -6.708   9.787  69.292  1.00  0.00    -0.053 C  
BRANCH  27  28
HETATM   28  O   UNL     1      -7.069  10.211  70.615  1.00  0.00    -0.312 OA 
BRANCH  28  29
HETATM   29  C   UNL     1      -6.897   9.267  71.583  1.00  0.00     0.132 C  
HETATM   30  O   UNL     1      -6.026   9.296  72.440  1.00  0.00    -0.232 OA 
BRANCH  29  31
HETATM   31  C   UNL     1      -7.941   8.187  71.447  1.00  0.00    -0.119 C  
BRANCH  31  32
HETATM   32  C   UNL     1      -9.044   8.331  72.490  1.00  0.00    -0.323 C  
BRANCH  32  33
HETATM   33  C   UNL     1     -10.399   7.803  72.002  1.00  0.00    -0.267 C  
BRANCH  33  34
HETATM   34  C   UNL     1     -11.309   8.951  71.649  1.00  0.00    -0.407 A  
HETATM   35  C   UNL     1     -13.061  10.986  70.850  1.00  0.00    -0.199 A  
HETATM   36  C   UNL     1     -12.631   8.973  72.115  1.00  0.00    -0.461 A  
HETATM   37  C   UNL     1     -13.502   9.986  71.717  1.00  0.00    -0.422 A  
HETATM   38  C   UNL     1     -11.745  10.978  70.391  1.00  0.00    -0.437 A  
HETATM   39  C   UNL     1     -10.872   9.967  70.789  1.00  0.00    -0.387 A  
ENDBRANCH  33  34
ENDBRANCH  32  33
ENDBRANCH  31  32
ENDBRANCH  29  31
ENDBRANCH  28  29
ENDBRANCH  27  28
ENDBRANCH  14  27
ENDBRANCH  13  14
ENDBRANCH  12  13
ENDBRANCH   2  12
TORSDOF 20
ENDMDL
MODEL      355
REMARK 921   NORMALIZED FREE ENERGY PREDICTED BY IDOCK:   -2.77 KCAL/MOL
REMARK 922        TOTAL FREE ENERGY PREDICTED BY IDOCK:  -10.69 KCAL/MOL
REMARK 923 INTER-LIGAND FREE ENERGY PREDICTED BY IDOCK:   -7.77 KCAL/MOL
REMARK 924 INTRA-LIGAND FREE ENERGY PREDICTED BY IDOCK:   -2.92 KCAL/MOL
REMARK 927      BINDING AFFINITY PREDICTED BY RF-SCORE:    0.00 PKD
ROOT
HETATM    1  O   UNL     1     -11.499  11.154  70.182  1.00  0.00    -0.296 OA 
HETATM    2  C   UNL     1     -10.569  10.612  69.602  1.00  0.00    -0.217 C  
ENDROOT
BRANCH   2   3
HETATM    3  C   UNL     1     -10.307  10.733  68.120  1.00  0.00    -0.197 C  
BRANCH   3   4
HETATM    4  C   UNL     1     -11.296  11.676  67.432  1.00  0.00    -0.367 C  
BRANCH   4   5
HETATM    5  C   UNL     1     -11.000  11.839  65.937  1.00  0.00    -0.354 C  
BRANCH   5   6
HETATM    6  C   UNL     1     -11.078  13.279  65.499  1.00  0.00    -0.299 A  
HETATM    7  C   UNL     1     -10.070  14.185  65.861  1.00  0.00    -0.337 A  
HETATM    8  C   UNL     1     -11.224  15.964  64.703  1.00  0.00    -0.361 A  
HETATM    9  C   UNL     1     -10.143  15.520  65.462  1.00  0.00    -0.406 A  
HETATM   10  C   UNL     1     -12.161  13.737  64.739  1.00  0.00    -0.438 A  
HETATM   11  C   UNL     1     -12.232  15.073  64.341  1.00  0.00    -0.353 A  
ENDBRANCH   5   6
ENDBRANCH   4   5
ENDBRANCH   3   4
ENDBRANCH   2   3
BRANCH   2  12
HETATM   12  O   UNL     1      -9.630   9.820  70.189  1.00  0.00    -0.240 OA 
BRANCH  12  13
HETATM   13  C   UNL     1      -9.547   8.462  69.715  1.00  0.00    -0.170 C  
BRANCH  13  14
HETATM   14  C   UNL     1      -9.603   7.492  70.900  1.00  0.00    -0.165 C  
BRANCH  14  15
HETATM   15  O   UNL     1      -9.909   8.235  72.098  1.00  0.00    -0.217 OA 
BRANCH  15  16
HETATM   16  C   UNL     1     -11.030   7.854  72.767  1.00  0.00    -0.393 C  
HETATM   17  O   UNL     1     -12.125   8.390  72.684  1.00  0.00    -0.390 OA 
BRANCH  16  18
HETATM   18  C   UNL     1     -10.722   6.680  73.660  1.00  0.00    -0.262 C  
BRANCH  18  19
HETATM   19  C   UNL     1     -11.332   5.388  73.128  1.00  0.00    -0.325 C  
BRANCH  19  20
HETATM   20  C   UNL     1     -10.842   4.141  73.874  1.00  0.00    -0.321 C  
BRANCH  20  21
HETATM   21  C   UNL     1      -9.835   3.406  73.027  1.00  0.00    -0.195 A  
HETATM   22  C   UNL     1      -7.989   2.213  71.294  1.00  0.00    -0.045 A  
HETATM   23  C   UNL     1     -10.257   2.459  72.085  1.00  0.00    -0.179 A  
HETATM   24  C   UNL     1      -8.474   3.732  73.106  1.00  0.00    -0.091 A  
HETATM   25  C   UNL     1      -9.335   1.865  71.223  1.00  0.00    -0.186 A  
HETATM   26  C   UNL     1      -7.555   3.138  72.242  1.00  0.00    -0.054 A  
ENDBRANCH  20  21
ENDBRANCH  19  20
ENDBRANCH  18  19
ENDBRANCH  16  18
ENDBRANCH  15  16
ENDBRANCH  14  15
BRANCH  14  27
HETATM   27  C   UNL     1      -8.251   6.800  71.112  1.00  0.00    -0.119 C  
BRANCH  27  28
HETATM   28  O   UNL     1      -7.158   7.696  70.863  1.00  0.00    -0.053 OA 
BRANCH  28  29
HETATM   29  C   UNL     1      -6.135   7.160  70.139  1.00  0.00    -0.024 C  
HETATM   30  O   UNL     1      -5.382   7.796  69.417  1.00  0.00    -0.022 OA 
BRANCH  29  31
HETATM   31  C   UNL     1      -6.063   5.671  70.366  1.00  0.00    -0.026 C  
BRANCH  31  32
HETATM   32  C   UNL     1      -5.874   4.908  69.060  1.00  0.00    -0.020 C  
BRANCH  32  33
HETATM   33  C   UNL     1      -7.181   4.307  68.525  1.00  0.00    -0.056 C  
BRANCH  33  34
HETATM   34  C   UNL     1      -7.576   4.984  67.238  1.00  0.00    -0.091 A  
HETATM   35  C   UNL     1      -8.165   6.353  64.867  1.00  0.00    -0.110 A  
HETATM   36  C   UNL     1      -7.012   4.572  66.023  1.00  0.00    -0.066 A  
HETATM   37  C   UNL     1      -7.306   5.254  64.843  1.00  0.00    -0.067 A  
HETATM   38  C   UNL     1      -8.740   6.761  66.069  1.00  0.00    -0.155 A  
HETATM   39  C   UNL     1      -8.448   6.080  67.250  1.00  0.00    -0.104 A  
ENDBRANCH  33  34
ENDBRANCH  32  33
ENDBRANCH  31  32
ENDBRANCH  29  31
ENDBRANCH  28  29
ENDBRANCH  27  28
ENDBRANCH  14  27
ENDBRANCH  13  14
ENDBRANCH  12  13
ENDBRANCH   2  12
TORSDOF 20
ENDMDL
MODEL      356
REMARK 921   NORMALIZED FREE ENERGY PREDICTED BY IDOCK:   -2.74 KCAL/MOL
REMARK 922        TOTAL FREE ENERGY PREDICTED BY IDOCK:  -10.62 KCAL/MOL
REMARK 923 INTER-LIGAND FREE ENERGY PREDICTED BY IDOCK:   -7.70 KCAL/MOL
REMARK 924 INTRA-LIGAND FREE ENERGY PREDICTED BY IDOCK:   -2.92 KCAL/MOL
REMARK 927      BINDING AFFINITY PREDICTED BY RF-SCORE:    0.00 PKD
ROOT
HETATM    1  O   UNL     1     -11.351  11.155  69.782  1.00  0.00    -0.257 OA 
HETATM    2  C   UNL     1     -10.654  10.403  69.115  1.00  0.00    -0.228 C  
ENDROOT
BRANCH   2   3
HETATM    3  C   UNL     1     -10.517  10.482  67.613  1.00  0.00    -0.276 C  
BRANCH   3   4
HETATM    4  C   UNL     1     -11.358  11.610  67.013  1.00  0.00    -0.373 C  
BRANCH   4   5
HETATM    5  C   UNL     1     -11.038  11.849  65.534  1.00  0.00    -0.356 C  
BRANCH   5   6
HETATM    6  C   UNL     1     -11.193  13.298  65.148  1.00  0.00    -0.322 A  
HETATM    7  C   UNL     1     -10.290  14.258  65.629  1.00  0.00    -0.352 A  
HETATM    8  C   UNL     1     -11.482  15.999  64.451  1.00  0.00    -0.246 A  
HETATM    9  C   UNL     1     -10.434  15.601  65.279  1.00  0.00    -0.439 A  
HETATM   10  C   UNL     1     -12.245  13.710  64.320  1.00  0.00    -0.445 A  
HETATM   11  C   UNL     1     -12.387  15.053  63.972  1.00  0.00    -0.051 A  
ENDBRANCH   5   6
ENDBRANCH   4   5
ENDBRANCH   3   4
ENDBRANCH   2   3
BRANCH   2  12
HETATM   12  O   UNL     1      -9.899   9.383  69.609  1.00  0.00    -0.174 OA 
BRANCH  12  13
HETATM   13  C   UNL     1     -10.500   8.074  69.601  1.00  0.00    -0.224 C  
BRANCH  13  14
HETATM   14  C   UNL     1      -9.896   7.215  70.716  1.00  0.00    -0.178 C  
BRANCH  14  15
HETATM   15  O   UNL     1      -9.968   7.944  71.959  1.00  0.00    -0.174 OA 
BRANCH  15  16
HETATM   16  C   UNL     1     -10.950   7.562  72.819  1.00  0.00    -0.359 C  
HETATM   17  O   UNL     1     -11.986   8.174  73.035  1.00  0.00    -0.269 OA 
BRANCH  16  18
HETATM   18  C   UNL     1     -10.562   6.275  73.501  1.00  0.00    -0.288 C  
BRANCH  18  19
HETATM   19  C   UNL     1     -11.485   5.126  73.109  1.00  0.00    -0.348 C  
BRANCH  19  20
HETATM   20  C   UNL     1     -10.953   3.755  73.542  1.00  0.00    -0.339 C  
BRANCH  20  21
HETATM   21  C   UNL     1      -9.628   3.490  72.873  1.00  0.00    -0.169 A  
HETATM   22  C   UNL     1      -7.146   3.234  71.605  1.00  0.00    -0.032 A  
HETATM   23  C   UNL     1      -9.556   3.326  71.484  1.00  0.00    -0.234 A  
HETATM   24  C   UNL     1      -8.444   3.503  73.623  1.00  0.00    -0.082 A  
HETATM   25  C   UNL     1      -8.317   3.197  70.854  1.00  0.00    -0.091 A  
HETATM   26  C   UNL     1      -7.208   3.376  72.990  1.00  0.00    -0.046 A  
ENDBRANCH  20  21
ENDBRANCH  19  20
ENDBRANCH  18  19
ENDBRANCH  16  18
ENDBRANCH  15  16
ENDBRANCH  14  15
BRANCH  14  27
HETATM   27  C   UNL     1      -8.420   6.909  70.439  1.00  0.00    -0.134 C  
BRANCH  27  28
HETATM   28  O   UNL     1      -7.565   7.528  71.411  1.00  0.00    -0.078 OA 
BRANCH  28  29
HETATM   29  C   UNL     1      -6.962   8.676  70.992  1.00  0.00    -0.069 C  
HETATM   30  O   UNL     1      -6.894   9.709  71.643  1.00  0.00    -0.309 OA 
BRANCH  29  31
HETATM   31  C   UNL     1      -6.384   8.485  69.613  1.00  0.00    -0.039 C  
BRANCH  31  32
HETATM   32  C   UNL     1      -6.416   9.775  68.801  1.00  0.00    -0.046 C  
BRANCH  32  33
HETATM   33  C   UNL     1      -5.602   9.684  67.503  1.00  0.00    -0.036 C  
BRANCH  33  34
HETATM   34  C   UNL     1      -6.502   9.335  66.347  1.00  0.00    -0.066 A  
HETATM   35  C   UNL     1      -8.311   8.652  64.320  1.00  0.00    -0.138 A  
HETATM   36  C   UNL     1      -7.343  10.308  65.790  1.00  0.00    -0.140 A  
HETATM   37  C   UNL     1      -8.243   9.967  64.780  1.00  0.00    -0.151 A  
HETATM   38  C   UNL     1      -7.469   7.681  64.860  1.00  0.00    -0.092 A  
HETATM   39  C   UNL     1      -6.568   8.020  65.868  1.00  0.00    -0.046 A  
ENDBRANCH  33  34
ENDBRANCH  32  33
ENDBRANCH  31  32
ENDBRANCH  29  31
ENDBRANCH  28  29
ENDBRANCH  27  28
ENDBRANCH  14  27
ENDBRANCH  13  14
ENDBRANCH  12  13
ENDBRANCH   2  12
TORSDOF 20
ENDMDL
MODEL      357
REMARK 921   NORMALIZED FREE ENERGY PREDICTED BY IDOCK:   -2.68 KCAL/MOL
REMARK 922        TOTAL FREE ENERGY PREDICTED BY IDOCK:  -10.50 KCAL/MOL
REMARK 923 INTER-LIGAND FREE ENERGY PREDICTED BY IDOCK:   -6.93 KCAL/MOL
REMARK 924 INTRA-LIGAND FREE ENERGY PREDICTED BY IDOCK:   -3.58 KCAL/MOL
REMARK 927      BINDING AFFINITY PREDICTED BY RF-SCORE:    0.00 PKD
ROOT
HETATM    1  O   UNL     1      -8.014  12.916  67.035  1.00  0.00    -0.131 OA 
HETATM    2  C   UNL     1      -8.439  11.789  66.824  1.00  0.00    -0.177 C  
ENDROOT
BRANCH   2   3
HETATM    3  C   UNL     1      -8.061  10.949  65.627  1.00  0.00    -0.060 C  
BRANCH   3   4
HETATM    4  C   UNL     1      -6.561  10.654  65.578  1.00  0.00    -0.052 C  
BRANCH   4   5
HETATM    5  C   UNL     1      -6.195   9.694  64.440  1.00  0.00    -0.098 C  
BRANCH   5   6
HETATM    6  C   UNL     1      -6.741   8.308  64.671  1.00  0.00    -0.068 A  
HETATM    7  C   UNL     1      -6.569   7.677  65.911  1.00  0.00    -0.046 A  
HETATM    8  C   UNL     1      -7.737   5.723  65.103  1.00  0.00    -0.095 A  
HETATM    9  C   UNL     1      -7.067   6.392  66.126  1.00  0.00    -0.067 A  
HETATM   10  C   UNL     1      -7.413   7.625  63.649  1.00  0.00    -0.101 A  
HETATM   11  C   UNL     1      -7.910   6.340  63.865  1.00  0.00    -0.112 A  
ENDBRANCH   5   6
ENDBRANCH   4   5
ENDBRANCH   3   4
ENDBRANCH   2   3
BRANCH   2  12
HETATM   12  O   UNL     1      -9.313  11.116  67.621  1.00  0.00    -0.162 OA 
BRANCH  12  13
HETATM   13  C   UNL     1      -9.444   9.701  67.382  1.00  0.00    -0.142 C  
BRANCH  13  14
HETATM   14  C   UNL     1     -10.186   9.041  68.548  1.00  0.00    -0.200 C  
BRANCH  14  15
HETATM   15  O   UNL     1     -10.359  10.011  69.602  1.00  0.00    -0.215 OA 
BRANCH  15  16
HETATM   16  C   UNL     1     -11.642  10.351  69.897  1.00  0.00    -0.284 C  
HETATM   17  O   UNL     1     -12.409  10.949  69.158  1.00  0.00    -0.435 OA 
BRANCH  16  18
HETATM   18  C   UNL     1     -11.982   9.905  71.297  1.00  0.00    -0.489 C  
BRANCH  18  19
HETATM   19  C   UNL     1     -10.992   8.868  71.817  1.00  0.00    -0.431 C  
BRANCH  19  20
HETATM   20  C   UNL     1     -11.637   7.839  72.752  1.00  0.00    -0.368 C  
BRANCH  20  21
HETATM   21  C   UNL     1     -10.745   6.629  72.869  1.00  0.00    -0.285 A  
HETATM   22  C   UNL     1      -9.119   4.351  72.853  1.00  0.00    -0.132 A  
HETATM   23  C   UNL     1     -11.294   5.366  73.121  1.00  0.00    -0.325 A  
HETATM   24  C   UNL     1      -9.369   6.742  72.630  1.00  0.00    -0.152 A  
HETATM   25  C   UNL     1     -10.481   4.231  73.114  1.00  0.00    -0.251 A  
HETATM   26  C   UNL     1      -8.560   5.606  72.621  1.00  0.00    -0.120 A  
ENDBRANCH  20  21
ENDBRANCH  19  20
ENDBRANCH  18  19
ENDBRANCH  16  18
ENDBRANCH  15  16
ENDBRANCH  14  15
BRANCH  14  27
HETATM   27  C   UNL     1      -9.383   7.868  69.122  1.00  0.00    -0.154 C  
BRANCH  27  28
HETATM   28  O   UNL     1      -9.688   6.641  68.442  1.00  0.00    -0.126 OA 
BRANCH  28  29
HETATM   29  C   UNL     1     -10.451   5.767  69.158  1.00  0.00    -0.276 C  
HETATM   30  O   UNL     1     -11.483   6.059  69.745  1.00  0.00    -0.395 OA 
BRANCH  29  31
HETATM   31  C   UNL     1      -9.841   4.389  69.114  1.00  0.00    -0.198 C  
BRANCH  31  32
HETATM   32  C   UNL     1      -9.676   3.889  67.683  1.00  0.00    -0.156 C  
BRANCH  32  33
HETATM   33  C   UNL     1      -9.046   2.492  67.608  1.00  0.00    -0.222 C  
BRANCH  33  34
HETATM   34  C   UNL     1      -8.390   2.287  66.267  1.00  0.00    -0.095 A  
HETATM   35  C   UNL     1      -7.144   2.089  63.766  1.00  0.00    -0.037 A  
HETATM   36  C   UNL     1      -7.001   2.126  66.178  1.00  0.00    -0.044 A  
HETATM   37  C   UNL     1      -6.381   2.027  64.932  1.00  0.00    -0.019 A  
HETATM   38  C   UNL     1      -8.527   2.237  63.846  1.00  0.00    -0.082 A  
HETATM   39  C   UNL     1      -9.149   2.335  65.091  1.00  0.00    -0.127 A  
ENDBRANCH  33  34
ENDBRANCH  32  33
ENDBRANCH  31  32
ENDBRANCH  29  31
ENDBRANCH  28  29
ENDBRANCH  27  28
ENDBRANCH  14  27
ENDBRANCH  13  14
ENDBRANCH  12  13
ENDBRANCH   2  12
TORSDOF 20
ENDMDL
MODEL      358
REMARK 921   NORMALIZED FREE ENERGY PREDICTED BY IDOCK:   -2.64 KCAL/MOL
REMARK 922        TOTAL FREE ENERGY PREDICTED BY IDOCK:  -10.41 KCAL/MOL
REMARK 923 INTER-LIGAND FREE ENERGY PREDICTED BY IDOCK:   -7.50 KCAL/MOL
REMARK 924 INTRA-LIGAND FREE ENERGY PREDICTED BY IDOCK:   -2.90 KCAL/MOL
REMARK 927      BINDING AFFINITY PREDICTED BY RF-SCORE:    0.00 PKD
ROOT
HETATM    1  O   UNL     1      -7.015   9.447  66.752  1.00  0.00    -0.080 OA 
HETATM    2  C   UNL     1      -7.217   9.934  67.855  1.00  0.00    -0.087 C  
ENDROOT
BRANCH   2   3
HETATM    3  C   UNL     1      -8.241  11.007  68.135  1.00  0.00    -0.124 C  
BRANCH   3   4
HETATM    4  C   UNL     1      -8.801  11.621  66.850  1.00  0.00    -0.190 C  
BRANCH   4   5
HETATM    5  C   UNL     1     -10.151  12.312  67.077  1.00  0.00    -0.225 C  
BRANCH   5   6
HETATM    6  C   UNL     1     -10.875  12.579  65.782  1.00  0.00    -0.310 A  
HETATM    7  C   UNL     1     -11.592  13.771  65.605  1.00  0.00    -0.339 A  
HETATM    8  C   UNL     1     -12.240  13.076  63.383  1.00  0.00    -0.552 A  
HETATM    9  C   UNL     1     -12.268  14.018  64.410  1.00  0.00    -0.457 A  
HETATM   10  C   UNL     1     -10.856  11.637  64.745  1.00  0.00    -0.367 A  
HETATM   11  C   UNL     1     -11.534  11.886  63.551  1.00  0.00    -0.523 A  
ENDBRANCH   5   6
ENDBRANCH   4   5
ENDBRANCH   3   4
ENDBRANCH   2   3
BRANCH   2  12
HETATM   12  O   UNL     1      -6.559   9.594  68.998  1.00  0.00    -0.048 OA 
BRANCH  12  13
HETATM   13  C   UNL     1      -5.898   8.314  69.004  1.00  0.00    -0.039 C  
BRANCH  13  14
HETATM   14  C   UNL     1      -6.400   7.474  70.182  1.00  0.00    -0.034 C  
BRANCH  14  15
HETATM   15  O   UNL     1      -7.839   7.385  70.114  1.00  0.00    -0.096 OA 
BRANCH  15  16
HETATM   16  C   UNL     1      -8.340   6.439  69.275  1.00  0.00    -0.122 C  
HETATM   17  O   UNL     1      -8.921   6.656  68.222  1.00  0.00    -0.124 OA 
BRANCH  16  18
HETATM   18  C   UNL     1      -8.102   5.066  69.850  1.00  0.00    -0.074 C  
BRANCH  18  19
HETATM   19  C   UNL     1      -9.389   4.250  69.918  1.00  0.00    -0.232 C  
BRANCH  19  20
HETATM   20  C   UNL     1      -9.182   2.773  69.562  1.00  0.00    -0.204 C  
BRANCH  20  21
HETATM   21  C   UNL     1      -8.545   2.664  68.200  1.00  0.00    -0.116 A  
HETATM   22  C   UNL     1      -7.369   2.226  65.697  1.00  0.00    -0.066 A  
HETATM   23  C   UNL     1      -7.151   2.611  68.072  1.00  0.00    -0.049 A  
HETATM   24  C   UNL     1      -9.342   2.518  67.057  1.00  0.00    -0.064 A  
HETATM   25  C   UNL     1      -6.567   2.393  66.823  1.00  0.00    -0.039 A  
HETATM   26  C   UNL     1      -8.756   2.298  65.811  1.00  0.00    -0.119 A  
ENDBRANCH  20  21
ENDBRANCH  19  20
ENDBRANCH  18  19
ENDBRANCH  16  18
ENDBRANCH  15  16
ENDBRANCH  14  15
BRANCH  14  27
HETATM   27  C   UNL     1      -6.036   8.125  71.521  1.00  0.00    -0.037 C  
BRANCH  27  28
HETATM   28  O   UNL     1      -7.068   7.928  72.499  1.00  0.00    -0.073 OA 
BRANCH  28  29
HETATM   29  C   UNL     1      -6.768   7.019  73.469  1.00  0.00    -0.066 C  
HETATM   30  O   UNL     1      -5.871   7.143  74.290  1.00  0.00    -0.064 OA 
BRANCH  29  31
HETATM   31  C   UNL     1      -7.708   5.843  73.387  1.00  0.00    -0.101 C  
BRANCH  31  32
HETATM   32  C   UNL     1      -8.855   5.965  74.384  1.00  0.00    -0.127 C  
BRANCH  32  33
HETATM   33  C   UNL     1     -10.208   5.550  73.791  1.00  0.00    -0.246 C  
BRANCH  33  34
HETATM   34  C   UNL     1     -10.651   6.552  72.756  1.00  0.00    -0.257 A  
HETATM   35  C   UNL     1     -11.319   8.378  70.740  1.00  0.00    -0.290 A  
HETATM   36  C   UNL     1     -11.351   6.127  71.618  1.00  0.00    -0.341 A  
HETATM   37  C   UNL     1     -11.683   7.037  70.615  1.00  0.00    -0.384 A  
HETATM   38  C   UNL     1     -10.634   8.810  71.874  1.00  0.00    -0.425 A  
HETATM   39  C   UNL     1     -10.302   7.903  72.879  1.00  0.00    -0.413 A  
ENDBRANCH  33  34
ENDBRANCH  32  33
ENDBRANCH  31  32
ENDBRANCH  29  31
ENDBRANCH  28  29
ENDBRANCH  27  28
ENDBRANCH  14  27
ENDBRANCH  13  14
ENDBRANCH  12  13
ENDBRANCH   2  12
TORSDOF 20
ENDMDL
MODEL      359
REMARK 921   NORMALIZED FREE ENERGY PREDICTED BY IDOCK:   -2.60 KCAL/MOL
REMARK 922        TOTAL FREE ENERGY PREDICTED BY IDOCK:  -10.33 KCAL/MOL
REMARK 923 INTER-LIGAND FREE ENERGY PREDICTED BY IDOCK:   -8.86 KCAL/MOL
REMARK 924 INTRA-LIGAND FREE ENERGY PREDICTED BY IDOCK:   -1.47 KCAL/MOL
REMARK 927      BINDING AFFINITY PREDICTED BY RF-SCORE:    0.00 PKD
ROOT
HETATM    1  O   UNL     1      -6.195  11.674  67.312  1.00  0.00    -0.086 OA 
HETATM    2  C   UNL     1      -6.312  12.169  68.424  1.00  0.00    -0.054 C  
ENDROOT
BRANCH   2   3
HETATM    3  C   UNL     1      -6.077  13.629  68.732  1.00  0.00    -0.086 C  
BRANCH   3   4
HETATM    4  C   UNL     1      -7.132  14.532  68.091  1.00  0.00    -0.125 C  
BRANCH   4   5
HETATM    5  C   UNL     1      -6.649  15.980  67.951  1.00  0.00    -0.161 C  
BRANCH   5   6
HETATM    6  C   UNL     1      -7.764  16.913  67.550  1.00  0.00    -0.187 A  
HETATM    7  C   UNL     1      -7.488  18.062  66.795  1.00  0.00    -0.242 A  
HETATM    8  C   UNL     1      -9.829  18.662  66.815  1.00  0.00    -0.365 A  
HETATM    9  C   UNL     1      -8.517  18.930  66.428  1.00  0.00    -0.302 A  
HETATM   10  C   UNL     1      -9.086  16.655  67.937  1.00  0.00    -0.218 A  
HETATM   11  C   UNL     1     -10.113  17.525  67.569  1.00  0.00    -0.326 A  
ENDBRANCH   5   6
ENDBRANCH   4   5
ENDBRANCH   3   4
ENDBRANCH   2   3
BRANCH   2  12
HETATM   12  O   UNL     1      -6.667  11.496  69.553  1.00  0.00    -0.117 OA 
BRANCH  12  13
HETATM   13  C   UNL     1      -7.883  10.725  69.487  1.00  0.00    -0.035 C  
BRANCH  13  14
HETATM   14  C   UNL     1      -7.646   9.446  68.678  1.00  0.00    -0.080 C  
BRANCH  14  15
HETATM   15  O   UNL     1      -8.610   9.384  67.607  1.00  0.00    -0.116 OA 
BRANCH  15  16
HETATM   16  C   UNL     1      -9.911   9.251  67.981  1.00  0.00    -0.163 C  
HETATM   17  O   UNL     1     -10.626   8.289  67.744  1.00  0.00    -0.227 OA 
BRANCH  16  18
HETATM   18  C   UNL     1     -10.363  10.488  68.715  1.00  0.00    -0.208 C  
BRANCH  18  19
HETATM   19  C   UNL     1     -11.761  10.922  68.286  1.00  0.00    -0.259 C  
BRANCH  19  20
HETATM   20  C   UNL     1     -11.940  12.444  68.279  1.00  0.00    -0.270 C  
BRANCH  20  21
HETATM   21  C   UNL     1     -11.785  12.968  66.874  1.00  0.00    -0.441 A  
HETATM   22  C   UNL     1     -11.732  13.969  64.260  1.00  0.00    -0.388 A  
HETATM   23  C   UNL     1     -11.870  12.097  65.781  1.00  0.00    -0.342 A  
HETATM   24  C   UNL     1     -11.650  14.343  66.644  1.00  0.00    -0.396 A  
HETATM   25  C   UNL     1     -11.843  12.598  64.478  1.00  0.00    -0.441 A  
HETATM   26  C   UNL     1     -11.625  14.841  65.342  1.00  0.00    -0.316 A  
ENDBRANCH  20  21
ENDBRANCH  19  20
ENDBRANCH  18  19
ENDBRANCH  16  18
ENDBRANCH  15  16
ENDBRANCH  14  15
BRANCH  14  27
HETATM   27  C   UNL     1      -7.835   8.198  69.549  1.00  0.00    -0.104 C  
BRANCH  27  28
HETATM   28  O   UNL     1      -6.757   8.041  70.483  1.00  0.00    -0.037 OA 
BRANCH  28  29
HETATM   29  C   UNL     1      -7.145   7.878  71.780  1.00  0.00    -0.070 C  
HETATM   30  O   UNL     1      -7.557   8.773  72.503  1.00  0.00    -0.347 OA 
BRANCH  29  31
HETATM   31  C   UNL     1      -7.000   6.434  72.187  1.00  0.00    -0.073 C  
BRANCH  31  32
HETATM   32  C   UNL     1      -8.287   5.649  71.960  1.00  0.00    -0.122 C  
BRANCH  32  33
HETATM   33  C   UNL     1      -9.370   5.964  73.000  1.00  0.00    -0.140 C  
BRANCH  33  34
HETATM   34  C   UNL     1     -10.509   6.712  72.356  1.00  0.00    -0.232 A  
HETATM   35  C   UNL     1     -12.742   8.008  71.271  1.00  0.00    -0.234 A  
HETATM   36  C   UNL     1     -10.993   7.893  72.934  1.00  0.00    -0.452 A  
HETATM   37  C   UNL     1     -12.105   8.538  72.392  1.00  0.00    -0.436 A  
HETATM   38  C   UNL     1     -12.259   6.840  70.683  1.00  0.00    -0.312 A  
HETATM   39  C   UNL     1     -11.148   6.194  71.222  1.00  0.00    -0.351 A  
ENDBRANCH  33  34
ENDBRANCH  32  33
ENDBRANCH  31  32
ENDBRANCH  29  31
ENDBRANCH  28  29
ENDBRANCH  27  28
ENDBRANCH  14  27
ENDBRANCH  13  14
ENDBRANCH  12  13
ENDBRANCH   2  12
TORSDOF 20
ENDMDL
MODEL      360
REMARK 921   NORMALIZED FREE ENERGY PREDICTED BY IDOCK:   -2.59 KCAL/MOL
REMARK 922        TOTAL FREE ENERGY PREDICTED BY IDOCK:  -10.30 KCAL/MOL
REMARK 923 INTER-LIGAND FREE ENERGY PREDICTED BY IDOCK:   -8.03 KCAL/MOL
REMARK 924 INTRA-LIGAND FREE ENERGY PREDICTED BY IDOCK:   -2.27 KCAL/MOL
REMARK 927      BINDING AFFINITY PREDICTED BY RF-SCORE:    0.00 PKD
ROOT
HETATM    1  O   UNL     1      -8.200   7.195  73.802  1.00  0.00    -0.120 OA 
HETATM    2  C   UNL     1      -8.058   7.952  72.852  1.00  0.00    -0.140 C  
ENDROOT
BRANCH   2   3
HETATM    3  C   UNL     1      -6.899   7.896  71.886  1.00  0.00    -0.064 C  
BRANCH   3   4
HETATM    4  C   UNL     1      -5.982   6.701  72.153  1.00  0.00    -0.038 C  
BRANCH   4   5
HETATM    5  C   UNL     1      -6.057   5.650  71.039  1.00  0.00    -0.033 C  
BRANCH   5   6
HETATM    6  C   UNL     1      -6.033   6.276  69.668  1.00  0.00    -0.018 A  
HETATM    7  C   UNL     1      -5.263   7.423  69.427  1.00  0.00    -0.015 A  
HETATM    8  C   UNL     1      -5.997   7.458  67.125  1.00  0.00    -0.042 A  
HETATM    9  C   UNL     1      -5.244   8.008  68.160  1.00  0.00    -0.032 A  
HETATM   10  C   UNL     1      -6.789   5.733  68.621  1.00  0.00    -0.062 A  
HETATM   11  C   UNL     1      -6.769   6.320  67.356  1.00  0.00    -0.061 A  
ENDBRANCH   5   6
ENDBRANCH   4   5
ENDBRANCH   3   4
ENDBRANCH   2   3
BRANCH   2  12
HETATM   12  O   UNL     1      -8.910   8.959  72.515  1.00  0.00    -0.381 OA 
BRANCH  12  13
HETATM   13  C   UNL     1      -9.848   8.682  71.456  1.00  0.00    -0.272 C  
BRANCH  13  14
HETATM   14  C   UNL     1     -11.235   8.413  72.046  1.00  0.00    -0.334 C  
BRANCH  14  15
HETATM   15  O   UNL     1     -11.810   7.267  71.383  1.00  0.00    -0.277 OA 
BRANCH  15  16
HETATM   16  C   UNL     1     -10.929   6.401  70.815  1.00  0.00    -0.290 C  
HETATM   17  O   UNL     1     -10.271   5.561  71.409  1.00  0.00    -0.199 OA 
BRANCH  16  18
HETATM   18  C   UNL     1     -10.855   6.647  69.329  1.00  0.00    -0.335 C  
BRANCH  18  19
HETATM   19  C   UNL     1     -10.189   5.487  68.596  1.00  0.00    -0.261 C  
BRANCH  19  20
HETATM   20  C   UNL     1     -10.647   5.357  67.139  1.00  0.00    -0.274 C  
BRANCH  20  21
HETATM   21  C   UNL     1      -9.915   4.217  66.476  1.00  0.00    -0.214 A  
HETATM   22  C   UNL     1      -8.358   2.233  65.263  1.00  0.00    -0.089 A  
HETATM   23  C   UNL     1      -9.776   4.180  65.083  1.00  0.00    -0.198 A  
HETATM   24  C   UNL     1      -9.284   3.237  67.253  1.00  0.00    -0.221 A  
HETATM   25  C   UNL     1      -8.999   3.189  64.480  1.00  0.00    -0.121 A  
HETATM   26  C   UNL     1      -8.507   2.250  66.648  1.00  0.00    -0.100 A  
ENDBRANCH  20  21
ENDBRANCH  19  20
ENDBRANCH  18  19
ENDBRANCH  16  18
ENDBRANCH  15  16
ENDBRANCH  14  15
BRANCH  14  27
HETATM   27  C   UNL     1     -12.174   9.603  71.817  1.00  0.00    -0.384 C  
BRANCH  27  28
HETATM   28  O   UNL     1     -12.097  10.080  70.465  1.00  0.00    -0.274 OA 
BRANCH  28  29
HETATM   29  C   UNL     1     -11.866  11.418  70.345  1.00  0.00    -0.335 C  
HETATM   30  O   UNL     1     -12.508  12.292  70.910  1.00  0.00    -0.371 OA 
BRANCH  29  31
HETATM   31  C   UNL     1     -10.699  11.662  69.423  1.00  0.00    -0.080 C  
BRANCH  31  32
HETATM   32  C   UNL     1     -11.011  11.241  67.990  1.00  0.00    -0.302 C  
BRANCH  32  33
HETATM   33  C   UNL     1     -12.011  12.177  67.299  1.00  0.00    -0.158 C  
BRANCH  33  34
HETATM   34  C   UNL     1     -11.353  13.492  66.971  1.00  0.00    -0.348 A  
HETATM   35  C   UNL     1      -9.997  15.894  66.482  1.00  0.00    -0.286 A  
HETATM   36  C   UNL     1     -10.350  13.554  65.994  1.00  0.00    -0.303 A  
HETATM   37  C   UNL     1      -9.675  14.751  65.751  1.00  0.00    -0.347 A  
HETATM   38  C   UNL     1     -11.001  15.844  67.447  1.00  0.00    -0.257 A  
HETATM   39  C   UNL     1     -11.678  14.649  67.690  1.00  0.00    -0.389 A  
ENDBRANCH  33  34
ENDBRANCH  32  33
ENDBRANCH  31  32
ENDBRANCH  29  31
ENDBRANCH  28  29
ENDBRANCH  27  28
ENDBRANCH  14  27
ENDBRANCH  13  14
ENDBRANCH  12  13
ENDBRANCH   2  12
TORSDOF 20
ENDMDL
MODEL      361
REMARK 921   NORMALIZED FREE ENERGY PREDICTED BY IDOCK:   -2.58 KCAL/MOL
REMARK 922        TOTAL FREE ENERGY PREDICTED BY IDOCK:  -10.29 KCAL/MOL
REMARK 923 INTER-LIGAND FREE ENERGY PREDICTED BY IDOCK:   -7.97 KCAL/MOL
REMARK 924 INTRA-LIGAND FREE ENERGY PREDICTED BY IDOCK:   -2.32 KCAL/MOL
REMARK 927      BINDING AFFINITY PREDICTED BY RF-SCORE:    0.00 PKD
ROOT
HETATM    1  O   UNL     1      -5.754   8.614  70.030  1.00  0.00    -0.028 OA 
HETATM    2  C   UNL     1      -6.305   9.476  69.359  1.00  0.00    -0.043 C  
ENDROOT
BRANCH   2   3
HETATM    3  C   UNL     1      -6.037   9.710  67.892  1.00  0.00    -0.052 C  
BRANCH   3   4
HETATM    4  C   UNL     1      -5.433   8.480  67.211  1.00  0.00    -0.038 C  
BRANCH   4   5
HETATM    5  C   UNL     1      -6.304   7.231  67.389  1.00  0.00    -0.054 C  
BRANCH   5   6
HETATM    6  C   UNL     1      -6.474   6.471  66.098  1.00  0.00    -0.043 A  
HETATM    7  C   UNL     1      -5.705   6.805  64.974  1.00  0.00    -0.031 A  
HETATM    8  C   UNL     1      -6.797   5.075  63.687  1.00  0.00    -0.046 A  
HETATM    9  C   UNL     1      -5.865   6.107  63.776  1.00  0.00    -0.022 A  
HETATM   10  C   UNL     1      -7.411   5.435  65.997  1.00  0.00    -0.082 A  
HETATM   11  C   UNL     1      -7.570   4.739  64.798  1.00  0.00    -0.077 A  
ENDBRANCH   5   6
ENDBRANCH   4   5
ENDBRANCH   3   4
ENDBRANCH   2   3
BRANCH   2  12
HETATM   12  O   UNL     1      -7.236  10.356  69.820  1.00  0.00    -0.128 OA 
BRANCH  12  13
HETATM   13  C   UNL     1      -8.353  10.624  68.951  1.00  0.00    -0.150 C  
BRANCH  13  14
HETATM   14  C   UNL     1      -9.520   9.696  69.299  1.00  0.00    -0.179 C  
BRANCH  14  15
HETATM   15  O   UNL     1      -9.334   9.192  70.638  1.00  0.00    -0.216 OA 
BRANCH  15  16
HETATM   16  C   UNL     1     -10.450   9.123  71.411  1.00  0.00    -0.344 C  
HETATM   17  O   UNL     1     -11.551   9.562  71.114  1.00  0.00    -0.307 OA 
BRANCH  16  18
HETATM   18  C   UNL     1     -10.129   8.444  72.718  1.00  0.00    -0.268 C  
BRANCH  18  19
HETATM   19  C   UNL     1      -9.913   6.944  72.539  1.00  0.00    -0.187 C  
BRANCH  19  20
HETATM   20  C   UNL     1     -11.038   6.268  71.747  1.00  0.00    -0.321 C  
BRANCH  20  21
HETATM   21  C   UNL     1     -10.470   5.143  70.919  1.00  0.00    -0.258 A  
HETATM   22  C   UNL     1      -9.199   3.134  69.440  1.00  0.00    -0.219 A  
HETATM   23  C   UNL     1     -10.171   5.342  69.565  1.00  0.00    -0.338 A  
HETATM   24  C   UNL     1     -10.144   3.920  71.519  1.00  0.00    -0.148 A  
HETATM   25  C   UNL     1      -9.539   4.338  68.830  1.00  0.00    -0.219 A  
HETATM   26  C   UNL     1      -9.510   2.920  70.782  1.00  0.00    -0.223 A  
ENDBRANCH  20  21
ENDBRANCH  19  20
ENDBRANCH  18  19
ENDBRANCH  16  18
ENDBRANCH  15  16
ENDBRANCH  14  15
BRANCH  14  27
HETATM   27  C   UNL     1      -9.570   8.492  68.350  1.00  0.00    -0.147 C  
BRANCH  27  28
HETATM   28  O   UNL     1     -10.460   8.728  67.249  1.00  0.00    -0.270 OA 
BRANCH  28  29
HETATM   29  C   UNL     1      -9.844   9.064  66.081  1.00  0.00    -0.278 C  
HETATM   30  O   UNL     1      -9.074   8.343  65.464  1.00  0.00    -0.152 OA 
BRANCH  29  31
HETATM   31  C   UNL     1     -10.259  10.450  65.656  1.00  0.00    -0.308 C  
BRANCH  31  32
HETATM   32  C   UNL     1      -9.738  10.796  64.265  1.00  0.00    -0.357 C  
BRANCH  32  33
HETATM   33  C   UNL     1     -10.752  11.587  63.428  1.00  0.00    -0.444 C  
BRANCH  33  34
HETATM   34  C   UNL     1     -10.943  12.965  64.006  1.00  0.00    -0.447 A  
HETATM   35  C   UNL     1     -11.221  15.596  64.927  1.00  0.00    -0.376 A  
HETATM   36  C   UNL     1     -12.085  13.711  63.686  1.00  0.00    -0.397 A  
HETATM   37  C   UNL     1     -12.223  15.021  64.145  1.00  0.00    -0.234 A  
HETATM   38  C   UNL     1     -10.087  14.856  65.259  1.00  0.00    -0.380 A  
HETATM   39  C   UNL     1      -9.948  13.546  64.802  1.00  0.00    -0.156 A  
ENDBRANCH  33  34
ENDBRANCH  32  33
ENDBRANCH  31  32
ENDBRANCH  29  31
ENDBRANCH  28  29
ENDBRANCH  27  28
ENDBRANCH  14  27
ENDBRANCH  13  14
ENDBRANCH  12  13
ENDBRANCH   2  12
TORSDOF 20
ENDMDL
MODEL      362
REMARK 921   NORMALIZED FREE ENERGY PREDICTED BY IDOCK:   -2.56 KCAL/MOL
REMARK 922        TOTAL FREE ENERGY PREDICTED BY IDOCK:  -10.24 KCAL/MOL
REMARK 923 INTER-LIGAND FREE ENERGY PREDICTED BY IDOCK:   -8.44 KCAL/MOL
REMARK 924 INTRA-LIGAND FREE ENERGY PREDICTED BY IDOCK:   -1.80 KCAL/MOL
REMARK 927      BINDING AFFINITY PREDICTED BY RF-SCORE:    0.00 PKD
ROOT
HETATM    1  O   UNL     1     -11.386   9.716  71.809  1.00  0.00    -0.347 OA 
HETATM    2  C   UNL     1     -11.616   9.140  70.755  1.00  0.00    -0.276 C  
ENDROOT
BRANCH   2   3
HETATM    3  C   UNL     1     -11.901   7.662  70.640  1.00  0.00    -0.169 C  
BRANCH   3   4
HETATM    4  C   UNL     1     -11.507   6.897  71.905  1.00  0.00    -0.308 C  
BRANCH   4   5
HETATM    5  C   UNL     1     -10.242   6.056  71.705  1.00  0.00    -0.242 C  
BRANCH   5   6
HETATM    6  C   UNL     1      -9.170   6.397  72.709  1.00  0.00    -0.139 A  
HETATM    7  C   UNL     1      -9.038   7.710  73.184  1.00  0.00    -0.254 A  
HETATM    8  C   UNL     1      -7.169   7.046  74.564  1.00  0.00    -0.109 A  
HETATM    9  C   UNL     1      -8.043   8.031  74.109  1.00  0.00    -0.309 A  
HETATM   10  C   UNL     1      -8.284   5.416  73.171  1.00  0.00    -0.115 A  
HETATM   11  C   UNL     1      -7.290   5.739  74.095  1.00  0.00    -0.088 A  
ENDBRANCH   5   6
ENDBRANCH   4   5
ENDBRANCH   3   4
ENDBRANCH   2   3
BRANCH   2  12
HETATM   12  O   UNL     1     -11.652   9.729  69.527  1.00  0.00    -0.090 OA 
BRANCH  12  13
HETATM   13  C   UNL     1     -10.489   9.554  68.696  1.00  0.00    -0.211 C  
BRANCH  13  14
HETATM   14  C   UNL     1     -10.863   9.760  67.225  1.00  0.00    -0.177 C  
BRANCH  14  15
HETATM   15  O   UNL     1     -10.226   8.736  66.433  1.00  0.00    -0.289 OA 
BRANCH  15  16
HETATM   16  C   UNL     1     -10.389   7.457  66.866  1.00  0.00    -0.296 C  
HETATM   17  O   UNL     1     -11.460   6.903  67.064  1.00  0.00    -0.154 OA 
BRANCH  16  18
HETATM   18  C   UNL     1      -9.043   6.819  67.100  1.00  0.00    -0.130 C  
BRANCH  18  19
HETATM   19  C   UNL     1      -9.134   5.297  67.119  1.00  0.00    -0.112 C  
BRANCH  19  20
HETATM   20  C   UNL     1      -8.087   4.622  66.226  1.00  0.00    -0.103 C  
BRANCH  20  21
HETATM   21  C   UNL     1      -8.776   3.806  65.162  1.00  0.00    -0.116 A  
HETATM   22  C   UNL     1      -9.992   2.458  63.031  1.00  0.00    -0.107 A  
HETATM   23  C   UNL     1     -10.122   4.040  64.852  1.00  0.00    -0.214 A  
HETATM   24  C   UNL     1      -8.052   2.875  64.407  1.00  0.00    -0.082 A  
HETATM   25  C   UNL     1     -10.726   3.366  63.789  1.00  0.00    -0.247 A  
HETATM   26  C   UNL     1      -8.657   2.204  63.345  1.00  0.00    -0.085 A  
ENDBRANCH  20  21
ENDBRANCH  19  20
ENDBRANCH  18  19
ENDBRANCH  16  18
ENDBRANCH  15  16
ENDBRANCH  14  15
BRANCH  14  27
HETATM   27  C   UNL     1     -10.369  11.119  66.714  1.00  0.00    -0.241 C  
BRANCH  27  28
HETATM   28  O   UNL     1      -9.453  11.725  67.637  1.00  0.00    -0.173 OA 
BRANCH  28  29
HETATM   29  C   UNL     1      -9.664  13.053  67.861  1.00  0.00    -0.218 C  
HETATM   30  O   UNL     1     -10.758  13.564  68.053  1.00  0.00    -0.240 OA 
BRANCH  29  31
HETATM   31  C   UNL     1      -8.353  13.797  67.849  1.00  0.00    -0.172 C  
BRANCH  31  32
HETATM   32  C   UNL     1      -8.517  15.242  68.307  1.00  0.00    -0.154 C  
BRANCH  32  33
HETATM   33  C   UNL     1      -7.820  16.245  67.378  1.00  0.00    -0.184 C  
BRANCH  33  34
HETATM   34  C   UNL     1      -8.524  17.577  67.428  1.00  0.00    -0.222 A  
HETATM   35  C   UNL     1      -9.687  20.118  67.617  1.00  0.00    -0.551 A  
HETATM   36  C   UNL     1      -8.256  18.552  66.458  1.00  0.00    -0.299 A  
HETATM   37  C   UNL     1      -8.836  19.817  66.553  1.00  0.00    -0.420 A  
HETATM   38  C   UNL     1      -9.967  19.149  68.579  1.00  0.00    -0.496 A  
HETATM   39  C   UNL     1      -9.390  17.884  68.486  1.00  0.00    -0.299 A  
ENDBRANCH  33  34
ENDBRANCH  32  33
ENDBRANCH  31  32
ENDBRANCH  29  31
ENDBRANCH  28  29
ENDBRANCH  27  28
ENDBRANCH  14  27
ENDBRANCH  13  14
ENDBRANCH  12  13
ENDBRANCH   2  12
TORSDOF 20
ENDMDL
MODEL      363
REMARK 921   NORMALIZED FREE ENERGY PREDICTED BY IDOCK:   -2.53 KCAL/MOL
REMARK 922        TOTAL FREE ENERGY PREDICTED BY IDOCK:  -10.17 KCAL/MOL
REMARK 923 INTER-LIGAND FREE ENERGY PREDICTED BY IDOCK:   -9.30 KCAL/MOL
REMARK 924 INTRA-LIGAND FREE ENERGY PREDICTED BY IDOCK:   -0.87 KCAL/MOL
REMARK 927      BINDING AFFINITY PREDICTED BY RF-SCORE:    0.00 PKD
ROOT
HETATM    1  O   UNL     1     -10.664  10.962  66.836  1.00  0.00    -0.253 OA 
HETATM    2  C   UNL     1      -9.710  10.420  66.296  1.00  0.00    -0.205 C  
ENDROOT
BRANCH   2   3
HETATM    3  C   UNL     1      -9.816   9.518  65.089  1.00  0.00    -0.101 C  
BRANCH   3   4
HETATM    4  C   UNL     1      -9.032  10.059  63.892  1.00  0.00    -0.271 C  
BRANCH   4   5
HETATM    5  C   UNL     1      -8.837  11.578  63.964  1.00  0.00     0.400 C  
BRANCH   5   6
HETATM    6  C   UNL     1     -10.150  12.317  63.989  1.00  0.00    -0.351 A  
HETATM    7  C   UNL     1     -10.264  13.533  64.678  1.00  0.00    -0.341 A  
HETATM    8  C   UNL     1     -12.594  13.690  64.057  1.00  0.00    -0.147 A  
HETATM    9  C   UNL     1     -11.480  14.217  64.709  1.00  0.00    -0.384 A  
HETATM   10  C   UNL     1     -11.277  11.795  63.341  1.00  0.00    -0.440 A  
HETATM   11  C   UNL     1     -12.492  12.480  63.373  1.00  0.00    -0.514 A  
ENDBRANCH   5   6
ENDBRANCH   4   5
ENDBRANCH   3   4
ENDBRANCH   2   3
BRANCH   2  12
HETATM   12  O   UNL     1      -8.412  10.538  66.689  1.00  0.00    -0.125 OA 
BRANCH  12  13
HETATM   13  C   UNL     1      -7.925   9.541  67.608  1.00  0.00    -0.106 C  
BRANCH  13  14
HETATM   14  C   UNL     1      -8.538   9.764  68.994  1.00  0.00    -0.146 C  
BRANCH  14  15
HETATM   15  O   UNL     1      -7.880  10.885  69.621  1.00  0.00    -0.053 OA 
BRANCH  15  16
HETATM   16  C   UNL     1      -6.615  11.148  69.199  1.00  0.00    -0.085 C  
HETATM   17  O   UNL     1      -5.600  10.604  69.607  1.00  0.00    -0.038 OA 
BRANCH  16  18
HETATM   18  C   UNL     1      -6.637  12.242  68.161  1.00  0.00    -0.067 C  
BRANCH  18  19
HETATM   19  C   UNL     1      -6.743  13.624  68.798  1.00  0.00    -0.104 C  
BRANCH  19  20
HETATM   20  C   UNL     1      -8.158  14.209  68.731  1.00  0.00    -0.088 C  
BRANCH  20  21
HETATM   21  C   UNL     1      -8.173  15.396  67.801  1.00  0.00    -0.159 A  
HETATM   22  C   UNL     1      -8.199  17.739  66.269  1.00  0.00    -0.252 A  
HETATM   23  C   UNL     1      -9.388  15.968  67.402  1.00  0.00    -0.220 A  
HETATM   24  C   UNL     1      -6.971  15.999  67.407  1.00  0.00    -0.223 A  
HETATM   25  C   UNL     1      -9.398  17.135  66.637  1.00  0.00    -0.277 A  
HETATM   26  C   UNL     1      -6.985  17.167  66.645  1.00  0.00    -0.285 A  
ENDBRANCH  20  21
ENDBRANCH  19  20
ENDBRANCH  18  19
ENDBRANCH  16  18
ENDBRANCH  15  16
ENDBRANCH  14  15
BRANCH  14  27
HETATM   27  C   UNL     1      -8.332   8.539  69.893  1.00  0.00    -0.123 C  
BRANCH  27  28
HETATM   28  O   UNL     1      -8.658   8.831  71.260  1.00  0.00    -0.172 OA 
BRANCH  28  29
HETATM   29  C   UNL     1      -9.760   8.183  71.733  1.00  0.00    -0.191 C  
HETATM   30  O   UNL     1      -9.751   7.352  72.629  1.00  0.00    -0.151 OA 
BRANCH  29  31
HETATM   31  C   UNL     1     -10.991   8.649  70.998  1.00  0.00    -0.314 C  
BRANCH  31  32
HETATM   32  C   UNL     1     -11.924   9.446  71.903  1.00  0.00    -0.416 C  
BRANCH  32  33
HETATM   33  C   UNL     1     -13.040  10.161  71.129  1.00  0.00    -0.480 C  
BRANCH  33  34
HETATM   34  C   UNL     1     -12.773  11.643  71.081  1.00  0.00    -0.426 A  
HETATM   35  C   UNL     1     -12.430  14.417  70.888  1.00  0.00    -0.424 A  
HETATM   36  C   UNL     1     -13.374  12.499  72.014  1.00  0.00    -0.528 A  
HETATM   37  C   UNL     1     -13.202  13.880  71.917  1.00  0.00    -0.480 A  
HETATM   38  C   UNL     1     -11.818  13.572  69.963  1.00  0.00    -0.371 A  
HETATM   39  C   UNL     1     -11.988  12.191  70.058  1.00  0.00    -0.391 A  
ENDBRANCH  33  34
ENDBRANCH  32  33
ENDBRANCH  31  32
ENDBRANCH  29  31
ENDBRANCH  28  29
ENDBRANCH  27  28
ENDBRANCH  14  27
ENDBRANCH  13  14
ENDBRANCH  12  13
ENDBRANCH   2  12
TORSDOF 20
ENDMDL
MODEL      364
REMARK 921   NORMALIZED FREE ENERGY PREDICTED BY IDOCK:   -2.53 KCAL/MOL
REMARK 922        TOTAL FREE ENERGY PREDICTED BY IDOCK:  -10.16 KCAL/MOL
REMARK 923 INTER-LIGAND FREE ENERGY PREDICTED BY IDOCK:   -7.80 KCAL/MOL
REMARK 924 INTRA-LIGAND FREE ENERGY PREDICTED BY IDOCK:   -2.36 KCAL/MOL
REMARK 927      BINDING AFFINITY PREDICTED BY RF-SCORE:    0.00 PKD
ROOT
HETATM    1  O   UNL     1     -11.395   9.644  71.829  1.00  0.00    -0.347 OA 
HETATM    2  C   UNL     1     -11.539   9.061  70.764  1.00  0.00    -0.265 C  
ENDROOT
BRANCH   2   3
HETATM    3  C   UNL     1     -11.758   7.573  70.633  1.00  0.00    -0.240 C  
BRANCH   3   4
HETATM    4  C   UNL     1     -11.923   6.890  71.992  1.00  0.00    -0.342 C  
BRANCH   4   5
HETATM    5  C   UNL     1     -10.912   5.758  72.200  1.00  0.00    -0.311 C  
BRANCH   5   6
HETATM    6  C   UNL     1      -9.601   6.263  72.748  1.00  0.00    -0.155 A  
HETATM    7  C   UNL     1      -9.572   7.383  73.592  1.00  0.00    -0.337 A  
HETATM    8  C   UNL     1      -7.167   7.220  73.758  1.00  0.00    -0.101 A  
HETATM    9  C   UNL     1      -8.360   7.856  74.096  1.00  0.00    -0.312 A  
HETATM   10  C   UNL     1      -8.396   5.634  72.412  1.00  0.00    -0.115 A  
HETATM   11  C   UNL     1      -7.185   6.109  72.916  1.00  0.00    -0.092 A  
ENDBRANCH   5   6
ENDBRANCH   4   5
ENDBRANCH   3   4
ENDBRANCH   2   3
BRANCH   2  12
HETATM   12  O   UNL     1     -11.523   9.650  69.536  1.00  0.00    -0.108 OA 
BRANCH  12  13
HETATM   13  C   UNL     1     -10.330   9.466  68.750  1.00  0.00    -0.209 C  
BRANCH  13  14
HETATM   14  C   UNL     1     -10.672   9.539  67.258  1.00  0.00    -0.199 C  
BRANCH  14  15
HETATM   15  O   UNL     1      -9.918   8.529  66.556  1.00  0.00    -0.259 OA 
BRANCH  15  16
HETATM   16  C   UNL     1     -10.144   7.243  66.935  1.00  0.00    -0.247 C  
HETATM   17  O   UNL     1     -11.231   6.684  66.947  1.00  0.00    -0.391 OA 
BRANCH  16  18
HETATM   18  C   UNL     1      -8.851   6.602  67.373  1.00  0.00    -0.116 C  
BRANCH  18  19
HETATM   19  C   UNL     1      -9.052   5.148  67.787  1.00  0.00    -0.119 C  
BRANCH  19  20
HETATM   20  C   UNL     1      -8.217   4.753  69.011  1.00  0.00    -0.081 C  
BRANCH  20  21
HETATM   21  C   UNL     1      -7.289   3.622  68.649  1.00  0.00    -0.054 A  
HETATM   22  C   UNL     1      -5.386   1.654  68.062  1.00  0.00    -0.013 A  
HETATM   23  C   UNL     1      -6.669   3.588  67.394  1.00  0.00    -0.042 A  
HETATM   24  C   UNL     1      -6.961   2.646  69.600  1.00  0.00    -0.033 A  
HETATM   25  C   UNL     1      -5.722   2.606  67.103  1.00  0.00    -0.022 A  
HETATM   26  C   UNL     1      -6.012   1.667  69.308  1.00  0.00    -0.023 A  
ENDBRANCH  20  21
ENDBRANCH  19  20
ENDBRANCH  18  19
ENDBRANCH  16  18
ENDBRANCH  15  16
ENDBRANCH  14  15
BRANCH  14  27
HETATM   27  C   UNL     1     -10.289  10.901  66.669  1.00  0.00    -0.239 C  
BRANCH  27  28
HETATM   28  O   UNL     1      -9.430  11.634  67.555  1.00  0.00    -0.168 OA 
BRANCH  28  29
HETATM   29  C   UNL     1      -9.836  12.908  67.818  1.00  0.00    -0.221 C  
HETATM   30  O   UNL     1     -10.655  13.219  68.671  1.00  0.00    -0.253 OA 
BRANCH  29  31
HETATM   31  C   UNL     1      -9.121  13.877  66.911  1.00  0.00    -0.257 C  
BRANCH  31  32
HETATM   32  C   UNL     1      -9.159  15.299  67.459  1.00  0.00    -0.189 C  
BRANCH  32  33
HETATM   33  C   UNL     1      -8.071  15.564  68.508  1.00  0.00    -0.146 C  
BRANCH  33  34
HETATM   34  C   UNL     1      -7.803  17.043  68.617  1.00  0.00    -0.257 A  
HETATM   35  C   UNL     1      -7.372  19.785  68.993  1.00  0.00    -0.314 A  
HETATM   36  C   UNL     1      -6.603  17.502  69.179  1.00  0.00    -0.246 A  
HETATM   37  C   UNL     1      -6.390  18.868  69.366  1.00  0.00    -0.299 A  
HETATM   38  C   UNL     1      -8.562  19.338  68.423  1.00  0.00    -0.389 A  
HETATM   39  C   UNL     1      -8.777  17.973  68.235  1.00  0.00    -0.289 A  
ENDBRANCH  33  34
ENDBRANCH  32  33
ENDBRANCH  31  32
ENDBRANCH  29  31
ENDBRANCH  28  29
ENDBRANCH  27  28
ENDBRANCH  14  27
ENDBRANCH  13  14
ENDBRANCH  12  13
ENDBRANCH   2  12
TORSDOF 20
ENDMDL
MODEL      365
REMARK 921   NORMALIZED FREE ENERGY PREDICTED BY IDOCK:   -2.39 KCAL/MOL
REMARK 922        TOTAL FREE ENERGY PREDICTED BY IDOCK:   -9.87 KCAL/MOL
REMARK 923 INTER-LIGAND FREE ENERGY PREDICTED BY IDOCK:   -8.92 KCAL/MOL
REMARK 924 INTRA-LIGAND FREE ENERGY PREDICTED BY IDOCK:   -0.94 KCAL/MOL
REMARK 927      BINDING AFFINITY PREDICTED BY RF-SCORE:    0.00 PKD
ROOT
HETATM    1  O   UNL     1      -7.406  14.926  67.570  1.00  0.00    -0.175 OA 
HETATM    2  C   UNL     1      -8.278  14.119  67.858  1.00  0.00    -0.155 C  
ENDROOT
BRANCH   2   3
HETATM    3  C   UNL     1      -8.012  12.687  68.259  1.00  0.00    -0.153 C  
BRANCH   3   4
HETATM    4  C   UNL     1      -6.879  12.060  67.445  1.00  0.00    -0.142 C  
BRANCH   4   5
HETATM    5  C   UNL     1      -6.453  10.695  67.997  1.00  0.00    -0.062 C  
BRANCH   5   6
HETATM    6  C   UNL     1      -6.455   9.627  66.933  1.00  0.00    -0.067 A  
HETATM    7  C   UNL     1      -6.666   8.285  67.279  1.00  0.00    -0.063 A  
HETATM    8  C   UNL     1      -6.443   7.632  64.963  1.00  0.00    -0.038 A  
HETATM    9  C   UNL     1      -6.662   7.293  66.297  1.00  0.00    -0.053 A  
HETATM   10  C   UNL     1      -6.232   9.956  65.590  1.00  0.00    -0.078 A  
HETATM   11  C   UNL     1      -6.228   8.964  64.610  1.00  0.00    -0.066 A  
ENDBRANCH   5   6
ENDBRANCH   4   5
ENDBRANCH   3   4
ENDBRANCH   2   3
BRANCH   2  12
HETATM   12  O   UNL     1      -9.616  14.374  67.864  1.00  0.00    -0.210 OA 
BRANCH  12  13
HETATM   13  C   UNL     1     -10.027  15.664  67.372  1.00  0.00    -0.232 C  
BRANCH  13  14
HETATM   14  C   UNL     1     -11.057  16.280  68.323  1.00  0.00    -0.346 C  
BRANCH  14  15
HETATM   15  O   UNL     1     -11.058  17.713  68.148  1.00  0.00    -0.201 OA 
BRANCH  15  16
HETATM   16  C   UNL     1      -9.979  18.376  68.642  1.00  0.00    -0.387 C  
HETATM   17  O   UNL     1      -8.944  17.859  69.036  1.00  0.00    -0.160 OA 
BRANCH  16  18
HETATM   18  C   UNL     1     -10.254  19.858  68.666  1.00  0.00    -0.494 C  
BRANCH  18  19
HETATM   19  C   UNL     1      -9.732  20.551  67.411  1.00  0.00    -0.587 C  
BRANCH  19  20
HETATM   20  C   UNL     1      -9.407  19.572  66.277  1.00  0.00    -0.431 C  
BRANCH  20  21
HETATM   21  C   UNL     1      -7.918  19.541  66.045  1.00  0.00    -0.312 A  
HETATM   22  C   UNL     1      -5.125  19.520  65.846  1.00  0.00    -0.159 A  
HETATM   23  C   UNL     1      -7.218  20.724  65.774  1.00  0.00     0.057 A  
HETATM   24  C   UNL     1      -7.205  18.343  66.193  1.00  0.00    -0.298 A  
HETATM   25  C   UNL     1      -5.826  20.710  65.675  1.00  0.00    -0.252 A  
HETATM   26  C   UNL     1      -5.814  18.334  66.096  1.00  0.00    -0.216 A  
ENDBRANCH  20  21
ENDBRANCH  19  20
ENDBRANCH  18  19
ENDBRANCH  16  18
ENDBRANCH  15  16
ENDBRANCH  14  15
BRANCH  14  27
HETATM   27  C   UNL     1     -10.702  15.990  69.786  1.00  0.00    -0.331 C  
BRANCH  27  28
HETATM   28  O   UNL     1     -10.954  14.619  70.126  1.00  0.00    -0.188 OA 
BRANCH  28  29
HETATM   29  C   UNL     1     -12.269  14.308  70.301  1.00  0.00    -0.342 C  
HETATM   30  O   UNL     1     -13.194  15.102  70.208  1.00  0.00    -0.180 OA 
BRANCH  29  31
HETATM   31  C   UNL     1     -12.417  12.841  70.619  1.00  0.00    -0.328 C  
BRANCH  31  32
HETATM   32  C   UNL     1     -11.734  11.964  69.576  1.00  0.00    -0.410 C  
BRANCH  32  33
HETATM   33  C   UNL     1     -12.159  12.302  68.140  1.00  0.00    -0.076 C  
BRANCH  33  34
HETATM   34  C   UNL     1     -11.337  11.512  67.154  1.00  0.00    -0.354 A  
HETATM   35  C   UNL     1      -9.679  10.173  65.337  1.00  0.00    -0.355 A  
HETATM   36  C   UNL     1     -10.396  10.579  67.609  1.00  0.00    -0.257 A  
HETATM   37  C   UNL     1      -9.571   9.912  66.703  1.00  0.00    -0.235 A  
HETATM   38  C   UNL     1     -10.621  11.091  64.876  1.00  0.00    -0.328 A  
HETATM   39  C   UNL     1     -11.448  11.758  65.780  1.00  0.00    -0.258 A  
ENDBRANCH  33  34
ENDBRANCH  32  33
ENDBRANCH  31  32
ENDBRANCH  29  31
ENDBRANCH  28  29
ENDBRANCH  27  28
ENDBRANCH  14  27
ENDBRANCH  13  14
ENDBRANCH  12  13
ENDBRANCH   2  12
TORSDOF 20
ENDMDL
MODEL      366
REMARK 921   NORMALIZED FREE ENERGY PREDICTED BY IDOCK:   -2.38 KCAL/MOL
REMARK 922        TOTAL FREE ENERGY PREDICTED BY IDOCK:   -9.85 KCAL/MOL
REMARK 923 INTER-LIGAND FREE ENERGY PREDICTED BY IDOCK:   -8.59 KCAL/MOL
REMARK 924 INTRA-LIGAND FREE ENERGY PREDICTED BY IDOCK:   -1.25 KCAL/MOL
REMARK 927      BINDING AFFINITY PREDICTED BY RF-SCORE:    0.00 PKD
ROOT
HETATM    1  O   UNL     1     -11.283   9.545  66.483  1.00  0.00     0.402 OA 
HETATM    2  C   UNL     1     -10.160   9.071  66.575  1.00  0.00    -0.283 C  
ENDROOT
BRANCH   2   3
HETATM    3  C   UNL     1      -9.245   8.821  65.400  1.00  0.00    -0.155 C  
BRANCH   3   4
HETATM    4  C   UNL     1      -8.379  10.039  65.071  1.00  0.00    -0.158 C  
BRANCH   4   5
HETATM    5  C   UNL     1      -8.860  10.770  63.813  1.00  0.00    -0.131 C  
BRANCH   5   6
HETATM    6  C   UNL     1     -10.164  11.493  64.041  1.00  0.00    -0.394 A  
HETATM    7  C   UNL     1     -10.289  12.409  65.095  1.00  0.00    -0.313 A  
HETATM    8  C   UNL     1     -12.590  12.828  64.484  1.00  0.00    -0.463 A  
HETATM    9  C   UNL     1     -11.497  13.074  65.313  1.00  0.00    -0.340 A  
HETATM   10  C   UNL     1     -11.270  11.249  63.217  1.00  0.00    -0.015 A  
HETATM   11  C   UNL     1     -12.476  11.915  63.437  1.00  0.00    -0.582 A  
ENDBRANCH   5   6
ENDBRANCH   4   5
ENDBRANCH   3   4
ENDBRANCH   2   3
BRANCH   2  12
HETATM   12  O   UNL     1      -9.557   8.694  67.736  1.00  0.00    -0.143 OA 
BRANCH  12  13
HETATM   13  C   UNL     1     -10.414   8.526  68.881  1.00  0.00    -0.188 C  
BRANCH  13  14
HETATM   14  C   UNL     1     -10.366   9.781  69.758  1.00  0.00    -0.246 C  
BRANCH  14  15
HETATM   15  O   UNL     1     -11.684  10.364  69.814  1.00  0.00    -0.253 OA 
BRANCH  15  16
HETATM   16  C   UNL     1     -11.833  11.566  69.195  1.00  0.00    -0.340 C  
HETATM   17  O   UNL     1     -12.093  11.731  68.013  1.00  0.00    -0.572 OA 
BRANCH  16  18
HETATM   18  C   UNL     1     -11.601  12.683  70.181  1.00  0.00    -0.141 C  
BRANCH  18  19
HETATM   19  C   UNL     1     -11.748  14.053  69.528  1.00  0.00    -0.367 C  
BRANCH  19  20
HETATM   20  C   UNL     1     -10.816  15.109  70.134  1.00  0.00    -0.265 C  
BRANCH  20  21
HETATM   21  C   UNL     1     -10.028  15.780  69.038  1.00  0.00    -0.234 A  
HETATM   22  C   UNL     1      -8.667  17.229  67.067  1.00  0.00    -0.248 A  
HETATM   23  C   UNL     1     -10.571  15.912  67.753  1.00  0.00    -0.302 A  
HETATM   24  C   UNL     1      -8.785  16.364  69.318  1.00  0.00    -0.108 A  
HETATM   25  C   UNL     1      -9.890  16.634  66.772  1.00  0.00    -0.280 A  
HETATM   26  C   UNL     1      -8.108  17.087  68.336  1.00  0.00    -0.245 A  
ENDBRANCH  20  21
ENDBRANCH  19  20
ENDBRANCH  18  19
ENDBRANCH  16  18
ENDBRANCH  15  16
ENDBRANCH  14  15
BRANCH  14  27
HETATM   27  C   UNL     1      -9.417  10.831  69.168  1.00  0.00    -0.134 C  
BRANCH  27  28
HETATM   28  O   UNL     1      -8.113  10.283  68.925  1.00  0.00    -0.106 OA 
BRANCH  28  29
HETATM   29  C   UNL     1      -7.100  10.901  69.596  1.00  0.00    -0.116 C  
HETATM   30  O   UNL     1      -6.724  12.046  69.393  1.00  0.00    -0.110 OA 
BRANCH  29  31
HETATM   31  C   UNL     1      -6.519   9.970  70.629  1.00  0.00    -0.098 C  
BRANCH  31  32
HETATM   32  C   UNL     1      -6.903   8.519  70.365  1.00  0.00    -0.037 C  
BRANCH  32  33
HETATM   33  C   UNL     1      -7.004   7.684  71.649  1.00  0.00    -0.061 C  
BRANCH  33  34
HETATM   34  C   UNL     1      -8.430   7.252  71.878  1.00  0.00    -0.114 A  
HETATM   35  C   UNL     1     -11.127   6.553  72.159  1.00  0.00    -0.296 A  
HETATM   36  C   UNL     1      -8.952   6.151  71.187  1.00  0.00    -0.144 A  
HETATM   37  C   UNL     1     -10.296   5.803  71.328  1.00  0.00    -0.281 A  
HETATM   38  C   UNL     1     -10.612   7.643  72.859  1.00  0.00    -0.411 A  
HETATM   39  C   UNL     1      -9.270   7.992  72.720  1.00  0.00    -0.318 A  
ENDBRANCH  33  34
ENDBRANCH  32  33
ENDBRANCH  31  32
ENDBRANCH  29  31
ENDBRANCH  28  29
ENDBRANCH  27  28
ENDBRANCH  14  27
ENDBRANCH  13  14
ENDBRANCH  12  13
ENDBRANCH   2  12
TORSDOF 20
ENDMDL
MODEL      367
REMARK 921   NORMALIZED FREE ENERGY PREDICTED BY IDOCK:   -2.37 KCAL/MOL
REMARK 922        TOTAL FREE ENERGY PREDICTED BY IDOCK:   -9.83 KCAL/MOL
REMARK 923 INTER-LIGAND FREE ENERGY PREDICTED BY IDOCK:   -9.18 KCAL/MOL
REMARK 924 INTRA-LIGAND FREE ENERGY PREDICTED BY IDOCK:   -0.65 KCAL/MOL
REMARK 927      BINDING AFFINITY PREDICTED BY RF-SCORE:    0.00 PKD
ROOT
HETATM    1  O   UNL     1     -11.277  19.764  67.107  1.00  0.00    -0.272 OA 
HETATM    2  C   UNL     1     -10.270  19.173  67.470  1.00  0.00    -0.403 C  
ENDROOT
BRANCH   2   3
HETATM    3  C   UNL     1      -8.887  19.781  67.485  1.00  0.00    -0.391 C  
BRANCH   3   4
HETATM    4  C   UNL     1      -8.055  19.294  68.673  1.00  0.00    -0.405 C  
BRANCH   4   5
HETATM    5  C   UNL     1      -6.566  19.174  68.329  1.00  0.00    -0.269 C  
BRANCH   5   6
HETATM    6  C   UNL     1      -6.288  19.529  66.890  1.00  0.00    -0.190 A  
HETATM    7  C   UNL     1      -6.512  18.589  65.874  1.00  0.00    -0.287 A  
HETATM    8  C   UNL     1      -5.755  20.173  64.213  1.00  0.00    -0.283 A  
HETATM    9  C   UNL     1      -6.249  18.912  64.542  1.00  0.00    -0.005 A  
HETATM   10  C   UNL     1      -5.787  20.792  66.549  1.00  0.00    -0.254 A  
HETATM   11  C   UNL     1      -5.524  21.113  65.217  1.00  0.00    -0.230 A  
ENDBRANCH   5   6
ENDBRANCH   4   5
ENDBRANCH   3   4
ENDBRANCH   2   3
BRANCH   2  12
HETATM   12  O   UNL     1     -10.229  17.886  67.913  1.00  0.00    -0.334 OA 
BRANCH  12  13
HETATM   13  C   UNL     1     -11.039  16.934  67.198  1.00  0.00     0.145 C  
BRANCH  13  14
HETATM   14  C   UNL     1     -11.105  15.616  67.976  1.00  0.00    -0.335 C  
BRANCH  14  15
HETATM   15  O   UNL     1      -9.763  15.135  68.196  1.00  0.00    -0.212 OA 
BRANCH  15  16
HETATM   16  C   UNL     1      -9.034  14.866  67.080  1.00  0.00    -0.236 C  
HETATM   17  O   UNL     1      -9.193  15.383  65.984  1.00  0.00    -0.316 OA 
BRANCH  16  18
HETATM   18  C   UNL     1      -8.007  13.804  67.381  1.00  0.00    -0.175 C  
BRANCH  18  19
HETATM   19  C   UNL     1      -7.510  13.888  68.820  1.00  0.00    -0.114 C  
BRANCH  19  20
HETATM   20  C   UNL     1      -6.532  12.765  69.183  1.00  0.00    -0.109 C  
BRANCH  20  21
HETATM   21  C   UNL     1      -7.189  11.427  68.959  1.00  0.00    -0.118 A  
HETATM   22  C   UNL     1      -8.347   8.885  68.765  1.00  0.00    -0.123 A  
HETATM   23  C   UNL     1      -6.445  10.345  68.472  1.00  0.00    -0.051 A  
HETATM   24  C   UNL     1      -8.526  11.227  69.327  1.00  0.00     0.197 A  
HETATM   25  C   UNL     1      -7.025   9.079  68.376  1.00  0.00    -0.068 A  
HETATM   26  C   UNL     1      -9.102   9.960  69.232  1.00  0.00    -0.196 A  
ENDBRANCH  20  21
ENDBRANCH  19  20
ENDBRANCH  18  19
ENDBRANCH  16  18
ENDBRANCH  15  16
ENDBRANCH  14  15
BRANCH  14  27
HETATM   27  C   UNL     1     -11.862  14.543  67.184  1.00  0.00    -0.387 C  
BRANCH  27  28
HETATM   28  O   UNL     1     -12.579  13.657  68.055  1.00  0.00     0.118 OA 
BRANCH  28  29
HETATM   29  C   UNL     1     -11.854  12.598  68.514  1.00  0.00    -0.300 C  
HETATM   30  O   UNL     1     -11.397  11.707  67.814  1.00  0.00    -0.248 OA 
BRANCH  29  31
HETATM   31  C   UNL     1     -11.690  12.692  70.010  1.00  0.00    -0.289 C  
BRANCH  31  32
HETATM   32  C   UNL     1     -12.243  11.461  70.719  1.00  0.00    -0.475 C  
BRANCH  32  33
HETATM   33  C   UNL     1     -13.265  11.808  71.809  1.00  0.00    -0.434 C  
BRANCH  33  34
HETATM   34  C   UNL     1     -13.263  13.293  72.071  1.00  0.00    -0.541 A  
HETATM   35  C   UNL     1     -13.340  16.016  72.721  1.00  0.00    -0.484 A  
HETATM   36  C   UNL     1     -12.216  13.878  72.797  1.00  0.00     0.363 A  
HETATM   37  C   UNL     1     -12.256  15.235  73.119  1.00  0.00    -0.549 A  
HETATM   38  C   UNL     1     -14.379  15.444  71.989  1.00  0.00    -0.653 A  
HETATM   39  C   UNL     1     -14.341  14.088  71.664  1.00  0.00    -0.266 A  
ENDBRANCH  33  34
ENDBRANCH  32  33
ENDBRANCH  31  32
ENDBRANCH  29  31
ENDBRANCH  28  29
ENDBRANCH  27  28
ENDBRANCH  14  27
ENDBRANCH  13  14
ENDBRANCH  12  13
ENDBRANCH   2  12
TORSDOF 20
ENDMDL
MODEL      368
REMARK 921   NORMALIZED FREE ENERGY PREDICTED BY IDOCK:   -2.33 KCAL/MOL
REMARK 922        TOTAL FREE ENERGY PREDICTED BY IDOCK:   -9.73 KCAL/MOL
REMARK 923 INTER-LIGAND FREE ENERGY PREDICTED BY IDOCK:   -5.95 KCAL/MOL
REMARK 924 INTRA-LIGAND FREE ENERGY PREDICTED BY IDOCK:   -3.78 KCAL/MOL
REMARK 927      BINDING AFFINITY PREDICTED BY RF-SCORE:    0.00 PKD
ROOT
HETATM    1  O   UNL     1      -6.876  12.271  69.011  1.00  0.00    -0.097 OA 
HETATM    2  C   UNL     1      -6.892  11.060  68.839  1.00  0.00    -0.079 C  
ENDROOT
BRANCH   2   3
HETATM    3  C   UNL     1      -6.350  10.055  69.827  1.00  0.00    -0.058 C  
BRANCH   3   4
HETATM    4  C   UNL     1      -7.249   9.910  71.056  1.00  0.00     0.315 C  
BRANCH   4   5
HETATM    5  C   UNL     1      -8.292   8.800  70.885  1.00  0.00    -0.196 C  
BRANCH   5   6
HETATM    6  C   UNL     1      -9.700   9.339  70.901  1.00  0.00    -0.346 A  
HETATM    7  C   UNL     1     -10.088  10.333  69.991  1.00  0.00    -0.167 A  
HETATM    8  C   UNL     1     -12.312  10.360  70.936  1.00  0.00    -0.480 A  
HETATM    9  C   UNL     1     -11.388  10.838  70.008  1.00  0.00    -0.397 A  
HETATM   10  C   UNL     1     -10.635   8.869  71.832  1.00  0.00    -0.419 A  
HETATM   11  C   UNL     1     -11.935   9.376  71.848  1.00  0.00    -0.416 A  
ENDBRANCH   5   6
ENDBRANCH   4   5
ENDBRANCH   3   4
ENDBRANCH   2   3
BRANCH   2  12
HETATM   12  O   UNL     1      -7.392  10.428  67.741  1.00  0.00    -0.086 OA 
BRANCH  12  13
HETATM   13  C   UNL     1      -8.180  11.229  66.840  1.00  0.00    -0.153 C  
BRANCH  13  14
HETATM   14  C   UNL     1      -8.192  10.589  65.448  1.00  0.00    -0.152 C  
BRANCH  14  15
HETATM   15  O   UNL     1      -9.351   9.737  65.335  1.00  0.00    -0.212 OA 
BRANCH  15  16
HETATM   16  C   UNL     1     -10.330   9.933  66.259  1.00  0.00    -0.163 C  
HETATM   17  O   UNL     1     -10.743  11.018  66.640  1.00  0.00    -0.254 OA 
BRANCH  16  18
HETATM   18  C   UNL     1     -10.820   8.605  66.777  1.00  0.00     0.113 C  
BRANCH  18  19
HETATM   19  C   UNL     1      -9.847   7.993  67.778  1.00  0.00    -0.207 C  
BRANCH  19  20
HETATM   20  C   UNL     1      -9.840   6.460  67.748  1.00  0.00    -0.136 C  
BRANCH  20  21
HETATM   21  C   UNL     1     -10.137   5.924  69.126  1.00  0.00    -0.244 A  
HETATM   22  C   UNL     1     -10.589   5.127  71.771  1.00  0.00    -0.238 A  
HETATM   23  C   UNL     1      -9.185   5.154  69.806  1.00  0.00    -0.165 A  
HETATM   24  C   UNL     1     -11.327   6.272  69.778  1.00  0.00    -0.506 A  
HETATM   25  C   UNL     1      -9.413   4.757  71.124  1.00  0.00    -0.218 A  
HETATM   26  C   UNL     1     -11.551   5.876  71.096  1.00  0.00    -0.056 A  
ENDBRANCH  20  21
ENDBRANCH  19  20
ENDBRANCH  18  19
ENDBRANCH  16  18
ENDBRANCH  15  16
ENDBRANCH  14  15
BRANCH  14  27
HETATM   27  C   UNL     1      -6.950   9.718  65.230  1.00  0.00    -0.111 C  
BRANCH  27  28
HETATM   28  O   UNL     1      -7.153   8.382  65.714  1.00  0.00    -0.070 OA 
BRANCH  28  29
HETATM   29  C   UNL     1      -7.246   7.431  64.742  1.00  0.00    -0.072 C  
HETATM   30  O   UNL     1      -6.754   7.521  63.627  1.00  0.00    -0.052 OA 
BRANCH  29  31
HETATM   31  C   UNL     1      -8.035   6.250  65.247  1.00  0.00    -0.117 C  
BRANCH  31  32
HETATM   32  C   UNL     1      -7.134   5.063  65.569  1.00  0.00    -0.067 C  
BRANCH  32  33
HETATM   33  C   UNL     1      -7.907   3.743  65.694  1.00  0.00    -0.093 C  
BRANCH  33  34
HETATM   34  C   UNL     1      -7.697   3.144  67.061  1.00  0.00    -0.075 A  
HETATM   35  C   UNL     1      -7.193   1.908  69.523  1.00  0.00    -0.036 A  
HETATM   36  C   UNL     1      -6.621   3.560  67.856  1.00  0.00    -0.041 A  
HETATM   37  C   UNL     1      -6.371   2.944  69.082  1.00  0.00    -0.029 A  
HETATM   38  C   UNL     1      -8.272   1.496  68.744  1.00  0.00    -0.068 A  
HETATM   39  C   UNL     1      -8.525   2.111  67.518  1.00  0.00    -0.098 A  
ENDBRANCH  33  34
ENDBRANCH  32  33
ENDBRANCH  31  32
ENDBRANCH  29  31
ENDBRANCH  28  29
ENDBRANCH  27  28
ENDBRANCH  14  27
ENDBRANCH  13  14
ENDBRANCH  12  13
ENDBRANCH   2  12
TORSDOF 20
ENDMDL
MODEL      369
REMARK 921   NORMALIZED FREE ENERGY PREDICTED BY IDOCK:   -2.30 KCAL/MOL
REMARK 922        TOTAL FREE ENERGY PREDICTED BY IDOCK:   -9.66 KCAL/MOL
REMARK 923 INTER-LIGAND FREE ENERGY PREDICTED BY IDOCK:   -6.89 KCAL/MOL
REMARK 924 INTRA-LIGAND FREE ENERGY PREDICTED BY IDOCK:   -2.77 KCAL/MOL
REMARK 927      BINDING AFFINITY PREDICTED BY RF-SCORE:    0.00 PKD
ROOT
HETATM    1  O   UNL     1     -11.221   9.064  66.764  1.00  0.00     0.389 OA 
HETATM    2  C   UNL     1     -10.147   8.534  67.014  1.00  0.00    -0.277 C  
ENDROOT
BRANCH   2   3
HETATM    3  C   UNL     1      -9.389   7.655  66.048  1.00  0.00    -0.076 C  
BRANCH   3   4
HETATM    4  C   UNL     1      -8.030   8.247  65.672  1.00  0.00    -0.113 C  
BRANCH   4   5
HETATM    5  C   UNL     1      -8.082   9.029  64.354  1.00  0.00    -0.146 C  
BRANCH   5   6
HETATM    6  C   UNL     1      -8.995  10.225  64.441  1.00  0.00    -0.255 A  
HETATM    7  C   UNL     1      -9.987  10.430  63.471  1.00  0.00    -0.169 A  
HETATM    8  C   UNL     1     -10.687  12.457  64.584  1.00  0.00    -0.339 A  
HETATM    9  C   UNL     1     -10.830  11.540  63.545  1.00  0.00    -0.473 A  
HETATM   10  C   UNL     1      -8.858  11.156  65.479  1.00  0.00    -0.145 A  
HETATM   11  C   UNL     1      -9.701  12.265  65.551  1.00  0.00    -0.174 A  
ENDBRANCH   5   6
ENDBRANCH   4   5
ENDBRANCH   3   4
ENDBRANCH   2   3
BRANCH   2  12
HETATM   12  O   UNL     1      -9.468   8.647  68.189  1.00  0.00    -0.139 OA 
BRANCH  12  13
HETATM   13  C   UNL     1     -10.260   8.640  69.392  1.00  0.00    -0.210 C  
BRANCH  13  14
HETATM   14  C   UNL     1     -10.306  10.048  69.994  1.00  0.00    -0.272 C  
BRANCH  14  15
HETATM   15  O   UNL     1     -11.675  10.504  70.013  1.00  0.00    -0.267 OA 
BRANCH  15  16
HETATM   16  C   UNL     1     -11.914  11.699  69.410  1.00  0.00    -0.316 C  
HETATM   17  O   UNL     1     -11.980  11.889  68.204  1.00  0.00    -0.496 OA 
BRANCH  16  18
HETATM   18  C   UNL     1     -12.059  12.780  70.451  1.00  0.00    -0.382 C  
BRANCH  18  19
HETATM   19  C   UNL     1     -12.153  14.165  69.821  1.00  0.00    -0.409 C  
BRANCH  19  20
HETATM   20  C   UNL     1     -10.854  14.970  69.947  1.00  0.00    -0.266 C  
BRANCH  20  21
HETATM   21  C   UNL     1     -10.299  15.257  68.574  1.00  0.00    -0.231 A  
HETATM   22  C   UNL     1      -9.242  16.015  66.096  1.00  0.00    -0.388 A  
HETATM   23  C   UNL     1     -11.147  15.675  67.541  1.00  0.00    -0.289 A  
HETATM   24  C   UNL     1      -8.918  15.202  68.346  1.00  0.00    -0.183 A  
HETATM   25  C   UNL     1     -10.618  16.051  66.305  1.00  0.00    -0.288 A  
HETATM   26  C   UNL     1      -8.392  15.581  67.111  1.00  0.00    -0.243 A  
ENDBRANCH  20  21
ENDBRANCH  19  20
ENDBRANCH  18  19
ENDBRANCH  16  18
ENDBRANCH  15  16
ENDBRANCH  14  15
BRANCH  14  27
HETATM   27  C   UNL     1      -9.496  11.037  69.149  1.00  0.00    -0.044 C  
BRANCH  27  28
HETATM   28  O   UNL     1      -8.176  10.542  68.882  1.00  0.00    -0.123 OA 
BRANCH  28  29
HETATM   29  C   UNL     1      -7.178  11.454  69.055  1.00  0.00    -0.118 C  
HETATM   30  O   UNL     1      -7.350  12.635  69.324  1.00  0.00     0.057 OA 
BRANCH  29  31
HETATM   31  C   UNL     1      -5.835  10.795  68.875  1.00  0.00    -0.040 C  
BRANCH  31  32
HETATM   32  C   UNL     1      -5.921   9.572  67.968  1.00  0.00    -0.048 C  
BRANCH  32  33
HETATM   33  C   UNL     1      -5.155   8.363  68.523  1.00  0.00    -0.029 C  
BRANCH  33  34
HETATM   34  C   UNL     1      -6.120   7.340  69.066  1.00  0.00    -0.027 A  
HETATM   35  C   UNL     1      -8.050   5.538  70.001  1.00  0.00    -0.090 A  
HETATM   36  C   UNL     1      -6.538   6.270  68.264  1.00  0.00    -0.062 A  
HETATM   37  C   UNL     1      -7.499   5.373  68.730  1.00  0.00    -0.075 A  
HETATM   38  C   UNL     1      -7.630   6.593  70.809  1.00  0.00    -0.092 A  
HETATM   39  C   UNL     1      -6.669   7.490  70.345  1.00  0.00    -0.047 A  
ENDBRANCH  33  34
ENDBRANCH  32  33
ENDBRANCH  31  32
ENDBRANCH  29  31
ENDBRANCH  28  29
ENDBRANCH  27  28
ENDBRANCH  14  27
ENDBRANCH  13  14
ENDBRANCH  12  13
ENDBRANCH   2  12
TORSDOF 20
ENDMDL
MODEL      370
REMARK 921   NORMALIZED FREE ENERGY PREDICTED BY IDOCK:   -2.25 KCAL/MOL
REMARK 922        TOTAL FREE ENERGY PREDICTED BY IDOCK:   -9.55 KCAL/MOL
REMARK 923 INTER-LIGAND FREE ENERGY PREDICTED BY IDOCK:   -7.42 KCAL/MOL
REMARK 924 INTRA-LIGAND FREE ENERGY PREDICTED BY IDOCK:   -2.14 KCAL/MOL
REMARK 927      BINDING AFFINITY PREDICTED BY RF-SCORE:    0.00 PKD
ROOT
HETATM    1  O   UNL     1      -9.888   8.413  67.304  1.00  0.00    -0.170 OA 
HETATM    2  C   UNL     1     -10.044   9.598  67.564  1.00  0.00    -0.197 C  
ENDROOT
BRANCH   2   3
HETATM    3  C   UNL     1     -10.621  10.610  66.603  1.00  0.00    -0.276 C  
BRANCH   3   4
HETATM    4  C   UNL     1      -9.947  10.555  65.231  1.00  0.00    -0.364 C  
BRANCH   4   5
HETATM    5  C   UNL     1      -9.440  11.928  64.776  1.00  0.00     0.027 C  
BRANCH   5   6
HETATM    6  C   UNL     1     -10.544  12.955  64.743  1.00  0.00    -0.362 A  
HETATM    7  C   UNL     1     -10.257  14.309  64.971  1.00  0.00    -0.402 A  
HETATM    8  C   UNL     1     -12.591  14.871  64.700  1.00  0.00    -0.054 A  
HETATM    9  C   UNL     1     -11.277  15.261  64.947  1.00  0.00    -0.422 A  
HETATM   10  C   UNL     1     -11.869  12.573  64.499  1.00  0.00    -0.448 A  
HETATM   11  C   UNL     1     -12.887  13.527  64.476  1.00  0.00    -0.033 A  
ENDBRANCH   5   6
ENDBRANCH   4   5
ENDBRANCH   3   4
ENDBRANCH   2   3
BRANCH   2  12
HETATM   12  O   UNL     1      -9.724  10.193  68.746  1.00  0.00    -0.159 OA 
BRANCH  12  13
HETATM   13  C   UNL     1      -8.327  10.215  69.099  1.00  0.00    -0.154 C  
BRANCH  13  14
HETATM   14  C   UNL     1      -7.469  10.050  67.841  1.00  0.00    -0.089 C  
BRANCH  14  15
HETATM   15  O   UNL     1      -6.226   9.412  68.203  1.00  0.00    -0.052 OA 
BRANCH  15  16
HETATM   16  C   UNL     1      -6.063   8.134  67.770  1.00  0.00    -0.047 C  
HETATM   17  O   UNL     1      -5.296   7.772  66.890  1.00  0.00    -0.029 OA 
BRANCH  16  18
HETATM   18  C   UNL     1      -6.995   7.215  68.518  1.00  0.00    -0.079 C  
BRANCH  18  19
HETATM   19  C   UNL     1      -6.320   6.592  69.736  1.00  0.00    -0.042 C  
BRANCH  19  20
HETATM   20  C   UNL     1      -7.318   5.996  70.735  1.00  0.00    -0.085 C  
BRANCH  20  21
HETATM   21  C   UNL     1      -8.381   7.015  71.060  1.00  0.00    -0.125 A  
HETATM   22  C   UNL     1     -10.431   8.758  71.832  1.00  0.00    -0.423 A  
HETATM   23  C   UNL     1      -9.635   6.954  70.438  1.00  0.00    -0.171 A  
HETATM   24  C   UNL     1      -8.159   7.973  72.058  1.00  0.00    -0.164 A  
HETATM   25  C   UNL     1     -10.655   7.825  70.824  1.00  0.00    -0.220 A  
HETATM   26  C   UNL     1      -9.181   8.840  72.443  1.00  0.00    -0.135 A  
ENDBRANCH  20  21
ENDBRANCH  19  20
ENDBRANCH  18  19
ENDBRANCH  16  18
ENDBRANCH  15  16
ENDBRANCH  14  15
BRANCH  14  27
HETATM   27  C   UNL     1      -7.131  11.410  67.220  1.00  0.00    -0.119 C  
BRANCH  27  28
HETATM   28  O   UNL     1      -6.134  12.103  67.984  1.00  0.00    -0.052 OA 
BRANCH  28  29
HETATM   29  C   UNL     1      -6.126  13.456  67.816  1.00  0.00    -0.149 C  
HETATM   30  O   UNL     1      -5.154  14.112  67.470  1.00  0.00    -0.325 OA 
BRANCH  29  31
HETATM   31  C   UNL     1      -7.491  14.024  68.112  1.00  0.00    -0.131 C  
BRANCH  31  32
HETATM   32  C   UNL     1      -7.740  15.323  67.354  1.00  0.00    -0.225 C  
BRANCH  32  33
HETATM   33  C   UNL     1      -8.878  16.157  67.958  1.00  0.00    -0.181 C  
BRANCH  33  34
HETATM   34  C   UNL     1      -9.829  15.268  68.717  1.00  0.00    -0.217 A  
HETATM   35  C   UNL     1     -11.736  13.714  70.056  1.00  0.00    -0.319 A  
HETATM   36  C   UNL     1     -10.387  14.141  68.098  1.00  0.00    -0.239 A  
HETATM   37  C   UNL     1     -11.337  13.368  68.766  1.00  0.00    -0.332 A  
HETATM   38  C   UNL     1     -11.177  14.826  70.684  1.00  0.00    -0.173 A  
HETATM   39  C   UNL     1     -10.227  15.600  70.018  1.00  0.00    -0.277 A  
ENDBRANCH  33  34
ENDBRANCH  32  33
ENDBRANCH  31  32
ENDBRANCH  29  31
ENDBRANCH  28  29
ENDBRANCH  27  28
ENDBRANCH  14  27
ENDBRANCH  13  14
ENDBRANCH  12  13
ENDBRANCH   2  12
TORSDOF 20
ENDMDL
MODEL      371
REMARK 921   NORMALIZED FREE ENERGY PREDICTED BY IDOCK:   -2.18 KCAL/MOL
REMARK 922        TOTAL FREE ENERGY PREDICTED BY IDOCK:   -9.41 KCAL/MOL
REMARK 923 INTER-LIGAND FREE ENERGY PREDICTED BY IDOCK:   -7.22 KCAL/MOL
REMARK 924 INTRA-LIGAND FREE ENERGY PREDICTED BY IDOCK:   -2.19 KCAL/MOL
REMARK 927      BINDING AFFINITY PREDICTED BY RF-SCORE:    0.00 PKD
ROOT
HETATM    1  O   UNL     1     -10.331   6.114  66.253  1.00  0.00    -0.072 OA 
HETATM    2  C   UNL     1      -9.197   6.402  66.609  1.00  0.00    -0.151 C  
ENDROOT
BRANCH   2   3
HETATM    3  C   UNL     1      -7.975   5.567  66.310  1.00  0.00    -0.105 C  
BRANCH   3   4
HETATM    4  C   UNL     1      -7.073   6.219  65.260  1.00  0.00    -0.064 C  
BRANCH   4   5
HETATM    5  C   UNL     1      -7.836   6.580  63.981  1.00  0.00    -0.108 C  
BRANCH   5   6
HETATM    6  C   UNL     1      -7.443   7.935  63.450  1.00  0.00    -0.122 A  
HETATM    7  C   UNL     1      -8.403   8.771  62.863  1.00  0.00    -0.182 A  
HETATM    8  C   UNL     1      -6.717  10.449  62.444  1.00  0.00    -0.148 A  
HETATM    9  C   UNL     1      -8.041  10.023  62.365  1.00  0.00    -0.149 A  
HETATM   10  C   UNL     1      -6.114   8.372  63.521  1.00  0.00    -0.073 A  
HETATM   11  C   UNL     1      -5.754   9.624  63.022  1.00  0.00    -0.092 A  
ENDBRANCH   5   6
ENDBRANCH   4   5
ENDBRANCH   3   4
ENDBRANCH   2   3
BRANCH   2  12
HETATM   12  O   UNL     1      -8.855   7.507  67.327  1.00  0.00    -0.122 OA 
BRANCH  12  13
HETATM   13  C   UNL     1      -9.533   7.694  68.585  1.00  0.00    -0.151 C  
BRANCH  13  14
HETATM   14  C   UNL     1      -8.654   8.512  69.535  1.00  0.00    -0.131 C  
BRANCH  14  15
HETATM   15  O   UNL     1      -8.488   7.779  70.767  1.00  0.00    -0.118 OA 
BRANCH  15  16
HETATM   16  C   UNL     1      -7.475   8.190  71.575  1.00  0.00    -0.081 C  
HETATM   17  O   UNL     1      -7.499   9.166  72.309  1.00  0.00    -0.320 OA 
BRANCH  16  18
HETATM   18  C   UNL     1      -6.287   7.275  71.413  1.00  0.00    -0.036 C  
BRANCH  18  19
HETATM   19  C   UNL     1      -6.449   6.343  70.218  1.00  0.00    -0.040 C  
BRANCH  19  20
HETATM   20  C   UNL     1      -6.231   4.868  70.574  1.00  0.00    -0.019 C  
BRANCH  20  21
HETATM   21  C   UNL     1      -7.519   4.274  71.085  1.00  0.00    -0.051 A  
HETATM   22  C   UNL     1      -9.896   3.013  71.858  1.00  0.00    -0.236 A  
HETATM   23  C   UNL     1      -8.751   4.720  70.589  1.00  0.00    -0.134 A  
HETATM   24  C   UNL     1      -7.493   3.203  71.989  1.00  0.00    -0.052 A  
HETATM   25  C   UNL     1      -9.935   4.090  70.977  1.00  0.00    -0.176 A  
HETATM   26  C   UNL     1      -8.677   2.575  72.372  1.00  0.00    -0.085 A  
ENDBRANCH  20  21
ENDBRANCH  19  20
ENDBRANCH  18  19
ENDBRANCH  16  18
ENDBRANCH  15  16
ENDBRANCH  14  15
BRANCH  14  27
HETATM   27  C   UNL     1      -9.310   9.855  69.876  1.00  0.00    -0.216 C  
BRANCH  27  28
HETATM   28  O   UNL     1     -10.727   9.820  69.650  1.00  0.00    -0.216 OA 
BRANCH  28  29
HETATM   29  C   UNL     1     -11.223  10.895  68.975  1.00  0.00    -0.266 C  
HETATM   30  O   UNL     1     -12.402  11.218  68.946  1.00  0.00    -0.485 OA 
BRANCH  29  31
HETATM   31  C   UNL     1     -10.107  11.631  68.279  1.00  0.00    -0.206 C  
BRANCH  31  32
HETATM   32  C   UNL     1     -10.239  13.142  68.437  1.00  0.00    -0.247 C  
BRANCH  32  33
HETATM   33  C   UNL     1      -9.927  13.907  67.145  1.00  0.00    -0.239 C  
BRANCH  33  34
HETATM   34  C   UNL     1     -10.626  13.262  65.976  1.00  0.00    -0.292 A  
HETATM   35  C   UNL     1     -11.972  11.924  63.915  1.00  0.00    -0.503 A  
HETATM   36  C   UNL     1     -11.997  13.471  65.772  1.00  0.00    -0.439 A  
HETATM   37  C   UNL     1     -12.666  12.804  64.745  1.00  0.00    -0.469 A  
HETATM   38  C   UNL     1     -10.606  11.721  64.104  1.00  0.00    -0.403 A  
HETATM   39  C   UNL     1      -9.935  12.387  65.129  1.00  0.00    -0.219 A  
ENDBRANCH  33  34
ENDBRANCH  32  33
ENDBRANCH  31  32
ENDBRANCH  29  31
ENDBRANCH  28  29
ENDBRANCH  27  28
ENDBRANCH  14  27
ENDBRANCH  13  14
ENDBRANCH  12  13
ENDBRANCH   2  12
TORSDOF 20
ENDMDL
MODEL      372
REMARK 921   NORMALIZED FREE ENERGY PREDICTED BY IDOCK:   -2.11 KCAL/MOL
REMARK 922        TOTAL FREE ENERGY PREDICTED BY IDOCK:   -9.26 KCAL/MOL
REMARK 923 INTER-LIGAND FREE ENERGY PREDICTED BY IDOCK:   -6.61 KCAL/MOL
REMARK 924 INTRA-LIGAND FREE ENERGY PREDICTED BY IDOCK:   -2.65 KCAL/MOL
REMARK 927      BINDING AFFINITY PREDICTED BY RF-SCORE:    0.00 PKD
ROOT
HETATM    1  O   UNL     1      -7.048   9.441  66.793  1.00  0.00    -0.081 OA 
HETATM    2  C   UNL     1      -7.337  10.005  67.839  1.00  0.00    -0.088 C  
ENDROOT
BRANCH   2   3
HETATM    3  C   UNL     1      -8.389  11.081  67.961  1.00  0.00    -0.125 C  
BRANCH   3   4
HETATM    4  C   UNL     1      -8.891  11.557  66.596  1.00  0.00    -0.187 C  
BRANCH   4   5
HETATM    5  C   UNL     1     -10.263  12.234  66.686  1.00  0.00    -0.235 C  
BRANCH   5   6
HETATM    6  C   UNL     1     -10.321  13.252  67.797  1.00  0.00    -0.233 A  
HETATM    7  C   UNL     1      -9.299  14.201  67.941  1.00  0.00    -0.204 A  
HETATM    8  C   UNL     1     -10.411  15.136  69.872  1.00  0.00    -0.234 A  
HETATM    9  C   UNL     1      -9.347  15.140  68.973  1.00  0.00    -0.219 A  
HETATM   10  C   UNL     1     -11.384  13.253  68.709  1.00  0.00    -0.331 A  
HETATM   11  C   UNL     1     -11.429  14.192  69.740  1.00  0.00    -0.309 A  
ENDBRANCH   5   6
ENDBRANCH   4   5
ENDBRANCH   3   4
ENDBRANCH   2   3
BRANCH   2  12
HETATM   12  O   UNL     1      -6.762   9.761  69.049  1.00  0.00    -0.049 OA 
BRANCH  12  13
HETATM   13  C   UNL     1      -6.075   8.504  69.194  1.00  0.00    -0.042 C  
BRANCH  13  14
HETATM   14  C   UNL     1      -6.633   7.740  70.398  1.00  0.00    -0.038 C  
BRANCH  14  15
HETATM   15  O   UNL     1      -8.057   7.581  70.233  1.00  0.00    -0.108 OA 
BRANCH  15  16
HETATM   16  C   UNL     1      -8.456   6.548  69.444  1.00  0.00    -0.127 C  
HETATM   17  O   UNL     1      -8.981   6.651  68.346  1.00  0.00    -0.124 OA 
BRANCH  16  18
HETATM   18  C   UNL     1      -8.183   5.237  70.139  1.00  0.00    -0.091 C  
BRANCH  18  19
HETATM   19  C   UNL     1      -9.410   4.333  70.144  1.00  0.00    -0.228 C  
BRANCH  19  20
HETATM   20  C   UNL     1      -9.066   2.854  69.933  1.00  0.00    -0.191 C  
BRANCH  20  21
HETATM   21  C   UNL     1      -8.317   2.687  68.635  1.00  0.00    -0.086 A  
HETATM   22  C   UNL     1      -7.001   2.596  66.166  1.00  0.00    -0.052 A  
HETATM   23  C   UNL     1      -8.964   2.166  67.507  1.00  0.00    -0.183 A  
HETATM   24  C   UNL     1      -6.997   3.142  68.518  1.00  0.00    -0.049 A  
HETATM   25  C   UNL     1      -8.305   2.121  66.277  1.00  0.00    -0.095 A  
HETATM   26  C   UNL     1      -6.343   3.098  67.287  1.00  0.00    -0.036 A  
ENDBRANCH  20  21
ENDBRANCH  19  20
ENDBRANCH  18  19
ENDBRANCH  16  18
ENDBRANCH  15  16
ENDBRANCH  14  15
BRANCH  14  27
HETATM   27  C   UNL     1      -6.398   8.513  71.701  1.00  0.00    -0.064 C  
BRANCH  27  28
HETATM   28  O   UNL     1      -7.493   8.350  72.613  1.00  0.00    -0.175 OA 
BRANCH  28  29
HETATM   29  C   UNL     1      -7.220   7.573  73.699  1.00  0.00    -0.091 C  
HETATM   30  O   UNL     1      -6.402   7.844  74.565  1.00  0.00    -0.093 OA 
BRANCH  29  31
HETATM   31  C   UNL     1      -8.081   6.335  73.680  1.00  0.00    -0.109 C  
BRANCH  31  32
HETATM   32  C   UNL     1      -9.334   6.504  74.533  1.00  0.00    -0.253 C  
BRANCH  32  33
HETATM   33  C   UNL     1     -10.576   5.858  73.905  1.00  0.00    -0.248 C  
BRANCH  33  34
HETATM   34  C   UNL     1     -11.055   6.680  72.736  1.00  0.00    -0.283 A  
HETATM   35  C   UNL     1     -11.778   8.185  70.487  1.00  0.00    -0.067 A  
HETATM   36  C   UNL     1     -11.589   6.051  71.603  1.00  0.00    -0.263 A  
HETATM   37  C   UNL     1     -11.950   6.801  70.484  1.00  0.00    -0.385 A  
HETATM   38  C   UNL     1     -11.259   8.820  71.614  1.00  0.00    -0.394 A  
HETATM   39  C   UNL     1     -10.899   8.072  72.734  1.00  0.00    -0.438 A  
ENDBRANCH  33  34
ENDBRANCH  32  33
ENDBRANCH  31  32
ENDBRANCH  29  31
ENDBRANCH  28  29
ENDBRANCH  27  28
ENDBRANCH  14  27
ENDBRANCH  13  14
ENDBRANCH  12  13
ENDBRANCH   2  12
TORSDOF 20
ENDMDL
MODEL      373
REMARK 921   NORMALIZED FREE ENERGY PREDICTED BY IDOCK:   -2.11 KCAL/MOL
REMARK 922        TOTAL FREE ENERGY PREDICTED BY IDOCK:   -9.25 KCAL/MOL
REMARK 923 INTER-LIGAND FREE ENERGY PREDICTED BY IDOCK:   -7.05 KCAL/MOL
REMARK 924 INTRA-LIGAND FREE ENERGY PREDICTED BY IDOCK:   -2.20 KCAL/MOL
REMARK 927      BINDING AFFINITY PREDICTED BY RF-SCORE:    0.00 PKD
ROOT
HETATM    1  O   UNL     1      -6.069   9.215  72.997  1.00  0.00    -0.286 OA 
HETATM    2  C   UNL     1      -6.713   8.763  72.061  1.00  0.00    -0.034 C  
ENDROOT
BRANCH   2   3
HETATM    3  C   UNL     1      -8.222   8.735  72.003  1.00  0.00    -0.079 C  
BRANCH   3   4
HETATM    4  C   UNL     1      -8.827   7.878  73.116  1.00  0.00    -0.293 C  
BRANCH   4   5
HETATM    5  C   UNL     1      -9.929   6.947  72.598  1.00  0.00    -0.191 C  
BRANCH   5   6
HETATM    6  C   UNL     1     -11.173   7.704  72.207  1.00  0.00    -0.343 A  
HETATM    7  C   UNL     1     -12.415   7.054  72.171  1.00  0.00    -0.193 A  
HETATM    8  C   UNL     1     -13.489   9.100  71.463  1.00  0.00    -0.417 A  
HETATM    9  C   UNL     1     -13.567   7.751  71.803  1.00  0.00    -0.390 A  
HETATM   10  C   UNL     1     -11.105   9.059  71.859  1.00  0.00    -0.433 A  
HETATM   11  C   UNL     1     -12.258   9.754  71.491  1.00  0.00    -0.493 A  
ENDBRANCH   5   6
ENDBRANCH   4   5
ENDBRANCH   3   4
ENDBRANCH   2   3
BRANCH   2  12
HETATM   12  O   UNL     1      -6.183   8.215  70.932  1.00  0.00    -0.033 OA 
BRANCH  12  13
HETATM   13  C   UNL     1      -7.116   7.640  69.997  1.00  0.00    -0.059 C  
BRANCH  13  14
HETATM   14  C   UNL     1      -6.673   7.947  68.563  1.00  0.00    -0.062 C  
BRANCH  14  15
HETATM   15  O   UNL     1      -5.403   7.308  68.319  1.00  0.00    -0.019 OA 
BRANCH  15  16
HETATM   16  C   UNL     1      -5.326   6.541  67.198  1.00  0.00    -0.012 C  
HETATM   17  O   UNL     1      -5.147   6.954  66.063  1.00  0.00    -0.020 OA 
BRANCH  16  18
HETATM   18  C   UNL     1      -5.525   5.089  67.555  1.00  0.00    -0.012 C  
BRANCH  18  19
HETATM   19  C   UNL     1      -6.801   4.524  66.941  1.00  0.00    -0.052 C  
BRANCH  19  20
HETATM   20  C   UNL     1      -7.402   3.375  67.758  1.00  0.00    -0.058 C  
BRANCH  20  21
HETATM   21  C   UNL     1      -8.578   3.879  68.555  1.00  0.00    -0.117 A  
HETATM   22  C   UNL     1     -10.617   4.981  70.125  1.00  0.00    -0.115 A  
HETATM   23  C   UNL     1      -8.827   3.385  69.841  1.00  0.00    -0.152 A  
HETATM   24  C   UNL     1      -9.376   4.917  68.055  1.00  0.00    -0.160 A  
HETATM   25  C   UNL     1      -9.845   3.935  70.622  1.00  0.00    -0.193 A  
HETATM   26  C   UNL     1     -10.391   5.466  68.838  1.00  0.00    -0.260 A  
ENDBRANCH  20  21
ENDBRANCH  19  20
ENDBRANCH  18  19
ENDBRANCH  16  18
ENDBRANCH  15  16
ENDBRANCH  14  15
BRANCH  14  27
HETATM   27  C   UNL     1      -6.485   9.454  68.353  1.00  0.00    -0.053 C  
BRANCH  27  28
HETATM   28  O   UNL     1      -7.619  10.195  68.824  1.00  0.00    -0.081 OA 
BRANCH  28  29
HETATM   29  C   UNL     1      -7.971  11.256  68.044  1.00  0.00    -0.119 C  
HETATM   30  O   UNL     1      -7.212  12.148  67.694  1.00  0.00    -0.101 OA 
BRANCH  29  31
HETATM   31  C   UNL     1      -9.428  11.164  67.669  1.00  0.00    -0.173 C  
BRANCH  31  32
HETATM   32  C   UNL     1      -9.978  12.506  67.198  1.00  0.00    -0.217 C  
BRANCH  32  33
HETATM   33  C   UNL     1     -10.388  13.423  68.357  1.00  0.00    -0.253 C  
BRANCH  33  34
HETATM   34  C   UNL     1      -9.995  14.847  68.059  1.00  0.00    -0.220 A  
HETATM   35  C   UNL     1      -9.435  17.521  67.440  1.00  0.00    -0.255 A  
HETATM   36  C   UNL     1     -10.249  15.860  68.994  1.00  0.00    -0.227 A  
HETATM   37  C   UNL     1      -9.970  17.191  68.685  1.00  0.00    -0.313 A  
HETATM   38  C   UNL     1      -9.168  16.519  66.509  1.00  0.00    -0.300 A  
HETATM   39  C   UNL     1      -9.445  15.187  66.816  1.00  0.00    -0.260 A  
ENDBRANCH  33  34
ENDBRANCH  32  33
ENDBRANCH  31  32
ENDBRANCH  29  31
ENDBRANCH  28  29
ENDBRANCH  27  28
ENDBRANCH  14  27
ENDBRANCH  13  14
ENDBRANCH  12  13
ENDBRANCH   2  12
TORSDOF 20
ENDMDL
MODEL      374
REMARK 921   NORMALIZED FREE ENERGY PREDICTED BY IDOCK:   -2.10 KCAL/MOL
REMARK 922        TOTAL FREE ENERGY PREDICTED BY IDOCK:   -9.23 KCAL/MOL
REMARK 923 INTER-LIGAND FREE ENERGY PREDICTED BY IDOCK:   -6.20 KCAL/MOL
REMARK 924 INTRA-LIGAND FREE ENERGY PREDICTED BY IDOCK:   -3.03 KCAL/MOL
REMARK 927      BINDING AFFINITY PREDICTED BY RF-SCORE:    0.00 PKD
ROOT
HETATM    1  O   UNL     1      -9.705  18.579  69.931  1.00  0.00     0.531 OA 
HETATM    2  C   UNL     1      -8.759  18.026  69.387  1.00  0.00     0.481 C  
ENDROOT
BRANCH   2   3
HETATM    3  C   UNL     1      -7.379  18.627  69.268  1.00  0.00    -0.116 C  
BRANCH   3   4
HETATM    4  C   UNL     1      -6.319  17.789  69.986  1.00  0.00     0.072 C  
BRANCH   4   5
HETATM    5  C   UNL     1      -5.428  17.018  69.007  1.00  0.00    -0.144 C  
BRANCH   5   6
HETATM    6  C   UNL     1      -5.799  15.558  68.932  1.00  0.00    -0.102 A  
HETATM    7  C   UNL     1      -5.759  14.758  70.083  1.00  0.00    -0.129 A  
HETATM    8  C   UNL     1      -6.471  12.839  68.799  1.00  0.00    -0.085 A  
HETATM    9  C   UNL     1      -6.096  13.406  70.016  1.00  0.00    -0.125 A  
HETATM   10  C   UNL     1      -6.173  14.977  67.714  1.00  0.00    -0.168 A  
HETATM   11  C   UNL     1      -6.509  13.625  67.649  1.00  0.00    -0.164 A  
ENDBRANCH   5   6
ENDBRANCH   4   5
ENDBRANCH   3   4
ENDBRANCH   2   3
BRANCH   2  12
HETATM   12  O   UNL     1      -8.794  16.796  68.805  1.00  0.00    -0.252 OA 
BRANCH  12  13
HETATM   13  C   UNL     1      -9.259  15.708  69.627  1.00  0.00    -0.189 C  
BRANCH  13  14
HETATM   14  C   UNL     1     -10.636  15.242  69.146  1.00  0.00    -0.250 C  
BRANCH  14  15
HETATM   15  O   UNL     1     -10.490  13.981  68.460  1.00  0.00    -0.238 OA 
BRANCH  15  16
HETATM   16  C   UNL     1     -11.205  12.940  68.965  1.00  0.00    -0.267 C  
HETATM   17  O   UNL     1     -11.450  12.750  70.147  1.00  0.00    -0.116 OA 
BRANCH  16  18
HETATM   18  C   UNL     1     -11.635  12.023  67.848  1.00  0.00    -0.405 C  
BRANCH  18  19
HETATM   19  C   UNL     1     -10.517  11.802  66.835  1.00  0.00    -0.256 C  
BRANCH  19  20
HETATM   20  C   UNL     1     -10.244  10.319  66.558  1.00  0.00    -0.289 C  
BRANCH  20  21
HETATM   21  C   UNL     1      -8.994  10.180  65.726  1.00  0.00    -0.187 A  
HETATM   22  C   UNL     1      -6.694  10.152  64.130  1.00  0.00    -0.107 A  
HETATM   23  C   UNL     1      -9.081   9.862  64.365  1.00  0.00    -0.299 A  
HETATM   24  C   UNL     1      -7.740  10.463  66.284  1.00  0.00    -0.129 A  
HETATM   25  C   UNL     1      -7.933   9.848  63.572  1.00  0.00    -0.155 A  
HETATM   26  C   UNL     1      -6.595  10.450  65.488  1.00  0.00    -0.125 A  
ENDBRANCH  20  21
ENDBRANCH  19  20
ENDBRANCH  18  19
ENDBRANCH  16  18
ENDBRANCH  15  16
ENDBRANCH  14  15
BRANCH  14  27
HETATM   27  C   UNL     1     -11.245  16.243  68.158  1.00  0.00    -0.298 C  
BRANCH  27  28
HETATM   28  O   UNL     1     -10.972  15.871  66.799  1.00  0.00    -0.271 OA 
BRANCH  28  29
HETATM   29  C   UNL     1     -10.292  16.805  66.077  1.00  0.00    -0.335 C  
HETATM   30  O   UNL     1      -9.503  16.556  65.177  1.00  0.00    -0.045 OA 
BRANCH  29  31
HETATM   31  C   UNL     1     -10.662  18.191  66.543  1.00  0.00    -0.173 C  
BRANCH  31  32
HETATM   32  C   UNL     1      -9.936  19.269  65.745  1.00  0.00    -0.127 C  
BRANCH  32  33
HETATM   33  C   UNL     1      -8.727  19.851  66.490  1.00  0.00    -0.406 C  
BRANCH  33  34
HETATM   34  C   UNL     1      -7.462  19.586  65.716  1.00  0.00    -0.276 A  
HETATM   35  C   UNL     1      -5.214  19.017  64.145  1.00  0.00    -0.265 A  
HETATM   36  C   UNL     1      -7.018  20.504  64.754  1.00  0.00    -0.050 A  
HETATM   37  C   UNL     1      -5.898  20.219  63.973  1.00  0.00    -0.314 A  
HETATM   38  C   UNL     1      -5.642  18.104  65.107  1.00  0.00    -0.111 A  
HETATM   39  C   UNL     1      -6.760  18.386  65.891  1.00  0.00    -0.312 A  
ENDBRANCH  33  34
ENDBRANCH  32  33
ENDBRANCH  31  32
ENDBRANCH  29  31
ENDBRANCH  28  29
ENDBRANCH  27  28
ENDBRANCH  14  27
ENDBRANCH  13  14
ENDBRANCH  12  13
ENDBRANCH   2  12
TORSDOF 20
ENDMDL
MODEL      375
REMARK 921   NORMALIZED FREE ENERGY PREDICTED BY IDOCK:   -2.02 KCAL/MOL
REMARK 922        TOTAL FREE ENERGY PREDICTED BY IDOCK:   -9.06 KCAL/MOL
REMARK 923 INTER-LIGAND FREE ENERGY PREDICTED BY IDOCK:   -6.67 KCAL/MOL
REMARK 924 INTRA-LIGAND FREE ENERGY PREDICTED BY IDOCK:   -2.39 KCAL/MOL
REMARK 927      BINDING AFFINITY PREDICTED BY RF-SCORE:    0.00 PKD
ROOT
HETATM    1  O   UNL     1     -11.752   9.652  69.669  1.00  0.00    -0.019 OA 
HETATM    2  C   UNL     1     -10.950  10.355  69.071  1.00  0.00    -0.238 C  
ENDROOT
BRANCH   2   3
HETATM    3  C   UNL     1     -10.703  10.285  67.583  1.00  0.00    -0.339 C  
BRANCH   3   4
HETATM    4  C   UNL     1     -10.214   8.905  67.141  1.00  0.00    -0.339 C  
BRANCH   4   5
HETATM    5  C   UNL     1      -8.876   8.973  66.396  1.00  0.00    -0.172 C  
BRANCH   5   6
HETATM    6  C   UNL     1      -8.090   7.693  66.524  1.00  0.00    -0.119 A  
HETATM    7  C   UNL     1      -8.038   6.785  65.457  1.00  0.00    -0.128 A  
HETATM    8  C   UNL     1      -6.645   5.302  66.760  1.00  0.00    -0.052 A  
HETATM    9  C   UNL     1      -7.316   5.597  65.575  1.00  0.00    -0.073 A  
HETATM   10  C   UNL     1      -7.416   7.385  67.713  1.00  0.00    -0.101 A  
HETATM   11  C   UNL     1      -6.695   6.196  67.829  1.00  0.00    -0.061 A  
ENDBRANCH   5   6
ENDBRANCH   4   5
ENDBRANCH   3   4
ENDBRANCH   2   3
BRANCH   2  12
HETATM   12  O   UNL     1     -10.154  11.301  69.641  1.00  0.00     0.103 OA 
BRANCH  12  13
HETATM   13  C   UNL     1      -8.739  11.184  69.399  1.00  0.00     0.321 C  
BRANCH  13  14
HETATM   14  C   UNL     1      -8.265  12.337  68.508  1.00  0.00    -0.096 C  
BRANCH  14  15
HETATM   15  O   UNL     1      -6.929  12.713  68.900  1.00  0.00    -0.096 OA 
BRANCH  15  16
HETATM   16  C   UNL     1      -6.260  13.527  68.040  1.00  0.00    -0.136 C  
HETATM   17  O   UNL     1      -6.430  13.579  66.831  1.00  0.00     0.127 OA 
BRANCH  16  18
HETATM   18  C   UNL     1      -5.244  14.346  68.794  1.00  0.00    -0.089 C  
BRANCH  18  19
HETATM   19  C   UNL     1      -5.126  15.759  68.232  1.00  0.00    -0.102 C  
BRANCH  19  20
HETATM   20  C   UNL     1      -6.482  16.457  68.077  1.00  0.00    -0.147 C  
BRANCH  20  21
HETATM   21  C   UNL     1      -6.319  17.939  68.298  1.00  0.00    -0.187 A  
HETATM   22  C   UNL     1      -5.799  20.644  68.799  1.00  0.00    -0.384 A  
HETATM   23  C   UNL     1      -6.692  18.519  69.518  1.00  0.00    -0.140 A  
HETATM   24  C   UNL     1      -5.702  18.735  67.324  1.00  0.00    -0.152 A  
HETATM   25  C   UNL     1      -6.433  19.868  69.764  1.00  0.00    -0.391 A  
HETATM   26  C   UNL     1      -5.442  20.082  67.574  1.00  0.00    -0.185 A  
ENDBRANCH  20  21
ENDBRANCH  19  20
ENDBRANCH  18  19
ENDBRANCH  16  18
ENDBRANCH  15  16
ENDBRANCH  14  15
BRANCH  14  27
HETATM   27  C   UNL     1      -9.164  13.568  68.672  1.00  0.00    -0.022 C  
BRANCH  27  28
HETATM   28  O   UNL     1     -10.430  13.384  68.024  1.00  0.00    -0.227 OA 
BRANCH  28  29
HETATM   29  C   UNL     1     -11.484  13.977  68.652  1.00  0.00    -0.302 C  
HETATM   30  O   UNL     1     -12.072  13.513  69.619  1.00  0.00    -0.316 OA 
BRANCH  29  31
HETATM   31  C   UNL     1     -11.812  15.290  67.989  1.00  0.00    -0.176 C  
BRANCH  31  32
HETATM   32  C   UNL     1     -11.471  16.477  68.883  1.00  0.00    -0.131 C  
BRANCH  32  33
HETATM   33  C   UNL     1     -10.007  16.920  68.753  1.00  0.00    -0.276 C  
BRANCH  33  34
HETATM   34  C   UNL     1      -9.928  18.272  68.094  1.00  0.00    -0.377 A  
HETATM   35  C   UNL     1      -9.597  20.776  66.883  1.00  0.00    -0.330 A  
HETATM   36  C   UNL     1      -9.747  18.371  66.707  1.00  0.00    -0.331 A  
HETATM   37  C   UNL     1      -9.582  19.619  66.106  1.00  0.00    -0.464 A  
HETATM   38  C   UNL     1      -9.788  20.687  68.260  1.00  0.00    -0.008 A  
HETATM   39  C   UNL     1      -9.954  19.442  68.864  1.00  0.00    -0.519 A  
ENDBRANCH  33  34
ENDBRANCH  32  33
ENDBRANCH  31  32
ENDBRANCH  29  31
ENDBRANCH  28  29
ENDBRANCH  27  28
ENDBRANCH  14  27
ENDBRANCH  13  14
ENDBRANCH  12  13
ENDBRANCH   2  12
TORSDOF 20
ENDMDL
MODEL      376
REMARK 921   NORMALIZED FREE ENERGY PREDICTED BY IDOCK:   -2.00 KCAL/MOL
REMARK 922        TOTAL FREE ENERGY PREDICTED BY IDOCK:   -9.03 KCAL/MOL
REMARK 923 INTER-LIGAND FREE ENERGY PREDICTED BY IDOCK:   -6.76 KCAL/MOL
REMARK 924 INTRA-LIGAND FREE ENERGY PREDICTED BY IDOCK:   -2.27 KCAL/MOL
REMARK 927      BINDING AFFINITY PREDICTED BY RF-SCORE:    0.00 PKD
ROOT
HETATM    1  O   UNL     1     -11.281  10.248  68.142  1.00  0.00    -0.278 OA 
HETATM    2  C   UNL     1     -10.078  10.045  68.217  1.00  0.00    -0.158 C  
ENDROOT
BRANCH   2   3
HETATM    3  C   UNL     1      -9.028  11.127  68.142  1.00  0.00    -0.159 C  
BRANCH   3   4
HETATM    4  C   UNL     1      -9.643  12.523  68.019  1.00  0.00    -0.212 C  
BRANCH   4   5
HETATM    5  C   UNL     1      -9.245  13.220  66.713  1.00  0.00    -0.237 C  
BRANCH   5   6
HETATM    6  C   UNL     1      -8.714  14.610  66.953  1.00  0.00    -0.251 A  
HETATM    7  C   UNL     1      -7.492  14.796  67.616  1.00  0.00    -0.203 A  
HETATM    8  C   UNL     1      -7.727  17.193  67.420  1.00  0.00    -0.191 A  
HETATM    9  C   UNL     1      -7.001  16.082  67.845  1.00  0.00    -0.151 A  
HETATM   10  C   UNL     1      -9.437  15.734  66.534  1.00  0.00    -0.298 A  
HETATM   11  C   UNL     1      -8.945  17.019  66.764  1.00  0.00    -0.267 A  
ENDBRANCH   5   6
ENDBRANCH   4   5
ENDBRANCH   3   4
ENDBRANCH   2   3
BRANCH   2  12
HETATM   12  O   UNL     1      -9.493   8.825  68.374  1.00  0.00    -0.140 OA 
BRANCH  12  13
HETATM   13  C   UNL     1     -10.368   7.681  68.323  1.00  0.00    -0.198 C  
BRANCH  13  14
HETATM   14  C   UNL     1     -10.291   6.907  69.643  1.00  0.00    -0.206 C  
BRANCH  14  15
HETATM   15  O   UNL     1     -10.104   5.506  69.353  1.00  0.00    -0.193 OA 
BRANCH  15  16
HETATM   16  C   UNL     1      -8.816   5.087  69.237  1.00  0.00    -0.091 C  
HETATM   17  O   UNL     1      -8.033   5.424  68.362  1.00  0.00    -0.087 OA 
BRANCH  16  18
HETATM   18  C   UNL     1      -8.493   4.110  70.340  1.00  0.00    -0.098 C  
BRANCH  18  19
HETATM   19  C   UNL     1      -9.477   4.220  71.500  1.00  0.00    -0.220 C  
BRANCH  19  20
HETATM   20  C   UNL     1      -8.794   4.173  72.871  1.00  0.00    -0.109 C  
BRANCH  20  21
HETATM   21  C   UNL     1      -7.860   5.349  73.014  1.00  0.00    -0.098 A  
HETATM   22  C   UNL     1      -6.086   7.514  73.045  1.00  0.00    -0.055 A  
HETATM   23  C   UNL     1      -6.499   5.144  73.270  1.00  0.00    -0.061 A  
HETATM   24  C   UNL     1      -8.327   6.651  72.795  1.00  0.00    -0.120 A  
HETATM   25  C   UNL     1      -5.616   6.226  73.286  1.00  0.00    -0.038 A  
HETATM   26  C   UNL     1      -7.443   7.729  72.809  1.00  0.00    -0.121 A  
ENDBRANCH  20  21
ENDBRANCH  19  20
ENDBRANCH  18  19
ENDBRANCH  16  18
ENDBRANCH  15  16
ENDBRANCH  14  15
BRANCH  14  27
HETATM   27  C   UNL     1     -11.592   7.048  70.442  1.00  0.00    -0.295 C  
BRANCH  27  28
HETATM   28  O   UNL     1     -11.821   8.409  70.835  1.00  0.00    -0.283 OA 
BRANCH  28  29
HETATM   29  C   UNL     1     -12.713   8.566  71.853  1.00  0.00    -0.360 C  
HETATM   30  O   UNL     1     -12.611   8.053  72.958  1.00  0.00     0.024 OA 
BRANCH  29  31
HETATM   31  C   UNL     1     -13.839   9.471  71.422  1.00  0.00    -0.225 C  
BRANCH  31  32
HETATM   32  C   UNL     1     -13.683  10.879  71.988  1.00  0.00     0.021 C  
BRANCH  32  33
HETATM   33  C   UNL     1     -12.695  11.737  71.188  1.00  0.00    -0.405 C  
BRANCH  33  34
HETATM   34  C   UNL     1     -12.835  13.188  71.572  1.00  0.00    -0.401 A  
HETATM   35  C   UNL     1     -13.145  15.827  72.456  1.00  0.00    -0.558 A  
HETATM   36  C   UNL     1     -11.766  13.863  72.178  1.00  0.00     1.189 A  
HETATM   37  C   UNL     1     -11.922  15.177  72.618  1.00  0.00    -0.486 A  
HETATM   38  C   UNL     1     -14.209  15.167  71.844  1.00  0.00    -0.676 A  
HETATM   39  C   UNL     1     -14.055  13.853  71.403  1.00  0.00    -0.065 A  
ENDBRANCH  33  34
ENDBRANCH  32  33
ENDBRANCH  31  32
ENDBRANCH  29  31
ENDBRANCH  28  29
ENDBRANCH  27  28
ENDBRANCH  14  27
ENDBRANCH  13  14
ENDBRANCH  12  13
ENDBRANCH   2  12
TORSDOF 20
ENDMDL
MODEL      377
REMARK 921   NORMALIZED FREE ENERGY PREDICTED BY IDOCK:   -1.95 KCAL/MOL
REMARK 922        TOTAL FREE ENERGY PREDICTED BY IDOCK:   -8.92 KCAL/MOL
REMARK 923 INTER-LIGAND FREE ENERGY PREDICTED BY IDOCK:   -6.92 KCAL/MOL
REMARK 924 INTRA-LIGAND FREE ENERGY PREDICTED BY IDOCK:   -2.00 KCAL/MOL
REMARK 927      BINDING AFFINITY PREDICTED BY RF-SCORE:    0.00 PKD
ROOT
HETATM    1  O   UNL     1     -10.873  10.492  70.237  1.00  0.00    -0.279 OA 
HETATM    2  C   UNL     1     -10.356  10.378  69.135  1.00  0.00    -0.222 C  
ENDROOT
BRANCH   2   3
HETATM    3  C   UNL     1     -10.639  11.290  67.965  1.00  0.00    -0.230 C  
BRANCH   3   4
HETATM    4  C   UNL     1     -11.626  12.402  68.324  1.00  0.00    -0.384 C  
BRANCH   4   5
HETATM    5  C   UNL     1     -12.020  13.245  67.107  1.00  0.00    -0.400 C  
BRANCH   5   6
HETATM    6  C   UNL     1     -11.066  14.391  66.878  1.00  0.00    -0.325 A  
HETATM    7  C   UNL     1     -11.048  15.062  65.647  1.00  0.00    -0.349 A  
HETATM    8  C   UNL     1      -9.284  16.511  66.439  1.00  0.00    -0.327 A  
HETATM    9  C   UNL     1     -10.163  16.118  65.431  1.00  0.00    -0.294 A  
HETATM   10  C   UNL     1     -10.176  14.791  67.883  1.00  0.00    -0.229 A  
HETATM   11  C   UNL     1      -9.291  15.847  67.664  1.00  0.00    -0.217 A  
ENDBRANCH   5   6
ENDBRANCH   4   5
ENDBRANCH   3   4
ENDBRANCH   2   3
BRANCH   2  12
HETATM   12  O   UNL     1      -9.452   9.422  68.785  1.00  0.00    -0.147 OA 
BRANCH  12  13
HETATM   13  C   UNL     1      -9.932   8.064  68.754  1.00  0.00    -0.189 C  
BRANCH  13  14
HETATM   14  C   UNL     1      -9.012   7.167  69.588  1.00  0.00    -0.141 C  
BRANCH  14  15
HETATM   15  O   UNL     1      -8.357   7.971  70.591  1.00  0.00    -0.117 OA 
BRANCH  15  16
HETATM   16  C   UNL     1      -8.946   7.996  71.816  1.00  0.00    -0.147 C  
HETATM   17  O   UNL     1      -8.945   8.942  72.589  1.00  0.00    -0.337 OA 
BRANCH  16  18
HETATM   18  C   UNL     1      -9.586   6.661  72.104  1.00  0.00    -0.149 C  
BRANCH  18  19
HETATM   19  C   UNL     1     -10.525   6.730  73.304  1.00  0.00    -0.321 C  
BRANCH  19  20
HETATM   20  C   UNL     1     -10.214   5.675  74.371  1.00  0.00    -0.295 C  
BRANCH  20  21
HETATM   21  C   UNL     1      -9.699   4.421  73.710  1.00  0.00    -0.153 A  
HETATM   22  C   UNL     1      -8.743   2.214  72.278  1.00  0.00    -0.085 A  
HETATM   23  C   UNL     1     -10.592   3.490  73.164  1.00  0.00    -0.269 A  
HETATM   24  C   UNL     1      -8.321   4.223  73.550  1.00  0.00    -0.093 A  
HETATM   25  C   UNL     1     -10.113   2.390  72.451  1.00  0.00    -0.230 A  
HETATM   26  C   UNL     1      -7.845   3.124  72.835  1.00  0.00    -0.056 A  
ENDBRANCH  20  21
ENDBRANCH  19  20
ENDBRANCH  18  19
ENDBRANCH  16  18
ENDBRANCH  15  16
ENDBRANCH  14  15
BRANCH  14  27
HETATM   27  C   UNL     1      -7.923   6.530  68.717  1.00  0.00    -0.111 C  
BRANCH  27  28
HETATM   28  O   UNL     1      -6.677   7.231  68.838  1.00  0.00    -0.055 OA 
BRANCH  28  29
HETATM   29  C   UNL     1      -6.389   8.064  67.798  1.00  0.00    -0.052 C  
HETATM   30  O   UNL     1      -6.631   9.262  67.775  1.00  0.00    -0.062 OA 
BRANCH  29  31
HETATM   31  C   UNL     1      -5.721   7.296  66.687  1.00  0.00    -0.024 C  
BRANCH  31  32
HETATM   32  C   UNL     1      -6.300   7.654  65.322  1.00  0.00    -0.038 C  
BRANCH  32  33
HETATM   33  C   UNL     1      -6.295   6.472  64.343  1.00  0.00    -0.037 C  
BRANCH  33  34
HETATM   34  C   UNL     1      -7.085   5.321  64.912  1.00  0.00    -0.058 A  
HETATM   35  C   UNL     1      -8.511   3.246  66.138  1.00  0.00    -0.111 A  
HETATM   36  C   UNL     1      -8.436   5.489  65.242  1.00  0.00    -0.147 A  
HETATM   37  C   UNL     1      -9.146   4.454  65.853  1.00  0.00    -0.133 A  
HETATM   38  C   UNL     1      -7.171   3.067  65.802  1.00  0.00    -0.070 A  
HETATM   39  C   UNL     1      -6.460   4.099  65.191  1.00  0.00    -0.035 A  
ENDBRANCH  33  34
ENDBRANCH  32  33
ENDBRANCH  31  32
ENDBRANCH  29  31
ENDBRANCH  28  29
ENDBRANCH  27  28
ENDBRANCH  14  27
ENDBRANCH  13  14
ENDBRANCH  12  13
ENDBRANCH   2  12
TORSDOF 20
ENDMDL
MODEL      378
REMARK 921   NORMALIZED FREE ENERGY PREDICTED BY IDOCK:   -1.94 KCAL/MOL
REMARK 922        TOTAL FREE ENERGY PREDICTED BY IDOCK:   -8.89 KCAL/MOL
REMARK 923 INTER-LIGAND FREE ENERGY PREDICTED BY IDOCK:   -7.56 KCAL/MOL
REMARK 924 INTRA-LIGAND FREE ENERGY PREDICTED BY IDOCK:   -1.33 KCAL/MOL
REMARK 927      BINDING AFFINITY PREDICTED BY RF-SCORE:    0.00 PKD
ROOT
HETATM    1  O   UNL     1     -10.615   6.022  68.474  1.00  0.00    -0.210 OA 
HETATM    2  C   UNL     1      -9.850   6.500  67.648  1.00  0.00    -0.125 C  
ENDROOT
BRANCH   2   3
HETATM    3  C   UNL     1      -8.522   5.890  67.267  1.00  0.00    -0.103 C  
BRANCH   3   4
HETATM    4  C   UNL     1      -7.391   6.349  68.188  1.00  0.00    -0.089 C  
BRANCH   4   5
HETATM    5  C   UNL     1      -7.588   5.873  69.632  1.00  0.00    -0.081 C  
BRANCH   5   6
HETATM    6  C   UNL     1      -6.754   4.657  69.947  1.00  0.00    -0.037 A  
HETATM    7  C   UNL     1      -6.374   4.383  71.269  1.00  0.00    -0.019 A  
HETATM    8  C   UNL     1      -5.189   2.407  70.540  1.00  0.00    -0.004 A  
HETATM    9  C   UNL     1      -5.597   3.261  71.562  1.00  0.00    -0.008 A  
HETATM   10  C   UNL     1      -6.336   3.794  68.926  1.00  0.00    -0.032 A  
HETATM   11  C   UNL     1      -5.559   2.674  69.222  1.00  0.00    -0.018 A  
ENDBRANCH   5   6
ENDBRANCH   4   5
ENDBRANCH   3   4
ENDBRANCH   2   3
BRANCH   2  12
HETATM   12  O   UNL     1     -10.067   7.646  66.945  1.00  0.00    -0.232 OA 
BRANCH  12  13
HETATM   13  C   UNL     1     -11.028   8.567  67.496  1.00  0.00     0.165 C  
BRANCH  13  14
HETATM   14  C   UNL     1     -10.576  10.008  67.242  1.00  0.00    -0.257 C  
BRANCH  14  15
HETATM   15  O   UNL     1     -11.464  10.907  67.937  1.00  0.00    -0.412 OA 
BRANCH  15  16
HETATM   16  C   UNL     1     -10.983  11.452  69.086  1.00  0.00    -0.236 C  
HETATM   17  O   UNL     1      -9.823  11.779  69.289  1.00  0.00     0.123 OA 
BRANCH  16  18
HETATM   18  C   UNL     1     -12.092  11.573  70.101  1.00  0.00    -0.432 C  
BRANCH  18  19
HETATM   19  C   UNL     1     -12.086  10.410  71.087  1.00  0.00    -0.487 C  
BRANCH  19  20
HETATM   20  C   UNL     1     -10.747   9.664  71.126  1.00  0.00    -0.365 C  
BRANCH  20  21
HETATM   21  C   UNL     1     -10.989   8.200  71.397  1.00  0.00    -0.282 A  
HETATM   22  C   UNL     1     -11.452   5.539  72.131  1.00  0.00    -0.172 A  
HETATM   23  C   UNL     1      -9.914   7.343  71.668  1.00  0.00    -0.193 A  
HETATM   24  C   UNL     1     -12.297   7.704  71.477  1.00  0.00    -0.356 A  
HETATM   25  C   UNL     1     -10.148   6.017  72.033  1.00  0.00    -0.215 A  
HETATM   26  C   UNL     1     -12.527   6.379  71.844  1.00  0.00    -0.219 A  
ENDBRANCH  20  21
ENDBRANCH  19  20
ENDBRANCH  18  19
ENDBRANCH  16  18
ENDBRANCH  15  16
ENDBRANCH  14  15
BRANCH  14  27
HETATM   27  C   UNL     1     -10.640  10.351  65.749  1.00  0.00    -0.030 C  
BRANCH  27  28
HETATM   28  O   UNL     1     -11.608  11.377  65.487  1.00  0.00    -0.079 OA 
BRANCH  28  29
HETATM   29  C   UNL     1     -11.080  12.608  65.233  1.00  0.00    -0.295 C  
HETATM   30  O   UNL     1     -10.167  12.829  64.451  1.00  0.00    -0.350 OA 
BRANCH  29  31
HETATM   31  C   UNL     1     -11.792  13.657  66.048  1.00  0.00    -0.415 C  
BRANCH  31  32
HETATM   32  C   UNL     1     -12.209  14.851  65.196  1.00  0.00    -0.114 C  
BRANCH  32  33
HETATM   33  C   UNL     1     -11.042  15.797  64.884  1.00  0.00    -0.411 C  
BRANCH  33  34
HETATM   34  C   UNL     1     -10.416  16.291  66.163  1.00  0.00    -0.330 A  
HETATM   35  C   UNL     1      -9.349  17.367  68.519  1.00  0.00    -0.281 A  
HETATM   36  C   UNL     1     -11.075  16.111  67.386  1.00  0.00    -0.134 A  
HETATM   37  C   UNL     1     -10.543  16.647  68.559  1.00  0.00    -0.338 A  
HETATM   38  C   UNL     1      -8.681  17.540  67.309  1.00  0.00    -0.236 A  
HETATM   39  C   UNL     1      -9.210  17.004  66.135  1.00  0.00    -0.244 A  
ENDBRANCH  33  34
ENDBRANCH  32  33
ENDBRANCH  31  32
ENDBRANCH  29  31
ENDBRANCH  28  29
ENDBRANCH  27  28
ENDBRANCH  14  27
ENDBRANCH  13  14
ENDBRANCH  12  13
ENDBRANCH   2  12
TORSDOF 20
ENDMDL
MODEL      379
REMARK 921   NORMALIZED FREE ENERGY PREDICTED BY IDOCK:   -1.80 KCAL/MOL
REMARK 922        TOTAL FREE ENERGY PREDICTED BY IDOCK:   -8.59 KCAL/MOL
REMARK 923 INTER-LIGAND FREE ENERGY PREDICTED BY IDOCK:   -6.00 KCAL/MOL
REMARK 924 INTRA-LIGAND FREE ENERGY PREDICTED BY IDOCK:   -2.59 KCAL/MOL
REMARK 927      BINDING AFFINITY PREDICTED BY RF-SCORE:    0.00 PKD
ROOT
HETATM    1  O   UNL     1     -10.846   5.165  68.981  1.00  0.00    -0.014 OA 
HETATM    2  C   UNL     1     -10.701   6.032  69.831  1.00  0.00    -0.325 C  
ENDROOT
BRANCH   2   3
HETATM    3  C   UNL     1      -9.930   5.842  71.115  1.00  0.00    -0.244 C  
BRANCH   3   4
HETATM    4  C   UNL     1      -8.909   4.708  71.014  1.00  0.00    -0.149 C  
BRANCH   4   5
HETATM    5  C   UNL     1      -7.468   5.208  71.167  1.00  0.00    -0.079 C  
BRANCH   5   6
HETATM    6  C   UNL     1      -7.357   6.308  72.192  1.00  0.00    -0.093 A  
HETATM    7  C   UNL     1      -7.121   5.997  73.539  1.00  0.00    -0.085 A  
HETATM    8  C   UNL     1      -7.166   8.345  74.110  1.00  0.00    -0.194 A  
HETATM    9  C   UNL     1      -7.024   7.013  74.492  1.00  0.00    -0.096 A  
HETATM   10  C   UNL     1      -7.501   7.650  71.820  1.00  0.00    -0.081 A  
HETATM   11  C   UNL     1      -7.404   8.664  72.774  1.00  0.00     0.018 A  
ENDBRANCH   5   6
ENDBRANCH   4   5
ENDBRANCH   3   4
ENDBRANCH   2   3
BRANCH   2  12
HETATM   12  O   UNL     1     -11.206   7.295  69.761  1.00  0.00    -0.219 OA 
BRANCH  12  13
HETATM   13  C   UNL     1     -10.307   8.324  69.306  1.00  0.00    -0.218 C  
BRANCH  13  14
HETATM   14  C   UNL     1     -10.163   8.255  67.783  1.00  0.00    -0.223 C  
BRANCH  14  15
HETATM   15  O   UNL     1      -8.822   8.644  67.421  1.00  0.00    -0.132 OA 
BRANCH  15  16
HETATM   16  C   UNL     1      -7.819   7.881  67.933  1.00  0.00    -0.127 C  
HETATM   17  O   UNL     1      -7.849   6.668  68.075  1.00  0.00    -0.109 OA 
BRANCH  16  18
HETATM   18  C   UNL     1      -6.659   8.758  68.332  1.00  0.00    -0.060 C  
BRANCH  18  19
HETATM   19  C   UNL     1      -6.425   9.880  67.327  1.00  0.00    -0.069 C  
BRANCH  19  20
HETATM   20  C   UNL     1      -5.556   9.450  66.140  1.00  0.00    -0.048 C  
BRANCH  20  21
HETATM   21  C   UNL     1      -6.169   9.947  64.855  1.00  0.00    -0.105 A  
HETATM   22  C   UNL     1      -7.300  10.645  62.392  1.00  0.00    -0.150 A  
HETATM   23  C   UNL     1      -5.353  10.348  63.790  1.00  0.00    -0.150 A  
HETATM   24  C   UNL     1      -7.559   9.921  64.680  1.00  0.00    -0.139 A  
HETATM   25  C   UNL     1      -5.919  10.696  62.562  1.00  0.00    -0.147 A  
HETATM   26  C   UNL     1      -8.121  10.268  63.452  1.00  0.00    -0.154 A  
ENDBRANCH  20  21
ENDBRANCH  19  20
ENDBRANCH  18  19
ENDBRANCH  16  18
ENDBRANCH  15  16
ENDBRANCH  14  15
BRANCH  14  27
HETATM   27  C   UNL     1     -11.132   9.222  67.092  1.00  0.00     0.340 C  
BRANCH  27  28
HETATM   28  O   UNL     1     -11.374  10.386  67.895  1.00  0.00    -0.324 OA 
BRANCH  28  29
HETATM   29  C   UNL     1     -11.164  11.572  67.258  1.00  0.00    -0.301 C  
HETATM   30  O   UNL     1     -12.021  12.204  66.658  1.00  0.00    -0.616 OA 
BRANCH  29  31
HETATM   31  C   UNL     1      -9.724  11.994  67.408  1.00  0.00    -0.185 C  
BRANCH  31  32
HETATM   32  C   UNL     1      -9.603  13.455  67.828  1.00  0.00    -0.213 C  
BRANCH  32  33
HETATM   33  C   UNL     1      -8.631  14.250  66.947  1.00  0.00    -0.172 C  
BRANCH  33  34
HETATM   34  C   UNL     1      -8.031  15.390  67.730  1.00  0.00    -0.159 A  
HETATM   35  C   UNL     1      -6.853  17.576  69.026  1.00  0.00    -0.242 A  
HETATM   36  C   UNL     1      -8.746  16.583  67.898  1.00  0.00    -0.188 A  
HETATM   37  C   UNL     1      -8.159  17.671  68.544  1.00  0.00    -0.283 A  
HETATM   38  C   UNL     1      -6.140  16.388  68.873  1.00  0.00    -0.141 A  
HETATM   39  C   UNL     1      -6.726  15.299  68.229  1.00  0.00    -0.124 A  
ENDBRANCH  33  34
ENDBRANCH  32  33
ENDBRANCH  31  32
ENDBRANCH  29  31
ENDBRANCH  28  29
ENDBRANCH  27  28
ENDBRANCH  14  27
ENDBRANCH  13  14
ENDBRANCH  12  13
ENDBRANCH   2  12
TORSDOF 20
ENDMDL
MODEL      380
REMARK 921   NORMALIZED FREE ENERGY PREDICTED BY IDOCK:   -1.80 KCAL/MOL
REMARK 922        TOTAL FREE ENERGY PREDICTED BY IDOCK:   -8.58 KCAL/MOL
REMARK 923 INTER-LIGAND FREE ENERGY PREDICTED BY IDOCK:   -5.42 KCAL/MOL
REMARK 924 INTRA-LIGAND FREE ENERGY PREDICTED BY IDOCK:   -3.16 KCAL/MOL
REMARK 927      BINDING AFFINITY PREDICTED BY RF-SCORE:    0.00 PKD
ROOT
HETATM    1  O   UNL     1      -9.905   2.143  72.152  1.00  0.00    -0.123 OA 
HETATM    2  C   UNL     1      -8.890   2.681  71.731  1.00  0.00    -0.075 C  
ENDROOT
BRANCH   2   3
HETATM    3  C   UNL     1      -7.488   2.239  72.078  1.00  0.00    -0.040 C  
BRANCH   3   4
HETATM    4  C   UNL     1      -7.024   2.793  73.426  1.00  0.00    -0.038 C  
BRANCH   4   5
HETATM    5  C   UNL     1      -7.708   4.119  73.776  1.00  0.00    -0.081 C  
BRANCH   5   6
HETATM    6  C   UNL     1      -6.816   5.305  73.509  1.00  0.00    -0.079 A  
HETATM    7  C   UNL     1      -6.147   5.426  72.282  1.00  0.00    -0.034 A  
HETATM    8  C   UNL     1      -5.139   7.497  73.012  1.00  0.00    -0.037 A  
HETATM    9  C   UNL     1      -5.316   6.519  72.035  1.00  0.00    -0.031 A  
HETATM   10  C   UNL     1      -6.628   6.292  74.485  1.00  0.00    -0.078 A  
HETATM   11  C   UNL     1      -5.796   7.384  74.236  1.00  0.00    -0.072 A  
ENDBRANCH   5   6
ENDBRANCH   4   5
ENDBRANCH   3   4
ENDBRANCH   2   3
BRANCH   2  12
HETATM   12  O   UNL     1      -8.857   3.754  70.894  1.00  0.00    -0.075 OA 
BRANCH  12  13
HETATM   13  C   UNL     1      -9.442   3.570  69.590  1.00  0.00    -0.165 C  
BRANCH  13  14
HETATM   14  C   UNL     1      -9.691   4.932  68.933  1.00  0.00    -0.173 C  
BRANCH  14  15
HETATM   15  O   UNL     1     -10.874   5.520  69.511  1.00  0.00    -0.311 OA 
BRANCH  15  16
HETATM   16  C   UNL     1     -10.703   6.164  70.697  1.00  0.00    -0.275 C  
HETATM   17  O   UNL     1     -10.915   5.690  71.802  1.00  0.00    -0.256 OA 
BRANCH  16  18
HETATM   18  C   UNL     1     -10.237   7.577  70.450  1.00  0.00    -0.202 C  
BRANCH  18  19
HETATM   19  C   UNL     1     -11.191   8.337  69.535  1.00  0.00     0.152 C  
BRANCH  19  20
HETATM   20  C   UNL     1     -11.743   9.617  70.173  1.00  0.00    -0.143 C  
BRANCH  20  21
HETATM   21  C   UNL     1     -11.567  10.775  69.224  1.00  0.00    -0.376 A  
HETATM   22  C   UNL     1     -11.475  12.931  67.442  1.00  0.00    -0.388 A  
HETATM   23  C   UNL     1     -11.452  10.550  67.846  1.00  0.00    -0.190 A  
HETATM   24  C   UNL     1     -11.613  12.091  69.701  1.00  0.00    -0.371 A  
HETATM   25  C   UNL     1     -11.406  11.627  66.960  1.00  0.00    -0.373 A  
HETATM   26  C   UNL     1     -11.569  13.165  68.812  1.00  0.00    -0.348 A  
ENDBRANCH  20  21
ENDBRANCH  19  20
ENDBRANCH  18  19
ENDBRANCH  16  18
ENDBRANCH  15  16
ENDBRANCH  14  15
BRANCH  14  27
HETATM   27  C   UNL     1      -9.932   4.783  67.427  1.00  0.00    -0.159 C  
BRANCH  27  28
HETATM   28  O   UNL     1      -8.772   5.158  66.670  1.00  0.00    -0.110 OA 
BRANCH  28  29
HETATM   29  C   UNL     1      -8.668   6.492  66.410  1.00  0.00    -0.140 C  
HETATM   30  O   UNL     1      -9.613   7.242  66.215  1.00  0.00    -0.140 OA 
BRANCH  29  31
HETATM   31  C   UNL     1      -7.219   6.908  66.408  1.00  0.00    -0.075 C  
BRANCH  31  32
HETATM   32  C   UNL     1      -7.023   8.272  65.754  1.00  0.00    -0.067 C  
BRANCH  32  33
HETATM   33  C   UNL     1      -5.937   9.112  66.440  1.00  0.00    -0.059 C  
BRANCH  33  34
HETATM   34  C   UNL     1      -6.564  10.244  67.211  1.00  0.00    -0.068 A  
HETATM   35  C   UNL     1      -7.894  12.265  68.624  1.00  0.00    -0.063 A  
HETATM   36  C   UNL     1      -6.754  10.134  68.596  1.00  0.00    -0.057 A  
HETATM   37  C   UNL     1      -7.416  11.141  69.298  1.00  0.00    -0.076 A  
HETATM   38  C   UNL     1      -7.698  12.387  67.250  1.00  0.00    -0.158 A  
HETATM   39  C   UNL     1      -7.036  11.382  66.545  1.00  0.00    -0.058 A  
ENDBRANCH  33  34
ENDBRANCH  32  33
ENDBRANCH  31  32
ENDBRANCH  29  31
ENDBRANCH  28  29
ENDBRANCH  27  28
ENDBRANCH  14  27
ENDBRANCH  13  14
ENDBRANCH  12  13
ENDBRANCH   2  12
TORSDOF 20
ENDMDL
MODEL      381
REMARK 921   NORMALIZED FREE ENERGY PREDICTED BY IDOCK:   -1.58 KCAL/MOL
REMARK 922        TOTAL FREE ENERGY PREDICTED BY IDOCK:   -8.12 KCAL/MOL
REMARK 923 INTER-LIGAND FREE ENERGY PREDICTED BY IDOCK:   -6.91 KCAL/MOL
REMARK 924 INTRA-LIGAND FREE ENERGY PREDICTED BY IDOCK:   -1.21 KCAL/MOL
REMARK 927      BINDING AFFINITY PREDICTED BY RF-SCORE:    0.00 PKD
ROOT
HETATM    1  O   UNL     1     -10.615  10.479  70.070  1.00  0.00    -0.256 OA 
HETATM    2  C   UNL     1     -10.229  10.278  68.927  1.00  0.00    -0.205 C  
ENDROOT
BRANCH   2   3
HETATM    3  C   UNL     1     -10.330  11.285  67.807  1.00  0.00    -0.208 C  
BRANCH   3   4
HETATM    4  C   UNL     1     -11.775  11.510  67.359  1.00  0.00    -0.231 C  
BRANCH   4   5
HETATM    5  C   UNL     1     -11.860  12.272  66.032  1.00  0.00    -0.409 C  
BRANCH   5   6
HETATM    6  C   UNL     1     -11.368  13.691  66.161  1.00  0.00    -0.324 A  
HETATM    7  C   UNL     1     -11.299  14.522  65.033  1.00  0.00    -0.377 A  
HETATM    8  C   UNL     1     -10.438  16.327  66.389  1.00  0.00    -0.297 A  
HETATM    9  C   UNL     1     -10.838  15.834  65.149  1.00  0.00    -0.444 A  
HETATM   10  C   UNL     1     -10.959  14.196  67.402  1.00  0.00    -0.306 A  
HETATM   11  C   UNL     1     -10.498  15.508  67.515  1.00  0.00    -0.282 A  
ENDBRANCH   5   6
ENDBRANCH   4   5
ENDBRANCH   3   4
ENDBRANCH   2   3
BRANCH   2  12
HETATM   12  O   UNL     1      -9.655   9.127  68.482  1.00  0.00    -0.146 OA 
BRANCH  12  13
HETATM   13  C   UNL     1     -10.494   7.957  68.455  1.00  0.00    -0.167 C  
BRANCH  13  14
HETATM   14  C   UNL     1      -9.805   6.803  69.190  1.00  0.00    -0.157 C  
BRANCH  14  15
HETATM   15  O   UNL     1      -8.633   7.309  69.862  1.00  0.00    -0.138 OA 
BRANCH  15  16
HETATM   16  C   UNL     1      -8.784   7.612  71.179  1.00  0.00    -0.136 C  
HETATM   17  O   UNL     1      -8.314   8.588  71.744  1.00  0.00    -0.147 OA 
BRANCH  16  18
HETATM   18  C   UNL     1      -9.599   6.542  71.861  1.00  0.00    -0.156 C  
BRANCH  18  19
HETATM   19  C   UNL     1      -9.963   6.932  73.290  1.00  0.00    -0.243 C  
BRANCH  19  20
HETATM   20  C   UNL     1      -9.596   5.856  74.317  1.00  0.00    -0.180 C  
BRANCH  20  21
HETATM   21  C   UNL     1      -9.521   4.511  73.640  1.00  0.00    -0.133 A  
HETATM   22  C   UNL     1      -9.441   2.125  72.179  1.00  0.00    -0.170 A  
HETATM   23  C   UNL     1     -10.661   3.704  73.539  1.00  0.00    -0.307 A  
HETATM   24  C   UNL     1      -8.334   4.099  73.019  1.00  0.00    -0.094 A  
HETATM   25  C   UNL     1     -10.619   2.514  72.811  1.00  0.00    -0.197 A  
HETATM   26  C   UNL     1      -8.296   2.911  72.290  1.00  0.00    -0.071 A  
ENDBRANCH  20  21
ENDBRANCH  19  20
ENDBRANCH  18  19
ENDBRANCH  16  18
ENDBRANCH  15  16
ENDBRANCH  14  15
BRANCH  14  27
HETATM   27  C   UNL     1      -9.348   5.717  68.208  1.00  0.00    -0.117 C  
BRANCH  27  28
HETATM   28  O   UNL     1      -7.918   5.674  68.103  1.00  0.00    -0.095 OA 
BRANCH  28  29
HETATM   29  C   UNL     1      -7.406   6.319  67.017  1.00  0.00    -0.083 C  
HETATM   30  O   UNL     1      -6.705   7.319  67.064  1.00  0.00    -0.063 OA 
BRANCH  29  31
HETATM   31  C   UNL     1      -7.823   5.614  65.751  1.00  0.00    -0.101 C  
BRANCH  31  32
HETATM   32  C   UNL     1      -6.626   5.280  64.868  1.00  0.00    -0.043 C  
BRANCH  32  33
HETATM   33  C   UNL     1      -6.705   5.936  63.483  1.00  0.00    -0.036 C  
BRANCH  33  34
HETATM   34  C   UNL     1      -6.854   7.429  63.622  1.00  0.00    -0.054 A  
HETATM   35  C   UNL     1      -7.150  10.214  63.696  1.00  0.00    -0.110 A  
HETATM   36  C   UNL     1      -8.128   8.005  63.721  1.00  0.00    -0.096 A  
HETATM   37  C   UNL     1      -8.274   9.391  63.758  1.00  0.00    -0.165 A  
HETATM   38  C   UNL     1      -5.879   9.649  63.609  1.00  0.00    -0.097 A  
HETATM   39  C   UNL     1      -5.730   8.263  63.573  1.00  0.00    -0.070 A  
ENDBRANCH  33  34
ENDBRANCH  32  33
ENDBRANCH  31  32
ENDBRANCH  29  31
ENDBRANCH  28  29
ENDBRANCH  27  28
ENDBRANCH  14  27
ENDBRANCH  13  14
ENDBRANCH  12  13
ENDBRANCH   2  12
TORSDOF 20
ENDMDL
MODEL      382
REMARK 921   NORMALIZED FREE ENERGY PREDICTED BY IDOCK:   -1.58 KCAL/MOL
REMARK 922        TOTAL FREE ENERGY PREDICTED BY IDOCK:   -8.11 KCAL/MOL
REMARK 923 INTER-LIGAND FREE ENERGY PREDICTED BY IDOCK:   -8.14 KCAL/MOL
REMARK 924 INTRA-LIGAND FREE ENERGY PREDICTED BY IDOCK:    0.04 KCAL/MOL
REMARK 927      BINDING AFFINITY PREDICTED BY RF-SCORE:    0.00 PKD
ROOT
HETATM    1  O   UNL     1     -10.926  20.169  64.456  1.00  0.00     0.403 OA 
HETATM    2  C   UNL     1     -10.455  19.653  65.459  1.00  0.00    -0.206 C  
ENDROOT
BRANCH   2   3
HETATM    3  C   UNL     1      -9.323  20.242  66.267  1.00  0.00    -0.350 C  
BRANCH   3   4
HETATM    4  C   UNL     1      -8.521  19.170  67.006  1.00  0.00    -0.304 C  
BRANCH   4   5
HETATM    5  C   UNL     1      -8.354  19.493  68.495  1.00  0.00    -0.372 C  
BRANCH   5   6
HETATM    6  C   UNL     1      -7.292  18.642  69.144  1.00  0.00    -0.199 A  
HETATM    7  C   UNL     1      -7.134  17.300  68.768  1.00  0.00    -0.238 A  
HETATM    8  C   UNL     1      -5.332  17.046  70.357  1.00  0.00    -0.228 A  
HETATM    9  C   UNL     1      -6.157  16.508  69.371  1.00  0.00    -0.182 A  
HETATM   10  C   UNL     1      -6.461  19.171  70.139  1.00  0.00    -0.024 A  
HETATM   11  C   UNL     1      -5.484  18.377  70.741  1.00  0.00    -0.208 A  
ENDBRANCH   5   6
ENDBRANCH   4   5
ENDBRANCH   3   4
ENDBRANCH   2   3
BRANCH   2  12
HETATM   12  O   UNL     1     -10.866  18.475  66.005  1.00  0.00    -0.277 OA 
BRANCH  12  13
HETATM   13  C   UNL     1     -10.062  17.315  65.713  1.00  0.00    -0.141 C  
BRANCH  13  14
HETATM   14  C   UNL     1     -10.856  16.041  66.015  1.00  0.00    -0.190 C  
BRANCH  14  15
HETATM   15  O   UNL     1     -11.833  16.329  67.037  1.00  0.00     0.638 OA 
BRANCH  15  16
HETATM   16  C   UNL     1     -11.404  16.213  68.323  1.00  0.00    -0.316 C  
HETATM   17  O   UNL     1     -10.559  16.915  68.857  1.00  0.00    -0.326 OA 
BRANCH  16  18
HETATM   18  C   UNL     1     -12.107  15.062  68.997  1.00  0.00    -0.243 C  
BRANCH  18  19
HETATM   19  C   UNL     1     -12.902  15.519  70.215  1.00  0.00    -0.239 C  
BRANCH  19  20
HETATM   20  C   UNL     1     -12.478  14.811  71.508  1.00  0.00    -0.403 C  
BRANCH  20  21
HETATM   21  C   UNL     1     -12.633  13.321  71.345  1.00  0.00    -0.365 A  
HETATM   22  C   UNL     1     -12.739  10.527  71.192  1.00  0.00    -0.518 A  
HETATM   23  C   UNL     1     -11.917  12.638  70.353  1.00  0.00    -0.331 A  
HETATM   24  C   UNL     1     -13.420  12.590  72.245  1.00  0.00    -0.490 A  
HETATM   25  C   UNL     1     -11.972  11.246  70.279  1.00  0.00    -0.466 A  
HETATM   26  C   UNL     1     -13.471  11.199  72.170  1.00  0.00    -0.193 A  
ENDBRANCH  20  21
ENDBRANCH  19  20
ENDBRANCH  18  19
ENDBRANCH  16  18
ENDBRANCH  15  16
ENDBRANCH  14  15
BRANCH  14  27
HETATM   27  C   UNL     1      -9.940  14.931  66.544  1.00  0.00    -0.265 C  
BRANCH  27  28
HETATM   28  O   UNL     1      -9.758  13.892  65.572  1.00  0.00    -0.211 OA 
BRANCH  28  29
HETATM   29  C   UNL     1     -10.399  12.724  65.858  1.00  0.00    -0.283 C  
HETATM   30  O   UNL     1     -11.491  12.641  66.402  1.00  0.00    -0.315 OA 
BRANCH  29  31
HETATM   31  C   UNL     1      -9.570  11.551  65.400  1.00  0.00    -0.249 C  
BRANCH  31  32
HETATM   32  C   UNL     1      -9.670  10.375  66.366  1.00  0.00    -0.250 C  
BRANCH  32  33
HETATM   33  C   UNL     1      -8.299   9.856  66.817  1.00  0.00    -0.125 C  
BRANCH  33  34
HETATM   34  C   UNL     1      -8.095   8.441  66.339  1.00  0.00    -0.104 A  
HETATM   35  C   UNL     1      -7.668   5.767  65.623  1.00  0.00    -0.093 A  
HETATM   36  C   UNL     1      -9.133   7.506  66.440  1.00  0.00    -0.210 A  
HETATM   37  C   UNL     1      -8.920   6.174  66.083  1.00  0.00    -0.164 A  
HETATM   38  C   UNL     1      -6.633   6.694  65.507  1.00  0.00    -0.050 A  
HETATM   39  C   UNL     1      -6.845   8.025  65.863  1.00  0.00    -0.057 A  
ENDBRANCH  33  34
ENDBRANCH  32  33
ENDBRANCH  31  32
ENDBRANCH  29  31
ENDBRANCH  28  29
ENDBRANCH  27  28
ENDBRANCH  14  27
ENDBRANCH  13  14
ENDBRANCH  12  13
ENDBRANCH   2  12
TORSDOF 20
ENDMDL
MODEL      383
REMARK 921   NORMALIZED FREE ENERGY PREDICTED BY IDOCK:   -1.43 KCAL/MOL
REMARK 922        TOTAL FREE ENERGY PREDICTED BY IDOCK:   -7.79 KCAL/MOL
REMARK 923 INTER-LIGAND FREE ENERGY PREDICTED BY IDOCK:   -7.48 KCAL/MOL
REMARK 924 INTRA-LIGAND FREE ENERGY PREDICTED BY IDOCK:   -0.31 KCAL/MOL
REMARK 927      BINDING AFFINITY PREDICTED BY RF-SCORE:    0.00 PKD
ROOT
HETATM    1  O   UNL     1     -11.674  11.454  63.502  1.00  0.00    -0.297 OA 
HETATM    2  C   UNL     1     -11.794  12.215  64.452  1.00  0.00    -0.358 C  
ENDROOT
BRANCH   2   3
HETATM    3  C   UNL     1     -11.720  13.720  64.350  1.00  0.00    -0.436 C  
BRANCH   3   4
HETATM    4  C   UNL     1     -11.166  14.359  65.624  1.00  0.00    -0.323 C  
BRANCH   4   5
HETATM    5  C   UNL     1     -12.273  14.929  66.517  1.00  0.00     0.119 C  
BRANCH   5   6
HETATM    6  C   UNL     1     -11.721  15.568  67.766  1.00  0.00    -0.098 A  
HETATM    7  C   UNL     1     -11.986  15.008  69.024  1.00  0.00    -0.298 A  
HETATM    8  C   UNL     1     -10.712  16.760  70.095  1.00  0.00     0.016 A  
HETATM    9  C   UNL     1     -11.481  15.601  70.182  1.00  0.00    -0.358 A  
HETATM   10  C   UNL     1     -10.950  16.736  67.691  1.00  0.00    -0.178 A  
HETATM   11  C   UNL     1     -10.447  17.327  68.850  1.00  0.00    -0.327 A  
ENDBRANCH   5   6
ENDBRANCH   4   5
ENDBRANCH   3   4
ENDBRANCH   2   3
BRANCH   2  12
HETATM   12  O   UNL     1     -12.009  11.835  65.742  1.00  0.00    -0.376 OA 
BRANCH  12  13
HETATM   13  C   UNL     1     -11.179  10.771  66.246  1.00  0.00     0.237 C  
BRANCH  13  14
HETATM   14  C   UNL     1      -9.706  11.186  66.188  1.00  0.00    -0.218 C  
BRANCH  14  15
HETATM   15  O   UNL     1      -8.885  10.041  66.498  1.00  0.00    -0.137 OA 
BRANCH  15  16
HETATM   16  C   UNL     1      -9.300   9.273  67.542  1.00  0.00    -0.127 C  
HETATM   17  O   UNL     1     -10.383   8.715  67.629  1.00  0.00    -0.226 OA 
BRANCH  16  18
HETATM   18  C   UNL     1      -8.231   9.230  68.604  1.00  0.00    -0.113 C  
BRANCH  18  19
HETATM   19  C   UNL     1      -8.084   7.836  69.204  1.00  0.00    -0.125 C  
BRANCH  19  20
HETATM   20  C   UNL     1      -8.388   7.794  70.706  1.00  0.00    -0.116 C  
BRANCH  20  21
HETATM   21  C   UNL     1      -9.872   7.936  70.928  1.00  0.00    -0.192 A  
HETATM   22  C   UNL     1     -12.639   8.315  71.132  1.00  0.00    -0.152 A  
HETATM   23  C   UNL     1     -10.386   9.061  71.584  1.00  0.00    -0.420 A  
HETATM   24  C   UNL     1     -10.759   6.992  70.393  1.00  0.00    -0.259 A  
HETATM   25  C   UNL     1     -11.766   9.247  71.686  1.00  0.00    -0.462 A  
HETATM   26  C   UNL     1     -12.137   7.182  70.494  1.00  0.00    -0.217 A  
ENDBRANCH  20  21
ENDBRANCH  19  20
ENDBRANCH  18  19
ENDBRANCH  16  18
ENDBRANCH  15  16
ENDBRANCH  14  15
BRANCH  14  27
HETATM   27  C   UNL     1      -9.397  12.275  67.223  1.00  0.00    -0.185 C  
BRANCH  27  28
HETATM   28  O   UNL     1      -8.161  12.941  66.930  1.00  0.00    -0.097 OA 
BRANCH  28  29
HETATM   29  C   UNL     1      -7.346  13.129  68.006  1.00  0.00    -0.125 C  
HETATM   30  O   UNL     1      -7.045  12.264  68.815  1.00  0.00    -0.102 OA 
BRANCH  29  31
HETATM   31  C   UNL     1      -6.862  14.557  68.047  1.00  0.00    -0.153 C  
BRANCH  31  32
HETATM   32  C   UNL     1      -7.495  15.401  66.946  1.00  0.00    -0.054 C  
BRANCH  32  33
HETATM   33  C   UNL     1      -6.667  16.646  66.599  1.00  0.00    -0.192 C  
BRANCH  33  34
HETATM   34  C   UNL     1      -6.196  17.326  67.858  1.00  0.00    -0.156 A  
HETATM   35  C   UNL     1      -5.146  18.576  70.134  1.00  0.00    -0.209 A  
HETATM   36  C   UNL     1      -6.003  18.714  67.879  1.00  0.00    -0.190 A  
HETATM   37  C   UNL     1      -5.480  19.336  69.013  1.00  0.00    -0.213 A  
HETATM   38  C   UNL     1      -5.346  17.197  70.125  1.00  0.00    -0.217 A  
HETATM   39  C   UNL     1      -5.869  16.574  68.993  1.00  0.00    -0.145 A  
ENDBRANCH  33  34
ENDBRANCH  32  33
ENDBRANCH  31  32
ENDBRANCH  29  31
ENDBRANCH  28  29
ENDBRANCH  27  28
ENDBRANCH  14  27
ENDBRANCH  13  14
ENDBRANCH  12  13
ENDBRANCH   2  12
TORSDOF 20
ENDMDL
MODEL      384
REMARK 921   NORMALIZED FREE ENERGY PREDICTED BY IDOCK:   -1.43 KCAL/MOL
REMARK 922        TOTAL FREE ENERGY PREDICTED BY IDOCK:   -7.78 KCAL/MOL
REMARK 923 INTER-LIGAND FREE ENERGY PREDICTED BY IDOCK:   -5.88 KCAL/MOL
REMARK 924 INTRA-LIGAND FREE ENERGY PREDICTED BY IDOCK:   -1.90 KCAL/MOL
REMARK 927      BINDING AFFINITY PREDICTED BY RF-SCORE:    0.00 PKD
ROOT
HETATM    1  O   UNL     1     -10.342   6.091  66.249  1.00  0.00    -0.099 OA 
HETATM    2  C   UNL     1      -9.220   6.399  66.628  1.00  0.00    -0.151 C  
ENDROOT
BRANCH   2   3
HETATM    3  C   UNL     1      -7.972   5.610  66.314  1.00  0.00    -0.102 C  
BRANCH   3   4
HETATM    4  C   UNL     1      -7.093   6.306  65.274  1.00  0.00    -0.064 C  
BRANCH   4   5
HETATM    5  C   UNL     1      -7.865   6.642  63.993  1.00  0.00    -0.112 C  
BRANCH   5   6
HETATM    6  C   UNL     1      -7.512   8.008  63.460  1.00  0.00    -0.122 A  
HETATM    7  C   UNL     1      -8.497   8.812  62.869  1.00  0.00    -0.154 A  
HETATM    8  C   UNL     1      -6.862  10.542  62.451  1.00  0.00    -0.146 A  
HETATM    9  C   UNL     1      -8.172  10.074  62.369  1.00  0.00    -0.160 A  
HETATM   10  C   UNL     1      -6.198   8.486  63.533  1.00  0.00    -0.081 A  
HETATM   11  C   UNL     1      -5.875   9.747  63.033  1.00  0.00    -0.105 A  
ENDBRANCH   5   6
ENDBRANCH   4   5
ENDBRANCH   3   4
ENDBRANCH   2   3
BRANCH   2  12
HETATM   12  O   UNL     1      -8.917   7.488  67.386  1.00  0.00    -0.126 OA 
BRANCH  12  13
HETATM   13  C   UNL     1      -9.596   7.600  68.652  1.00  0.00    -0.152 C  
BRANCH  13  14
HETATM   14  C   UNL     1      -8.755   8.433  69.624  1.00  0.00    -0.133 C  
BRANCH  14  15
HETATM   15  O   UNL     1      -8.496   7.651  70.808  1.00  0.00    -0.122 OA 
BRANCH  15  16
HETATM   16  C   UNL     1      -7.479   8.084  71.600  1.00  0.00    -0.078 C  
HETATM   17  O   UNL     1      -7.536   9.017  72.387  1.00  0.00    -0.342 OA 
BRANCH  16  18
HETATM   18  C   UNL     1      -6.243   7.260  71.344  1.00  0.00    -0.036 C  
BRANCH  18  19
HETATM   19  C   UNL     1      -6.399   6.371  70.115  1.00  0.00    -0.039 C  
BRANCH  19  20
HETATM   20  C   UNL     1      -6.043   4.905  70.386  1.00  0.00    -0.018 C  
BRANCH  20  21
HETATM   21  C   UNL     1      -7.250   4.179  70.923  1.00  0.00    -0.040 A  
HETATM   22  C   UNL     1      -9.471   2.683  71.738  1.00  0.00    -0.205 A  
HETATM   23  C   UNL     1      -8.536   4.528  70.491  1.00  0.00    -0.111 A  
HETATM   24  C   UNL     1      -7.091   3.086  71.785  1.00  0.00    -0.038 A  
HETATM   25  C   UNL     1      -9.642   3.781  70.900  1.00  0.00    -0.256 A  
HETATM   26  C   UNL     1      -8.198   2.340  72.190  1.00  0.00    -0.054 A  
ENDBRANCH  20  21
ENDBRANCH  19  20
ENDBRANCH  18  19
ENDBRANCH  16  18
ENDBRANCH  15  16
ENDBRANCH  14  15
BRANCH  14  27
HETATM   27  C   UNL     1      -9.502   9.700  70.056  1.00  0.00    -0.240 C  
BRANCH  27  28
HETATM   28  O   UNL     1     -10.919   9.563  69.871  1.00  0.00    -0.231 OA 
BRANCH  28  29
HETATM   29  C   UNL     1     -11.522  10.630  69.276  1.00  0.00    -0.281 C  
HETATM   30  O   UNL     1     -12.726  10.845  69.281  1.00  0.00    -0.282 OA 
BRANCH  29  31
HETATM   31  C   UNL     1     -10.490  11.509  68.618  1.00  0.00    -0.224 C  
BRANCH  31  32
HETATM   32  C   UNL     1     -10.771  12.989  68.857  1.00  0.00    -0.201 C  
BRANCH  32  33
HETATM   33  C   UNL     1     -10.530  13.851  67.611  1.00  0.00    -0.245 C  
BRANCH  33  34
HETATM   34  C   UNL     1      -9.252  14.635  67.759  1.00  0.00    -0.196 A  
HETATM   35  C   UNL     1      -6.843  15.999  68.191  1.00  0.00    -0.130 A  
HETATM   36  C   UNL     1      -8.046  14.118  67.267  1.00  0.00    -0.188 A  
HETATM   37  C   UNL     1      -6.847  14.798  67.482  1.00  0.00    -0.181 A  
HETATM   38  C   UNL     1      -8.040  16.526  68.673  1.00  0.00    -0.233 A  
HETATM   39  C   UNL     1      -9.240  15.849  68.458  1.00  0.00    -0.200 A  
ENDBRANCH  33  34
ENDBRANCH  32  33
ENDBRANCH  31  32
ENDBRANCH  29  31
ENDBRANCH  28  29
ENDBRANCH  27  28
ENDBRANCH  14  27
ENDBRANCH  13  14
ENDBRANCH  12  13
ENDBRANCH   2  12
TORSDOF 20
ENDMDL
MODEL      385
REMARK 921   NORMALIZED FREE ENERGY PREDICTED BY IDOCK:   -1.41 KCAL/MOL
REMARK 922        TOTAL FREE ENERGY PREDICTED BY IDOCK:   -7.75 KCAL/MOL
REMARK 923 INTER-LIGAND FREE ENERGY PREDICTED BY IDOCK:   -6.41 KCAL/MOL
REMARK 924 INTRA-LIGAND FREE ENERGY PREDICTED BY IDOCK:   -1.34 KCAL/MOL
REMARK 927      BINDING AFFINITY PREDICTED BY RF-SCORE:    0.00 PKD
ROOT
HETATM    1  O   UNL     1      -9.497  19.918  69.745  1.00  0.00     0.075 OA 
HETATM    2  C   UNL     1      -8.560  19.292  69.270  1.00  0.00     0.004 C  
ENDROOT
BRANCH   2   3
HETATM    3  C   UNL     1      -7.110  19.679  69.434  1.00  0.00    -0.326 C  
BRANCH   3   4
HETATM    4  C   UNL     1      -6.275  18.549  70.039  1.00  0.00    -0.096 C  
BRANCH   4   5
HETATM    5  C   UNL     1      -5.397  17.852  68.994  1.00  0.00    -0.175 C  
BRANCH   5   6
HETATM    6  C   UNL     1      -5.458  16.350  69.115  1.00  0.00    -0.121 A  
HETATM    7  C   UNL     1      -5.833  15.752  70.327  1.00  0.00    -0.126 A  
HETATM    8  C   UNL     1      -5.558  13.558  69.354  1.00  0.00    -0.085 A  
HETATM    9  C   UNL     1      -5.884  14.363  70.443  1.00  0.00    -0.158 A  
HETATM   10  C   UNL     1      -5.128  15.531  68.027  1.00  0.00    -0.131 A  
HETATM   11  C   UNL     1      -5.180  14.142  68.146  1.00  0.00    -0.118 A  
ENDBRANCH   5   6
ENDBRANCH   4   5
ENDBRANCH   3   4
ENDBRANCH   2   3
BRANCH   2  12
HETATM   12  O   UNL     1      -8.669  18.159  68.522  1.00  0.00    -0.298 OA 
BRANCH  12  13
HETATM   13  C   UNL     1      -9.123  16.977  69.208  1.00  0.00     0.066 C  
BRANCH  13  14
HETATM   14  C   UNL     1     -10.638  17.046  69.422  1.00  0.00    -0.236 C  
BRANCH  14  15
HETATM   15  O   UNL     1     -11.194  15.724  69.263  1.00  0.00    -0.277 OA 
BRANCH  15  16
HETATM   16  C   UNL     1     -11.559  15.087  70.408  1.00  0.00    -0.287 C  
HETATM   17  O   UNL     1     -11.412  15.519  71.541  1.00  0.00    -0.362 OA 
BRANCH  16  18
HETATM   18  C   UNL     1     -12.152  13.741  70.079  1.00  0.00    -0.416 C  
BRANCH  18  19
HETATM   19  C   UNL     1     -11.309  12.984  69.058  1.00  0.00    -0.340 C  
BRANCH  19  20
HETATM   20  C   UNL     1     -12.152  12.149  68.087  1.00  0.00    -0.057 C  
BRANCH  20  21
HETATM   21  C   UNL     1     -11.249  11.274  67.255  1.00  0.00    -0.364 A  
HETATM   22  C   UNL     1      -9.761   9.513  65.667  1.00  0.00    -0.361 A  
HETATM   23  C   UNL     1     -10.584  10.186  67.835  1.00  0.00    -0.294 A  
HETATM   24  C   UNL     1     -11.142  11.482  65.873  1.00  0.00    -0.274 A  
HETATM   25  C   UNL     1      -9.842   9.310  67.042  1.00  0.00    -0.257 A  
HETATM   26  C   UNL     1     -10.402  10.604  65.083  1.00  0.00    -0.331 A  
ENDBRANCH  20  21
ENDBRANCH  19  20
ENDBRANCH  18  19
ENDBRANCH  16  18
ENDBRANCH  15  16
ENDBRANCH  14  15
BRANCH  14  27
HETATM   27  C   UNL     1     -11.301  17.959  68.384  1.00  0.00     0.901 C  
BRANCH  27  28
HETATM   28  O   UNL     1     -11.355  17.334  67.094  1.00  0.00     0.231 OA 
BRANCH  28  29
HETATM   29  C   UNL     1     -10.666  17.986  66.116  1.00  0.00    -0.131 C  
HETATM   30  O   UNL     1     -10.057  17.440  65.207  1.00  0.00    -0.414 OA 
BRANCH  29  31
HETATM   31  C   UNL     1     -10.771  19.477  66.312  1.00  0.00    -0.530 C  
BRANCH  31  32
HETATM   32  C   UNL     1      -9.660  20.225  65.583  1.00  0.00    -0.000 C  
BRANCH  32  33
HETATM   33  C   UNL     1      -8.329  20.206  66.345  1.00  0.00    -0.287 C  
BRANCH  33  34
HETATM   34  C   UNL     1      -7.188  19.949  65.395  1.00  0.00    -0.243 A  
HETATM   35  C   UNL     1      -5.179  19.358  63.535  1.00  0.00    -0.301 A  
HETATM   36  C   UNL     1      -7.072  20.696  64.214  1.00  0.00     0.380 A  
HETATM   37  C   UNL     1      -6.071  20.401  63.289  1.00  0.00    -0.174 A  
HETATM   38  C   UNL     1      -5.279  18.619  64.712  1.00  0.00    -0.214 A  
HETATM   39  C   UNL     1      -6.278  18.913  65.639  1.00  0.00    -0.279 A  
ENDBRANCH  33  34
ENDBRANCH  32  33
ENDBRANCH  31  32
ENDBRANCH  29  31
ENDBRANCH  28  29
ENDBRANCH  27  28
ENDBRANCH  14  27
ENDBRANCH  13  14
ENDBRANCH  12  13
ENDBRANCH   2  12
TORSDOF 20
ENDMDL
MODEL      386
REMARK 921   NORMALIZED FREE ENERGY PREDICTED BY IDOCK:   -1.37 KCAL/MOL
REMARK 922        TOTAL FREE ENERGY PREDICTED BY IDOCK:   -7.65 KCAL/MOL
REMARK 923 INTER-LIGAND FREE ENERGY PREDICTED BY IDOCK:   -4.79 KCAL/MOL
REMARK 924 INTRA-LIGAND FREE ENERGY PREDICTED BY IDOCK:   -2.86 KCAL/MOL
REMARK 927      BINDING AFFINITY PREDICTED BY RF-SCORE:    0.00 PKD
ROOT
HETATM    1  O   UNL     1      -9.820   3.477  70.626  1.00  0.00    -0.165 OA 
HETATM    2  C   UNL     1      -9.534   4.534  71.170  1.00  0.00    -0.160 C  
ENDROOT
BRANCH   2   3
HETATM    3  C   UNL     1      -8.692   4.646  72.419  1.00  0.00    -0.124 C  
BRANCH   3   4
HETATM    4  C   UNL     1      -7.487   3.704  72.390  1.00  0.00    -0.054 C  
BRANCH   4   5
HETATM    5  C   UNL     1      -6.156   4.464  72.414  1.00  0.00    -0.017 C  
BRANCH   5   6
HETATM    6  C   UNL     1      -6.333   5.903  72.828  1.00  0.00    -0.061 A  
HETATM    7  C   UNL     1      -6.669   6.222  74.152  1.00  0.00    -0.075 A  
HETATM    8  C   UNL     1      -6.681   8.575  73.604  1.00  0.00    -0.099 A  
HETATM    9  C   UNL     1      -6.839   7.552  74.537  1.00  0.00    -0.114 A  
HETATM   10  C   UNL     1      -6.180   6.938  71.898  1.00  0.00    -0.038 A  
HETATM   11  C   UNL     1      -6.352   8.268  72.285  1.00  0.00    -0.065 A  
ENDBRANCH   5   6
ENDBRANCH   4   5
ENDBRANCH   3   4
ENDBRANCH   2   3
BRANCH   2  12
HETATM   12  O   UNL     1      -9.922   5.768  70.746  1.00  0.00    -0.179 OA 
BRANCH  12  13
HETATM   13  C   UNL     1      -9.037   6.443  69.831  1.00  0.00    -0.142 C  
BRANCH  13  14
HETATM   14  C   UNL     1      -9.205   5.867  68.422  1.00  0.00    -0.117 C  
BRANCH  14  15
HETATM   15  O   UNL     1      -7.947   5.968  67.722  1.00  0.00    -0.103 OA 
BRANCH  15  16
HETATM   16  C   UNL     1      -6.924   5.224  68.222  1.00  0.00    -0.061 C  
HETATM   17  O   UNL     1      -6.983   4.040  68.519  1.00  0.00    -0.046 OA 
BRANCH  16  18
HETATM   18  C   UNL     1      -5.698   6.085  68.389  1.00  0.00    -0.012 C  
BRANCH  18  19
HETATM   19  C   UNL     1      -5.574   7.117  67.274  1.00  0.00    -0.024 C  
BRANCH  19  20
HETATM   20  C   UNL     1      -5.133   6.508  65.938  1.00  0.00    -0.017 C  
BRANCH  20  21
HETATM   21  C   UNL     1      -6.072   6.949  64.844  1.00  0.00    -0.036 A  
HETATM   22  C   UNL     1      -7.978   7.623  62.908  1.00  0.00    -0.120 A  
HETATM   23  C   UNL     1      -6.141   6.236  63.640  1.00  0.00    -0.022 A  
HETATM   24  C   UNL     1      -6.954   8.016  65.058  1.00  0.00    -0.062 A  
HETATM   25  C   UNL     1      -7.092   6.575  62.676  1.00  0.00    -0.045 A  
HETATM   26  C   UNL     1      -7.904   8.351  64.094  1.00  0.00    -0.145 A  
ENDBRANCH  20  21
ENDBRANCH  19  20
ENDBRANCH  18  19
ENDBRANCH  16  18
ENDBRANCH  15  16
ENDBRANCH  14  15
BRANCH  14  27
HETATM   27  C   UNL     1     -10.248   6.657  67.622  1.00  0.00    -0.177 C  
BRANCH  27  28
HETATM   28  O   UNL     1     -10.458   7.962  68.180  1.00  0.00    -0.207 OA 
BRANCH  28  29
HETATM   29  C   UNL     1     -10.114   8.995  67.359  1.00  0.00    -0.230 C  
HETATM   30  O   UNL     1     -10.846   9.489  66.514  1.00  0.00    -0.031 OA 
BRANCH  29  31
HETATM   31  C   UNL     1      -8.705   9.443  67.651  1.00  0.00    -0.116 C  
BRANCH  31  32
HETATM   32  C   UNL     1      -8.676  10.785  68.375  1.00  0.00    -0.142 C  
BRANCH  32  33
HETATM   33  C   UNL     1      -8.311  11.954  67.450  1.00  0.00    -0.163 C  
BRANCH  33  34
HETATM   34  C   UNL     1      -9.418  12.976  67.440  1.00  0.00    -0.210 A  
HETATM   35  C   UNL     1     -11.598  14.735  67.416  1.00  0.00    -0.377 A  
HETATM   36  C   UNL     1     -10.025  13.369  68.641  1.00  0.00    -0.139 A  
HETATM   37  C   UNL     1     -11.110  14.246  68.628  1.00  0.00    -0.273 A  
HETATM   38  C   UNL     1     -10.992  14.358  66.219  1.00  0.00    -0.318 A  
HETATM   39  C   UNL     1      -9.907  13.483  66.229  1.00  0.00    -0.306 A  
ENDBRANCH  33  34
ENDBRANCH  32  33
ENDBRANCH  31  32
ENDBRANCH  29  31
ENDBRANCH  28  29
ENDBRANCH  27  28
ENDBRANCH  14  27
ENDBRANCH  13  14
ENDBRANCH  12  13
ENDBRANCH   2  12
TORSDOF 20
ENDMDL
MODEL      387
REMARK 921   NORMALIZED FREE ENERGY PREDICTED BY IDOCK:   -1.28 KCAL/MOL
REMARK 922        TOTAL FREE ENERGY PREDICTED BY IDOCK:   -7.46 KCAL/MOL
REMARK 923 INTER-LIGAND FREE ENERGY PREDICTED BY IDOCK:   -4.97 KCAL/MOL
REMARK 924 INTRA-LIGAND FREE ENERGY PREDICTED BY IDOCK:   -2.49 KCAL/MOL
REMARK 927      BINDING AFFINITY PREDICTED BY RF-SCORE:    0.00 PKD
ROOT
HETATM    1  O   UNL     1      -7.760  11.892  69.556  1.00  0.00     0.279 OA 
HETATM    2  C   UNL     1      -7.569  10.808  69.023  1.00  0.00    -0.126 C  
ENDROOT
BRANCH   2   3
HETATM    3  C   UNL     1      -6.291  10.013  69.150  1.00  0.00    -0.044 C  
BRANCH   3   4
HETATM    4  C   UNL     1      -6.162   9.341  70.518  1.00  0.00    -0.058 C  
BRANCH   4   5
HETATM    5  C   UNL     1      -5.141   8.197  70.509  1.00  0.00    -0.023 C  
BRANCH   5   6
HETATM    6  C   UNL     1      -5.653   6.987  69.770  1.00  0.00    -0.022 A  
HETATM    7  C   UNL     1      -6.414   6.018  70.440  1.00  0.00    -0.043 A  
HETATM    8  C   UNL     1      -6.595   4.724  68.407  1.00  0.00    -0.046 A  
HETATM    9  C   UNL     1      -6.884   4.894  69.760  1.00  0.00    -0.052 A  
HETATM   10  C   UNL     1      -5.365   6.804  68.411  1.00  0.00    -0.016 A  
HETATM   11  C   UNL     1      -5.835   5.679  67.734  1.00  0.00    -0.013 A  
ENDBRANCH   5   6
ENDBRANCH   4   5
ENDBRANCH   3   4
ENDBRANCH   2   3
BRANCH   2  12
HETATM   12  O   UNL     1      -8.464  10.149  68.237  1.00  0.00    -0.112 OA 
BRANCH  12  13
HETATM   13  C   UNL     1      -9.300  10.962  67.392  1.00  0.00    -0.155 C  
BRANCH  13  14
HETATM   14  C   UNL     1      -9.244  10.447  65.951  1.00  0.00    -0.170 C  
BRANCH  14  15
HETATM   15  O   UNL     1     -10.090   9.284  65.836  1.00  0.00    -0.293 OA 
BRANCH  15  16
HETATM   16  C   UNL     1     -10.698   8.872  66.980  1.00  0.00    -0.110 C  
HETATM   17  O   UNL     1     -11.181   9.601  67.833  1.00  0.00    -0.143 OA 
BRANCH  16  18
HETATM   18  C   UNL     1     -10.664   7.367  67.066  1.00  0.00    -0.389 C  
BRANCH  18  19
HETATM   19  C   UNL     1      -9.696   6.882  68.139  1.00  0.00    -0.134 C  
BRANCH  19  20
HETATM   20  C   UNL     1      -9.987   5.452  68.608  1.00  0.00    -0.232 C  
BRANCH  20  21
HETATM   21  C   UNL     1     -10.564   5.481  70.000  1.00  0.00    -0.384 A  
HETATM   22  C   UNL     1     -11.454   5.677  72.648  1.00  0.00    -0.339 A  
HETATM   23  C   UNL     1     -10.156   4.542  70.956  1.00  0.00    -0.222 A  
HETATM   24  C   UNL     1     -11.439   6.507  70.380  1.00  0.00    -0.465 A  
HETATM   25  C   UNL     1     -10.602   4.641  72.275  1.00  0.00    -0.203 A  
HETATM   26  C   UNL     1     -11.881   6.605  71.700  1.00  0.00    -0.383 A  
ENDBRANCH  20  21
ENDBRANCH  19  20
ENDBRANCH  18  19
ENDBRANCH  16  18
ENDBRANCH  15  16
ENDBRANCH  14  15
BRANCH  14  27
HETATM   27  C   UNL     1      -7.820  10.026  65.569  1.00  0.00    -0.134 C  
BRANCH  27  28
HETATM   28  O   UNL     1      -7.548   8.674  65.965  1.00  0.00    -0.090 OA 
BRANCH  28  29
HETATM   29  C   UNL     1      -7.000   7.894  64.990  1.00  0.00    -0.059 C  
HETATM   30  O   UNL     1      -5.965   8.148  64.392  1.00  0.00    -0.055 OA 
BRANCH  29  31
HETATM   31  C   UNL     1      -7.851   6.670  64.766  1.00  0.00    -0.115 C  
BRANCH  31  32
HETATM   32  C   UNL     1      -7.178   5.678  63.823  1.00  0.00    -0.054 C  
BRANCH  32  33
HETATM   33  C   UNL     1      -8.036   4.435  63.553  1.00  0.00    -0.094 C  
BRANCH  33  34
HETATM   34  C   UNL     1      -7.912   3.459  64.695  1.00  0.00    -0.086 A  
HETATM   35  C   UNL     1      -7.676   1.790  66.932  1.00  0.00    -0.065 A  
HETATM   36  C   UNL     1      -9.056   3.027  65.380  1.00  0.00    -0.150 A  
HETATM   37  C   UNL     1      -8.937   2.195  66.494  1.00  0.00    -0.114 A  
HETATM   38  C   UNL     1      -6.535   2.206  66.248  1.00  0.00    -0.024 A  
HETATM   39  C   UNL     1      -6.651   3.036  65.134  1.00  0.00    -0.036 A  
ENDBRANCH  33  34
ENDBRANCH  32  33
ENDBRANCH  31  32
ENDBRANCH  29  31
ENDBRANCH  28  29
ENDBRANCH  27  28
ENDBRANCH  14  27
ENDBRANCH  13  14
ENDBRANCH  12  13
ENDBRANCH   2  12
TORSDOF 20
ENDMDL
MODEL      388
REMARK 921   NORMALIZED FREE ENERGY PREDICTED BY IDOCK:   -1.23 KCAL/MOL
REMARK 922        TOTAL FREE ENERGY PREDICTED BY IDOCK:   -7.34 KCAL/MOL
REMARK 923 INTER-LIGAND FREE ENERGY PREDICTED BY IDOCK:   -6.05 KCAL/MOL
REMARK 924 INTRA-LIGAND FREE ENERGY PREDICTED BY IDOCK:   -1.29 KCAL/MOL
REMARK 927      BINDING AFFINITY PREDICTED BY RF-SCORE:    0.00 PKD
ROOT
HETATM    1  O   UNL     1      -9.296   1.992  72.268  1.00  0.00    -0.078 OA 
HETATM    2  C   UNL     1      -8.383   2.609  71.737  1.00  0.00    -0.057 C  
ENDROOT
BRANCH   2   3
HETATM    3  C   UNL     1      -6.946   2.147  71.716  1.00  0.00    -0.030 C  
BRANCH   3   4
HETATM    4  C   UNL     1      -6.231   2.420  73.040  1.00  0.00    -0.009 C  
BRANCH   4   5
HETATM    5  C   UNL     1      -6.915   3.526  73.852  1.00  0.00    -0.046 C  
BRANCH   5   6
HETATM    6  C   UNL     1      -6.347   4.888  73.544  1.00  0.00    -0.058 A  
HETATM    7  C   UNL     1      -6.409   5.402  72.241  1.00  0.00    -0.046 A  
HETATM    8  C   UNL     1      -5.277   7.413  72.958  1.00  0.00    -0.037 A  
HETATM    9  C   UNL     1      -5.879   6.660  71.952  1.00  0.00    -0.037 A  
HETATM   10  C   UNL     1      -5.737   5.651  74.547  1.00  0.00    -0.049 A  
HETATM   11  C   UNL     1      -5.207   6.909  74.256  1.00  0.00    -0.046 A  
ENDBRANCH   5   6
ENDBRANCH   4   5
ENDBRANCH   3   4
ENDBRANCH   2   3
BRANCH   2  12
HETATM   12  O   UNL     1      -8.511   3.799  71.088  1.00  0.00    -0.070 OA 
BRANCH  12  13
HETATM   13  C   UNL     1      -9.347   3.806  69.915  1.00  0.00    -0.177 C  
BRANCH  13  14
HETATM   14  C   UNL     1      -9.781   5.239  69.593  1.00  0.00    -0.182 C  
BRANCH  14  15
HETATM   15  O   UNL     1     -10.942   5.566  70.384  1.00  0.00    -0.253 OA 
BRANCH  15  16
HETATM   16  C   UNL     1     -10.703   5.945  71.668  1.00  0.00    -0.252 C  
HETATM   17  O   UNL     1     -10.774   5.221  72.650  1.00  0.00    -0.215 OA 
BRANCH  16  18
HETATM   18  C   UNL     1     -10.361   7.413  71.715  1.00  0.00    -0.215 C  
BRANCH  18  19
HETATM   19  C   UNL     1     -11.346   8.250  70.905  1.00  0.00    -0.292 C  
BRANCH  19  20
HETATM   20  C   UNL     1     -11.879   9.462  71.678  1.00  0.00    -0.464 C  
BRANCH  20  21
HETATM   21  C   UNL     1     -11.974  10.651  70.756  1.00  0.00    -0.477 A  
HETATM   22  C   UNL     1     -11.915  12.887  69.073  1.00  0.00    -0.297 A  
HETATM   23  C   UNL     1     -12.201  11.932  71.273  1.00  0.00    -0.050 A  
HETATM   24  C   UNL     1     -11.739  10.499  69.383  1.00  0.00    -0.295 A  
HETATM   25  C   UNL     1     -12.172  13.046  70.432  1.00  0.00    -0.386 A  
HETATM   26  C   UNL     1     -11.708  11.614  68.545  1.00  0.00    -0.378 A  
ENDBRANCH  20  21
ENDBRANCH  19  20
ENDBRANCH  18  19
ENDBRANCH  16  18
ENDBRANCH  15  16
ENDBRANCH  14  15
BRANCH  14  27
HETATM   27  C   UNL     1     -10.169   5.380  68.116  1.00  0.00    -0.165 C  
BRANCH  27  28
HETATM   28  O   UNL     1      -9.320   6.317  67.438  1.00  0.00    -0.116 OA 
BRANCH  28  29
HETATM   29  C   UNL     1      -9.849   7.564  67.292  1.00  0.00    -0.179 C  
HETATM   30  O   UNL     1     -10.952   7.805  66.825  1.00  0.00    -0.145 OA 
BRANCH  29  31
HETATM   31  C   UNL     1      -8.879   8.602  67.799  1.00  0.00    -0.137 C  
BRANCH  31  32
HETATM   32  C   UNL     1      -8.574   9.657  66.741  1.00  0.00    -0.140 C  
BRANCH  32  33
HETATM   33  C   UNL     1      -8.919   9.193  65.319  1.00  0.00    -0.246 C  
BRANCH  33  34
HETATM   34  C   UNL     1      -7.699   8.611  64.652  1.00  0.00    -0.121 A  
HETATM   35  C   UNL     1      -5.444   7.387  63.530  1.00  0.00    -0.034 A  
HETATM   36  C   UNL     1      -7.841   7.676  63.617  1.00  0.00    -0.120 A  
HETATM   37  C   UNL     1      -6.717   7.068  63.059  1.00  0.00    -0.051 A  
HETATM   38  C   UNL     1      -5.294   8.324  64.550  1.00  0.00    -0.036 A  
HETATM   39  C   UNL     1      -6.416   8.935  65.109  1.00  0.00    -0.064 A  
ENDBRANCH  33  34
ENDBRANCH  32  33
ENDBRANCH  31  32
ENDBRANCH  29  31
ENDBRANCH  28  29
ENDBRANCH  27  28
ENDBRANCH  14  27
ENDBRANCH  13  14
ENDBRANCH  12  13
ENDBRANCH   2  12
TORSDOF 20
ENDMDL
MODEL      389
REMARK 921   NORMALIZED FREE ENERGY PREDICTED BY IDOCK:   -0.79 KCAL/MOL
REMARK 922        TOTAL FREE ENERGY PREDICTED BY IDOCK:   -6.39 KCAL/MOL
REMARK 923 INTER-LIGAND FREE ENERGY PREDICTED BY IDOCK:   -6.39 KCAL/MOL
REMARK 924 INTRA-LIGAND FREE ENERGY PREDICTED BY IDOCK:    0.00 KCAL/MOL
REMARK 927      BINDING AFFINITY PREDICTED BY RF-SCORE:    0.00 PKD
ROOT
HETATM    1  O   UNL     1      -8.404   8.259  73.416  1.00  0.00    -0.213 OA 
HETATM    2  C   UNL     1      -8.204   8.671  72.282  1.00  0.00    -0.039 C  
ENDROOT
BRANCH   2   3
HETATM    3  C   UNL     1      -6.876   8.581  71.568  1.00  0.00    -0.079 C  
BRANCH   3   4
HETATM    4  C   UNL     1      -6.578   7.163  71.079  1.00  0.00    -0.044 C  
BRANCH   4   5
HETATM    5  C   UNL     1      -6.558   7.068  69.549  1.00  0.00    -0.045 C  
BRANCH   5   6
HETATM    6  C   UNL     1      -6.065   8.341  68.909  1.00  0.00    -0.044 A  
HETATM    7  C   UNL     1      -5.949   8.432  67.515  1.00  0.00    -0.047 A  
HETATM    8  C   UNL     1      -5.131  10.698  67.711  1.00  0.00    -0.036 A  
HETATM    9  C   UNL     1      -5.486   9.607  66.920  1.00  0.00    -0.046 A  
HETATM   10  C   UNL     1      -5.702   9.442  69.695  1.00  0.00    -0.033 A  
HETATM   11  C   UNL     1      -5.239  10.615  69.098  1.00  0.00    -0.041 A  
ENDBRANCH   5   6
ENDBRANCH   4   5
ENDBRANCH   3   4
ENDBRANCH   2   3
BRANCH   2  12
HETATM   12  O   UNL     1      -9.132   9.272  71.487  1.00  0.00    -0.315 OA 
BRANCH  12  13
HETATM   13  C   UNL     1      -9.727   8.455  70.461  1.00  0.00    -0.173 C  
BRANCH  13  14
HETATM   14  C   UNL     1     -11.250   8.446  70.618  1.00  0.00    -0.255 C  
BRANCH  14  15
HETATM   15  O   UNL     1     -11.794   7.350  69.854  1.00  0.00     0.060 OA 
BRANCH  15  16
HETATM   16  C   UNL     1     -10.954   6.304  69.630  1.00  0.00    -0.374 C  
HETATM   17  O   UNL     1     -10.826   5.325  70.350  1.00  0.00    -0.213 OA 
BRANCH  16  18
HETATM   18  C   UNL     1     -10.169   6.538  68.363  1.00  0.00    -0.192 C  
BRANCH  18  19
HETATM   19  C   UNL     1      -8.959   5.616  68.268  1.00  0.00    -0.114 C  
BRANCH  19  20
HETATM   20  C   UNL     1      -8.260   5.682  66.905  1.00  0.00    -0.105 C  
BRANCH  20  21
HETATM   21  C   UNL     1      -8.869   4.665  65.973  1.00  0.00    -0.121 A  
HETATM   22  C   UNL     1      -9.782   2.743  64.154  1.00  0.00    -0.151 A  
HETATM   23  C   UNL     1      -9.323   5.050  64.705  1.00  0.00     0.087 A  
HETATM   24  C   UNL     1      -8.898   3.310  66.328  1.00  0.00    -0.140 A  
HETATM   25  C   UNL     1      -9.778   4.090  63.800  1.00  0.00    -0.153 A  
HETATM   26  C   UNL     1      -9.352   2.353  65.421  1.00  0.00    -0.022 A  
ENDBRANCH  20  21
ENDBRANCH  19  20
ENDBRANCH  18  19
ENDBRANCH  16  18
ENDBRANCH  15  16
ENDBRANCH  14  15
BRANCH  14  27
HETATM   27  C   UNL     1     -11.869   9.742  70.080  1.00  0.00    -0.008 C  
BRANCH  27  28
HETATM   28  O   UNL     1     -11.421  10.022  68.746  1.00  0.00    -0.122 OA 
BRANCH  28  29
HETATM   29  C   UNL     1     -10.754  11.203  68.605  1.00  0.00    -0.198 C  
HETATM   30  O   UNL     1      -9.672  11.459  69.113  1.00  0.00    -0.074 OA 
BRANCH  29  31
HETATM   31  C   UNL     1     -11.541  12.141  67.726  1.00  0.00    -0.410 C  
BRANCH  31  32
HETATM   32  C   UNL     1     -12.423  13.078  68.544  1.00  0.00     0.421 C  
BRANCH  32  33
HETATM   33  C   UNL     1     -11.619  14.139  69.308  1.00  0.00    -0.350 C  
BRANCH  33  34
HETATM   34  C   UNL     1     -12.144  14.277  70.714  1.00  0.00    -0.418 A  
HETATM   35  C   UNL     1     -13.274  14.607  73.256  1.00  0.00    -0.411 A  
HETATM   36  C   UNL     1     -12.944  13.270  71.270  1.00  0.00    -0.353 A  
HETATM   37  C   UNL     1     -13.506  13.435  72.536  1.00  0.00    -0.640 A  
HETATM   38  C   UNL     1     -12.469  15.608  72.715  1.00  0.00    -0.537 A  
HETATM   39  C   UNL     1     -11.905  15.444  71.450  1.00  0.00    -0.443 A  
ENDBRANCH  33  34
ENDBRANCH  32  33
ENDBRANCH  31  32
ENDBRANCH  29  31
ENDBRANCH  28  29
ENDBRANCH  27  28
ENDBRANCH  14  27
ENDBRANCH  13  14
ENDBRANCH  12  13
ENDBRANCH   2  12
TORSDOF 20
ENDMDL
MODEL      390
REMARK 921   NORMALIZED FREE ENERGY PREDICTED BY IDOCK:   -0.78 KCAL/MOL
REMARK 922        TOTAL FREE ENERGY PREDICTED BY IDOCK:   -6.38 KCAL/MOL
REMARK 923 INTER-LIGAND FREE ENERGY PREDICTED BY IDOCK:   -6.75 KCAL/MOL
REMARK 924 INTRA-LIGAND FREE ENERGY PREDICTED BY IDOCK:    0.37 KCAL/MOL
REMARK 927      BINDING AFFINITY PREDICTED BY RF-SCORE:    0.00 PKD
ROOT
HETATM    1  O   UNL     1     -11.879  10.298  69.167  1.00  0.00    -0.119 OA 
HETATM    2  C   UNL     1     -11.299   9.925  70.177  1.00  0.00    -0.275 C  
ENDROOT
BRANCH   2   3
HETATM    3  C   UNL     1     -11.979   9.672  71.502  1.00  0.00    -0.485 C  
BRANCH   3   4
HETATM    4  C   UNL     1     -11.239   8.629  72.341  1.00  0.00    -0.339 C  
BRANCH   4   5
HETATM    5  C   UNL     1     -11.934   7.263  72.315  1.00  0.00    -0.259 C  
BRANCH   5   6
HETATM    6  C   UNL     1     -11.032   6.160  72.810  1.00  0.00    -0.294 A  
HETATM    7  C   UNL     1     -11.579   4.956  73.277  1.00  0.00    -0.276 A  
HETATM    8  C   UNL     1      -9.365   4.111  73.750  1.00  0.00    -0.105 A  
HETATM    9  C   UNL     1     -10.748   3.936  73.742  1.00  0.00    -0.311 A  
HETATM   10  C   UNL     1      -9.642   6.327  72.826  1.00  0.00    -0.155 A  
HETATM   11  C   UNL     1      -8.813   5.306  73.292  1.00  0.00    -0.118 A  
ENDBRANCH   5   6
ENDBRANCH   4   5
ENDBRANCH   3   4
ENDBRANCH   2   3
BRANCH   2  12
HETATM   12  O   UNL     1      -9.963   9.684  70.274  1.00  0.00    -0.241 OA 
BRANCH  12  13
HETATM   13  C   UNL     1      -9.329   9.100  69.120  1.00  0.00    -0.152 C  
BRANCH  13  14
HETATM   14  C   UNL     1     -10.197   7.967  68.565  1.00  0.00    -0.207 C  
BRANCH  14  15
HETATM   15  O   UNL     1      -9.639   6.703  68.981  1.00  0.00    -0.135 OA 
BRANCH  15  16
HETATM   16  C   UNL     1      -8.420   6.757  69.582  1.00  0.00    -0.133 C  
HETATM   17  O   UNL     1      -7.791   7.776  69.828  1.00  0.00    -0.101 OA 
BRANCH  16  18
HETATM   18  C   UNL     1      -7.932   5.362  69.880  1.00  0.00    -0.081 C  
BRANCH  18  19
HETATM   19  C   UNL     1      -7.936   4.483  68.634  1.00  0.00    -0.078 C  
BRANCH  19  20
HETATM   20  C   UNL     1      -6.581   4.452  67.917  1.00  0.00    -0.043 C  
BRANCH  20  21
HETATM   21  C   UNL     1      -6.645   5.302  66.674  1.00  0.00    -0.056 A  
HETATM   22  C   UNL     1      -6.963   6.977  64.453  1.00  0.00    -0.055 A  
HETATM   23  C   UNL     1      -7.359   4.863  65.551  1.00  0.00    -0.073 A  
HETATM   24  C   UNL     1      -6.074   6.582  66.663  1.00  0.00    -0.033 A  
HETATM   25  C   UNL     1      -7.515   5.699  64.445  1.00  0.00    -0.073 A  
HETATM   26  C   UNL     1      -6.234   7.416  65.557  1.00  0.00    -0.038 A  
ENDBRANCH  20  21
ENDBRANCH  19  20
ENDBRANCH  18  19
ENDBRANCH  16  18
ENDBRANCH  15  16
ENDBRANCH  14  15
BRANCH  14  27
HETATM   27  C   UNL     1     -10.216   7.986  67.032  1.00  0.00    -0.303 C  
BRANCH  27  28
HETATM   28  O   UNL     1     -10.864   9.163  66.529  1.00  0.00    -0.013 OA 
BRANCH  28  29
HETATM   29  C   UNL     1     -10.022  10.101  66.011  1.00  0.00    -0.256 C  
HETATM   30  O   UNL     1      -8.807   9.982  65.932  1.00  0.00    -0.137 OA 
BRANCH  29  31
HETATM   31  C   UNL     1     -10.806  11.300  65.543  1.00  0.00    -0.244 C  
BRANCH  31  32
HETATM   32  C   UNL     1     -11.335  11.112  64.125  1.00  0.00     0.062 C  
BRANCH  32  33
HETATM   33  C   UNL     1     -11.422  12.429  63.342  1.00  0.00    -0.526 C  
BRANCH  33  34
HETATM   34  C   UNL     1     -11.197  13.600  64.263  1.00  0.00    -0.355 A  
HETATM   35  C   UNL     1     -10.744  15.879  65.827  1.00  0.00    -0.325 A  
HETATM   36  C   UNL     1     -12.247  14.483  64.549  1.00  0.00    -0.483 A  
HETATM   37  C   UNL     1     -12.020  15.618  65.328  1.00  0.00     0.460 A  
HETATM   38  C   UNL     1      -9.698  14.998  65.557  1.00  0.00    -0.294 A  
HETATM   39  C   UNL     1      -9.922  13.863  64.780  1.00  0.00    -0.105 A  
ENDBRANCH  33  34
ENDBRANCH  32  33
ENDBRANCH  31  32
ENDBRANCH  29  31
ENDBRANCH  28  29
ENDBRANCH  27  28
ENDBRANCH  14  27
ENDBRANCH  13  14
ENDBRANCH  12  13
ENDBRANCH   2  12
TORSDOF 20
ENDMDL
MODEL      391
REMARK 921   NORMALIZED FREE ENERGY PREDICTED BY IDOCK:   -0.76 KCAL/MOL
REMARK 922        TOTAL FREE ENERGY PREDICTED BY IDOCK:   -6.34 KCAL/MOL
REMARK 923 INTER-LIGAND FREE ENERGY PREDICTED BY IDOCK:   -5.42 KCAL/MOL
REMARK 924 INTRA-LIGAND FREE ENERGY PREDICTED BY IDOCK:   -0.92 KCAL/MOL
REMARK 927      BINDING AFFINITY PREDICTED BY RF-SCORE:    0.00 PKD
ROOT
HETATM    1  O   UNL     1      -9.394  11.048  70.266  1.00  0.00     1.215 OA 
HETATM    2  C   UNL     1      -9.115  10.623  69.154  1.00  0.00    -0.139 C  
ENDROOT
BRANCH   2   3
HETATM    3  C   UNL     1      -9.118  11.462  67.898  1.00  0.00    -0.164 C  
BRANCH   3   4
HETATM    4  C   UNL     1     -10.033  12.682  68.020  1.00  0.00    -0.220 C  
BRANCH   4   5
HETATM    5  C   UNL     1     -11.435  12.415  67.459  1.00  0.00    -0.410 C  
BRANCH   5   6
HETATM    6  C   UNL     1     -11.435  12.332  65.954  1.00  0.00    -0.428 A  
HETATM    7  C   UNL     1     -10.813  11.255  65.305  1.00  0.00    -0.261 A  
HETATM    8  C   UNL     1     -11.416  12.176  63.154  1.00  0.00    -0.263 A  
HETATM    9  C   UNL     1     -10.807  11.178  63.912  1.00  0.00    -0.346 A  
HETATM   10  C   UNL     1     -12.041  13.332  65.183  1.00  0.00    -0.452 A  
HETATM   11  C   UNL     1     -12.033  13.253  63.790  1.00  0.00    -0.551 A  
ENDBRANCH   5   6
ENDBRANCH   4   5
ENDBRANCH   3   4
ENDBRANCH   2   3
BRANCH   2  12
HETATM   12  O   UNL     1      -8.762   9.339  68.868  1.00  0.00    -0.128 OA 
BRANCH  12  13
HETATM   13  C   UNL     1      -9.751   8.326  69.130  1.00  0.00    -0.171 C  
BRANCH  13  14
HETATM   14  C   UNL     1      -9.206   7.314  70.142  1.00  0.00    -0.152 C  
BRANCH  14  15
HETATM   15  O   UNL     1      -7.894   7.738  70.568  1.00  0.00    -0.093 OA 
BRANCH  15  16
HETATM   16  C   UNL     1      -7.845   8.460  71.719  1.00  0.00    -0.126 C  
HETATM   17  O   UNL     1      -7.068   9.373  71.955  1.00  0.00    -0.308 OA 
BRANCH  16  18
HETATM   18  C   UNL     1      -8.878   7.948  72.691  1.00  0.00    -0.235 C  
BRANCH  18  19
HETATM   19  C   UNL     1      -8.804   6.434  72.852  1.00  0.00    -0.124 C  
BRANCH  19  20
HETATM   20  C   UNL     1      -9.836   5.884  73.843  1.00  0.00    -0.189 C  
BRANCH  20  21
HETATM   21  C   UNL     1      -9.817   4.377  73.813  1.00  0.00    -0.167 A  
HETATM   22  C   UNL     1      -9.623   1.594  73.581  1.00  0.00    -0.090 A  
HETATM   23  C   UNL     1     -10.687   3.674  72.970  1.00  0.00    -0.235 A  
HETATM   24  C   UNL     1      -8.863   3.669  74.555  1.00  0.00    -0.097 A  
HETATM   25  C   UNL     1     -10.589   2.287  72.857  1.00  0.00    -0.238 A  
HETATM   26  C   UNL     1      -8.766   2.283  74.438  1.00  0.00    -0.071 A  
ENDBRANCH  20  21
ENDBRANCH  19  20
ENDBRANCH  18  19
ENDBRANCH  16  18
ENDBRANCH  15  16
ENDBRANCH  14  15
BRANCH  14  27
HETATM   27  C   UNL     1      -9.064   5.923  69.512  1.00  0.00    -0.132 C  
BRANCH  27  28
HETATM   28  O   UNL     1      -7.696   5.627  69.197  1.00  0.00    -0.085 OA 
BRANCH  28  29
HETATM   29  C   UNL     1      -7.378   5.736  67.876  1.00  0.00    -0.077 C  
HETATM   30  O   UNL     1      -6.634   6.583  67.404  1.00  0.00    -0.056 OA 
BRANCH  29  31
HETATM   31  C   UNL     1      -8.070   4.655  67.085  1.00  0.00    -0.102 C  
BRANCH  31  32
HETATM   32  C   UNL     1      -7.127   3.991  66.088  1.00  0.00    -0.067 C  
BRANCH  32  33
HETATM   33  C   UNL     1      -7.631   4.075  64.642  1.00  0.00    -0.077 C  
BRANCH  33  34
HETATM   34  C   UNL     1      -7.379   5.451  64.082  1.00  0.00    -0.057 A  
HETATM   35  C   UNL     1      -6.828   7.929  62.897  1.00  0.00    -0.084 A  
HETATM   36  C   UNL     1      -8.281   6.017  63.170  1.00  0.00    -0.043 A  
HETATM   37  C   UNL     1      -8.005   7.251  62.581  1.00  0.00    -0.123 A  
HETATM   38  C   UNL     1      -5.933   7.378  63.812  1.00  0.00    -0.048 A  
HETATM   39  C   UNL     1      -6.206   6.146  64.403  1.00  0.00    -0.030 A  
ENDBRANCH  33  34
ENDBRANCH  32  33
ENDBRANCH  31  32
ENDBRANCH  29  31
ENDBRANCH  28  29
ENDBRANCH  27  28
ENDBRANCH  14  27
ENDBRANCH  13  14
ENDBRANCH  12  13
ENDBRANCH   2  12
TORSDOF 20
ENDMDL
MODEL      392
REMARK 921   NORMALIZED FREE ENERGY PREDICTED BY IDOCK:   -0.73 KCAL/MOL
REMARK 922        TOTAL FREE ENERGY PREDICTED BY IDOCK:   -6.26 KCAL/MOL
REMARK 923 INTER-LIGAND FREE ENERGY PREDICTED BY IDOCK:   -4.01 KCAL/MOL
REMARK 924 INTRA-LIGAND FREE ENERGY PREDICTED BY IDOCK:   -2.24 KCAL/MOL
REMARK 927      BINDING AFFINITY PREDICTED BY RF-SCORE:    0.00 PKD
ROOT
HETATM    1  O   UNL     1     -12.883  14.412  70.096  1.00  0.00    -0.293 OA 
HETATM    2  C   UNL     1     -12.240  13.862  69.213  1.00  0.00    -0.277 C  
ENDROOT
BRANCH   2   3
HETATM    3  C   UNL     1     -12.671  13.790  67.768  1.00  0.00     0.878 C  
BRANCH   3   4
HETATM    4  C   UNL     1     -12.174  12.519  67.078  1.00  0.00     0.074 C  
BRANCH   4   5
HETATM    5  C   UNL     1     -12.131  12.664  65.552  1.00  0.00    -0.515 C  
BRANCH   5   6
HETATM    6  C   UNL     1     -10.972  11.917  64.944  1.00  0.00    -0.367 A  
HETATM    7  C   UNL     1     -10.834  10.536  65.150  1.00  0.00     0.160 A  
HETATM    8  C   UNL     1      -8.809  10.520  63.832  1.00  0.00    -0.203 A  
HETATM    9  C   UNL     1      -9.759   9.843  64.594  1.00  0.00    -0.265 A  
HETATM   10  C   UNL     1     -10.010  12.589  64.180  1.00  0.00    -0.226 A  
HETATM   11  C   UNL     1      -8.935  11.893  63.626  1.00  0.00     0.516 A  
ENDBRANCH   5   6
ENDBRANCH   4   5
ENDBRANCH   3   4
ENDBRANCH   2   3
BRANCH   2  12
HETATM   12  O   UNL     1     -11.047  13.229  69.386  1.00  0.00    -0.197 OA 
BRANCH  12  13
HETATM   13  C   UNL     1      -9.914  14.064  69.692  1.00  0.00     0.631 C  
BRANCH  13  14
HETATM   14  C   UNL     1      -8.812  13.852  68.649  1.00  0.00    -0.076 C  
BRANCH  14  15
HETATM   15  O   UNL     1      -8.978  14.818  67.590  1.00  0.00    -0.173 OA 
BRANCH  15  16
HETATM   16  C   UNL     1      -8.251  15.961  67.705  1.00  0.00    -0.150 C  
HETATM   17  O   UNL     1      -8.664  17.092  67.497  1.00  0.00    -0.206 OA 
BRANCH  16  18
HETATM   18  C   UNL     1      -6.835  15.631  68.103  1.00  0.00    -0.130 C  
BRANCH  18  19
HETATM   19  C   UNL     1      -5.976  16.884  68.230  1.00  0.00    -0.129 C  
BRANCH  19  20
HETATM   20  C   UNL     1      -5.331  17.306  66.905  1.00  0.00    -0.202 C  
BRANCH  20  21
HETATM   21  C   UNL     1      -5.754  18.711  66.558  1.00  0.00    -0.175 A  
HETATM   22  C   UNL     1      -6.740  21.279  66.038  1.00  0.00     0.074 A  
HETATM   23  C   UNL     1      -6.520  18.957  65.410  1.00  0.00    -0.309 A  
HETATM   24  C   UNL     1      -5.470  19.769  67.430  1.00  0.00    -0.172 A  
HETATM   25  C   UNL     1      -7.009  20.238  65.153  1.00  0.00    -0.246 A  
HETATM   26  C   UNL     1      -5.963  21.048  67.172  1.00  0.00    -0.348 A  
ENDBRANCH  20  21
ENDBRANCH  19  20
ENDBRANCH  18  19
ENDBRANCH  16  18
ENDBRANCH  15  16
ENDBRANCH  14  15
BRANCH  14  27
HETATM   27  C   UNL     1      -8.904  12.455  68.025  1.00  0.00    -0.187 C  
BRANCH  27  28
HETATM   28  O   UNL     1      -8.367  11.452  68.900  1.00  0.00    -0.130 OA 
BRANCH  28  29
HETATM   29  C   UNL     1      -7.977  10.303  68.280  1.00  0.00    -0.106 C  
HETATM   30  O   UNL     1      -7.707  10.207  67.092  1.00  0.00    -0.092 OA 
BRANCH  29  31
HETATM   31  C   UNL     1      -7.919   9.171  69.274  1.00  0.00    -0.097 C  
BRANCH  31  32
HETATM   32  C   UNL     1      -9.268   8.474  69.418  1.00  0.00    -0.153 C  
BRANCH  32  33
HETATM   33  C   UNL     1      -9.398   7.692  70.732  1.00  0.00    -0.162 C  
BRANCH  33  34
HETATM   34  C   UNL     1      -8.858   6.296  70.562  1.00  0.00    -0.144 A  
HETATM   35  C   UNL     1      -7.961   3.648  70.390  1.00  0.00    -0.053 A  
HETATM   36  C   UNL     1      -9.555   5.360  69.785  1.00  0.00    -0.225 A  
HETATM   37  C   UNL     1      -9.107   4.042  69.700  1.00  0.00    -0.186 A  
HETATM   38  C   UNL     1      -7.255   4.575  71.155  1.00  0.00    -0.044 A  
HETATM   39  C   UNL     1      -7.701   5.894  71.241  1.00  0.00    -0.110 A  
ENDBRANCH  33  34
ENDBRANCH  32  33
ENDBRANCH  31  32
ENDBRANCH  29  31
ENDBRANCH  28  29
ENDBRANCH  27  28
ENDBRANCH  14  27
ENDBRANCH  13  14
ENDBRANCH  12  13
ENDBRANCH   2  12
TORSDOF 20
ENDMDL
MODEL      393
REMARK 921   NORMALIZED FREE ENERGY PREDICTED BY IDOCK:   -0.67 KCAL/MOL
REMARK 922        TOTAL FREE ENERGY PREDICTED BY IDOCK:   -6.14 KCAL/MOL
REMARK 923 INTER-LIGAND FREE ENERGY PREDICTED BY IDOCK:   -4.31 KCAL/MOL
REMARK 924 INTRA-LIGAND FREE ENERGY PREDICTED BY IDOCK:   -1.83 KCAL/MOL
REMARK 927      BINDING AFFINITY PREDICTED BY RF-SCORE:    0.00 PKD
ROOT
HETATM    1  O   UNL     1      -7.714  12.882  67.493  1.00  0.00    -0.151 OA 
HETATM    2  C   UNL     1      -7.755  11.699  67.186  1.00  0.00    -0.159 C  
ENDROOT
BRANCH   2   3
HETATM    3  C   UNL     1      -7.039  11.104  65.998  1.00  0.00     0.061 C  
BRANCH   3   4
HETATM    4  C   UNL     1      -5.724  10.429  66.394  1.00  0.00    -0.070 C  
BRANCH   4   5
HETATM    5  C   UNL     1      -5.132   9.595  65.252  1.00  0.00    -0.039 C  
BRANCH   5   6
HETATM    6  C   UNL     1      -6.200   8.892  64.452  1.00  0.00    -0.071 A  
HETATM    7  C   UNL     1      -6.565   7.575  64.766  1.00  0.00    -0.040 A  
HETATM    8  C   UNL     1      -8.171   7.569  62.959  1.00  0.00     0.016 A  
HETATM    9  C   UNL     1      -7.548   6.919  64.023  1.00  0.00    -0.112 A  
HETATM   10  C   UNL     1      -6.828   9.534  63.379  1.00  0.00    -0.102 A  
HETATM   11  C   UNL     1      -7.810   8.877  62.637  1.00  0.00    -0.132 A  
ENDBRANCH   5   6
ENDBRANCH   4   5
ENDBRANCH   3   4
ENDBRANCH   2   3
BRANCH   2  12
HETATM   12  O   UNL     1      -8.447  10.736  67.856  1.00  0.00    -0.118 OA 
BRANCH  12  13
HETATM   13  C   UNL     1      -8.255   9.379  67.413  1.00  0.00    -0.121 C  
BRANCH  13  14
HETATM   14  C   UNL     1      -9.151   8.435  68.220  1.00  0.00    -0.139 C  
BRANCH  14  15
HETATM   15  O   UNL     1      -8.966   8.703  69.626  1.00  0.00    -0.141 OA 
BRANCH  15  16
HETATM   16  C   UNL     1      -9.846   8.100  70.470  1.00  0.00    -0.186 C  
HETATM   17  O   UNL     1     -10.838   7.470  70.134  1.00  0.00    -0.243 OA 
BRANCH  16  18
HETATM   18  C   UNL     1      -9.438   8.348  71.900  1.00  0.00    -0.323 C  
BRANCH  18  19
HETATM   19  C   UNL     1      -8.025   7.847  72.180  1.00  0.00    -0.145 C  
BRANCH  19  20
HETATM   20  C   UNL     1      -7.880   7.206  73.565  1.00  0.00    -0.113 C  
BRANCH  20  21
HETATM   21  C   UNL     1      -8.244   5.745  73.489  1.00  0.00    -0.112 A  
HETATM   22  C   UNL     1      -8.729   2.988  73.483  1.00  0.00    -0.077 A  
HETATM   23  C   UNL     1      -7.717   4.936  72.475  1.00  0.00    -0.093 A  
HETATM   24  C   UNL     1      -9.035   5.162  74.488  1.00  0.00    -0.113 A  
HETATM   25  C   UNL     1      -7.961   3.562  72.473  1.00  0.00    -0.069 A  
HETATM   26  C   UNL     1      -9.275   3.788  74.485  1.00  0.00    -0.116 A  
ENDBRANCH  20  21
ENDBRANCH  19  20
ENDBRANCH  18  19
ENDBRANCH  16  18
ENDBRANCH  15  16
ENDBRANCH  14  15
BRANCH  14  27
HETATM   27  C   UNL     1      -8.775   6.969  67.972  1.00  0.00    -0.126 C  
BRANCH  27  28
HETATM   28  O   UNL     1      -9.219   6.526  66.681  1.00  0.00    -0.144 OA 
BRANCH  28  29
HETATM   29  C   UNL     1     -10.469   5.984  66.664  1.00  0.00    -0.228 C  
HETATM   30  O   UNL     1     -11.502   6.603  66.878  1.00  0.00    -0.209 OA 
BRANCH  29  31
HETATM   31  C   UNL     1     -10.395   4.515  66.333  1.00  0.00    -0.194 C  
BRANCH  31  32
HETATM   32  C   UNL     1      -9.199   4.195  65.442  1.00  0.00    -0.151 C  
BRANCH  32  33
HETATM   33  C   UNL     1      -8.645   2.783  65.672  1.00  0.00    -0.107 C  
BRANCH  33  34
HETATM   34  C   UNL     1      -7.660   2.789  66.812  1.00  0.00    -0.071 A  
HETATM   35  C   UNL     1      -5.720   2.689  68.830  1.00  0.00    -0.023 A  
HETATM   36  C   UNL     1      -6.603   3.710  66.826  1.00  0.00    -0.042 A  
HETATM   37  C   UNL     1      -5.638   3.659  67.831  1.00  0.00    -0.021 A  
HETATM   38  C   UNL     1      -6.774   1.777  68.830  1.00  0.00    -0.029 A  
HETATM   39  C   UNL     1      -7.741   1.826  67.826  1.00  0.00    -0.058 A  
ENDBRANCH  33  34
ENDBRANCH  32  33
ENDBRANCH  31  32
ENDBRANCH  29  31
ENDBRANCH  28  29
ENDBRANCH  27  28
ENDBRANCH  14  27
ENDBRANCH  13  14
ENDBRANCH  12  13
ENDBRANCH   2  12
TORSDOF 20
ENDMDL
MODEL      394
REMARK 921   NORMALIZED FREE ENERGY PREDICTED BY IDOCK:   -0.64 KCAL/MOL
REMARK 922        TOTAL FREE ENERGY PREDICTED BY IDOCK:   -6.07 KCAL/MOL
REMARK 923 INTER-LIGAND FREE ENERGY PREDICTED BY IDOCK:   -7.59 KCAL/MOL
REMARK 924 INTRA-LIGAND FREE ENERGY PREDICTED BY IDOCK:    1.52 KCAL/MOL
REMARK 927      BINDING AFFINITY PREDICTED BY RF-SCORE:    0.00 PKD
ROOT
HETATM    1  O   UNL     1      -7.816  15.431  67.450  1.00  0.00    -0.154 OA 
HETATM    2  C   UNL     1      -8.365  14.358  67.657  1.00  0.00    -0.179 C  
ENDROOT
BRANCH   2   3
HETATM    3  C   UNL     1      -7.654  13.122  68.154  1.00  0.00    -0.141 C  
BRANCH   3   4
HETATM    4  C   UNL     1      -6.547  12.669  67.201  1.00  0.00    -0.016 C  
BRANCH   4   5
HETATM    5  C   UNL     1      -5.641  11.603  67.827  1.00  0.00    -0.053 C  
BRANCH   5   6
HETATM    6  C   UNL     1      -5.821  10.254  67.178  1.00  0.00    -0.050 A  
HETATM    7  C   UNL     1      -6.104  10.161  65.807  1.00  0.00    -0.098 A  
HETATM    8  C   UNL     1      -6.175   7.751  65.964  1.00  0.00    -0.042 A  
HETATM    9  C   UNL     1      -6.277   8.915  65.205  1.00  0.00    -0.060 A  
HETATM   10  C   UNL     1      -5.724   9.078  67.933  1.00  0.00    -0.035 A  
HETATM   11  C   UNL     1      -5.898   7.833  67.328  1.00  0.00    -0.037 A  
ENDBRANCH   5   6
ENDBRANCH   4   5
ENDBRANCH   3   4
ENDBRANCH   2   3
BRANCH   2  12
HETATM   12  O   UNL     1      -9.690  14.103  67.473  1.00  0.00    -0.227 OA 
BRANCH  12  13
HETATM   13  C   UNL     1     -10.472  15.157  66.879  1.00  0.00    -0.282 C  
BRANCH  13  14
HETATM   14  C   UNL     1     -11.468  15.709  67.903  1.00  0.00    -0.251 C  
BRANCH  14  15
HETATM   15  O   UNL     1     -11.398  17.150  67.894  1.00  0.00    -0.083 OA 
BRANCH  15  16
HETATM   16  C   UNL     1     -10.314  17.700  68.503  1.00  0.00    -0.370 C  
HETATM   17  O   UNL     1      -9.315  17.095  68.862  1.00  0.00    -0.259 OA 
BRANCH  16  18
HETATM   18  C   UNL     1     -10.533  19.178  68.704  1.00  0.00    -0.153 C  
BRANCH  18  19
HETATM   19  C   UNL     1      -9.948  19.998  67.559  1.00  0.00    -0.565 C  
BRANCH  19  20
HETATM   20  C   UNL     1      -9.361  19.130  66.439  1.00  0.00    -0.379 C  
BRANCH  20  21
HETATM   21  C   UNL     1      -7.871  19.340  66.362  1.00  0.00    -0.303 A  
HETATM   22  C   UNL     1      -5.128  19.755  65.985  1.00  0.00    -0.167 A  
HETATM   23  C   UNL     1      -7.012  18.253  66.160  1.00  0.00    -0.301 A  
HETATM   24  C   UNL     1      -7.338  20.636  66.396  1.00  0.00    -0.169 A  
HETATM   25  C   UNL     1      -5.644  18.462  65.973  1.00  0.00    -0.208 A  
HETATM   26  C   UNL     1      -5.972  20.842  66.206  1.00  0.00    -0.269 A  
ENDBRANCH  20  21
ENDBRANCH  19  20
ENDBRANCH  18  19
ENDBRANCH  16  18
ENDBRANCH  15  16
ENDBRANCH  14  15
BRANCH  14  27
HETATM   27  C   UNL     1     -11.123  15.235  69.320  1.00  0.00    -0.274 C  
BRANCH  27  28
HETATM   28  O   UNL     1     -10.954  13.811  69.370  1.00  0.00    -0.200 OA 
BRANCH  28  29
HETATM   29  C   UNL     1     -12.077  13.093  69.086  1.00  0.00    -0.214 C  
HETATM   30  O   UNL     1     -12.467  12.823  67.959  1.00  0.00    -0.006 OA 
BRANCH  29  31
HETATM   31  C   UNL     1     -12.762  12.673  70.361  1.00  0.00     0.017 C  
BRANCH  31  32
HETATM   32  C   UNL     1     -12.138  11.413  70.951  1.00  0.00    -0.383 C  
BRANCH  32  33
HETATM   33  C   UNL     1     -12.091  10.247  69.954  1.00  0.00    -0.178 C  
BRANCH  33  34
HETATM   34  C   UNL     1     -10.913   9.355  70.251  1.00  0.00    -0.305 A  
HETATM   35  C   UNL     1      -8.846   7.562  70.846  1.00  0.00    -0.144 A  
HETATM   36  C   UNL     1     -10.412   8.497  69.262  1.00  0.00    -0.224 A  
HETATM   37  C   UNL     1      -9.382   7.605  69.560  1.00  0.00    -0.153 A  
HETATM   38  C   UNL     1      -9.330   8.420  71.832  1.00  0.00    -0.313 A  
HETATM   39  C   UNL     1     -10.359   9.314  71.536  1.00  0.00    -0.364 A  
ENDBRANCH  33  34
ENDBRANCH  32  33
ENDBRANCH  31  32
ENDBRANCH  29  31
ENDBRANCH  28  29
ENDBRANCH  27  28
ENDBRANCH  14  27
ENDBRANCH  13  14
ENDBRANCH  12  13
ENDBRANCH   2  12
TORSDOF 20
ENDMDL
MODEL      395
REMARK 921   NORMALIZED FREE ENERGY PREDICTED BY IDOCK:   -0.54 KCAL/MOL
REMARK 922        TOTAL FREE ENERGY PREDICTED BY IDOCK:   -5.85 KCAL/MOL
REMARK 923 INTER-LIGAND FREE ENERGY PREDICTED BY IDOCK:   -6.16 KCAL/MOL
REMARK 924 INTRA-LIGAND FREE ENERGY PREDICTED BY IDOCK:    0.32 KCAL/MOL
REMARK 927      BINDING AFFINITY PREDICTED BY RF-SCORE:    0.00 PKD
ROOT
HETATM    1  O   UNL     1     -10.733  11.059  66.764  1.00  0.00    -0.256 OA 
HETATM    2  C   UNL     1      -9.738  10.473  66.362  1.00  0.00    -0.198 C  
ENDROOT
BRANCH   2   3
HETATM    3  C   UNL     1      -9.740   9.473  65.230  1.00  0.00    -0.268 C  
BRANCH   3   4
HETATM    4  C   UNL     1      -8.800   9.883  64.095  1.00  0.00    -0.251 C  
BRANCH   4   5
HETATM    5  C   UNL     1      -8.646  11.404  63.989  1.00  0.00     0.511 C  
BRANCH   5   6
HETATM    6  C   UNL     1      -9.979  12.106  63.932  1.00  0.00    -0.329 A  
HETATM    7  C   UNL     1     -10.125  13.393  64.470  1.00  0.00    -0.220 A  
HETATM    8  C   UNL     1     -12.459  13.412  63.846  1.00  0.00    -0.313 A  
HETATM    9  C   UNL     1     -11.359  14.042  64.424  1.00  0.00    -0.330 A  
HETATM   10  C   UNL     1     -11.092  11.480  63.357  1.00  0.00    -0.370 A  
HETATM   11  C   UNL     1     -12.325  12.131  63.312  1.00  0.00    -0.547 A  
ENDBRANCH   5   6
ENDBRANCH   4   5
ENDBRANCH   3   4
ENDBRANCH   2   3
BRANCH   2  12
HETATM   12  O   UNL     1      -8.481  10.620  66.864  1.00  0.00    -0.124 OA 
BRANCH  12  13
HETATM   13  C   UNL     1      -8.048   9.630  67.817  1.00  0.00    -0.113 C  
BRANCH  13  14
HETATM   14  C   UNL     1      -8.631   9.944  69.198  1.00  0.00    -0.157 C  
BRANCH  14  15
HETATM   15  O   UNL     1      -7.778  10.902  69.858  1.00  0.00     0.043 OA 
BRANCH  15  16
HETATM   16  C   UNL     1      -6.501  10.982  69.399  1.00  0.00    -0.095 C  
HETATM   17  O   UNL     1      -5.591  10.219  69.687  1.00  0.00    -0.037 OA 
BRANCH  16  18
HETATM   18  C   UNL     1      -6.355  12.179  68.493  1.00  0.00    -0.056 C  
BRANCH  18  19
HETATM   19  C   UNL     1      -6.072  13.454  69.280  1.00  0.00    -0.098 C  
BRANCH  19  20
HETATM   20  C   UNL     1      -7.312  14.339  69.454  1.00  0.00    -0.011 C  
BRANCH  20  21
HETATM   21  C   UNL     1      -7.150  15.603  68.650  1.00  0.00    -0.127 A  
HETATM   22  C   UNL     1      -6.997  17.857  66.996  1.00  0.00    -0.209 A  
HETATM   23  C   UNL     1      -6.149  15.699  67.675  1.00  0.00    -0.174 A  
HETATM   24  C   UNL     1      -8.060  16.658  68.802  1.00  0.00    -0.247 A  
HETATM   25  C   UNL     1      -6.074  16.825  66.852  1.00  0.00    -0.212 A  
HETATM   26  C   UNL     1      -7.984  17.780  67.977  1.00  0.00    -0.244 A  
ENDBRANCH  20  21
ENDBRANCH  19  20
ENDBRANCH  18  19
ENDBRANCH  16  18
ENDBRANCH  15  16
ENDBRANCH  14  15
BRANCH  14  27
HETATM   27  C   UNL     1      -8.685   8.687  70.074  1.00  0.00    -0.141 C  
BRANCH  27  28
HETATM   28  O   UNL     1      -9.061   9.002  71.422  1.00  0.00    -0.239 OA 
BRANCH  28  29
HETATM   29  C   UNL     1      -8.251   8.469  72.379  1.00  0.00    -0.090 C  
HETATM   30  O   UNL     1      -7.945   9.025  73.424  1.00  0.00    -0.207 OA 
BRANCH  29  31
HETATM   31  C   UNL     1      -7.796   7.092  71.966  1.00  0.00    -0.091 C  
BRANCH  31  32
HETATM   32  C   UNL     1      -8.917   6.065  72.089  1.00  0.00    -0.142 C  
BRANCH  32  33
HETATM   33  C   UNL     1      -8.408   4.619  72.038  1.00  0.00    -0.117 C  
BRANCH  33  34
HETATM   34  C   UNL     1      -8.363   4.131  70.613  1.00  0.00    -0.086 A  
HETATM   35  C   UNL     1      -8.262   3.054  68.029  1.00  0.00    -0.088 A  
HETATM   36  C   UNL     1      -9.537   3.707  69.975  1.00  0.00    -0.244 A  
HETATM   37  C   UNL     1      -9.485   3.171  68.689  1.00  0.00    -0.195 A  
HETATM   38  C   UNL     1      -7.092   3.485  68.652  1.00  0.00    -0.050 A  
HETATM   39  C   UNL     1      -7.141   4.022  69.938  1.00  0.00    -0.042 A  
ENDBRANCH  33  34
ENDBRANCH  32  33
ENDBRANCH  31  32
ENDBRANCH  29  31
ENDBRANCH  28  29
ENDBRANCH  27  28
ENDBRANCH  14  27
ENDBRANCH  13  14
ENDBRANCH  12  13
ENDBRANCH   2  12
TORSDOF 20
ENDMDL
MODEL      396
REMARK 921   NORMALIZED FREE ENERGY PREDICTED BY IDOCK:    0.07 KCAL/MOL
REMARK 922        TOTAL FREE ENERGY PREDICTED BY IDOCK:   -4.53 KCAL/MOL
REMARK 923 INTER-LIGAND FREE ENERGY PREDICTED BY IDOCK:   -5.11 KCAL/MOL
REMARK 924 INTRA-LIGAND FREE ENERGY PREDICTED BY IDOCK:    0.58 KCAL/MOL
REMARK 927      BINDING AFFINITY PREDICTED BY RF-SCORE:    0.00 PKD
ROOT
HETATM    1  O   UNL     1      -7.133  11.643  69.340  1.00  0.00    -0.092 OA 
HETATM    2  C   UNL     1      -7.344  10.580  68.775  1.00  0.00    -0.092 C  
ENDROOT
BRANCH   2   3
HETATM    3  C   UNL     1      -6.392   9.407  68.789  1.00  0.00    -0.047 C  
BRANCH   3   4
HETATM    4  C   UNL     1      -6.367   8.699  70.144  1.00  0.00    -0.038 C  
BRANCH   4   5
HETATM    5  C   UNL     1      -5.423   7.491  70.151  1.00  0.00    -0.023 C  
BRANCH   5   6
HETATM    6  C   UNL     1      -5.844   6.450  71.157  1.00  0.00    -0.027 A  
HETATM    7  C   UNL     1      -5.649   6.672  72.528  1.00  0.00    -0.038 A  
HETATM    8  C   UNL     1      -6.606   4.511  73.035  1.00  0.00    -0.047 A  
HETATM    9  C   UNL     1      -6.032   5.707  73.461  1.00  0.00    -0.054 A  
HETATM   10  C   UNL     1      -6.418   5.243  70.739  1.00  0.00    -0.031 A  
HETATM   11  C   UNL     1      -6.799   4.280  71.674  1.00  0.00    -0.031 A  
ENDBRANCH   5   6
ENDBRANCH   4   5
ENDBRANCH   3   4
ENDBRANCH   2   3
BRANCH   2  12
HETATM   12  O   UNL     1      -8.456  10.282  68.047  1.00  0.00    -0.116 OA 
BRANCH  12  13
HETATM   13  C   UNL     1      -8.913  11.292  67.128  1.00  0.00    -0.155 C  
BRANCH  13  14
HETATM   14  C   UNL     1      -9.098  10.684  65.734  1.00  0.00    -0.186 C  
BRANCH  14  15
HETATM   15  O   UNL     1     -10.022   9.580  65.824  1.00  0.00    -0.300 OA 
BRANCH  15  16
HETATM   16  C   UNL     1     -10.381   9.202  67.080  1.00  0.00    -0.263 C  
HETATM   17  O   UNL     1     -10.769   9.949  67.965  1.00  0.00    -0.224 OA 
BRANCH  16  18
HETATM   18  C   UNL     1     -10.203   7.713  67.239  1.00  0.00    -0.342 C  
BRANCH  18  19
HETATM   19  C   UNL     1      -9.071   7.378  68.204  1.00  0.00    -0.131 C  
BRANCH  19  20
HETATM   20  C   UNL     1      -9.490   6.392  69.300  1.00  0.00    -0.140 C  
BRANCH  20  21
HETATM   21  C   UNL     1     -10.367   7.093  70.305  1.00  0.00    -0.214 A  
HETATM   22  C   UNL     1     -12.134   8.464  71.990  1.00  0.00    -0.417 A  
HETATM   23  C   UNL     1     -10.133   8.434  70.638  1.00  0.00    -0.220 A  
HETATM   24  C   UNL     1     -11.485   6.441  70.843  1.00  0.00    -0.406 A  
HETATM   25  C   UNL     1     -11.014   9.115  71.479  1.00  0.00    -0.434 A  
HETATM   26  C   UNL     1     -12.365   7.125  71.681  1.00  0.00    -0.398 A  
ENDBRANCH  20  21
ENDBRANCH  19  20
ENDBRANCH  18  19
ENDBRANCH  16  18
ENDBRANCH  15  16
ENDBRANCH  14  15
BRANCH  14  27
HETATM   27  C   UNL     1      -7.773  10.139  65.188  1.00  0.00    -0.141 C  
BRANCH  27  28
HETATM   28  O   UNL     1      -7.513   8.813  65.669  1.00  0.00    -0.084 OA 
BRANCH  28  29
HETATM   29  C   UNL     1      -6.739   8.050  64.847  1.00  0.00    -0.051 C  
HETATM   30  O   UNL     1      -5.677   8.406  64.356  1.00  0.00    -0.057 OA 
BRANCH  29  31
HETATM   31  C   UNL     1      -7.377   6.700  64.639  1.00  0.00    -0.085 C  
BRANCH  31  32
HETATM   32  C   UNL     1      -6.502   5.784  63.789  1.00  0.00    -0.029 C  
BRANCH  32  33
HETATM   33  C   UNL     1      -6.983   4.327  63.794  1.00  0.00    -0.045 C  
BRANCH  33  34
HETATM   34  C   UNL     1      -6.532   3.634  65.053  1.00  0.00    -0.035 A  
HETATM   35  C   UNL     1      -5.872   2.323  67.439  1.00  0.00    -0.019 A  
HETATM   36  C   UNL     1      -6.416   2.237  65.087  1.00  0.00    -0.024 A  
HETATM   37  C   UNL     1      -6.087   1.586  66.275  1.00  0.00    -0.019 A  
HETATM   38  C   UNL     1      -5.974   3.713  67.412  1.00  0.00    -0.024 A  
HETATM   39  C   UNL     1      -6.301   4.366  66.224  1.00  0.00    -0.033 A  
ENDBRANCH  33  34
ENDBRANCH  32  33
ENDBRANCH  31  32
ENDBRANCH  29  31
ENDBRANCH  28  29
ENDBRANCH  27  28
ENDBRANCH  14  27
ENDBRANCH  13  14
ENDBRANCH  12  13
ENDBRANCH   2  12
TORSDOF 20
ENDMDL
MODEL      397
REMARK 921   NORMALIZED FREE ENERGY PREDICTED BY IDOCK:    0.28 KCAL/MOL
REMARK 922        TOTAL FREE ENERGY PREDICTED BY IDOCK:   -4.07 KCAL/MOL
REMARK 923 INTER-LIGAND FREE ENERGY PREDICTED BY IDOCK:   -4.62 KCAL/MOL
REMARK 924 INTRA-LIGAND FREE ENERGY PREDICTED BY IDOCK:    0.55 KCAL/MOL
REMARK 927      BINDING AFFINITY PREDICTED BY RF-SCORE:    0.00 PKD
ROOT
HETATM    1  O   UNL     1     -10.784  11.060  66.525  1.00  0.00    -0.261 OA 
HETATM    2  C   UNL     1      -9.851  10.579  65.897  1.00  0.00    -0.234 C  
ENDROOT
BRANCH   2   3
HETATM    3  C   UNL     1      -9.998   9.846  64.585  1.00  0.00    -0.072 C  
BRANCH   3   4
HETATM    4  C   UNL     1      -9.226  10.525  63.453  1.00  0.00    -0.299 C  
BRANCH   4   5
HETATM    5  C   UNL     1      -9.106  12.039  63.658  1.00  0.00     0.498 C  
BRANCH   5   6
HETATM    6  C   UNL     1     -10.441  12.679  63.943  1.00  0.00    -0.441 A  
HETATM    7  C   UNL     1     -10.560  13.652  64.946  1.00  0.00    -0.421 A  
HETATM    8  C   UNL     1     -12.924  13.862  64.491  1.00  0.00     0.253 A  
HETATM    9  C   UNL     1     -11.796  14.241  65.216  1.00  0.00    -0.374 A  
HETATM   10  C   UNL     1     -11.582  12.303  63.223  1.00  0.00    -0.434 A  
HETATM   11  C   UNL     1     -12.817  12.893  63.495  1.00  0.00     0.030 A  
ENDBRANCH   5   6
ENDBRANCH   4   5
ENDBRANCH   3   4
ENDBRANCH   2   3
BRANCH   2  12
HETATM   12  O   UNL     1      -8.543  10.623  66.274  1.00  0.00    -0.142 OA 
BRANCH  12  13
HETATM   13  C   UNL     1      -7.982   9.403  66.794  1.00  0.00    -0.108 C  
BRANCH  13  14
HETATM   14  C   UNL     1      -8.177   9.345  68.312  1.00  0.00    -0.118 C  
BRANCH  14  15
HETATM   15  O   UNL     1      -7.123  10.097  68.949  1.00  0.00    -0.064 OA 
BRANCH  15  16
HETATM   16  C   UNL     1      -6.083  10.461  68.151  1.00  0.00    -0.044 C  
HETATM   17  O   UNL     1      -5.232   9.709  67.703  1.00  0.00    -0.036 OA 
BRANCH  16  18
HETATM   18  C   UNL     1      -6.113  11.951  67.918  1.00  0.00    -0.057 C  
BRANCH  18  19
HETATM   19  C   UNL     1      -5.342  12.708  68.995  1.00  0.00    -0.067 C  
BRANCH  19  20
HETATM   20  C   UNL     1      -6.246  13.263  70.101  1.00  0.00    -0.050 C  
BRANCH  20  21
HETATM   21  C   UNL     1      -6.640  14.681  69.772  1.00  0.00    -0.164 A  
HETATM   22  C   UNL     1      -7.315  17.265  68.934  1.00  0.00    -0.243 A  
HETATM   23  C   UNL     1      -5.682  15.703  69.786  1.00  0.00    -0.132 A  
HETATM   24  C   UNL     1      -7.945  14.972  69.354  1.00  0.00    -0.170 A  
HETATM   25  C   UNL     1      -6.022  16.991  69.369  1.00  0.00    -0.216 A  
HETATM   26  C   UNL     1      -8.280  16.260  68.935  1.00  0.00    -0.231 A  
ENDBRANCH  20  21
ENDBRANCH  19  20
ENDBRANCH  18  19
ENDBRANCH  16  18
ENDBRANCH  15  16
ENDBRANCH  14  15
BRANCH  14  27
HETATM   27  C   UNL     1      -8.095   7.902  68.825  1.00  0.00    -0.126 C  
BRANCH  27  28
HETATM   28  O   UNL     1      -8.018   7.858  70.258  1.00  0.00    -0.098 OA 
BRANCH  28  29
HETATM   29  C   UNL     1      -6.957   7.159  70.750  1.00  0.00    -0.061 C  
HETATM   30  O   UNL     1      -6.350   7.440  71.773  1.00  0.00    -0.040 OA 
BRANCH  29  31
HETATM   31  C   UNL     1      -6.648   5.986  69.856  1.00  0.00    -0.047 C  
BRANCH  31  32
HETATM   32  C   UNL     1      -7.713   4.899  69.959  1.00  0.00    -0.059 C  
BRANCH  32  33
HETATM   33  C   UNL     1      -7.258   3.560  69.363  1.00  0.00    -0.049 C  
BRANCH  33  34
HETATM   34  C   UNL     1      -7.577   3.509  67.892  1.00  0.00    -0.065 A  
HETATM   35  C   UNL     1      -8.273   3.567  65.179  1.00  0.00    -0.097 A  
HETATM   36  C   UNL     1      -6.805   4.238  66.977  1.00  0.00    -0.052 A  
HETATM   37  C   UNL     1      -7.152   4.266  65.626  1.00  0.00    -0.063 A  
HETATM   38  C   UNL     1      -9.040   2.831  66.080  1.00  0.00    -0.124 A  
HETATM   39  C   UNL     1      -8.694   2.800  67.431  1.00  0.00    -0.139 A  
ENDBRANCH  33  34
ENDBRANCH  32  33
ENDBRANCH  31  32
ENDBRANCH  29  31
ENDBRANCH  28  29
ENDBRANCH  27  28
ENDBRANCH  14  27
ENDBRANCH  13  14
ENDBRANCH  12  13
ENDBRANCH   2  12
TORSDOF 20
ENDMDL
MODEL      398
REMARK 921   NORMALIZED FREE ENERGY PREDICTED BY IDOCK:    0.39 KCAL/MOL
REMARK 922        TOTAL FREE ENERGY PREDICTED BY IDOCK:   -3.83 KCAL/MOL
REMARK 923 INTER-LIGAND FREE ENERGY PREDICTED BY IDOCK:   -4.73 KCAL/MOL
REMARK 924 INTRA-LIGAND FREE ENERGY PREDICTED BY IDOCK:    0.91 KCAL/MOL
REMARK 927      BINDING AFFINITY PREDICTED BY RF-SCORE:    0.00 PKD
ROOT
HETATM    1  O   UNL     1     -10.688   6.311  68.426  1.00  0.00    -0.230 OA 
HETATM    2  C   UNL     1      -9.980   6.917  67.634  1.00  0.00    -0.144 C  
ENDROOT
BRANCH   2   3
HETATM    3  C   UNL     1      -8.517   6.624  67.406  1.00  0.00    -0.120 C  
BRANCH   3   4
HETATM    4  C   UNL     1      -7.649   7.052  68.591  1.00  0.00    -0.108 C  
BRANCH   4   5
HETATM    5  C   UNL     1      -8.146   6.465  69.917  1.00  0.00    -0.121 C  
BRANCH   5   6
HETATM    6  C   UNL     1      -7.392   5.218  70.302  1.00  0.00    -0.067 A  
HETATM    7  C   UNL     1      -7.670   3.998  69.669  1.00  0.00    -0.052 A  
HETATM    8  C   UNL     1      -6.005   2.890  71.025  1.00  0.00    -0.017 A  
HETATM    9  C   UNL     1      -6.977   2.841  70.028  1.00  0.00    -0.034 A  
HETATM   10  C   UNL     1      -6.415   5.255  71.306  1.00  0.00    -0.035 A  
HETATM   11  C   UNL     1      -5.724   4.097  71.664  1.00  0.00    -0.008 A  
ENDBRANCH   5   6
ENDBRANCH   4   5
ENDBRANCH   3   4
ENDBRANCH   2   3
BRANCH   2  12
HETATM   12  O   UNL     1     -10.389   7.945  66.840  1.00  0.00    -0.298 OA 
BRANCH  12  13
HETATM   13  C   UNL     1     -11.404   8.812  67.381  1.00  0.00     1.145 C  
BRANCH  13  14
HETATM   14  C   UNL     1     -11.028  10.276  67.130  1.00  0.00    -0.165 C  
BRANCH  14  15
HETATM   15  O   UNL     1     -11.767  11.112  68.044  1.00  0.00    -0.517 OA 
BRANCH  15  16
HETATM   16  C   UNL     1     -11.035  11.748  68.997  1.00  0.00    -0.227 C  
HETATM   17  O   UNL     1     -10.854  12.954  69.070  1.00  0.00    -0.223 OA 
BRANCH  16  18
HETATM   18  C   UNL     1     -10.443  10.739  69.949  1.00  0.00    -0.055 C  
BRANCH  18  19
HETATM   19  C   UNL     1      -9.355   9.903  69.283  1.00  0.00    -0.215 C  
BRANCH  19  20
HETATM   20  C   UNL     1      -8.397  10.739  68.427  1.00  0.00    -0.132 C  
BRANCH  20  21
HETATM   21  C   UNL     1      -7.307  11.312  69.297  1.00  0.00    -0.068 A  
HETATM   22  C   UNL     1      -5.128  12.300  70.750  1.00  0.00    -0.135 A  
HETATM   23  C   UNL     1      -6.685  10.518  70.269  1.00  0.00    -0.127 A  
HETATM   24  C   UNL     1      -6.839  12.614  69.076  1.00  0.00    -0.083 A  
HETATM   25  C   UNL     1      -5.600  11.013  70.993  1.00  0.00    -0.041 A  
HETATM   26  C   UNL     1      -5.752  13.105  69.799  1.00  0.00    -0.116 A  
ENDBRANCH  20  21
ENDBRANCH  19  20
ENDBRANCH  18  19
ENDBRANCH  16  18
ENDBRANCH  15  16
ENDBRANCH  14  15
BRANCH  14  27
HETATM   27  C   UNL     1     -11.396  10.704  65.705  1.00  0.00     0.727 C  
BRANCH  27  28
HETATM   28  O   UNL     1     -12.045  11.984  65.692  1.00  0.00    -0.508 OA 
BRANCH  28  29
HETATM   29  C   UNL     1     -11.199  13.051  65.636  1.00  0.00    -0.283 C  
HETATM   30  O   UNL     1     -10.055  13.015  65.205  1.00  0.00    -0.282 OA 
BRANCH  29  31
HETATM   31  C   UNL     1     -11.882  14.284  66.172  1.00  0.00    -0.413 C  
BRANCH  31  32
HETATM   32  C   UNL     1     -11.730  15.472  65.228  1.00  0.00     0.117 C  
BRANCH  32  33
HETATM   33  C   UNL     1     -10.386  16.193  65.388  1.00  0.00    -0.356 C  
BRANCH  33  34
HETATM   34  C   UNL     1     -10.262  16.762  66.778  1.00  0.00    -0.304 A  
HETATM   35  C   UNL     1     -10.188  17.912  69.332  1.00  0.00     0.038 A  
HETATM   36  C   UNL     1     -10.912  16.142  67.854  1.00  0.00    -0.318 A  
HETATM   37  C   UNL     1     -10.874  16.715  69.125  1.00  0.00    -0.315 A  
HETATM   38  C   UNL     1      -9.529  18.528  68.269  1.00  0.00    -0.360 A  
HETATM   39  C   UNL     1      -9.564  17.956  66.998  1.00  0.00    -0.286 A  
ENDBRANCH  33  34
ENDBRANCH  32  33
ENDBRANCH  31  32
ENDBRANCH  29  31
ENDBRANCH  28  29
ENDBRANCH  27  28
ENDBRANCH  14  27
ENDBRANCH  13  14
ENDBRANCH  12  13
ENDBRANCH   2  12
TORSDOF 20
ENDMDL
MODEL      399
REMARK 921   NORMALIZED FREE ENERGY PREDICTED BY IDOCK:    0.62 KCAL/MOL
REMARK 922        TOTAL FREE ENERGY PREDICTED BY IDOCK:   -3.35 KCAL/MOL
REMARK 923 INTER-LIGAND FREE ENERGY PREDICTED BY IDOCK:   -4.11 KCAL/MOL
REMARK 924 INTRA-LIGAND FREE ENERGY PREDICTED BY IDOCK:    0.76 KCAL/MOL
REMARK 927      BINDING AFFINITY PREDICTED BY RF-SCORE:    0.00 PKD
ROOT
HETATM    1  O   UNL     1     -10.029   5.740  65.408  1.00  0.00     0.349 OA 
HETATM    2  C   UNL     1      -8.888   5.842  65.834  1.00  0.00    -0.149 C  
ENDROOT
BRANCH   2   3
HETATM    3  C   UNL     1      -7.666   5.309  65.125  1.00  0.00    -0.085 C  
BRANCH   3   4
HETATM    4  C   UNL     1      -7.215   6.221  63.983  1.00  0.00    -0.062 C  
BRANCH   4   5
HETATM    5  C   UNL     1      -8.385   6.992  63.359  1.00  0.00     0.207 C  
BRANCH   5   6
HETATM    6  C   UNL     1      -8.088   8.464  63.231  1.00  0.00    -0.151 A  
HETATM    7  C   UNL     1      -9.075   9.414  63.531  1.00  0.00    -0.057 A  
HETATM    8  C   UNL     1      -7.550  11.205  62.977  1.00  0.00     0.479 A  
HETATM    9  C   UNL     1      -8.805  10.777  63.407  1.00  0.00    -0.161 A  
HETATM   10  C   UNL     1      -6.831   8.905  62.796  1.00  0.00    -0.093 A  
HETATM   11  C   UNL     1      -6.564  10.269  62.672  1.00  0.00    -0.136 A  
ENDBRANCH   5   6
ENDBRANCH   4   5
ENDBRANCH   3   4
ENDBRANCH   2   3
BRANCH   2  12
HETATM   12  O   UNL     1      -8.535   6.444  67.003  1.00  0.00    -0.112 OA 
BRANCH  12  13
HETATM   13  C   UNL     1      -9.477   6.344  68.088  1.00  0.00    -0.114 C  
BRANCH  13  14
HETATM   14  C   UNL     1      -8.730   6.153  69.412  1.00  0.00    -0.123 C  
BRANCH  14  15
HETATM   15  O   UNL     1      -9.450   5.200  70.222  1.00  0.00    -0.152 OA 
BRANCH  15  16
HETATM   16  C   UNL     1      -8.758   4.653  71.257  1.00  0.00    -0.118 C  
HETATM   17  O   UNL     1      -9.068   4.722  72.437  1.00  0.00    -0.124 OA 
BRANCH  16  18
HETATM   18  C   UNL     1      -7.521   3.963  70.740  1.00  0.00    -0.041 C  
BRANCH  18  19
HETATM   19  C   UNL     1      -7.134   4.460  69.351  1.00  0.00    -0.050 C  
BRANCH  19  20
HETATM   20  C   UNL     1      -6.271   3.458  68.575  1.00  0.00    -0.032 C  
BRANCH  20  21
HETATM   21  C   UNL     1      -7.132   2.691  67.604  1.00  0.00    -0.049 A  
HETATM   22  C   UNL     1      -8.787   1.475  65.701  1.00  0.00    -0.124 A  
HETATM   23  C   UNL     1      -8.485   2.461  67.886  1.00  0.00    -0.097 A  
HETATM   24  C   UNL     1      -6.613   2.286  66.368  1.00  0.00    -0.034 A  
HETATM   25  C   UNL     1      -9.308   1.854  66.936  1.00  0.00     0.049 A  
HETATM   26  C   UNL     1      -7.438   1.681  65.420  1.00  0.00    -0.057 A  
ENDBRANCH  20  21
ENDBRANCH  19  20
ENDBRANCH  18  19
ENDBRANCH  16  18
ENDBRANCH  15  16
ENDBRANCH  14  15
BRANCH  14  27
HETATM   27  C   UNL     1      -8.651   7.467  70.197  1.00  0.00    -0.139 C  
BRANCH  27  28
HETATM   28  O   UNL     1      -9.572   8.441  69.684  1.00  0.00    -0.162 OA 
BRANCH  28  29
HETATM   29  C   UNL     1      -9.030   9.334  68.810  1.00  0.00    -0.132 C  
HETATM   30  O   UNL     1      -8.439   9.035  67.782  1.00  0.00    -0.117 OA 
BRANCH  29  31
HETATM   31  C   UNL     1      -9.272  10.742  69.289  1.00  0.00    -0.068 C  
BRANCH  31  32
HETATM   32  C   UNL     1     -10.397  11.419  68.513  1.00  0.00    -0.219 C  
BRANCH  32  33
HETATM   33  C   UNL     1      -9.897  12.538  67.591  1.00  0.00    -0.202 C  
BRANCH  33  34
HETATM   34  C   UNL     1     -10.895  12.792  66.491  1.00  0.00    -0.280 A  
HETATM   35  C   UNL     1     -12.879  13.181  64.551  1.00  0.00    -0.173 A  
HETATM   36  C   UNL     1     -11.696  13.941  66.517  1.00  0.00    -0.414 A  
HETATM   37  C   UNL     1     -12.683  14.134  65.550  1.00  0.00    -0.468 A  
HETATM   38  C   UNL     1     -12.078  12.040  64.512  1.00  0.00    -0.340 A  
HETATM   39  C   UNL     1     -11.090  11.846  65.476  1.00  0.00    -0.356 A  
ENDBRANCH  33  34
ENDBRANCH  32  33
ENDBRANCH  31  32
ENDBRANCH  29  31
ENDBRANCH  28  29
ENDBRANCH  27  28
ENDBRANCH  14  27
ENDBRANCH  13  14
ENDBRANCH  12  13
ENDBRANCH   2  12
TORSDOF 20
ENDMDL
MODEL      400
REMARK 921   NORMALIZED FREE ENERGY PREDICTED BY IDOCK:    0.64 KCAL/MOL
REMARK 922        TOTAL FREE ENERGY PREDICTED BY IDOCK:   -3.29 KCAL/MOL
REMARK 923 INTER-LIGAND FREE ENERGY PREDICTED BY IDOCK:   -4.34 KCAL/MOL
REMARK 924 INTRA-LIGAND FREE ENERGY PREDICTED BY IDOCK:    1.05 KCAL/MOL
REMARK 927      BINDING AFFINITY PREDICTED BY RF-SCORE:    0.00 PKD
ROOT
HETATM    1  O   UNL     1     -10.070   5.831  65.416  1.00  0.00     0.424 OA 
HETATM    2  C   UNL     1      -8.963   5.948  65.922  1.00  0.00    -0.140 C  
ENDROOT
BRANCH   2   3
HETATM    3  C   UNL     1      -7.672   5.557  65.243  1.00  0.00    -0.090 C  
BRANCH   3   4
HETATM    4  C   UNL     1      -7.106   6.688  64.383  1.00  0.00    -0.057 C  
BRANCH   4   5
HETATM    5  C   UNL     1      -8.108   7.176  63.331  1.00  0.00    -0.007 C  
BRANCH   5   6
HETATM    6  C   UNL     1      -8.152   8.681  63.246  1.00  0.00    -0.169 A  
HETATM    7  C   UNL     1      -7.055   9.393  62.742  1.00  0.00    -0.101 A  
HETATM    8  C   UNL     1      -8.219  11.480  63.101  1.00  0.00     0.672 A  
HETATM    9  C   UNL     1      -7.090  10.786  62.668  1.00  0.00     0.001 A  
HETATM   10  C   UNL     1      -9.279   9.388  63.682  1.00  0.00     0.063 A  
HETATM   11  C   UNL     1      -9.313  10.781  63.608  1.00  0.00    -0.301 A  
ENDBRANCH   5   6
ENDBRANCH   4   5
ENDBRANCH   3   4
ENDBRANCH   2   3
BRANCH   2  12
HETATM   12  O   UNL     1      -8.714   6.443  67.166  1.00  0.00    -0.110 OA 
BRANCH  12  13
HETATM   13  C   UNL     1      -9.745   6.247  68.154  1.00  0.00    -0.122 C  
BRANCH  13  14
HETATM   14  C   UNL     1      -9.115   5.852  69.493  1.00  0.00    -0.132 C  
BRANCH  14  15
HETATM   15  O   UNL     1      -9.965   4.883  70.142  1.00  0.00    -0.216 OA 
BRANCH  15  16
HETATM   16  C   UNL     1      -9.353   4.044  71.020  1.00  0.00    -0.149 C  
HETATM   17  O   UNL     1      -9.665   3.886  72.191  1.00  0.00    -0.142 OA 
BRANCH  16  18
HETATM   18  C   UNL     1      -8.199   3.347  70.345  1.00  0.00    -0.072 C  
BRANCH  18  19
HETATM   19  C   UNL     1      -7.683   4.137  69.147  1.00  0.00    -0.054 C  
BRANCH  19  20
HETATM   20  C   UNL     1      -6.430   3.519  68.516  1.00  0.00    -0.037 C  
BRANCH  20  21
HETATM   21  C   UNL     1      -6.813   2.736  67.287  1.00  0.00    -0.045 A  
HETATM   22  C   UNL     1      -7.530   1.488  64.885  1.00  0.00    -0.057 A  
HETATM   23  C   UNL     1      -8.162   2.530  66.971  1.00  0.00    -0.083 A  
HETATM   24  C   UNL     1      -5.827   2.291  66.397  1.00  0.00    -0.022 A  
HETATM   25  C   UNL     1      -8.517   1.907  65.773  1.00  0.00    -0.105 A  
HETATM   26  C   UNL     1      -6.184   1.671  65.200  1.00  0.00    -0.018 A  
ENDBRANCH  20  21
ENDBRANCH  19  20
ENDBRANCH  18  19
ENDBRANCH  16  18
ENDBRANCH  15  16
ENDBRANCH  14  15
BRANCH  14  27
HETATM   27  C   UNL     1      -8.992   7.063  70.425  1.00  0.00    -0.155 C  
BRANCH  27  28
HETATM   28  O   UNL     1      -9.786   8.165  69.962  1.00  0.00    -0.172 OA 
BRANCH  28  29
HETATM   29  C   UNL     1      -9.090   9.126  69.291  1.00  0.00    -0.146 C  
HETATM   30  O   UNL     1      -8.349   8.918  68.342  1.00  0.00    -0.122 OA 
BRANCH  29  31
HETATM   31  C   UNL     1      -9.375  10.482  69.884  1.00  0.00     0.218 C  
BRANCH  31  32
HETATM   32  C   UNL     1     -10.595  10.455  70.799  1.00  0.00     0.301 C  
BRANCH  32  33
HETATM   33  C   UNL     1     -11.874  10.938  70.103  1.00  0.00    -0.438 C  
BRANCH  33  34
HETATM   34  C   UNL     1     -12.371  12.206  70.749  1.00  0.00    -0.391 A  
HETATM   35  C   UNL     1     -13.457  14.535  71.864  1.00  0.00    -0.466 A  
HETATM   36  C   UNL     1     -13.071  12.152  71.962  1.00  0.00    -0.462 A  
HETATM   37  C   UNL     1     -13.611  13.312  72.516  1.00  0.00    -0.637 A  
HETATM   38  C   UNL     1     -12.752  14.599  70.664  1.00  0.00    -0.417 A  
HETATM   39  C   UNL     1     -12.210  13.441  70.108  1.00  0.00    -0.385 A  
ENDBRANCH  33  34
ENDBRANCH  32  33
ENDBRANCH  31  32
ENDBRANCH  29  31
ENDBRANCH  28  29
ENDBRANCH  27  28
ENDBRANCH  14  27
ENDBRANCH  13  14
ENDBRANCH  12  13
ENDBRANCH   2  12
TORSDOF 20
ENDMDL
MODEL      401
REMARK 921   NORMALIZED FREE ENERGY PREDICTED BY IDOCK:    0.95 KCAL/MOL
REMARK 922        TOTAL FREE ENERGY PREDICTED BY IDOCK:   -2.63 KCAL/MOL
REMARK 923 INTER-LIGAND FREE ENERGY PREDICTED BY IDOCK:   -3.05 KCAL/MOL
REMARK 924 INTRA-LIGAND FREE ENERGY PREDICTED BY IDOCK:    0.43 KCAL/MOL
REMARK 927      BINDING AFFINITY PREDICTED BY RF-SCORE:    0.00 PKD
ROOT
HETATM    1  O   UNL     1     -10.705   3.272  70.439  1.00  0.00     1.724 OA 
HETATM    2  C   UNL     1     -10.259   4.219  71.071  1.00  0.00     0.000 C  
ENDROOT
BRANCH   2   3
HETATM    3  C   UNL     1      -9.602   4.101  72.426  1.00  0.00    -0.193 C  
BRANCH   3   4
HETATM    4  C   UNL     1      -8.709   2.864  72.530  1.00  0.00    -0.090 C  
BRANCH   4   5
HETATM    5  C   UNL     1      -7.323   3.194  73.096  1.00  0.00    -0.046 C  
BRANCH   5   6
HETATM    6  C   UNL     1      -7.137   4.674  73.309  1.00  0.00    -0.079 A  
HETATM    7  C   UNL     1      -5.968   5.311  72.867  1.00  0.00    -0.027 A  
HETATM    8  C   UNL     1      -6.772   7.425  73.717  1.00  0.00    -0.080 A  
HETATM    9  C   UNL     1      -5.789   6.680  73.069  1.00  0.00    -0.042 A  
HETATM   10  C   UNL     1      -8.116   5.432  73.964  1.00  0.00    -0.107 A  
HETATM   11  C   UNL     1      -7.936   6.800  74.165  1.00  0.00    -0.125 A  
ENDBRANCH   5   6
ENDBRANCH   4   5
ENDBRANCH   3   4
ENDBRANCH   2   3
BRANCH   2  12
HETATM   12  O   UNL     1     -10.282   5.518  70.665  1.00  0.00    -0.209 OA 
BRANCH  12  13
HETATM   13  C   UNL     1      -9.278   5.912  69.709  1.00  0.00    -0.145 C  
BRANCH  13  14
HETATM   14  C   UNL     1      -9.635   5.367  68.323  1.00  0.00    -0.125 C  
BRANCH  14  15
HETATM   15  O   UNL     1      -8.432   5.269  67.534  1.00  0.00    -0.107 OA 
BRANCH  15  16
HETATM   16  C   UNL     1      -7.366   4.682  68.141  1.00  0.00    -0.066 C  
HETATM   17  O   UNL     1      -7.420   3.765  68.947  1.00  0.00    -0.053 OA 
BRANCH  16  18
HETATM   18  C   UNL     1      -6.089   5.351  67.697  1.00  0.00    -0.026 C  
BRANCH  18  19
HETATM   19  C   UNL     1      -5.844   5.166  66.203  1.00  0.00    -0.018 C  
BRANCH  19  20
HETATM   20  C   UNL     1      -5.670   3.696  65.801  1.00  0.00    -0.018 C  
BRANCH  20  21
HETATM   21  C   UNL     1      -6.682   3.336  64.743  1.00  0.00    -0.040 A  
HETATM   22  C   UNL     1      -8.503   2.871  62.669  1.00  0.00    -0.074 A  
HETATM   23  C   UNL     1      -8.010   3.767  64.857  1.00  0.00    -0.090 A  
HETATM   24  C   UNL     1      -6.282   2.651  63.589  1.00  0.00    -0.014 A  
HETATM   25  C   UNL     1      -8.916   3.533  63.822  1.00  0.00    -0.095 A  
HETATM   26  C   UNL     1      -7.189   2.421  62.555  1.00  0.00    -0.036 A  
ENDBRANCH  20  21
ENDBRANCH  19  20
ENDBRANCH  18  19
ENDBRANCH  16  18
ENDBRANCH  15  16
ENDBRANCH  14  15
BRANCH  14  27
HETATM   27  C   UNL     1     -10.598   6.310  67.590  1.00  0.00    -0.271 C  
BRANCH  27  28
HETATM   28  O   UNL     1     -10.638   7.603  68.210  1.00  0.00    -0.190 OA 
BRANCH  28  29
HETATM   29  C   UNL     1     -10.190   8.625  67.427  1.00  0.00    -0.262 C  
HETATM   30  O   UNL     1     -10.785   9.078  66.460  1.00  0.00    -0.113 OA 
BRANCH  29  31
HETATM   31  C   UNL     1      -8.858   9.120  67.932  1.00  0.00    -0.128 C  
BRANCH  31  32
HETATM   32  C   UNL     1      -8.792  10.643  67.955  1.00  0.00    -0.130 C  
BRANCH  32  33
HETATM   33  C   UNL     1      -9.704  11.296  66.908  1.00  0.00    -0.215 C  
BRANCH  33  34
HETATM   34  C   UNL     1     -10.594  12.323  67.560  1.00  0.00    -0.242 A  
HETATM   35  C   UNL     1     -12.116  14.255  68.901  1.00  0.00    -0.314 A  
HETATM   36  C   UNL     1     -10.443  13.682  67.254  1.00  0.00    -0.260 A  
HETATM   37  C   UNL     1     -11.202  14.643  67.922  1.00  0.00    -0.318 A  
HETATM   38  C   UNL     1     -12.281  12.904  69.202  1.00  0.00    -0.083 A  
HETATM   39  C   UNL     1     -11.524  11.941  68.535  1.00  0.00    -0.349 A  
ENDBRANCH  33  34
ENDBRANCH  32  33
ENDBRANCH  31  32
ENDBRANCH  29  31
ENDBRANCH  28  29
ENDBRANCH  27  28
ENDBRANCH  14  27
ENDBRANCH  13  14
ENDBRANCH  12  13
ENDBRANCH   2  12
TORSDOF 20
ENDMDL
MODEL      402
REMARK 921   NORMALIZED FREE ENERGY PREDICTED BY IDOCK:    1.27 KCAL/MOL
REMARK 922        TOTAL FREE ENERGY PREDICTED BY IDOCK:   -1.92 KCAL/MOL
REMARK 923 INTER-LIGAND FREE ENERGY PREDICTED BY IDOCK:   -4.18 KCAL/MOL
REMARK 924 INTRA-LIGAND FREE ENERGY PREDICTED BY IDOCK:    2.25 KCAL/MOL
REMARK 927      BINDING AFFINITY PREDICTED BY RF-SCORE:    0.00 PKD
ROOT
HETATM    1  O   UNL     1     -10.334  12.727  64.087  1.00  0.00    -0.390 OA 
HETATM    2  C   UNL     1     -10.661  12.308  65.189  1.00  0.00    -0.285 C  
ENDROOT
BRANCH   2   3
HETATM    3  C   UNL     1     -11.154  10.906  65.453  1.00  0.00     0.080 C  
BRANCH   3   4
HETATM    4  C   UNL     1     -10.605   9.900  64.441  1.00  0.00     1.621 C  
BRANCH   4   5
HETATM    5  C   UNL     1      -9.387   9.140  64.978  1.00  0.00    -0.120 C  
BRANCH   5   6
HETATM    6  C   UNL     1      -8.165   9.349  64.120  1.00  0.00    -0.158 A  
HETATM    7  C   UNL     1      -7.387  10.506  64.268  1.00  0.00     0.104 A  
HETATM    8  C   UNL     1      -5.901   9.756  62.516  1.00  0.00    -0.092 A  
HETATM    9  C   UNL     1      -6.259  10.705  63.471  1.00  0.00     0.056 A  
HETATM   10  C   UNL     1      -7.799   8.403  63.155  1.00  0.00    -0.147 A  
HETATM   11  C   UNL     1      -6.672   8.604  62.358  1.00  0.00    -0.095 A  
ENDBRANCH   5   6
ENDBRANCH   4   5
ENDBRANCH   3   4
ENDBRANCH   2   3
BRANCH   2  12
HETATM   12  O   UNL     1     -10.636  13.030  66.344  1.00  0.00    -0.278 OA 
BRANCH  12  13
HETATM   13  C   UNL     1     -10.861  12.298  67.565  1.00  0.00    -0.234 C  
BRANCH  13  14
HETATM   14  C   UNL     1     -10.188  10.925  67.482  1.00  0.00    -0.190 C  
BRANCH  14  15
HETATM   15  O   UNL     1     -10.900  10.003  68.333  1.00  0.00    -0.226 OA 
BRANCH  15  16
HETATM   16  C   UNL     1     -10.580   8.689  68.190  1.00  0.00    -0.133 C  
HETATM   17  O   UNL     1     -10.366   8.119  67.131  1.00  0.00    -0.265 OA 
BRANCH  16  18
HETATM   18  C   UNL     1     -10.553   8.018  69.540  1.00  0.00    -0.216 C  
BRANCH  18  19
HETATM   19  C   UNL     1     -11.060   6.581  69.468  1.00  0.00    -0.425 C  
BRANCH  19  20
HETATM   20  C   UNL     1     -10.424   5.777  68.328  1.00  0.00    -0.281 C  
BRANCH  20  21
HETATM   21  C   UNL     1      -9.440   4.785  68.895  1.00  0.00    -0.209 A  
HETATM   22  C   UNL     1      -7.526   3.121  70.079  1.00  0.00    -0.044 A  
HETATM   23  C   UNL     1      -8.183   4.616  68.300  1.00  0.00    -0.090 A  
HETATM   24  C   UNL     1      -9.735   4.095  70.078  1.00  0.00    -0.282 A  
HETATM   25  C   UNL     1      -7.231   3.784  68.892  1.00  0.00    -0.050 A  
HETATM   26  C   UNL     1      -8.781   3.267  70.668  1.00  0.00    -0.129 A  
ENDBRANCH  20  21
ENDBRANCH  19  20
ENDBRANCH  18  19
ENDBRANCH  16  18
ENDBRANCH  15  16
ENDBRANCH  14  15
BRANCH  14  27
HETATM   27  C   UNL     1      -8.738  10.990  67.975  1.00  0.00    -0.138 C  
BRANCH  27  28
HETATM   28  O   UNL     1      -8.323   9.742  68.551  1.00  0.00    -0.107 OA 
BRANCH  28  29
HETATM   29  C   UNL     1      -7.033   9.393  68.285  1.00  0.00    -0.071 C  
HETATM   30  O   UNL     1      -6.305   9.962  67.484  1.00  0.00    -0.062 OA 
BRANCH  29  31
HETATM   31  C   UNL     1      -6.631   8.210  69.129  1.00  0.00    -0.043 C  
BRANCH  31  32
HETATM   32  C   UNL     1      -6.257   8.627  70.547  1.00  0.00    -0.036 C  
BRANCH  32  33
HETATM   33  C   UNL     1      -7.421   9.281  71.304  1.00  0.00     0.012 C  
BRANCH  33  34
HETATM   34  C   UNL     1      -8.228   8.232  72.025  1.00  0.00    -0.211 A  
HETATM   35  C   UNL     1      -9.644   6.334  73.522  1.00  0.00    -0.158 A  
HETATM   36  C   UNL     1      -9.444   8.572  72.633  1.00  0.00    -0.295 A  
HETATM   37  C   UNL     1     -10.148   7.626  73.378  1.00  0.00    -0.379 A  
HETATM   38  C   UNL     1      -8.442   5.985  72.910  1.00  0.00    -0.117 A  
HETATM   39  C   UNL     1      -7.736   6.928  72.164  1.00  0.00    -0.093 A  
ENDBRANCH  33  34
ENDBRANCH  32  33
ENDBRANCH  31  32
ENDBRANCH  29  31
ENDBRANCH  28  29
ENDBRANCH  27  28
ENDBRANCH  14  27
ENDBRANCH  13  14
ENDBRANCH  12  13
ENDBRANCH   2  12
TORSDOF 20
ENDMDL
MODEL      403
REMARK 921   NORMALIZED FREE ENERGY PREDICTED BY IDOCK:    6.17 KCAL/MOL
REMARK 922        TOTAL FREE ENERGY PREDICTED BY IDOCK:    8.71 KCAL/MOL
REMARK 923 INTER-LIGAND FREE ENERGY PREDICTED BY IDOCK:   -3.24 KCAL/MOL
REMARK 924 INTRA-LIGAND FREE ENERGY PREDICTED BY IDOCK:   11.95 KCAL/MOL
REMARK 927      BINDING AFFINITY PREDICTED BY RF-SCORE:    0.00 PKD
ROOT
HETATM    1  O   UNL     1      -6.144   9.154  69.284  1.00  0.00    -0.040 OA 
HETATM    2  C   UNL     1      -6.827   9.868  68.565  1.00  0.00    -0.059 C  
ENDROOT
BRANCH   2   3
HETATM    3  C   UNL     1      -6.679   9.953  67.064  1.00  0.00    -0.075 C  
BRANCH   3   4
HETATM    4  C   UNL     1      -5.718   8.895  66.518  1.00  0.00    -0.047 C  
BRANCH   4   5
HETATM    5  C   UNL     1      -5.253   7.917  67.603  1.00  0.00    -0.032 C  
BRANCH   5   6
HETATM    6  C   UNL     1      -5.758   6.518  67.359  1.00  0.00    -0.013 A  
HETATM    7  C   UNL     1      -5.174   5.718  66.366  1.00  0.00    -0.009 A  
HETATM    8  C   UNL     1      -6.704   3.921  66.885  1.00  0.00    -0.047 A  
HETATM    9  C   UNL     1      -5.644   4.425  66.134  1.00  0.00    -0.014 A  
HETATM   10  C   UNL     1      -6.826   6.003  68.105  1.00  0.00    -0.070 A  
HETATM   11  C   UNL     1      -7.295   4.710  67.871  1.00  0.00    -0.066 A  
ENDBRANCH   5   6
ENDBRANCH   4   5
ENDBRANCH   3   4
ENDBRANCH   2   3
BRANCH   2  12
HETATM   12  O   UNL     1      -7.820  10.697  68.992  1.00  0.00    -0.117 OA 
BRANCH  12  13
HETATM   13  C   UNL     1      -9.149  10.406  68.519  1.00  0.00    -0.145 C  
BRANCH  13  14
HETATM   14  C   UNL     1      -9.683   9.145  69.204  1.00  0.00    -0.163 C  
BRANCH  14  15
HETATM   15  O   UNL     1      -8.998   8.970  70.462  1.00  0.00    -0.173 OA 
BRANCH  15  16
HETATM   16  C   UNL     1      -9.786   8.910  71.569  1.00  0.00    -0.314 C  
HETATM   17  O   UNL     1     -10.804   9.560  71.754  1.00  0.00    -0.298 OA 
BRANCH  16  18
HETATM   18  C   UNL     1      -9.204   7.937  72.562  1.00  0.00    -0.250 C  
BRANCH  18  19
HETATM   19  C   UNL     1      -9.455   6.490  72.151  1.00  0.00    -0.148 C  
BRANCH  19  20
HETATM   20  C   UNL     1      -8.917   6.161  70.754  1.00  0.00    -0.145 C  
BRANCH  20  21
HETATM   21  C   UNL     1      -8.102   4.894  70.809  1.00  0.00    -0.087 A  
HETATM   22  C   UNL     1      -6.683   2.483  70.702  1.00  0.00    -0.032 A  
HETATM   23  C   UNL     1      -8.640   3.730  71.374  1.00  0.00    -0.113 A  
HETATM   24  C   UNL     1      -6.837   4.842  70.210  1.00  0.00    -0.037 A  
HETATM   25  C   UNL     1      -7.930   2.529  71.320  1.00  0.00    -0.045 A  
HETATM   26  C   UNL     1      -6.131   3.640  70.155  1.00  0.00    -0.023 A  
ENDBRANCH  20  21
ENDBRANCH  19  20
ENDBRANCH  18  19
ENDBRANCH  16  18
ENDBRANCH  15  16
ENDBRANCH  14  15
BRANCH  14  27
HETATM   27  C   UNL     1      -9.418   7.898  68.352  1.00  0.00    -0.148 C  
BRANCH  27  28
HETATM   28  O   UNL     1     -10.389   7.763  67.304  1.00  0.00    -0.242 OA 
BRANCH  28  29
HETATM   29  C   UNL     1     -10.389   8.777  66.393  1.00  0.00    -0.099 C  
HETATM   30  O   UNL     1     -10.198   8.640  65.194  1.00  0.00     1.220 OA 
BRANCH  29  31
HETATM   31  C   UNL     1     -10.669  10.090  67.080  1.00  0.00    -0.248 C  
BRANCH  31  32
HETATM   32  C   UNL     1      -9.755  11.201  66.572  1.00  0.00    -0.228 C  
BRANCH  32  33
HETATM   33  C   UNL     1     -10.356  11.974  65.390  1.00  0.00    -0.301 C  
BRANCH  33  34
HETATM   34  C   UNL     1     -10.615  13.406  65.783  1.00  0.00    -0.286 A  
HETATM   35  C   UNL     1     -11.194  16.003  66.657  1.00  0.00     0.127 A  
HETATM   36  C   UNL     1      -9.774  14.048  66.701  1.00  0.00    -0.296 A  
HETATM   37  C   UNL     1     -10.063  15.342  67.135  1.00  0.00    -0.245 A  
HETATM   38  C   UNL     1     -12.029  15.375  65.734  1.00  0.00     0.420 A  
HETATM   39  C   UNL     1     -11.741  14.083  65.298  1.00  0.00    -0.349 A  
ENDBRANCH  33  34
ENDBRANCH  32  33
ENDBRANCH  31  32
ENDBRANCH  29  31
ENDBRANCH  28  29
ENDBRANCH  27  28
ENDBRANCH  14  27
ENDBRANCH  13  14
ENDBRANCH  12  13
ENDBRANCH   2  12
TORSDOF 20
ENDMDL
MODEL      404
REMARK 921   NORMALIZED FREE ENERGY PREDICTED BY IDOCK:    7.32 KCAL/MOL
REMARK 922        TOTAL FREE ENERGY PREDICTED BY IDOCK:   11.19 KCAL/MOL
REMARK 923 INTER-LIGAND FREE ENERGY PREDICTED BY IDOCK:    2.14 KCAL/MOL
REMARK 924 INTRA-LIGAND FREE ENERGY PREDICTED BY IDOCK:    9.05 KCAL/MOL
REMARK 927      BINDING AFFINITY PREDICTED BY RF-SCORE:    0.00 PKD
ROOT
HETATM    1  O   UNL     1     -10.582  12.616  64.031  1.00  0.00    -0.380 OA 
HETATM    2  C   UNL     1     -11.055  12.141  65.054  1.00  0.00    -0.320 C  
ENDROOT
BRANCH   2   3
HETATM    3  C   UNL     1     -11.653  10.758  65.151  1.00  0.00     1.114 C  
BRANCH   3   4
HETATM    4  C   UNL     1     -11.036   9.789  64.140  1.00  0.00     4.657 C  
BRANCH   4   5
HETATM    5  C   UNL     1      -9.815   9.057  64.708  1.00  0.00     0.931 C  
BRANCH   5   6
HETATM    6  C   UNL     1      -8.528   9.540  64.089  1.00  0.00    -0.194 A  
HETATM    7  C   UNL     1      -7.967  10.763  64.486  1.00  0.00     0.182 A  
HETATM    8  C   UNL     1      -6.143  10.455  62.931  1.00  0.00    -0.143 A  
HETATM    9  C   UNL     1      -6.779  11.215  63.911  1.00  0.00     1.142 A  
HETATM   10  C   UNL     1      -7.883   8.786  63.101  1.00  0.00    -0.149 A  
HETATM   11  C   UNL     1      -6.695   9.241  62.526  1.00  0.00    -0.092 A  
ENDBRANCH   5   6
ENDBRANCH   4   5
ENDBRANCH   3   4
ENDBRANCH   2   3
BRANCH   2  12
HETATM   12  O   UNL     1     -11.122  12.774  66.257  1.00  0.00    -0.274 OA 
BRANCH  12  13
HETATM   13  C   UNL     1     -11.287  11.936  67.417  1.00  0.00    -0.324 C  
BRANCH  13  14
HETATM   14  C   UNL     1     -10.432  10.673  67.274  1.00  0.00    -0.246 C  
BRANCH  14  15
HETATM   15  O   UNL     1     -11.134   9.562  67.869  1.00  0.00    -0.179 OA 
BRANCH  15  16
HETATM   16  C   UNL     1     -10.653   8.325  67.576  1.00  0.00    -0.221 C  
HETATM   17  O   UNL     1     -11.049   7.274  68.057  1.00  0.00    -0.059 OA 
BRANCH  16  18
HETATM   18  C   UNL     1      -9.527   8.435  66.580  1.00  0.00    -0.284 C  
BRANCH  18  19
HETATM   19  C   UNL     1      -8.451   7.382  66.823  1.00  0.00    -0.124 C  
BRANCH  19  20
HETATM   20  C   UNL     1      -9.026   5.978  67.048  1.00  0.00    -0.113 C  
BRANCH  20  21
HETATM   21  C   UNL     1      -8.717   5.106  65.859  1.00  0.00    -0.135 A  
HETATM   22  C   UNL     1      -8.215   3.665  63.512  1.00  0.00    -0.089 A  
HETATM   23  C   UNL     1      -9.707   4.282  65.308  1.00  0.00    -0.201 A  
HETATM   24  C   UNL     1      -7.465   5.183  65.233  1.00  0.00    -0.073 A  
HETATM   25  C   UNL     1      -9.454   3.564  64.138  1.00  0.00    -0.142 A  
HETATM   26  C   UNL     1      -7.216   4.466  64.063  1.00  0.00    -0.054 A  
ENDBRANCH  20  21
ENDBRANCH  19  20
ENDBRANCH  18  19
ENDBRANCH  16  18
ENDBRANCH  15  16
ENDBRANCH  14  15
BRANCH  14  27
HETATM   27  C   UNL     1      -9.094  10.825  68.007  1.00  0.00    -0.150 C  
BRANCH  27  28
HETATM   28  O   UNL     1      -8.664   9.581  68.579  1.00  0.00    -0.122 OA 
BRANCH  28  29
HETATM   29  C   UNL     1      -7.315   9.387  68.573  1.00  0.00    -0.079 C  
HETATM   30  O   UNL     1      -6.514  10.067  67.948  1.00  0.00    -0.058 OA 
BRANCH  29  31
HETATM   31  C   UNL     1      -6.955   8.219  69.455  1.00  0.00    -0.046 C  
BRANCH  31  32
HETATM   32  C   UNL     1      -6.965   8.599  70.932  1.00  0.00    -0.064 C  
BRANCH  32  33
HETATM   33  C   UNL     1      -8.260   9.303  71.357  1.00  0.00     0.130 C  
BRANCH  33  34
HETATM   34  C   UNL     1      -9.419   8.342  71.299  1.00  0.00    -0.219 A  
HETATM   35  C   UNL     1     -11.556   6.532  71.372  1.00  0.00    -0.371 A  
HETATM   36  C   UNL     1     -10.724   8.795  71.538  1.00  0.00    -0.371 A  
HETATM   37  C   UNL     1     -11.787   7.893  71.574  1.00  0.00    -0.322 A  
HETATM   38  C   UNL     1     -10.264   6.076  71.121  1.00  0.00    -0.257 A  
HETATM   39  C   UNL     1      -9.199   6.975  71.084  1.00  0.00    -0.157 A  
ENDBRANCH  33  34
ENDBRANCH  32  33
ENDBRANCH  31  32
ENDBRANCH  29  31
ENDBRANCH  28  29
ENDBRANCH  27  28
ENDBRANCH  14  27
ENDBRANCH  13  14
ENDBRANCH  12  13
ENDBRANCH   2  12
TORSDOF 20
ENDMDL
MODEL      405
REMARK 921   NORMALIZED FREE ENERGY PREDICTED BY IDOCK:   34.94 KCAL/MOL
REMARK 922        TOTAL FREE ENERGY PREDICTED BY IDOCK:   71.11 KCAL/MOL
REMARK 923 INTER-LIGAND FREE ENERGY PREDICTED BY IDOCK:   55.93 KCAL/MOL
REMARK 924 INTRA-LIGAND FREE ENERGY PREDICTED BY IDOCK:   15.18 KCAL/MOL
REMARK 927      BINDING AFFINITY PREDICTED BY RF-SCORE:    0.00 PKD
ROOT
HETATM    1  O   UNL     1     -14.216   9.210  70.058  1.00  0.00     1.373 OA 
HETATM    2  C   UNL     1     -13.406   9.649  69.253  1.00  0.00     3.904 C  
ENDROOT
BRANCH   2   3
HETATM    3  C   UNL     1     -13.575   9.581  67.754  1.00  0.00    15.630 C  
BRANCH   3   4
HETATM    4  C   UNL     1     -13.160   8.223  67.186  1.00  0.00    16.141 C  
BRANCH   4   5
HETATM    5  C   UNL     1     -11.844   8.298  66.404  1.00  0.00     5.920 C  
BRANCH   5   6
HETATM    6  C   UNL     1     -11.217   6.940  66.219  1.00  0.00     1.442 A  
HETATM    7  C   UNL     1     -10.660   6.580  64.982  1.00  0.00     4.176 A  
HETATM    8  C   UNL     1     -10.064   4.409  65.859  1.00  0.00    -0.262 A  
HETATM    9  C   UNL     1     -10.085   5.321  64.806  1.00  0.00     0.792 A  
HETATM   10  C   UNL     1     -11.194   6.014  67.269  1.00  0.00    -0.071 A  
HETATM   11  C   UNL     1     -10.618   4.756  67.090  1.00  0.00     0.060 A  
ENDBRANCH   5   6
ENDBRANCH   4   5
ENDBRANCH   3   4
ENDBRANCH   2   3
BRANCH   2  12
HETATM   12  O   UNL     1     -12.232  10.260  69.572  1.00  0.00    -0.076 OA 
BRANCH  12  13
HETATM   13  C   UNL     1     -11.140  10.080  68.649  1.00  0.00    -0.174 C  
BRANCH  13  14
HETATM   14  C   UNL     1     -11.035  11.293  67.721  1.00  0.00    -0.252 C  
BRANCH  14  15
HETATM   15  O   UNL     1      -9.651  11.692  67.627  1.00  0.00    -0.175 OA 
BRANCH  15  16
HETATM   16  C   UNL     1      -8.814  11.167  68.561  1.00  0.00    -0.161 C  
HETATM   17  O   UNL     1      -9.086  10.977  69.736  1.00  0.00     0.379 OA 
BRANCH  16  18
HETATM   18  C   UNL     1      -7.471  10.876  67.940  1.00  0.00    -0.090 C  
BRANCH  18  19
HETATM   19  C   UNL     1      -7.331   9.406  67.556  1.00  0.00    -0.084 C  
BRANCH  19  20
HETATM   20  C   UNL     1      -8.165   9.025  66.328  1.00  0.00    -0.115 C  
BRANCH  20  21
HETATM   21  C   UNL     1      -7.493   7.897  65.587  1.00  0.00    -0.081 A  
HETATM   22  C   UNL     1      -6.108   5.772  64.404  1.00  0.00    -0.025 A  
HETATM   23  C   UNL     1      -6.357   8.141  64.805  1.00  0.00    -0.049 A  
HETATM   24  C   UNL     1      -7.940   6.579  65.753  1.00  0.00    -0.115 A  
HETATM   25  C   UNL     1      -5.669   7.080  64.215  1.00  0.00    -0.033 A  
HETATM   26  C   UNL     1      -7.249   5.521  65.164  1.00  0.00    -0.067 A  
ENDBRANCH  20  21
ENDBRANCH  19  20
ENDBRANCH  18  19
ENDBRANCH  16  18
ENDBRANCH  15  16
ENDBRANCH  14  15
BRANCH  14  27
HETATM   27  C   UNL     1     -11.826  12.484  68.276  1.00  0.00    -0.309 C  
BRANCH  27  28
HETATM   28  O   UNL     1     -12.824  12.059  69.215  1.00  0.00     0.495 OA 
BRANCH  28  29
HETATM   29  C   UNL     1     -12.428  12.085  70.519  1.00  0.00    -0.207 C  
HETATM   30  O   UNL     1     -11.745  11.228  71.060  1.00  0.00    -0.118 OA 
BRANCH  29  31
HETATM   31  C   UNL     1     -12.946  13.330  71.193  1.00  0.00    -0.297 C  
BRANCH  31  32
HETATM   32  C   UNL     1     -12.169  14.571  70.767  1.00  0.00    -0.403 C  
BRANCH  32  33
HETATM   33  C   UNL     1     -11.753  14.536  69.290  1.00  0.00    -0.350 C  
BRANCH  33  34
HETATM   34  C   UNL     1     -11.648  15.938  68.746  1.00  0.00    -0.389 A  
HETATM   35  C   UNL     1     -11.505  18.476  67.569  1.00  0.00     0.851 A  
HETATM   36  C   UNL     1     -12.777  16.766  68.709  1.00  0.00     3.102 A  
HETATM   37  C   UNL     1     -12.705  18.030  68.123  1.00  0.00     6.235 A  
HETATM   38  C   UNL     1     -10.374  17.662  67.613  1.00  0.00    -0.368 A  
HETATM   39  C   UNL     1     -10.444  16.399  68.199  1.00  0.00    -0.302 A  
ENDBRANCH  33  34
ENDBRANCH  32  33
ENDBRANCH  31  32
ENDBRANCH  29  31
ENDBRANCH  28  29
ENDBRANCH  27  28
ENDBRANCH  14  27
ENDBRANCH  13  14
ENDBRANCH  12  13
ENDBRANCH   2  12
TORSDOF 20
ENDMDL
