MODEL        1
REMARK 921   NORMALIZED FREE ENERGY PREDICTED BY IDOCK:   -4.19 KCAL/MOL
REMARK 922        TOTAL FREE ENERGY PREDICTED BY IDOCK:   -4.69 KCAL/MOL
REMARK 923 INTER-LIGAND FREE ENERGY PREDICTED BY IDOCK:   -4.68 KCAL/MOL
REMARK 924 INTRA-LIGAND FREE ENERGY PREDICTED BY IDOCK:   -0.00 KCAL/MOL
REMARK 927      BINDING AFFINITY PREDICTED BY RF-SCORE:    0.00 PKD
ROOT
HETATM    1  O   UNL     1     -12.273  12.360  66.016  1.00  0.00    -0.636 OA 
HETATM    2  C   UNL     1     -12.618  13.672  65.599  1.00  0.00    -0.484 C  
HETATM    3  H   UNL     1     -12.834  12.069  66.726  1.00  0.00     0.000 HD 
ENDROOT
BRANCH   2   4
HETATM    4  C   UNL     1     -11.715  14.139  64.458  1.00  0.00    -0.413 C  
HETATM    5  O   UNL     1     -12.468  14.166  63.241  1.00  0.00    -1.146 OA 
HETATM    6  H   UNL     1     -11.906  14.457  62.532  1.00  0.00     0.000 HD 
BRANCH   4   7
HETATM    7  C   UNL     1     -11.095  15.514  64.741  1.00  0.00    -0.407 C  
HETATM    8  O   UNL     1     -11.610  16.503  63.846  1.00  0.00    -1.598 OA 
HETATM    9  H   UNL     1     -11.226  17.355  64.020  1.00  0.00     0.000 HD 
ENDBRANCH   4   7
ENDBRANCH   2   4
TORSDOF 2
ENDMDL
MODEL        2
REMARK 921   NORMALIZED FREE ENERGY PREDICTED BY IDOCK:   -4.10 KCAL/MOL
REMARK 922        TOTAL FREE ENERGY PREDICTED BY IDOCK:   -4.58 KCAL/MOL
REMARK 923 INTER-LIGAND FREE ENERGY PREDICTED BY IDOCK:   -4.57 KCAL/MOL
REMARK 924 INTRA-LIGAND FREE ENERGY PREDICTED BY IDOCK:   -0.01 KCAL/MOL
REMARK 927      BINDING AFFINITY PREDICTED BY RF-SCORE:    0.00 PKD
ROOT
HETATM    1  O   UNL     1     -11.645  16.454  63.770  1.00  0.00    -1.605 OA 
HETATM    2  C   UNL     1     -11.143  15.505  64.698  1.00  0.00    -0.359 C  
HETATM    3  H   UNL     1     -11.247  17.307  63.905  1.00  0.00     0.000 HD 
ENDROOT
BRANCH   2   4
HETATM    4  C   UNL     1     -11.784  14.135  64.482  1.00  0.00    -0.413 C  
HETATM    5  O   UNL     1     -12.374  14.090  63.178  1.00  0.00    -1.133 OA 
HETATM    6  H   UNL     1     -12.772  13.238  63.044  1.00  0.00     0.000 HD 
BRANCH   4   7
HETATM    7  C   UNL     1     -10.775  12.992  64.658  1.00  0.00    -0.367 C  
HETATM    8  O   UNL     1      -9.802  13.001  63.610  1.00  0.00    -0.694 OA 
HETATM    9  H   UNL     1      -9.177  12.294  63.719  1.00  0.00     0.000 HD 
ENDBRANCH   4   7
ENDBRANCH   2   4
TORSDOF 2
ENDMDL
MODEL        3
REMARK 921   NORMALIZED FREE ENERGY PREDICTED BY IDOCK:   -3.99 KCAL/MOL
REMARK 922        TOTAL FREE ENERGY PREDICTED BY IDOCK:   -4.46 KCAL/MOL
REMARK 923 INTER-LIGAND FREE ENERGY PREDICTED BY IDOCK:   -4.28 KCAL/MOL
REMARK 924 INTRA-LIGAND FREE ENERGY PREDICTED BY IDOCK:   -0.19 KCAL/MOL
REMARK 927      BINDING AFFINITY PREDICTED BY RF-SCORE:    0.00 PKD
ROOT
HETATM    1  O   UNL     1     -11.554  16.396  63.817  1.00  0.00    -1.605 OA 
HETATM    2  C   UNL     1     -10.817  15.858  64.905  1.00  0.00    -0.400 C  
HETATM    3  H   UNL     1     -11.582  17.345  63.861  1.00  0.00     0.000 HD 
ENDROOT
BRANCH   2   4
HETATM    4  C   UNL     1     -10.771  14.332  64.835  1.00  0.00    -0.432 C  
HETATM    5  O   UNL     1     -10.265  13.818  66.071  1.00  0.00    -0.292 OA 
HETATM    6  H   UNL     1     -10.236  12.869  66.028  1.00  0.00     0.000 HD 
BRANCH   4   7
HETATM    7  C   UNL     1     -12.146  13.728  64.521  1.00  0.00    -0.428 C  
HETATM    8  O   UNL     1     -12.500  13.941  63.152  1.00  0.00    -1.121 OA 
HETATM    9  H   UNL     1     -13.352  13.566  62.958  1.00  0.00     0.000 HD 
ENDBRANCH   4   7
ENDBRANCH   2   4
TORSDOF 2
ENDMDL
MODEL        4
REMARK 921   NORMALIZED FREE ENERGY PREDICTED BY IDOCK:   -3.78 KCAL/MOL
REMARK 922        TOTAL FREE ENERGY PREDICTED BY IDOCK:   -4.22 KCAL/MOL
REMARK 923 INTER-LIGAND FREE ENERGY PREDICTED BY IDOCK:   -4.22 KCAL/MOL
REMARK 924 INTRA-LIGAND FREE ENERGY PREDICTED BY IDOCK:   -0.00 KCAL/MOL
REMARK 927      BINDING AFFINITY PREDICTED BY RF-SCORE:    0.00 PKD
ROOT
HETATM    1  O   UNL     1     -11.846  11.530  62.887  1.00  0.00    -0.859 OA 
HETATM    2  C   UNL     1     -11.239  12.575  63.631  1.00  0.00    -0.483 C  
HETATM    3  H   UNL     1     -11.195  10.913  62.572  1.00  0.00     0.000 HD 
ENDROOT
BRANCH   2   4
HETATM    4  C   UNL     1     -12.284  13.568  64.137  1.00  0.00    -0.394 C  
HETATM    5  O   UNL     1     -13.045  12.958  65.185  1.00  0.00    -0.753 OA 
HETATM    6  H   UNL     1     -13.696  13.576  65.500  1.00  0.00     0.000 HD 
BRANCH   4   7
HETATM    7  C   UNL     1     -11.648  14.877  64.622  1.00  0.00    -0.395 C  
HETATM    8  O   UNL     1     -12.032  15.974  63.789  1.00  0.00    -1.339 OA 
HETATM    9  H   UNL     1     -11.638  16.785  64.089  1.00  0.00     0.000 HD 
ENDBRANCH   4   7
ENDBRANCH   2   4
TORSDOF 2
ENDMDL
MODEL        5
REMARK 921   NORMALIZED FREE ENERGY PREDICTED BY IDOCK:   -3.78 KCAL/MOL
REMARK 922        TOTAL FREE ENERGY PREDICTED BY IDOCK:   -4.22 KCAL/MOL
REMARK 923 INTER-LIGAND FREE ENERGY PREDICTED BY IDOCK:   -4.21 KCAL/MOL
REMARK 924 INTRA-LIGAND FREE ENERGY PREDICTED BY IDOCK:   -0.01 KCAL/MOL
REMARK 927      BINDING AFFINITY PREDICTED BY RF-SCORE:    0.00 PKD
ROOT
HETATM    1  O   UNL     1      -9.615  14.266  65.715  1.00  0.00    -0.473 OA 
HETATM    2  C   UNL     1     -10.046  15.569  65.355  1.00  0.00    -0.352 C  
HETATM    3  H   UNL     1      -8.724  14.280  66.046  1.00  0.00     0.000 HD 
ENDROOT
BRANCH   2   4
HETATM    4  C   UNL     1     -11.478  15.546  64.823  1.00  0.00    -0.313 C  
HETATM    5  O   UNL     1     -11.607  16.508  63.771  1.00  0.00    -1.617 OA 
HETATM    6  H   UNL     1     -12.498  16.493  63.441  1.00  0.00     0.000 HD 
BRANCH   4   7
HETATM    7  C   UNL     1     -11.888  14.151  64.333  1.00  0.00    -0.428 C  
HETATM    8  O   UNL     1     -12.593  14.230  63.091  1.00  0.00    -1.028 OA 
HETATM    9  H   UNL     1     -12.847  13.366  62.787  1.00  0.00     0.000 HD 
ENDBRANCH   4   7
ENDBRANCH   2   4
TORSDOF 2
ENDMDL
MODEL        6
REMARK 921   NORMALIZED FREE ENERGY PREDICTED BY IDOCK:   -3.75 KCAL/MOL
REMARK 922        TOTAL FREE ENERGY PREDICTED BY IDOCK:   -4.19 KCAL/MOL
REMARK 923 INTER-LIGAND FREE ENERGY PREDICTED BY IDOCK:   -3.99 KCAL/MOL
REMARK 924 INTRA-LIGAND FREE ENERGY PREDICTED BY IDOCK:   -0.20 KCAL/MOL
REMARK 927      BINDING AFFINITY PREDICTED BY RF-SCORE:    0.00 PKD
ROOT
HETATM    1  O   UNL     1     -12.418  11.516  63.034  1.00  0.00    -0.982 OA 
HETATM    2  C   UNL     1     -11.262  12.118  63.597  1.00  0.00    -0.464 C  
HETATM    3  H   UNL     1     -12.231  10.633  62.734  1.00  0.00     0.000 HD 
ENDROOT
BRANCH   2   4
HETATM    4  C   UNL     1     -11.562  13.536  64.078  1.00  0.00    -0.353 C  
HETATM    5  O   UNL     1     -12.508  14.145  63.194  1.00  0.00    -1.126 OA 
HETATM    6  H   UNL     1     -12.694  15.027  63.493  1.00  0.00     0.000 HD 
BRANCH   4   7
HETATM    7  C   UNL     1     -12.081  13.557  65.522  1.00  0.00    -0.419 C  
HETATM    8  O   UNL     1     -12.197  12.231  66.045  1.00  0.00    -0.646 OA 
HETATM    9  H   UNL     1     -12.518  12.244  66.939  1.00  0.00     0.000 HD 
ENDBRANCH   4   7
ENDBRANCH   2   4
TORSDOF 2
ENDMDL
MODEL        7
REMARK 921   NORMALIZED FREE ENERGY PREDICTED BY IDOCK:   -3.61 KCAL/MOL
REMARK 922        TOTAL FREE ENERGY PREDICTED BY IDOCK:   -4.03 KCAL/MOL
REMARK 923 INTER-LIGAND FREE ENERGY PREDICTED BY IDOCK:   -3.82 KCAL/MOL
REMARK 924 INTRA-LIGAND FREE ENERGY PREDICTED BY IDOCK:   -0.21 KCAL/MOL
REMARK 927      BINDING AFFINITY PREDICTED BY RF-SCORE:    0.00 PKD
ROOT
HETATM    1  O   UNL     1     -13.379  14.079  65.150  1.00  0.00    -0.703 OA 
HETATM    2  C   UNL     1     -12.192  13.301  65.114  1.00  0.00    -0.443 C  
HETATM    3  H   UNL     1     -14.151  13.525  65.127  1.00  0.00     0.000 HD 
ENDROOT
BRANCH   2   4
HETATM    4  C   UNL     1     -10.951  14.191  65.151  1.00  0.00    -0.356 C  
HETATM    5  O   UNL     1     -10.057  13.798  64.105  1.00  0.00    -0.729 OA 
HETATM    6  H   UNL     1      -9.285  14.352  64.128  1.00  0.00     0.000 HD 
BRANCH   4   7
HETATM    7  C   UNL     1     -11.306  15.679  65.028  1.00  0.00    -0.253 C  
HETATM    8  O   UNL     1     -11.841  15.974  63.735  1.00  0.00    -1.334 OA 
HETATM    9  H   UNL     1     -12.060  16.895  63.659  1.00  0.00     0.000 HD 
ENDBRANCH   4   7
ENDBRANCH   2   4
TORSDOF 2
ENDMDL
MODEL        8
REMARK 921   NORMALIZED FREE ENERGY PREDICTED BY IDOCK:   -3.58 KCAL/MOL
REMARK 922        TOTAL FREE ENERGY PREDICTED BY IDOCK:   -4.01 KCAL/MOL
REMARK 923 INTER-LIGAND FREE ENERGY PREDICTED BY IDOCK:   -3.79 KCAL/MOL
REMARK 924 INTRA-LIGAND FREE ENERGY PREDICTED BY IDOCK:   -0.22 KCAL/MOL
REMARK 927      BINDING AFFINITY PREDICTED BY RF-SCORE:    0.00 PKD
ROOT
HETATM    1  O   UNL     1     -12.440  13.498  62.917  1.00  0.00    -0.891 OA 
HETATM    2  C   UNL     1     -11.365  13.066  63.738  1.00  0.00    -0.383 C  
HETATM    3  H   UNL     1     -12.602  12.880  62.213  1.00  0.00     0.000 HD 
ENDROOT
BRANCH   2   4
HETATM    4  C   UNL     1     -11.105  14.059  64.869  1.00  0.00    -0.375 C  
HETATM    5  O   UNL     1      -9.730  14.455  64.843  1.00  0.00    -0.474 OA 
HETATM    6  H   UNL     1      -9.569  15.073  65.547  1.00  0.00     0.000 HD 
BRANCH   4   7
HETATM    7  C   UNL     1     -12.022  15.286  64.780  1.00  0.00    -0.184 C  
HETATM    8  O   UNL     1     -11.517  16.238  63.839  1.00  0.00    -1.484 OA 
HETATM    9  H   UNL     1     -12.085  16.998  63.784  1.00  0.00     0.000 HD 
ENDBRANCH   4   7
ENDBRANCH   2   4
TORSDOF 2
ENDMDL
MODEL        9
REMARK 921   NORMALIZED FREE ENERGY PREDICTED BY IDOCK:   -3.57 KCAL/MOL
REMARK 922        TOTAL FREE ENERGY PREDICTED BY IDOCK:   -3.99 KCAL/MOL
REMARK 923 INTER-LIGAND FREE ENERGY PREDICTED BY IDOCK:   -3.77 KCAL/MOL
REMARK 924 INTRA-LIGAND FREE ENERGY PREDICTED BY IDOCK:   -0.22 KCAL/MOL
REMARK 927      BINDING AFFINITY PREDICTED BY RF-SCORE:    0.00 PKD
ROOT
HETATM    1  O   UNL     1     -12.576  14.383  63.230  1.00  0.00    -1.043 OA 
HETATM    2  C   UNL     1     -12.229  14.269  64.602  1.00  0.00    -0.454 C  
HETATM    3  H   UNL     1     -13.039  15.196  63.061  1.00  0.00     0.000 HD 
ENDROOT
BRANCH   2   4
HETATM    4  C   UNL     1     -11.485  12.963  64.873  1.00  0.00    -0.315 C  
HETATM    5  O   UNL     1     -12.312  12.104  65.665  1.00  0.00    -0.560 OA 
HETATM    6  H   UNL     1     -11.849  11.292  65.834  1.00  0.00     0.000 HD 
BRANCH   4   7
HETATM    7  C   UNL     1     -11.062  12.260  63.576  1.00  0.00    -0.464 C  
HETATM    8  O   UNL     1     -12.126  11.457  63.057  1.00  0.00    -0.934 OA 
HETATM    9  H   UNL     1     -11.864  11.022  62.254  1.00  0.00     0.000 HD 
ENDBRANCH   4   7
ENDBRANCH   2   4
TORSDOF 2
ENDMDL
MODEL       10
REMARK 921   NORMALIZED FREE ENERGY PREDICTED BY IDOCK:   -3.56 KCAL/MOL
REMARK 922        TOTAL FREE ENERGY PREDICTED BY IDOCK:   -3.98 KCAL/MOL
REMARK 923 INTER-LIGAND FREE ENERGY PREDICTED BY IDOCK:   -3.77 KCAL/MOL
REMARK 924 INTRA-LIGAND FREE ENERGY PREDICTED BY IDOCK:   -0.22 KCAL/MOL
REMARK 927      BINDING AFFINITY PREDICTED BY RF-SCORE:    0.00 PKD
ROOT
HETATM    1  O   UNL     1     -11.334  14.672  71.413  1.00  0.00    -0.528 OA 
HETATM    2  C   UNL     1     -11.690  15.500  72.510  1.00  0.00    -0.468 C  
HETATM    3  H   UNL     1     -10.465  14.883  71.093  1.00  0.00     0.000 HD 
ENDROOT
BRANCH   2   4
HETATM    4  C   UNL     1     -13.088  15.160  73.023  1.00  0.00    -0.502 C  
HETATM    5  O   UNL     1     -13.658  16.318  73.641  1.00  0.00    -0.912 OA 
HETATM    6  H   UNL     1     -14.528  16.107  73.960  1.00  0.00     0.000 HD 
BRANCH   4   7
HETATM    7  C   UNL     1     -14.001  14.638  71.906  1.00  0.00    -0.481 C  
HETATM    8  O   UNL     1     -13.979  15.512  70.775  1.00  0.00    -0.874 OA 
HETATM    9  H   UNL     1     -14.545  15.189  70.083  1.00  0.00     0.000 HD 
ENDBRANCH   4   7
ENDBRANCH   2   4
TORSDOF 2
ENDMDL
MODEL       11
REMARK 921   NORMALIZED FREE ENERGY PREDICTED BY IDOCK:   -3.55 KCAL/MOL
REMARK 922        TOTAL FREE ENERGY PREDICTED BY IDOCK:   -3.96 KCAL/MOL
REMARK 923 INTER-LIGAND FREE ENERGY PREDICTED BY IDOCK:   -3.74 KCAL/MOL
REMARK 924 INTRA-LIGAND FREE ENERGY PREDICTED BY IDOCK:   -0.22 KCAL/MOL
REMARK 927      BINDING AFFINITY PREDICTED BY RF-SCORE:    0.00 PKD
ROOT
HETATM    1  O   UNL     1     -12.533  14.461  63.452  1.00  0.00    -1.109 OA 
HETATM    2  C   UNL     1     -11.880  13.993  64.623  1.00  0.00    -0.417 C  
HETATM    3  H   UNL     1     -13.293  14.986  63.672  1.00  0.00     0.000 HD 
ENDROOT
BRANCH   2   4
HETATM    4  C   UNL     1     -10.658  13.148  64.269  1.00  0.00    -0.412 C  
HETATM    5  O   UNL     1      -9.662  13.311  65.285  1.00  0.00    -0.505 OA 
HETATM    6  H   UNL     1      -8.901  12.785  65.065  1.00  0.00     0.000 HD 
BRANCH   4   7
HETATM    7  C   UNL     1     -11.013  11.666  64.092  1.00  0.00    -0.376 C  
HETATM    8  O   UNL     1     -12.122  11.506  63.204  1.00  0.00    -0.925 OA 
HETATM    9  H   UNL     1     -12.341  10.588  63.094  1.00  0.00     0.000 HD 
ENDBRANCH   4   7
ENDBRANCH   2   4
TORSDOF 2
ENDMDL
MODEL       12
REMARK 921   NORMALIZED FREE ENERGY PREDICTED BY IDOCK:   -3.53 KCAL/MOL
REMARK 922        TOTAL FREE ENERGY PREDICTED BY IDOCK:   -3.94 KCAL/MOL
REMARK 923 INTER-LIGAND FREE ENERGY PREDICTED BY IDOCK:   -3.72 KCAL/MOL
REMARK 924 INTRA-LIGAND FREE ENERGY PREDICTED BY IDOCK:   -0.22 KCAL/MOL
REMARK 927      BINDING AFFINITY PREDICTED BY RF-SCORE:    0.00 PKD
ROOT
HETATM    1  O   UNL     1     -13.456  16.320  73.707  1.00  0.00    -0.924 OA 
HETATM    2  C   UNL     1     -12.491  15.281  73.770  1.00  0.00    -0.615 C  
HETATM    3  H   UNL     1     -13.343  16.934  74.424  1.00  0.00     0.000 HD 
ENDROOT
BRANCH   2   4
HETATM    4  C   UNL     1     -12.673  14.293  72.619  1.00  0.00    -0.307 C  
HETATM    5  O   UNL     1     -13.943  13.647  72.747  1.00  0.00    -0.725 OA 
HETATM    6  H   UNL     1     -14.056  13.032  72.031  1.00  0.00     0.000 HD 
BRANCH   4   7
HETATM    7  C   UNL     1     -12.548  14.974  71.250  1.00  0.00    -0.339 C  
HETATM    8  O   UNL     1     -13.755  15.661  70.907  1.00  0.00    -0.810 OA 
HETATM    9  H   UNL     1     -13.678  16.083  70.059  1.00  0.00     0.000 HD 
ENDBRANCH   4   7
ENDBRANCH   2   4
TORSDOF 2
ENDMDL
MODEL       13
REMARK 921   NORMALIZED FREE ENERGY PREDICTED BY IDOCK:   -3.52 KCAL/MOL
REMARK 922        TOTAL FREE ENERGY PREDICTED BY IDOCK:   -3.93 KCAL/MOL
REMARK 923 INTER-LIGAND FREE ENERGY PREDICTED BY IDOCK:   -3.90 KCAL/MOL
REMARK 924 INTRA-LIGAND FREE ENERGY PREDICTED BY IDOCK:   -0.04 KCAL/MOL
REMARK 927      BINDING AFFINITY PREDICTED BY RF-SCORE:    0.00 PKD
ROOT
HETATM    1  O   UNL     1      -9.896  13.440  64.135  1.00  0.00    -0.735 OA 
HETATM    2  C   UNL     1     -10.532  12.338  63.505  1.00  0.00    -0.424 C  
HETATM    3  H   UNL     1      -8.952  13.327  64.149  1.00  0.00     0.000 HD 
ENDROOT
BRANCH   2   4
HETATM    4  C   UNL     1     -12.048  12.519  63.483  1.00  0.00    -0.562 C  
HETATM    5  O   UNL     1     -12.643  11.437  62.759  1.00  0.00    -0.952 OA 
HETATM    6  H   UNL     1     -13.586  11.549  62.745  1.00  0.00     0.000 HD 
BRANCH   4   7
HETATM    7  C   UNL     1     -12.638  12.611  64.897  1.00  0.00    -0.450 C  
HETATM    8  O   UNL     1     -13.117  13.931  65.168  1.00  0.00    -0.773 OA 
HETATM    9  H   UNL     1     -13.482  13.988  66.044  1.00  0.00     0.000 HD 
ENDBRANCH   4   7
ENDBRANCH   2   4
TORSDOF 2
ENDMDL
MODEL       14
REMARK 921   NORMALIZED FREE ENERGY PREDICTED BY IDOCK:   -3.45 KCAL/MOL
REMARK 922        TOTAL FREE ENERGY PREDICTED BY IDOCK:   -3.86 KCAL/MOL
REMARK 923 INTER-LIGAND FREE ENERGY PREDICTED BY IDOCK:   -3.85 KCAL/MOL
REMARK 924 INTRA-LIGAND FREE ENERGY PREDICTED BY IDOCK:   -0.01 KCAL/MOL
REMARK 927      BINDING AFFINITY PREDICTED BY RF-SCORE:    0.00 PKD
ROOT
HETATM    1  O   UNL     1      -9.703  12.974  64.958  1.00  0.00    -0.509 OA 
HETATM    2  C   UNL     1     -10.681  13.966  64.684  1.00  0.00    -0.407 C  
HETATM    3  H   UNL     1      -8.911  13.363  65.311  1.00  0.00     0.000 HD 
ENDROOT
BRANCH   2   4
HETATM    4  C   UNL     1     -11.954  13.341  64.117  1.00  0.00    -0.447 C  
HETATM    5  O   UNL     1     -12.366  14.077  62.960  1.00  0.00    -1.101 OA 
HETATM    6  H   UNL     1     -13.158  13.688  62.607  1.00  0.00     0.000 HD 
BRANCH   4   7
HETATM    7  C   UNL     1     -11.763  11.858  63.773  1.00  0.00    -0.457 C  
HETATM    8  O   UNL     1     -12.663  11.451  62.738  1.00  0.00    -0.927 OA 
HETATM    9  H   UNL     1     -12.545  10.532  62.526  1.00  0.00     0.000 HD 
ENDBRANCH   4   7
ENDBRANCH   2   4
TORSDOF 2
ENDMDL
MODEL       15
REMARK 921   NORMALIZED FREE ENERGY PREDICTED BY IDOCK:   -3.42 KCAL/MOL
REMARK 922        TOTAL FREE ENERGY PREDICTED BY IDOCK:   -3.82 KCAL/MOL
REMARK 923 INTER-LIGAND FREE ENERGY PREDICTED BY IDOCK:   -3.60 KCAL/MOL
REMARK 924 INTRA-LIGAND FREE ENERGY PREDICTED BY IDOCK:   -0.22 KCAL/MOL
REMARK 927      BINDING AFFINITY PREDICTED BY RF-SCORE:    0.00 PKD
ROOT
HETATM    1  O   UNL     1     -14.040   8.989  73.337  1.00  0.00    -1.231 OA 
HETATM    2  C   UNL     1     -13.172   9.390  72.287  1.00  0.00    -0.446 C  
HETATM    3  H   UNL     1     -14.727   9.631  73.475  1.00  0.00     0.000 HD 
ENDROOT
BRANCH   2   4
HETATM    4  C   UNL     1     -12.068   8.358  72.065  1.00  0.00    -0.356 C  
HETATM    5  O   UNL     1     -11.670   7.813  73.328  1.00  0.00    -0.659 OA 
HETATM    6  H   UNL     1     -10.983   7.171  73.190  1.00  0.00     0.000 HD 
BRANCH   4   7
HETATM    7  C   UNL     1     -12.506   7.241  71.109  1.00  0.00    -0.336 C  
HETATM    8  O   UNL     1     -13.920   7.271  70.898  1.00  0.00    -0.572 OA 
HETATM    9  H   UNL     1     -14.191   6.579  70.306  1.00  0.00     0.000 HD 
ENDBRANCH   4   7
ENDBRANCH   2   4
TORSDOF 2
ENDMDL
MODEL       16
REMARK 921   NORMALIZED FREE ENERGY PREDICTED BY IDOCK:   -3.42 KCAL/MOL
REMARK 922        TOTAL FREE ENERGY PREDICTED BY IDOCK:   -3.82 KCAL/MOL
REMARK 923 INTER-LIGAND FREE ENERGY PREDICTED BY IDOCK:   -3.63 KCAL/MOL
REMARK 924 INTRA-LIGAND FREE ENERGY PREDICTED BY IDOCK:   -0.19 KCAL/MOL
REMARK 927      BINDING AFFINITY PREDICTED BY RF-SCORE:    0.00 PKD
ROOT
HETATM    1  O   UNL     1     -12.151  12.261  66.335  1.00  0.00    -0.623 OA 
HETATM    2  C   UNL     1     -12.122  13.371  65.451  1.00  0.00    -0.421 C  
HETATM    3  H   UNL     1     -12.103  12.545  67.241  1.00  0.00     0.000 HD 
ENDROOT
BRANCH   2   4
HETATM    4  C   UNL     1     -12.199  12.915  63.995  1.00  0.00    -0.426 C  
HETATM    5  O   UNL     1     -12.469  14.045  63.159  1.00  0.00    -1.137 OA 
HETATM    6  H   UNL     1     -12.517  13.761  62.253  1.00  0.00     0.000 HD 
BRANCH   4   7
HETATM    7  C   UNL     1     -10.915  12.205  63.545  1.00  0.00    -0.453 C  
HETATM    8  O   UNL     1      -9.786  12.661  64.295  1.00  0.00    -0.573 OA 
HETATM    9  H   UNL     1      -8.991  12.221  64.016  1.00  0.00     0.000 HD 
ENDBRANCH   4   7
ENDBRANCH   2   4
TORSDOF 2
ENDMDL
MODEL       17
REMARK 921   NORMALIZED FREE ENERGY PREDICTED BY IDOCK:   -3.41 KCAL/MOL
REMARK 922        TOTAL FREE ENERGY PREDICTED BY IDOCK:   -3.81 KCAL/MOL
REMARK 923 INTER-LIGAND FREE ENERGY PREDICTED BY IDOCK:   -3.60 KCAL/MOL
REMARK 924 INTRA-LIGAND FREE ENERGY PREDICTED BY IDOCK:   -0.21 KCAL/MOL
REMARK 927      BINDING AFFINITY PREDICTED BY RF-SCORE:    0.00 PKD
ROOT
HETATM    1  O   UNL     1     -14.038   8.903  73.377  1.00  0.00    -1.256 OA 
HETATM    2  C   UNL     1     -13.893   8.919  71.965  1.00  0.00    -0.456 C  
HETATM    3  H   UNL     1     -14.892   8.568  73.628  1.00  0.00     0.000 HD 
ENDROOT
BRANCH   2   4
HETATM    4  C   UNL     1     -12.522   9.457  71.560  1.00  0.00    -0.366 C  
HETATM    5  O   UNL     1     -12.043   8.724  70.428  1.00  0.00    -0.477 OA 
HETATM    6  H   UNL     1     -11.190   9.059  70.176  1.00  0.00     0.000 HD 
BRANCH   4   7
HETATM    7  C   UNL     1     -12.560  10.960  71.254  1.00  0.00    -0.421 C  
HETATM    8  O   UNL     1     -13.336  11.663  72.228  1.00  0.00    -0.625 OA 
HETATM    9  H   UNL     1     -13.360  12.594  72.039  1.00  0.00     0.000 HD 
ENDBRANCH   4   7
ENDBRANCH   2   4
TORSDOF 2
ENDMDL
MODEL       18
REMARK 921   NORMALIZED FREE ENERGY PREDICTED BY IDOCK:   -3.39 KCAL/MOL
REMARK 922        TOTAL FREE ENERGY PREDICTED BY IDOCK:   -3.79 KCAL/MOL
REMARK 923 INTER-LIGAND FREE ENERGY PREDICTED BY IDOCK:   -3.57 KCAL/MOL
REMARK 924 INTRA-LIGAND FREE ENERGY PREDICTED BY IDOCK:   -0.22 KCAL/MOL
REMARK 927      BINDING AFFINITY PREDICTED BY RF-SCORE:    0.00 PKD
ROOT
HETATM    1  O   UNL     1     -12.673   7.112  70.563  1.00  0.00    -0.611 OA 
HETATM    2  C   UNL     1     -13.323   7.270  71.816  1.00  0.00    -0.304 C  
HETATM    3  H   UNL     1     -12.338   6.229  70.461  1.00  0.00     0.000 HD 
ENDROOT
BRANCH   2   4
HETATM    4  C   UNL     1     -13.861   8.690  71.980  1.00  0.00    -0.440 C  
HETATM    5  O   UNL     1     -14.220   8.903  73.349  1.00  0.00    -1.241 OA 
HETATM    6  H   UNL     1     -14.555   9.787  73.451  1.00  0.00     0.000 HD 
BRANCH   4   7
HETATM    7  C   UNL     1     -12.851   9.747  71.515  1.00  0.00    -0.405 C  
HETATM    8  O   UNL     1     -13.042  10.068  70.135  1.00  0.00    -0.566 OA 
HETATM    9  H   UNL     1     -12.416  10.723  69.847  1.00  0.00     0.000 HD 
ENDBRANCH   4   7
ENDBRANCH   2   4
TORSDOF 2
ENDMDL
MODEL       19
REMARK 921   NORMALIZED FREE ENERGY PREDICTED BY IDOCK:   -3.39 KCAL/MOL
REMARK 922        TOTAL FREE ENERGY PREDICTED BY IDOCK:   -3.78 KCAL/MOL
REMARK 923 INTER-LIGAND FREE ENERGY PREDICTED BY IDOCK:   -3.68 KCAL/MOL
REMARK 924 INTRA-LIGAND FREE ENERGY PREDICTED BY IDOCK:   -0.11 KCAL/MOL
REMARK 927      BINDING AFFINITY PREDICTED BY RF-SCORE:    0.00 PKD
ROOT
HETATM    1  O   UNL     1     -12.286  14.191  63.360  1.00  0.00    -1.109 OA 
HETATM    2  C   UNL     1     -12.255  12.788  63.578  1.00  0.00    -0.525 C  
HETATM    3  H   UNL     1     -13.114  14.458  62.978  1.00  0.00     0.000 HD 
ENDROOT
BRANCH   2   4
HETATM    4  C   UNL     1     -10.923  12.358  64.191  1.00  0.00    -0.367 C  
HETATM    5  O   UNL     1      -9.949  13.383  63.971  1.00  0.00    -0.764 OA 
HETATM    6  H   UNL     1      -9.121  13.115  64.352  1.00  0.00     0.000 HD 
BRANCH   4   7
HETATM    7  C   UNL     1     -11.052  12.049  65.689  1.00  0.00    -0.313 C  
HETATM    8  O   UNL     1     -12.306  12.508  66.202  1.00  0.00    -0.596 OA 
HETATM    9  H   UNL     1     -12.385  12.316  67.129  1.00  0.00     0.000 HD 
ENDBRANCH   4   7
ENDBRANCH   2   4
TORSDOF 2
ENDMDL
MODEL       20
REMARK 921   NORMALIZED FREE ENERGY PREDICTED BY IDOCK:   -3.38 KCAL/MOL
REMARK 922        TOTAL FREE ENERGY PREDICTED BY IDOCK:   -3.78 KCAL/MOL
REMARK 923 INTER-LIGAND FREE ENERGY PREDICTED BY IDOCK:   -3.60 KCAL/MOL
REMARK 924 INTRA-LIGAND FREE ENERGY PREDICTED BY IDOCK:   -0.18 KCAL/MOL
REMARK 927      BINDING AFFINITY PREDICTED BY RF-SCORE:    0.00 PKD
ROOT
HETATM    1  O   UNL     1     -12.487  14.326  66.647  1.00  0.00    -0.559 OA 
HETATM    2  C   UNL     1     -12.631  14.135  65.248  1.00  0.00    -0.442 C  
HETATM    3  H   UNL     1     -13.164  13.860  67.127  1.00  0.00     0.000 HD 
ENDROOT
BRANCH   2   4
HETATM    4  C   UNL     1     -11.545  14.883  64.478  1.00  0.00    -0.352 C  
HETATM    5  O   UNL     1     -12.134  15.985  63.781  1.00  0.00    -1.318 OA 
HETATM    6  H   UNL     1     -11.458  16.451  63.302  1.00  0.00     0.000 HD 
BRANCH   4   7
HETATM    7  C   UNL     1     -10.415  15.366  65.397  1.00  0.00    -0.402 C  
HETATM    8  O   UNL     1      -9.481  14.316  65.659  1.00  0.00    -0.523 OA 
HETATM    9  H   UNL     1      -8.782  14.615  66.228  1.00  0.00     0.000 HD 
ENDBRANCH   4   7
ENDBRANCH   2   4
TORSDOF 2
ENDMDL
MODEL       21
REMARK 921   NORMALIZED FREE ENERGY PREDICTED BY IDOCK:   -3.37 KCAL/MOL
REMARK 922        TOTAL FREE ENERGY PREDICTED BY IDOCK:   -3.76 KCAL/MOL
REMARK 923 INTER-LIGAND FREE ENERGY PREDICTED BY IDOCK:   -3.76 KCAL/MOL
REMARK 924 INTRA-LIGAND FREE ENERGY PREDICTED BY IDOCK:   -0.01 KCAL/MOL
REMARK 927      BINDING AFFINITY PREDICTED BY RF-SCORE:    0.00 PKD
ROOT
HETATM    1  O   UNL     1     -13.251  16.272  74.074  1.00  0.00    -0.942 OA 
HETATM    2  C   UNL     1     -12.909  15.881  72.754  1.00  0.00    -0.478 C  
HETATM    3  H   UNL     1     -12.529  16.726  74.494  1.00  0.00     0.000 HD 
ENDROOT
BRANCH   2   4
HETATM    4  C   UNL     1     -14.070  15.152  72.079  1.00  0.00    -0.559 C  
HETATM    5  O   UNL     1     -14.094  15.489  70.689  1.00  0.00    -0.849 OA 
HETATM    6  H   UNL     1     -14.817  15.036  70.269  1.00  0.00     0.000 HD 
BRANCH   4   7
HETATM    7  C   UNL     1     -13.982  13.631  72.265  1.00  0.00    -0.563 C  
HETATM    8  O   UNL     1     -12.924  13.078  71.478  1.00  0.00    -0.367 OA 
HETATM    9  H   UNL     1     -12.869  12.137  71.593  1.00  0.00     0.000 HD 
ENDBRANCH   4   7
ENDBRANCH   2   4
TORSDOF 2
ENDMDL
MODEL       22
REMARK 921   NORMALIZED FREE ENERGY PREDICTED BY IDOCK:   -3.34 KCAL/MOL
REMARK 922        TOTAL FREE ENERGY PREDICTED BY IDOCK:   -3.73 KCAL/MOL
REMARK 923 INTER-LIGAND FREE ENERGY PREDICTED BY IDOCK:   -3.52 KCAL/MOL
REMARK 924 INTRA-LIGAND FREE ENERGY PREDICTED BY IDOCK:   -0.22 KCAL/MOL
REMARK 927      BINDING AFFINITY PREDICTED BY RF-SCORE:    0.00 PKD
ROOT
HETATM    1  O   UNL     1     -12.559   9.780  70.200  1.00  0.00    -0.490 OA 
HETATM    2  C   UNL     1     -13.053  10.025  71.508  1.00  0.00    -0.433 C  
HETATM    3  H   UNL     1     -12.441  10.593  69.722  1.00  0.00     0.000 HD 
ENDROOT
BRANCH   2   4
HETATM    4  C   UNL     1     -13.243   8.718  72.276  1.00  0.00    -0.412 C  
HETATM    5  O   UNL     1     -14.132   8.941  73.375  1.00  0.00    -1.256 OA 
HETATM    6  H   UNL     1     -14.250   8.127  73.853  1.00  0.00     0.000 HD 
BRANCH   4   7
HETATM    7  C   UNL     1     -13.769   7.591  71.376  1.00  0.00    -0.324 C  
HETATM    8  O   UNL     1     -12.702   6.973  70.652  1.00  0.00    -0.600 OA 
HETATM    9  H   UNL     1     -13.028   6.275  70.094  1.00  0.00     0.000 HD 
ENDBRANCH   4   7
ENDBRANCH   2   4
TORSDOF 2
ENDMDL
MODEL       23
REMARK 921   NORMALIZED FREE ENERGY PREDICTED BY IDOCK:   -3.34 KCAL/MOL
REMARK 922        TOTAL FREE ENERGY PREDICTED BY IDOCK:   -3.73 KCAL/MOL
REMARK 923 INTER-LIGAND FREE ENERGY PREDICTED BY IDOCK:   -3.51 KCAL/MOL
REMARK 924 INTRA-LIGAND FREE ENERGY PREDICTED BY IDOCK:   -0.22 KCAL/MOL
REMARK 927      BINDING AFFINITY PREDICTED BY RF-SCORE:    0.00 PKD
ROOT
HETATM    1  O   UNL     1     -14.091  13.419  72.586  1.00  0.00    -0.767 OA 
HETATM    2  C   UNL     1     -14.242  14.547  71.740  1.00  0.00    -0.510 C  
HETATM    3  H   UNL     1     -14.633  12.696  72.292  1.00  0.00     0.000 HD 
ENDROOT
BRANCH   2   4
HETATM    4  C   UNL     1     -13.371  15.709  72.213  1.00  0.00    -0.478 C  
HETATM    5  O   UNL     1     -13.738  16.060  73.551  1.00  0.00    -0.814 OA 
HETATM    6  H   UNL     1     -13.196  16.783  73.846  1.00  0.00     0.000 HD 
BRANCH   4   7
HETATM    7  C   UNL     1     -11.875  15.378  72.132  1.00  0.00    -0.449 C  
HETATM    8  O   UNL     1     -11.624  14.373  71.147  1.00  0.00    -0.496 OA 
HETATM    9  H   UNL     1     -10.697  14.168  71.097  1.00  0.00     0.000 HD 
ENDBRANCH   4   7
ENDBRANCH   2   4
TORSDOF 2
ENDMDL
MODEL       24
REMARK 921   NORMALIZED FREE ENERGY PREDICTED BY IDOCK:   -3.34 KCAL/MOL
REMARK 922        TOTAL FREE ENERGY PREDICTED BY IDOCK:   -3.73 KCAL/MOL
REMARK 923 INTER-LIGAND FREE ENERGY PREDICTED BY IDOCK:   -3.51 KCAL/MOL
REMARK 924 INTRA-LIGAND FREE ENERGY PREDICTED BY IDOCK:   -0.22 KCAL/MOL
REMARK 927      BINDING AFFINITY PREDICTED BY RF-SCORE:    0.00 PKD
ROOT
HETATM    1  O   UNL     1      -9.627  12.773  65.091  1.00  0.00    -0.479 OA 
HETATM    2  C   UNL     1     -10.713  12.834  64.179  1.00  0.00    -0.412 C  
HETATM    3  H   UNL     1      -9.075  12.020  64.915  1.00  0.00     0.000 HD 
ENDROOT
BRANCH   2   4
HETATM    4  C   UNL     1     -11.601  14.044  64.463  1.00  0.00    -0.391 C  
HETATM    5  O   UNL     1     -12.422  14.306  63.320  1.00  0.00    -1.133 OA 
HETATM    6  H   UNL     1     -12.974  15.059  63.497  1.00  0.00     0.000 HD 
BRANCH   4   7
HETATM    7  C   UNL     1     -12.466  13.844  65.715  1.00  0.00    -0.495 C  
HETATM    8  O   UNL     1     -12.198  12.580  66.327  1.00  0.00    -0.600 OA 
HETATM    9  H   UNL     1     -12.734  12.456  67.102  1.00  0.00     0.000 HD 
ENDBRANCH   4   7
ENDBRANCH   2   4
TORSDOF 2
ENDMDL
MODEL       25
REMARK 921   NORMALIZED FREE ENERGY PREDICTED BY IDOCK:   -3.33 KCAL/MOL
REMARK 922        TOTAL FREE ENERGY PREDICTED BY IDOCK:   -3.73 KCAL/MOL
REMARK 923 INTER-LIGAND FREE ENERGY PREDICTED BY IDOCK:   -3.72 KCAL/MOL
REMARK 924 INTRA-LIGAND FREE ENERGY PREDICTED BY IDOCK:   -0.00 KCAL/MOL
REMARK 927      BINDING AFFINITY PREDICTED BY RF-SCORE:    0.00 PKD
ROOT
HETATM    1  O   UNL     1     -12.492  14.118  66.787  1.00  0.00    -0.558 OA 
HETATM    2  C   UNL     1     -11.601  14.018  65.686  1.00  0.00    -0.331 C  
HETATM    3  H   UNL     1     -12.022  14.320  67.589  1.00  0.00     0.000 HD 
ENDROOT
BRANCH   2   4
HETATM    4  C   UNL     1     -12.356  13.693  64.398  1.00  0.00    -0.338 C  
HETATM    5  O   UNL     1     -12.477  14.881  63.610  1.00  0.00    -1.055 OA 
HETATM    6  H   UNL     1     -12.946  14.679  62.808  1.00  0.00     0.000 HD 
BRANCH   4   7
HETATM    7  C   UNL     1     -11.671  12.579  63.595  1.00  0.00    -0.515 C  
HETATM    8  O   UNL     1     -12.630  11.642  63.097  1.00  0.00    -0.926 OA 
HETATM    9  H   UNL     1     -12.206  10.952  62.600  1.00  0.00     0.000 HD 
ENDBRANCH   4   7
ENDBRANCH   2   4
TORSDOF 2
ENDMDL
MODEL       26
REMARK 921   NORMALIZED FREE ENERGY PREDICTED BY IDOCK:   -3.33 KCAL/MOL
REMARK 922        TOTAL FREE ENERGY PREDICTED BY IDOCK:   -3.72 KCAL/MOL
REMARK 923 INTER-LIGAND FREE ENERGY PREDICTED BY IDOCK:   -3.52 KCAL/MOL
REMARK 924 INTRA-LIGAND FREE ENERGY PREDICTED BY IDOCK:   -0.20 KCAL/MOL
REMARK 927      BINDING AFFINITY PREDICTED BY RF-SCORE:    0.00 PKD
ROOT
HETATM    1  O   UNL     1     -14.001  13.065  72.764  1.00  0.00    -0.745 OA 
HETATM    2  C   UNL     1     -13.342  13.500  71.584  1.00  0.00    -0.340 C  
HETATM    3  H   UNL     1     -14.104  12.120  72.770  1.00  0.00     0.000 HD 
ENDROOT
BRANCH   2   4
HETATM    4  C   UNL     1     -13.177  15.018  71.575  1.00  0.00    -0.402 C  
HETATM    5  O   UNL     1     -13.656  15.538  70.330  1.00  0.00    -0.806 OA 
HETATM    6  H   UNL     1     -13.553  16.483  70.325  1.00  0.00     0.000 HD 
BRANCH   4   7
HETATM    7  C   UNL     1     -13.902  15.684  72.753  1.00  0.00    -0.545 C  
HETATM    8  O   UNL     1     -13.038  15.801  73.887  1.00  0.00    -0.683 OA 
HETATM    9  H   UNL     1     -13.487  16.213  74.616  1.00  0.00     0.000 HD 
ENDBRANCH   4   7
ENDBRANCH   2   4
TORSDOF 2
ENDMDL
MODEL       27
REMARK 921   NORMALIZED FREE ENERGY PREDICTED BY IDOCK:   -3.30 KCAL/MOL
REMARK 922        TOTAL FREE ENERGY PREDICTED BY IDOCK:   -3.69 KCAL/MOL
REMARK 923 INTER-LIGAND FREE ENERGY PREDICTED BY IDOCK:   -3.46 KCAL/MOL
REMARK 924 INTRA-LIGAND FREE ENERGY PREDICTED BY IDOCK:   -0.22 KCAL/MOL
REMARK 927      BINDING AFFINITY PREDICTED BY RF-SCORE:    0.00 PKD
ROOT
HETATM    1  O   UNL     1     -11.489   7.694  73.304  1.00  0.00    -0.617 OA 
HETATM    2  C   UNL     1     -12.055   7.129  72.131  1.00  0.00    -0.246 C  
HETATM    3  H   UNL     1     -10.969   7.053  73.775  1.00  0.00     0.000 HD 
ENDROOT
BRANCH   2   4
HETATM    4  C   UNL     1     -12.891   8.159  71.374  1.00  0.00    -0.253 C  
HETATM    5  O   UNL     1     -14.058   7.523  70.845  1.00  0.00    -0.647 OA 
HETATM    6  H   UNL     1     -14.579   8.164  70.374  1.00  0.00     0.000 HD 
BRANCH   4   7
HETATM    7  C   UNL     1     -13.279   9.350  72.261  1.00  0.00    -0.446 C  
HETATM    8  O   UNL     1     -14.127   8.935  73.335  1.00  0.00    -1.256 OA 
HETATM    9  H   UNL     1     -14.368   9.673  73.884  1.00  0.00     0.000 HD 
ENDBRANCH   4   7
ENDBRANCH   2   4
TORSDOF 2
ENDMDL
MODEL       28
REMARK 921   NORMALIZED FREE ENERGY PREDICTED BY IDOCK:   -3.29 KCAL/MOL
REMARK 922        TOTAL FREE ENERGY PREDICTED BY IDOCK:   -3.68 KCAL/MOL
REMARK 923 INTER-LIGAND FREE ENERGY PREDICTED BY IDOCK:   -3.51 KCAL/MOL
REMARK 924 INTRA-LIGAND FREE ENERGY PREDICTED BY IDOCK:   -0.17 KCAL/MOL
REMARK 927      BINDING AFFINITY PREDICTED BY RF-SCORE:    0.00 PKD
ROOT
HETATM    1  O   UNL     1     -14.159   8.850  73.267  1.00  0.00    -1.211 OA 
HETATM    2  C   UNL     1     -14.134   8.361  71.935  1.00  0.00    -0.442 C  
HETATM    3  H   UNL     1     -14.895   9.437  73.401  1.00  0.00     0.000 HD 
ENDROOT
BRANCH   2   4
HETATM    4  C   UNL     1     -12.952   7.417  71.720  1.00  0.00    -0.325 C  
HETATM    5  O   UNL     1     -12.862   7.081  70.332  1.00  0.00    -0.558 OA 
HETATM    6  H   UNL     1     -12.127   6.494  70.198  1.00  0.00     0.000 HD 
BRANCH   4   7
HETATM    7  C   UNL     1     -11.632   8.023  72.216  1.00  0.00    -0.366 C  
HETATM    8  O   UNL     1     -11.281   7.508  73.502  1.00  0.00    -0.603 OA 
HETATM    9  H   UNL     1     -10.464   7.884  73.809  1.00  0.00     0.000 HD 
ENDBRANCH   4   7
ENDBRANCH   2   4
TORSDOF 2
ENDMDL
MODEL       29
REMARK 921   NORMALIZED FREE ENERGY PREDICTED BY IDOCK:   -3.28 KCAL/MOL
REMARK 922        TOTAL FREE ENERGY PREDICTED BY IDOCK:   -3.66 KCAL/MOL
REMARK 923 INTER-LIGAND FREE ENERGY PREDICTED BY IDOCK:   -3.44 KCAL/MOL
REMARK 924 INTRA-LIGAND FREE ENERGY PREDICTED BY IDOCK:   -0.22 KCAL/MOL
REMARK 927      BINDING AFFINITY PREDICTED BY RF-SCORE:    0.00 PKD
ROOT
HETATM    1  O   UNL     1     -12.522  13.777  62.925  1.00  0.00    -1.009 OA 
HETATM    2  C   UNL     1     -12.326  12.683  63.809  1.00  0.00    -0.478 C  
HETATM    3  H   UNL     1     -12.744  13.474  62.052  1.00  0.00     0.000 HD 
ENDROOT
BRANCH   2   4
HETATM    4  C   UNL     1     -11.969  13.170  65.212  1.00  0.00    -0.398 C  
HETATM    5  O   UNL     1     -12.319  12.161  66.165  1.00  0.00    -0.536 OA 
HETATM    6  H   UNL     1     -12.097  12.464  67.038  1.00  0.00     0.000 HD 
BRANCH   4   7
HETATM    7  C   UNL     1     -10.484  13.536  65.335  1.00  0.00    -0.315 C  
HETATM    8  O   UNL     1      -9.795  13.307  64.103  1.00  0.00    -0.707 OA 
HETATM    9  H   UNL     1      -8.875  13.534  64.179  1.00  0.00     0.000 HD 
ENDBRANCH   4   7
ENDBRANCH   2   4
TORSDOF 2
ENDMDL
MODEL       30
REMARK 921   NORMALIZED FREE ENERGY PREDICTED BY IDOCK:   -3.19 KCAL/MOL
REMARK 922        TOTAL FREE ENERGY PREDICTED BY IDOCK:   -3.56 KCAL/MOL
REMARK 923 INTER-LIGAND FREE ENERGY PREDICTED BY IDOCK:   -3.56 KCAL/MOL
REMARK 924 INTRA-LIGAND FREE ENERGY PREDICTED BY IDOCK:   -0.00 KCAL/MOL
REMARK 927      BINDING AFFINITY PREDICTED BY RF-SCORE:    0.00 PKD
ROOT
HETATM    1  O   UNL     1     -11.755   6.901  69.827  1.00  0.00    -0.581 OA 
HETATM    2  C   UNL     1     -12.053   6.842  71.213  1.00  0.00    -0.373 C  
HETATM    3  H   UNL     1     -10.930   6.470  69.636  1.00  0.00     0.000 HD 
ENDROOT
BRANCH   2   4
HETATM    4  C   UNL     1     -13.380   7.535  71.519  1.00  0.00    -0.352 C  
HETATM    5  O   UNL     1     -14.220   6.642  72.257  1.00  0.00    -0.579 OA 
HETATM    6  H   UNL     1     -15.045   7.073  72.447  1.00  0.00     0.000 HD 
BRANCH   4   7
HETATM    7  C   UNL     1     -13.180   8.848  72.288  1.00  0.00    -0.447 C  
HETATM    8  O   UNL     1     -14.133   8.972  73.347  1.00  0.00    -1.231 OA 
HETATM    9  H   UNL     1     -14.009   9.785  73.824  1.00  0.00     0.000 HD 
ENDBRANCH   4   7
ENDBRANCH   2   4
TORSDOF 2
ENDMDL
MODEL       31
REMARK 921   NORMALIZED FREE ENERGY PREDICTED BY IDOCK:   -3.18 KCAL/MOL
REMARK 922        TOTAL FREE ENERGY PREDICTED BY IDOCK:   -3.56 KCAL/MOL
REMARK 923 INTER-LIGAND FREE ENERGY PREDICTED BY IDOCK:   -3.34 KCAL/MOL
REMARK 924 INTRA-LIGAND FREE ENERGY PREDICTED BY IDOCK:   -0.22 KCAL/MOL
REMARK 927      BINDING AFFINITY PREDICTED BY RF-SCORE:    0.00 PKD
ROOT
HETATM    1  O   UNL     1     -13.475  11.812  72.306  1.00  0.00    -0.611 OA 
HETATM    2  C   UNL     1     -12.766  11.262  71.207  1.00  0.00    -0.405 C  
HETATM    3  H   UNL     1     -13.332  12.750  72.370  1.00  0.00     0.000 HD 
ENDROOT
BRANCH   2   4
HETATM    4  C   UNL     1     -12.995   9.755  71.106  1.00  0.00    -0.348 C  
HETATM    5  O   UNL     1     -12.026   9.188  70.218  1.00  0.00    -0.470 OA 
HETATM    6  H   UNL     1     -12.169   8.251  70.155  1.00  0.00     0.000 HD 
BRANCH   4   7
HETATM    7  C   UNL     1     -12.938   9.069  72.478  1.00  0.00    -0.361 C  
HETATM    8  O   UNL     1     -14.232   9.025  73.084  1.00  0.00    -1.142 OA 
HETATM    9  H   UNL     1     -14.196   8.601  73.934  1.00  0.00     0.000 HD 
ENDBRANCH   4   7
ENDBRANCH   2   4
TORSDOF 2
ENDMDL
MODEL       32
REMARK 921   NORMALIZED FREE ENERGY PREDICTED BY IDOCK:   -3.10 KCAL/MOL
REMARK 922        TOTAL FREE ENERGY PREDICTED BY IDOCK:   -3.47 KCAL/MOL
REMARK 923 INTER-LIGAND FREE ENERGY PREDICTED BY IDOCK:   -3.31 KCAL/MOL
REMARK 924 INTRA-LIGAND FREE ENERGY PREDICTED BY IDOCK:   -0.16 KCAL/MOL
REMARK 927      BINDING AFFINITY PREDICTED BY RF-SCORE:    0.00 PKD
ROOT
HETATM    1  O   UNL     1     -12.533  14.273  66.916  1.00  0.00    -0.581 OA 
HETATM    2  C   UNL     1     -11.567  13.309  66.527  1.00  0.00    -0.350 C  
HETATM    3  H   UNL     1     -12.418  14.524  67.826  1.00  0.00     0.000 HD 
ENDROOT
BRANCH   2   4
HETATM    4  C   UNL     1     -11.752  12.907  65.065  1.00  0.00    -0.344 C  
HETATM    5  O   UNL     1     -13.114  12.520  64.851  1.00  0.00    -0.833 OA 
HETATM    6  H   UNL     1     -13.229  12.269  63.941  1.00  0.00     0.000 HD 
BRANCH   4   7
HETATM    7  C   UNL     1     -11.353  14.033  64.102  1.00  0.00    -0.153 C  
HETATM    8  O   UNL     1     -12.484  14.834  63.752  1.00  0.00    -1.045 OA 
HETATM    9  H   UNL     1     -12.237  15.532  63.156  1.00  0.00     0.000 HD 
ENDBRANCH   4   7
ENDBRANCH   2   4
TORSDOF 2
ENDMDL
MODEL       33
REMARK 921   NORMALIZED FREE ENERGY PREDICTED BY IDOCK:   -3.06 KCAL/MOL
REMARK 922        TOTAL FREE ENERGY PREDICTED BY IDOCK:   -3.42 KCAL/MOL
REMARK 923 INTER-LIGAND FREE ENERGY PREDICTED BY IDOCK:   -3.42 KCAL/MOL
REMARK 924 INTRA-LIGAND FREE ENERGY PREDICTED BY IDOCK:   -0.00 KCAL/MOL
REMARK 927      BINDING AFFINITY PREDICTED BY RF-SCORE:    0.00 PKD
ROOT
HETATM    1  O   UNL     1     -12.910  15.464  70.146  1.00  0.00    -0.626 OA 
HETATM    2  C   UNL     1     -12.314  15.832  71.381  1.00  0.00    -0.448 C  
HETATM    3  H   UNL     1     -12.302  15.580  69.425  1.00  0.00     0.000 HD 
ENDROOT
BRANCH   2   4
HETATM    4  C   UNL     1     -13.292  15.646  72.539  1.00  0.00    -0.516 C  
HETATM    5  O   UNL     1     -13.796  14.306  72.521  1.00  0.00    -0.480 OA 
HETATM    6  H   UNL     1     -14.404  14.191  73.242  1.00  0.00     0.000 HD 
BRANCH   4   7
HETATM    7  C   UNL     1     -12.646  15.961  73.895  1.00  0.00    -0.623 C  
HETATM    8  O   UNL     1     -12.223  14.764  74.553  1.00  0.00    -0.728 OA 
HETATM    9  H   UNL     1     -11.823  14.959  75.393  1.00  0.00     0.000 HD 
ENDBRANCH   4   7
ENDBRANCH   2   4
TORSDOF 2
ENDMDL
MODEL       34
REMARK 921   NORMALIZED FREE ENERGY PREDICTED BY IDOCK:   -3.06 KCAL/MOL
REMARK 922        TOTAL FREE ENERGY PREDICTED BY IDOCK:   -3.42 KCAL/MOL
REMARK 923 INTER-LIGAND FREE ENERGY PREDICTED BY IDOCK:   -3.20 KCAL/MOL
REMARK 924 INTRA-LIGAND FREE ENERGY PREDICTED BY IDOCK:   -0.22 KCAL/MOL
REMARK 927      BINDING AFFINITY PREDICTED BY RF-SCORE:    0.00 PKD
ROOT
HETATM    1  O   UNL     1     -11.902  16.585  71.796  1.00  0.00    -0.664 OA 
HETATM    2  C   UNL     1     -12.458  15.376  72.290  1.00  0.00    -0.375 C  
HETATM    3  H   UNL     1     -11.400  17.029  72.470  1.00  0.00     0.000 HD 
ENDROOT
BRANCH   2   4
HETATM    4  C   UNL     1     -13.264  14.661  71.207  1.00  0.00    -0.369 C  
HETATM    5  O   UNL     1     -14.384  15.473  70.839  1.00  0.00    -0.852 OA 
HETATM    6  H   UNL     1     -14.886  15.028  70.165  1.00  0.00     0.000 HD 
BRANCH   4   7
HETATM    7  C   UNL     1     -12.410  14.330  69.976  1.00  0.00    -0.346 C  
HETATM    8  O   UNL     1     -12.379  15.429  69.062  1.00  0.00    -0.598 OA 
HETATM    9  H   UNL     1     -11.849  15.224  68.299  1.00  0.00     0.000 HD 
ENDBRANCH   4   7
ENDBRANCH   2   4
TORSDOF 2
ENDMDL
MODEL       35
REMARK 921   NORMALIZED FREE ENERGY PREDICTED BY IDOCK:   -3.06 KCAL/MOL
REMARK 922        TOTAL FREE ENERGY PREDICTED BY IDOCK:   -3.42 KCAL/MOL
REMARK 923 INTER-LIGAND FREE ENERGY PREDICTED BY IDOCK:   -3.41 KCAL/MOL
REMARK 924 INTRA-LIGAND FREE ENERGY PREDICTED BY IDOCK:   -0.00 KCAL/MOL
REMARK 927      BINDING AFFINITY PREDICTED BY RF-SCORE:    0.00 PKD
ROOT
HETATM    1  O   UNL     1     -12.187   6.895  69.999  1.00  0.00    -0.640 OA 
HETATM    2  C   UNL     1     -11.802   7.407  71.266  1.00  0.00    -0.301 C  
HETATM    3  H   UNL     1     -11.716   6.094  69.797  1.00  0.00     0.000 HD 
ENDROOT
BRANCH   2   4
HETATM    4  C   UNL     1     -12.559   8.694  71.590  1.00  0.00    -0.338 C  
HETATM    5  O   UNL     1     -12.553   9.547  70.441  1.00  0.00    -0.488 OA 
HETATM    6  H   UNL     1     -13.023  10.348  70.643  1.00  0.00     0.000 HD 
BRANCH   4   7
HETATM    7  C   UNL     1     -13.996   8.417  72.050  1.00  0.00    -0.405 C  
HETATM    8  O   UNL     1     -14.217   8.914  73.372  1.00  0.00    -1.241 OA 
HETATM    9  H   UNL     1     -15.108   8.742  73.657  1.00  0.00     0.000 HD 
ENDBRANCH   4   7
ENDBRANCH   2   4
TORSDOF 2
ENDMDL
MODEL       36
REMARK 921   NORMALIZED FREE ENERGY PREDICTED BY IDOCK:   -3.02 KCAL/MOL
REMARK 922        TOTAL FREE ENERGY PREDICTED BY IDOCK:   -3.37 KCAL/MOL
REMARK 923 INTER-LIGAND FREE ENERGY PREDICTED BY IDOCK:   -3.17 KCAL/MOL
REMARK 924 INTRA-LIGAND FREE ENERGY PREDICTED BY IDOCK:   -0.20 KCAL/MOL
REMARK 927      BINDING AFFINITY PREDICTED BY RF-SCORE:    0.00 PKD
ROOT
HETATM    1  O   UNL     1     -10.897   8.857  72.268  1.00  0.00    -0.332 OA 
HETATM    2  C   UNL     1     -11.285   9.607  71.127  1.00  0.00    -0.384 C  
HETATM    3  H   UNL     1      -9.984   8.597  72.212  1.00  0.00     0.000 HD 
ENDROOT
BRANCH   2   4
HETATM    4  C   UNL     1     -12.752  10.024  71.218  1.00  0.00    -0.399 C  
HETATM    5  O   UNL     1     -13.221  10.385  69.915  1.00  0.00    -0.525 OA 
HETATM    6  H   UNL     1     -14.134  10.645  69.972  1.00  0.00     0.000 HD 
BRANCH   4   7
HETATM    7  C   UNL     1     -13.629   8.918  71.821  1.00  0.00    -0.412 C  
HETATM    8  O   UNL     1     -13.821   9.123  73.223  1.00  0.00    -1.118 OA 
HETATM    9  H   UNL     1     -14.364   8.438  73.596  1.00  0.00     0.000 HD 
ENDBRANCH   4   7
ENDBRANCH   2   4
TORSDOF 2
ENDMDL
MODEL       37
REMARK 921   NORMALIZED FREE ENERGY PREDICTED BY IDOCK:   -3.00 KCAL/MOL
REMARK 922        TOTAL FREE ENERGY PREDICTED BY IDOCK:   -3.35 KCAL/MOL
REMARK 923 INTER-LIGAND FREE ENERGY PREDICTED BY IDOCK:   -3.17 KCAL/MOL
REMARK 924 INTRA-LIGAND FREE ENERGY PREDICTED BY IDOCK:   -0.19 KCAL/MOL
REMARK 927      BINDING AFFINITY PREDICTED BY RF-SCORE:    0.00 PKD
ROOT
HETATM    1  O   UNL     1     -13.912  12.630  72.697  1.00  0.00    -0.655 OA 
HETATM    2  C   UNL     1     -13.426  13.940  72.447  1.00  0.00    -0.560 C  
HETATM    3  H   UNL     1     -13.867  12.421  73.623  1.00  0.00     0.000 HD 
ENDROOT
BRANCH   2   4
HETATM    4  C   UNL     1     -13.497  14.277  70.959  1.00  0.00    -0.216 C  
HETATM    5  O   UNL     1     -13.908  15.639  70.802  1.00  0.00    -0.850 OA 
HETATM    6  H   UNL     1     -13.952  15.849  69.876  1.00  0.00     0.000 HD 
BRANCH   4   7
HETATM    7  C   UNL     1     -12.160  14.030  70.247  1.00  0.00    -0.355 C  
HETATM    8  O   UNL     1     -11.697  12.697  70.474  1.00  0.00    -0.529 OA 
HETATM    9  H   UNL     1     -10.869  12.544  70.033  1.00  0.00     0.000 HD 
ENDBRANCH   4   7
ENDBRANCH   2   4
TORSDOF 2
ENDMDL
MODEL       38
REMARK 921   NORMALIZED FREE ENERGY PREDICTED BY IDOCK:   -2.99 KCAL/MOL
REMARK 922        TOTAL FREE ENERGY PREDICTED BY IDOCK:   -3.34 KCAL/MOL
REMARK 923 INTER-LIGAND FREE ENERGY PREDICTED BY IDOCK:   -3.12 KCAL/MOL
REMARK 924 INTRA-LIGAND FREE ENERGY PREDICTED BY IDOCK:   -0.21 KCAL/MOL
REMARK 927      BINDING AFFINITY PREDICTED BY RF-SCORE:    0.00 PKD
ROOT
HETATM    1  O   UNL     1     -11.790  11.719  65.857  1.00  0.00    -0.414 OA 
HETATM    2  C   UNL     1     -11.618  12.254  64.553  1.00  0.00    -0.353 C  
HETATM    3  H   UNL     1     -11.626  10.783  65.866  1.00  0.00     0.000 HD 
ENDROOT
BRANCH   2   4
HETATM    4  C   UNL     1     -11.881  13.759  64.539  1.00  0.00    -0.417 C  
HETATM    5  O   UNL     1     -12.518  14.114  63.307  1.00  0.00    -1.146 OA 
HETATM    6  H   UNL     1     -12.682  15.051  63.298  1.00  0.00     0.000 HD 
BRANCH   4   7
HETATM    7  C   UNL     1     -12.730  14.207  65.736  1.00  0.00    -0.413 C  
HETATM    8  O   UNL     1     -11.903  14.596  66.835  1.00  0.00    -0.381 OA 
HETATM    9  H   UNL     1     -12.428  14.874  67.576  1.00  0.00     0.000 HD 
ENDBRANCH   4   7
ENDBRANCH   2   4
TORSDOF 2
ENDMDL
MODEL       39
REMARK 921   NORMALIZED FREE ENERGY PREDICTED BY IDOCK:   -2.92 KCAL/MOL
REMARK 922        TOTAL FREE ENERGY PREDICTED BY IDOCK:   -3.26 KCAL/MOL
REMARK 923 INTER-LIGAND FREE ENERGY PREDICTED BY IDOCK:   -3.05 KCAL/MOL
REMARK 924 INTRA-LIGAND FREE ENERGY PREDICTED BY IDOCK:   -0.21 KCAL/MOL
REMARK 927      BINDING AFFINITY PREDICTED BY RF-SCORE:    0.00 PKD
ROOT
HETATM    1  O   UNL     1     -13.830  13.640  72.881  1.00  0.00    -0.659 OA 
HETATM    2  C   UNL     1     -13.131  13.129  71.757  1.00  0.00    -0.383 C  
HETATM    3  H   UNL     1     -14.440  12.998  73.226  1.00  0.00     0.000 HD 
ENDROOT
BRANCH   2   4
HETATM    4  C   UNL     1     -12.150  14.161  71.204  1.00  0.00    -0.314 C  
HETATM    5  O   UNL     1     -11.661  13.715  69.935  1.00  0.00    -0.368 OA 
HETATM    6  H   UNL     1     -11.050  14.357  69.591  1.00  0.00     0.000 HD 
BRANCH   4   7
HETATM    7  C   UNL     1     -12.787  15.551  71.079  1.00  0.00    -0.482 C  
HETATM    8  O   UNL     1     -14.174  15.453  70.744  1.00  0.00    -0.844 OA 
HETATM    9  H   UNL     1     -14.569  16.314  70.667  1.00  0.00     0.000 HD 
ENDBRANCH   4   7
ENDBRANCH   2   4
TORSDOF 2
ENDMDL
MODEL       40
REMARK 921   NORMALIZED FREE ENERGY PREDICTED BY IDOCK:   -2.86 KCAL/MOL
REMARK 922        TOTAL FREE ENERGY PREDICTED BY IDOCK:   -3.20 KCAL/MOL
REMARK 923 INTER-LIGAND FREE ENERGY PREDICTED BY IDOCK:   -2.98 KCAL/MOL
REMARK 924 INTRA-LIGAND FREE ENERGY PREDICTED BY IDOCK:   -0.22 KCAL/MOL
REMARK 927      BINDING AFFINITY PREDICTED BY RF-SCORE:    0.00 PKD
ROOT
HETATM    1  O   UNL     1     -14.246   8.854  73.032  1.00  0.00    -1.106 OA 
HETATM    2  C   UNL     1     -13.461   9.701  72.206  1.00  0.00    -0.400 C  
HETATM    3  H   UNL     1     -14.864   9.359  73.549  1.00  0.00     0.000 HD 
ENDROOT
BRANCH   2   4
HETATM    4  C   UNL     1     -12.468   8.890  71.376  1.00  0.00    -0.304 C  
HETATM    5  O   UNL     1     -11.554   9.783  70.729  1.00  0.00    -0.290 OA 
HETATM    6  H   UNL     1     -10.936   9.278  70.213  1.00  0.00     0.000 HD 
BRANCH   4   7
HETATM    7  C   UNL     1     -11.710   7.862  72.226  1.00  0.00    -0.355 C  
HETATM    8  O   UNL     1     -12.450   6.644  72.340  1.00  0.00    -0.523 OA 
HETATM    9  H   UNL     1     -11.980   6.008  72.867  1.00  0.00     0.000 HD 
ENDBRANCH   4   7
ENDBRANCH   2   4
TORSDOF 2
ENDMDL
MODEL       41
REMARK 921   NORMALIZED FREE ENERGY PREDICTED BY IDOCK:   -2.81 KCAL/MOL
REMARK 922        TOTAL FREE ENERGY PREDICTED BY IDOCK:   -3.14 KCAL/MOL
REMARK 923 INTER-LIGAND FREE ENERGY PREDICTED BY IDOCK:   -2.92 KCAL/MOL
REMARK 924 INTRA-LIGAND FREE ENERGY PREDICTED BY IDOCK:   -0.22 KCAL/MOL
REMARK 927      BINDING AFFINITY PREDICTED BY RF-SCORE:    0.00 PKD
ROOT
HETATM    1  O   UNL     1     -12.244  10.764  68.487  1.00  0.00    -0.824 OA 
HETATM    2  C   UNL     1     -11.977  11.299  69.774  1.00  0.00    -0.360 C  
HETATM    3  H   UNL     1     -12.020  11.386  67.805  1.00  0.00     0.000 HD 
ENDROOT
BRANCH   2   4
HETATM    4  C   UNL     1     -12.337  10.298  70.870  1.00  0.00    -0.373 C  
HETATM    5  O   UNL     1     -13.655   9.792  70.633  1.00  0.00    -0.600 OA 
HETATM    6  H   UNL     1     -13.879   9.170  71.315  1.00  0.00     0.000 HD 
BRANCH   4   7
HETATM    7  C   UNL     1     -11.325   9.147  70.956  1.00  0.00    -0.309 C  
HETATM    8  O   UNL     1     -11.503   8.225  69.878  1.00  0.00    -0.455 OA 
HETATM    9  H   UNL     1     -10.877   7.513  69.931  1.00  0.00     0.000 HD 
ENDBRANCH   4   7
ENDBRANCH   2   4
TORSDOF 2
ENDMDL
MODEL       42
REMARK 921   NORMALIZED FREE ENERGY PREDICTED BY IDOCK:   -2.80 KCAL/MOL
REMARK 922        TOTAL FREE ENERGY PREDICTED BY IDOCK:   -3.13 KCAL/MOL
REMARK 923 INTER-LIGAND FREE ENERGY PREDICTED BY IDOCK:   -3.12 KCAL/MOL
REMARK 924 INTRA-LIGAND FREE ENERGY PREDICTED BY IDOCK:   -0.00 KCAL/MOL
REMARK 927      BINDING AFFINITY PREDICTED BY RF-SCORE:    0.00 PKD
ROOT
HETATM    1  O   UNL     1     -14.221   8.884  73.229  1.00  0.00    -1.197 OA 
HETATM    2  C   UNL     1     -13.261   9.135  72.215  1.00  0.00    -0.461 C  
HETATM    3  H   UNL     1     -14.921   9.527  73.203  1.00  0.00     0.000 HD 
ENDROOT
BRANCH   2   4
HETATM    4  C   UNL     1     -12.136   8.101  72.256  1.00  0.00    -0.364 C  
HETATM    5  O   UNL     1     -12.701   6.787  72.211  1.00  0.00    -0.536 OA 
HETATM    6  H   UNL     1     -12.002   6.144  72.237  1.00  0.00     0.000 HD 
BRANCH   4   7
HETATM    7  C   UNL     1     -11.131   8.297  71.114  1.00  0.00    -0.250 C  
HETATM    8  O   UNL     1     -10.111   9.230  71.481  1.00  0.00    -0.317 OA 
HETATM    9  H   UNL     1      -9.489   9.351  70.774  1.00  0.00     0.000 HD 
ENDBRANCH   4   7
ENDBRANCH   2   4
TORSDOF 2
ENDMDL
MODEL       43
REMARK 921   NORMALIZED FREE ENERGY PREDICTED BY IDOCK:   -2.79 KCAL/MOL
REMARK 922        TOTAL FREE ENERGY PREDICTED BY IDOCK:   -3.12 KCAL/MOL
REMARK 923 INTER-LIGAND FREE ENERGY PREDICTED BY IDOCK:   -2.90 KCAL/MOL
REMARK 924 INTRA-LIGAND FREE ENERGY PREDICTED BY IDOCK:   -0.22 KCAL/MOL
REMARK 927      BINDING AFFINITY PREDICTED BY RF-SCORE:    0.00 PKD
ROOT
HETATM    1  O   UNL     1      -9.824  20.311  66.023  1.00  0.00    -0.601 OA 
HETATM    2  C   UNL     1     -10.648  19.497  66.844  1.00  0.00    -0.490 C  
HETATM    3  H   UNL     1      -9.864  21.221  66.295  1.00  0.00     0.000 HD 
ENDROOT
BRANCH   2   4
HETATM    4  C   UNL     1     -10.583  18.035  66.408  1.00  0.00    -0.250 C  
HETATM    5  O   UNL     1     -10.896  17.943  65.015  1.00  0.00    -0.767 OA 
HETATM    6  H   UNL     1     -10.856  17.033  64.744  1.00  0.00     0.000 HD 
BRANCH   4   7
HETATM    7  C   UNL     1      -9.213  17.407  66.696  1.00  0.00    -0.261 C  
HETATM    8  O   UNL     1      -8.236  17.852  65.752  1.00  0.00    -0.530 OA 
HETATM    9  H   UNL     1      -7.387  17.464  65.930  1.00  0.00     0.000 HD 
ENDBRANCH   4   7
ENDBRANCH   2   4
TORSDOF 2
ENDMDL
MODEL       44
REMARK 921   NORMALIZED FREE ENERGY PREDICTED BY IDOCK:   -2.79 KCAL/MOL
REMARK 922        TOTAL FREE ENERGY PREDICTED BY IDOCK:   -3.12 KCAL/MOL
REMARK 923 INTER-LIGAND FREE ENERGY PREDICTED BY IDOCK:   -2.92 KCAL/MOL
REMARK 924 INTRA-LIGAND FREE ENERGY PREDICTED BY IDOCK:   -0.20 KCAL/MOL
REMARK 927      BINDING AFFINITY PREDICTED BY RF-SCORE:    0.00 PKD
ROOT
HETATM    1  O   UNL     1     -10.608  18.368  65.626  1.00  0.00    -0.622 OA 
HETATM    2  C   UNL     1     -10.439  19.679  66.142  1.00  0.00    -0.524 C  
HETATM    3  H   UNL     1     -11.320  18.338  64.996  1.00  0.00     0.000 HD 
ENDROOT
BRANCH   2   4
HETATM    4  C   UNL     1      -9.296  19.727  67.154  1.00  0.00    -0.351 C  
HETATM    5  O   UNL     1      -8.620  20.984  67.044  1.00  0.00    -0.573 OA 
HETATM    6  H   UNL     1      -7.909  21.014  67.673  1.00  0.00     0.000 HD 
BRANCH   4   7
HETATM    7  C   UNL     1      -9.788  19.503  68.590  1.00  0.00    -0.445 C  
HETATM    8  O   UNL     1     -10.437  18.235  68.718  1.00  0.00    -0.403 OA 
HETATM    9  H   UNL     1     -10.742  18.096  69.608  1.00  0.00     0.000 HD 
ENDBRANCH   4   7
ENDBRANCH   2   4
TORSDOF 2
ENDMDL
MODEL       45
REMARK 921   NORMALIZED FREE ENERGY PREDICTED BY IDOCK:   -2.77 KCAL/MOL
REMARK 922        TOTAL FREE ENERGY PREDICTED BY IDOCK:   -3.09 KCAL/MOL
REMARK 923 INTER-LIGAND FREE ENERGY PREDICTED BY IDOCK:   -2.87 KCAL/MOL
REMARK 924 INTRA-LIGAND FREE ENERGY PREDICTED BY IDOCK:   -0.22 KCAL/MOL
REMARK 927      BINDING AFFINITY PREDICTED BY RF-SCORE:    0.00 PKD
ROOT
HETATM    1  O   UNL     1     -13.768   9.653  70.664  1.00  0.00    -0.579 OA 
HETATM    2  C   UNL     1     -12.593   9.944  71.405  1.00  0.00    -0.398 C  
HETATM    3  H   UNL     1     -14.538   9.682  71.219  1.00  0.00     0.000 HD 
ENDROOT
BRANCH   2   4
HETATM    4  C   UNL     1     -11.355   9.897  70.512  1.00  0.00    -0.327 C  
HETATM    5  O   UNL     1     -11.313   8.640  69.829  1.00  0.00    -0.448 OA 
HETATM    6  H   UNL     1     -10.542   8.612  69.273  1.00  0.00     0.000 HD 
BRANCH   4   7
HETATM    7  C   UNL     1     -11.323  11.059  69.510  1.00  0.00    -0.287 C  
HETATM    8  O   UNL     1     -12.177  10.797  68.393  1.00  0.00    -0.832 OA 
HETATM    9  H   UNL     1     -12.157  11.516  67.773  1.00  0.00     0.000 HD 
ENDBRANCH   4   7
ENDBRANCH   2   4
TORSDOF 2
ENDMDL
MODEL       46
REMARK 921   NORMALIZED FREE ENERGY PREDICTED BY IDOCK:   -2.75 KCAL/MOL
REMARK 922        TOTAL FREE ENERGY PREDICTED BY IDOCK:   -3.08 KCAL/MOL
REMARK 923 INTER-LIGAND FREE ENERGY PREDICTED BY IDOCK:   -3.08 KCAL/MOL
REMARK 924 INTRA-LIGAND FREE ENERGY PREDICTED BY IDOCK:   -0.00 KCAL/MOL
REMARK 927      BINDING AFFINITY PREDICTED BY RF-SCORE:    0.00 PKD
ROOT
HETATM    1  O   UNL     1      -8.554  11.093  64.582  1.00  0.00    -0.375 OA 
HETATM    2  C   UNL     1      -9.811  11.117  63.922  1.00  0.00    -0.308 C  
HETATM    3  H   UNL     1      -8.036  10.347  64.302  1.00  0.00     0.000 HD 
ENDROOT
BRANCH   2   4
HETATM    4  C   UNL     1     -10.644  12.316  64.372  1.00  0.00    -0.327 C  
HETATM    5  O   UNL     1      -9.862  13.508  64.245  1.00  0.00    -0.713 OA 
HETATM    6  H   UNL     1     -10.381  14.254  64.525  1.00  0.00     0.000 HD 
BRANCH   4   7
HETATM    7  C   UNL     1     -11.951  12.440  63.579  1.00  0.00    -0.538 C  
HETATM    8  O   UNL     1     -13.074  12.561  64.455  1.00  0.00    -0.816 OA 
HETATM    9  H   UNL     1     -13.884  12.638  63.964  1.00  0.00     0.000 HD 
ENDBRANCH   4   7
ENDBRANCH   2   4
TORSDOF 2
ENDMDL
MODEL       47
REMARK 921   NORMALIZED FREE ENERGY PREDICTED BY IDOCK:   -2.75 KCAL/MOL
REMARK 922        TOTAL FREE ENERGY PREDICTED BY IDOCK:   -3.08 KCAL/MOL
REMARK 923 INTER-LIGAND FREE ENERGY PREDICTED BY IDOCK:   -3.07 KCAL/MOL
REMARK 924 INTRA-LIGAND FREE ENERGY PREDICTED BY IDOCK:   -0.00 KCAL/MOL
REMARK 927      BINDING AFFINITY PREDICTED BY RF-SCORE:    0.00 PKD
ROOT
HETATM    1  O   UNL     1     -11.697  14.731  63.789  1.00  0.00    -0.671 OA 
HETATM    2  C   UNL     1     -10.741  14.735  64.839  1.00  0.00    -0.417 C  
HETATM    3  H   UNL     1     -11.940  13.843  63.553  1.00  0.00     0.000 HD 
ENDROOT
BRANCH   2   4
HETATM    4  C   UNL     1     -10.350  16.161  65.220  1.00  0.00    -0.252 C  
HETATM    5  O   UNL     1     -11.080  17.084  64.405  1.00  0.00    -1.149 OA 
HETATM    6  H   UNL     1     -10.836  17.972  64.641  1.00  0.00     0.000 HD 
BRANCH   4   7
HETATM    7  C   UNL     1     -10.591  16.448  66.708  1.00  0.00    -0.238 C  
HETATM    8  O   UNL     1     -10.421  17.838  66.997  1.00  0.00    -0.347 OA 
HETATM    9  H   UNL     1     -10.570  18.015  67.919  1.00  0.00     0.000 HD 
ENDBRANCH   4   7
ENDBRANCH   2   4
TORSDOF 2
ENDMDL
MODEL       48
REMARK 921   NORMALIZED FREE ENERGY PREDICTED BY IDOCK:   -2.71 KCAL/MOL
REMARK 922        TOTAL FREE ENERGY PREDICTED BY IDOCK:   -3.03 KCAL/MOL
REMARK 923 INTER-LIGAND FREE ENERGY PREDICTED BY IDOCK:   -3.02 KCAL/MOL
REMARK 924 INTRA-LIGAND FREE ENERGY PREDICTED BY IDOCK:   -0.01 KCAL/MOL
REMARK 927      BINDING AFFINITY PREDICTED BY RF-SCORE:    0.00 PKD
ROOT
HETATM    1  O   UNL     1      -9.830  14.900  66.022  1.00  0.00    -0.282 OA 
HETATM    2  C   UNL     1     -10.592  14.639  64.853  1.00  0.00    -0.422 C  
HETATM    3  H   UNL     1      -9.801  15.831  66.210  1.00  0.00     0.000 HD 
ENDROOT
BRANCH   2   4
HETATM    4  C   UNL     1     -10.638  13.143  64.550  1.00  0.00    -0.406 C  
HETATM    5  O   UNL     1     -10.868  12.422  65.765  1.00  0.00    -0.263 OA 
HETATM    6  H   UNL     1     -10.897  11.491  65.577  1.00  0.00     0.000 HD 
BRANCH   4   7
HETATM    7  C   UNL     1     -11.709  12.798  63.507  1.00  0.00    -0.530 C  
HETATM    8  O   UNL     1     -12.513  13.940  63.200  1.00  0.00    -1.121 OA 
HETATM    9  H   UNL     1     -13.177  13.727  62.554  1.00  0.00     0.000 HD 
ENDBRANCH   4   7
ENDBRANCH   2   4
TORSDOF 2
ENDMDL
MODEL       49
REMARK 921   NORMALIZED FREE ENERGY PREDICTED BY IDOCK:   -2.70 KCAL/MOL
REMARK 922        TOTAL FREE ENERGY PREDICTED BY IDOCK:   -3.02 KCAL/MOL
REMARK 923 INTER-LIGAND FREE ENERGY PREDICTED BY IDOCK:   -2.80 KCAL/MOL
REMARK 924 INTRA-LIGAND FREE ENERGY PREDICTED BY IDOCK:   -0.22 KCAL/MOL
REMARK 927      BINDING AFFINITY PREDICTED BY RF-SCORE:    0.00 PKD
ROOT
HETATM    1  O   UNL     1     -11.093  15.280  66.837  1.00  0.00    -0.321 OA 
HETATM    2  C   UNL     1     -11.875  14.267  67.452  1.00  0.00    -0.409 C  
HETATM    3  H   UNL     1     -11.315  16.138  67.181  1.00  0.00     0.000 HD 
ENDROOT
BRANCH   2   4
HETATM    4  C   UNL     1     -11.519  12.888  66.899  1.00  0.00    -0.341 C  
HETATM    5  O   UNL     1     -12.124  11.881  67.717  1.00  0.00    -0.564 OA 
HETATM    6  H   UNL     1     -11.902  11.023  67.373  1.00  0.00     0.000 HD 
BRANCH   4   7
HETATM    7  C   UNL     1     -11.948  12.725  65.435  1.00  0.00    -0.436 C  
HETATM    8  O   UNL     1     -12.953  13.681  65.086  1.00  0.00    -0.734 OA 
HETATM    9  H   UNL     1     -13.219  13.581  64.179  1.00  0.00     0.000 HD 
ENDBRANCH   4   7
ENDBRANCH   2   4
TORSDOF 2
ENDMDL
MODEL       50
REMARK 921   NORMALIZED FREE ENERGY PREDICTED BY IDOCK:   -2.70 KCAL/MOL
REMARK 922        TOTAL FREE ENERGY PREDICTED BY IDOCK:   -3.02 KCAL/MOL
REMARK 923 INTER-LIGAND FREE ENERGY PREDICTED BY IDOCK:   -2.80 KCAL/MOL
REMARK 924 INTRA-LIGAND FREE ENERGY PREDICTED BY IDOCK:   -0.22 KCAL/MOL
REMARK 927      BINDING AFFINITY PREDICTED BY RF-SCORE:    0.00 PKD
ROOT
HETATM    1  O   UNL     1      -9.246  13.736  66.145  1.00  0.00    -0.478 OA 
HETATM    2  C   UNL     1     -10.240  14.656  66.570  1.00  0.00    -0.278 C  
HETATM    3  H   UNL     1      -8.384  14.138  66.151  1.00  0.00     0.000 HD 
ENDROOT
BRANCH   2   4
HETATM    4  C   UNL     1     -11.624  14.011  66.561  1.00  0.00    -0.374 C  
HETATM    5  O   UNL     1     -12.406  14.556  67.629  1.00  0.00    -0.617 OA 
HETATM    6  H   UNL     1     -13.268  14.154  67.623  1.00  0.00     0.000 HD 
BRANCH   4   7
HETATM    7  C   UNL     1     -12.339  14.199  65.217  1.00  0.00    -0.460 C  
HETATM    8  O   UNL     1     -11.418  14.103  64.127  1.00  0.00    -0.593 OA 
HETATM    9  H   UNL     1     -11.861  14.220  63.295  1.00  0.00     0.000 HD 
ENDBRANCH   4   7
ENDBRANCH   2   4
TORSDOF 2
ENDMDL
MODEL       51
REMARK 921   NORMALIZED FREE ENERGY PREDICTED BY IDOCK:   -2.70 KCAL/MOL
REMARK 922        TOTAL FREE ENERGY PREDICTED BY IDOCK:   -3.01 KCAL/MOL
REMARK 923 INTER-LIGAND FREE ENERGY PREDICTED BY IDOCK:   -2.79 KCAL/MOL
REMARK 924 INTRA-LIGAND FREE ENERGY PREDICTED BY IDOCK:   -0.22 KCAL/MOL
REMARK 927      BINDING AFFINITY PREDICTED BY RF-SCORE:    0.00 PKD
ROOT
HETATM    1  O   UNL     1     -10.345  19.697  68.584  1.00  0.00    -0.499 OA 
HETATM    2  C   UNL     1     -10.340  18.376  68.064  1.00  0.00    -0.384 C  
HETATM    3  H   UNL     1     -10.896  19.758  69.357  1.00  0.00     0.000 HD 
ENDROOT
BRANCH   2   4
HETATM    4  C   UNL     1      -9.455  18.279  66.823  1.00  0.00    -0.300 C  
HETATM    5  O   UNL     1     -10.257  17.896  65.701  1.00  0.00    -0.589 OA 
HETATM    6  H   UNL     1      -9.706  17.835  64.928  1.00  0.00     0.000 HD 
BRANCH   4   7
HETATM    7  C   UNL     1      -8.717  19.593  66.536  1.00  0.00    -0.362 C  
HETATM    8  O   UNL     1      -9.571  20.527  65.870  1.00  0.00    -0.656 OA 
HETATM    9  H   UNL     1      -9.114  21.341  65.693  1.00  0.00     0.000 HD 
ENDBRANCH   4   7
ENDBRANCH   2   4
TORSDOF 2
ENDMDL
MODEL       52
REMARK 921   NORMALIZED FREE ENERGY PREDICTED BY IDOCK:   -2.69 KCAL/MOL
REMARK 922        TOTAL FREE ENERGY PREDICTED BY IDOCK:   -3.00 KCAL/MOL
REMARK 923 INTER-LIGAND FREE ENERGY PREDICTED BY IDOCK:   -2.98 KCAL/MOL
REMARK 924 INTRA-LIGAND FREE ENERGY PREDICTED BY IDOCK:   -0.02 KCAL/MOL
REMARK 927      BINDING AFFINITY PREDICTED BY RF-SCORE:    0.00 PKD
ROOT
HETATM    1  O   UNL     1     -14.376   7.569  71.046  1.00  0.00    -0.655 OA 
HETATM    2  C   UNL     1     -13.773   8.847  70.921  1.00  0.00     0.212 C  
HETATM    3  H   UNL     1     -14.874   7.348  70.267  1.00  0.00     0.000 HD 
ENDROOT
BRANCH   2   4
HETATM    4  C   UNL     1     -12.973   9.202  72.173  1.00  0.00    -0.425 C  
HETATM    5  O   UNL     1     -13.736   8.859  73.334  1.00  0.00    -1.094 OA 
HETATM    6  H   UNL     1     -13.238   9.079  74.113  1.00  0.00     0.000 HD 
BRANCH   4   7
HETATM    7  C   UNL     1     -11.606   8.505  72.200  1.00  0.00    -0.377 C  
HETATM    8  O   UNL     1     -11.458   7.710  73.380  1.00  0.00    -0.643 OA 
HETATM    9  H   UNL     1     -10.611   7.278  73.396  1.00  0.00     0.000 HD 
ENDBRANCH   4   7
ENDBRANCH   2   4
TORSDOF 2
ENDMDL
MODEL       53
REMARK 921   NORMALIZED FREE ENERGY PREDICTED BY IDOCK:   -2.63 KCAL/MOL
REMARK 922        TOTAL FREE ENERGY PREDICTED BY IDOCK:   -2.94 KCAL/MOL
REMARK 923 INTER-LIGAND FREE ENERGY PREDICTED BY IDOCK:   -2.72 KCAL/MOL
REMARK 924 INTRA-LIGAND FREE ENERGY PREDICTED BY IDOCK:   -0.22 KCAL/MOL
REMARK 927      BINDING AFFINITY PREDICTED BY RF-SCORE:    0.00 PKD
ROOT
HETATM    1  O   UNL     1      -9.569  18.419  68.673  1.00  0.00    -0.323 OA 
HETATM    2  C   UNL     1     -10.238  19.637  68.387  1.00  0.00    -0.441 C  
HETATM    3  H   UNL     1      -9.598  18.223  69.603  1.00  0.00     0.000 HD 
ENDROOT
BRANCH   2   4
HETATM    4  C   UNL     1     -10.191  19.951  66.893  1.00  0.00    -0.470 C  
HETATM    5  O   UNL     1      -8.919  20.521  66.570  1.00  0.00    -0.556 OA 
HETATM    6  H   UNL     1      -8.890  20.716  65.640  1.00  0.00     0.000 HD 
BRANCH   4   7
HETATM    7  C   UNL     1     -10.460  18.709  66.034  1.00  0.00    -0.414 C  
HETATM    8  O   UNL     1      -9.269  17.937  65.860  1.00  0.00    -0.519 OA 
HETATM    9  H   UNL     1      -9.436  17.167  65.328  1.00  0.00     0.000 HD 
ENDBRANCH   4   7
ENDBRANCH   2   4
TORSDOF 2
ENDMDL
MODEL       54
REMARK 921   NORMALIZED FREE ENERGY PREDICTED BY IDOCK:   -2.63 KCAL/MOL
REMARK 922        TOTAL FREE ENERGY PREDICTED BY IDOCK:   -2.94 KCAL/MOL
REMARK 923 INTER-LIGAND FREE ENERGY PREDICTED BY IDOCK:   -2.94 KCAL/MOL
REMARK 924 INTRA-LIGAND FREE ENERGY PREDICTED BY IDOCK:   -0.00 KCAL/MOL
REMARK 927      BINDING AFFINITY PREDICTED BY RF-SCORE:    0.00 PKD
ROOT
HETATM    1  O   UNL     1     -12.229  10.794  68.269  1.00  0.00    -0.815 OA 
HETATM    2  C   UNL     1     -11.266  11.351  67.388  1.00  0.00    -0.305 C  
HETATM    3  H   UNL     1     -11.977   9.919  68.541  1.00  0.00     0.000 HD 
ENDROOT
BRANCH   2   4
HETATM    4  C   UNL     1     -11.671  12.758  66.951  1.00  0.00    -0.380 C  
HETATM    5  O   UNL     1     -10.643  13.682  67.321  1.00  0.00    -0.264 OA 
HETATM    6  H   UNL     1     -10.895  14.557  67.049  1.00  0.00     0.000 HD 
BRANCH   4   7
HETATM    7  C   UNL     1     -11.950  12.835  65.444  1.00  0.00    -0.436 C  
HETATM    8  O   UNL     1     -13.148  13.569  65.180  1.00  0.00    -0.737 OA 
HETATM    9  H   UNL     1     -13.321  13.617  64.247  1.00  0.00     0.000 HD 
ENDBRANCH   4   7
ENDBRANCH   2   4
TORSDOF 2
ENDMDL
MODEL       55
REMARK 921   NORMALIZED FREE ENERGY PREDICTED BY IDOCK:   -2.56 KCAL/MOL
REMARK 922        TOTAL FREE ENERGY PREDICTED BY IDOCK:   -2.86 KCAL/MOL
REMARK 923 INTER-LIGAND FREE ENERGY PREDICTED BY IDOCK:   -2.64 KCAL/MOL
REMARK 924 INTRA-LIGAND FREE ENERGY PREDICTED BY IDOCK:   -0.22 KCAL/MOL
REMARK 927      BINDING AFFINITY PREDICTED BY RF-SCORE:    0.00 PKD
ROOT
HETATM    1  O   UNL     1     -12.545  12.411  65.286  1.00  0.00    -0.636 OA 
HETATM    2  C   UNL     1     -12.410  13.732  65.789  1.00  0.00    -0.486 C  
HETATM    3  H   UNL     1     -12.947  12.414  64.425  1.00  0.00     0.000 HD 
ENDROOT
BRANCH   2   4
HETATM    4  C   UNL     1     -11.763  13.728  67.173  1.00  0.00    -0.385 C  
HETATM    5  O   UNL     1     -12.443  14.666  68.014  1.00  0.00    -0.595 OA 
HETATM    6  H   UNL     1     -12.041  14.664  68.875  1.00  0.00     0.000 HD 
BRANCH   4   7
HETATM    7  C   UNL     1     -11.768  12.331  67.808  1.00  0.00    -0.337 C  
HETATM    8  O   UNL     1     -10.647  11.562  67.364  1.00  0.00    -0.198 OA 
HETATM    9  H   UNL     1     -10.650  10.697  67.757  1.00  0.00     0.000 HD 
ENDBRANCH   4   7
ENDBRANCH   2   4
TORSDOF 2
ENDMDL
MODEL       56
REMARK 921   NORMALIZED FREE ENERGY PREDICTED BY IDOCK:   -2.54 KCAL/MOL
REMARK 922        TOTAL FREE ENERGY PREDICTED BY IDOCK:   -2.84 KCAL/MOL
REMARK 923 INTER-LIGAND FREE ENERGY PREDICTED BY IDOCK:   -2.83 KCAL/MOL
REMARK 924 INTRA-LIGAND FREE ENERGY PREDICTED BY IDOCK:   -0.00 KCAL/MOL
REMARK 927      BINDING AFFINITY PREDICTED BY RF-SCORE:    0.00 PKD
ROOT
HETATM    1  O   UNL     1     -13.931  15.469  70.613  1.00  0.00    -0.868 OA 
HETATM    2  C   UNL     1     -12.678  14.803  70.670  1.00  0.00    -0.358 C  
HETATM    3  H   UNL     1     -14.638  14.887  70.866  1.00  0.00     0.000 HD 
ENDROOT
BRANCH   2   4
HETATM    4  C   UNL     1     -11.541  15.739  70.263  1.00  0.00    -0.365 C  
HETATM    5  O   UNL     1     -10.294  15.179  70.688  1.00  0.00    -0.505 OA 
HETATM    6  H   UNL     1      -9.587  15.761  70.435  1.00  0.00     0.000 HD 
BRANCH   4   7
HETATM    7  C   UNL     1     -11.527  16.005  68.752  1.00  0.00    -0.375 C  
HETATM    8  O   UNL     1     -10.771  17.180  68.445  1.00  0.00    -0.361 OA 
HETATM    9  H   UNL     1     -10.762  17.345  67.509  1.00  0.00     0.000 HD 
ENDBRANCH   4   7
ENDBRANCH   2   4
TORSDOF 2
ENDMDL
MODEL       57
REMARK 921   NORMALIZED FREE ENERGY PREDICTED BY IDOCK:   -2.50 KCAL/MOL
REMARK 922        TOTAL FREE ENERGY PREDICTED BY IDOCK:   -2.80 KCAL/MOL
REMARK 923 INTER-LIGAND FREE ENERGY PREDICTED BY IDOCK:   -2.57 KCAL/MOL
REMARK 924 INTRA-LIGAND FREE ENERGY PREDICTED BY IDOCK:   -0.22 KCAL/MOL
REMARK 927      BINDING AFFINITY PREDICTED BY RF-SCORE:    0.00 PKD
ROOT
HETATM    1  O   UNL     1     -11.257  12.801  69.920  1.00  0.00    -0.490 OA 
HETATM    2  C   UNL     1     -12.015  13.017  68.739  1.00  0.00    -0.266 C  
HETATM    3  H   UNL     1     -11.439  11.945  70.290  1.00  0.00     0.000 HD 
ENDROOT
BRANCH   2   4
HETATM    4  C   UNL     1     -11.723  14.394  68.144  1.00  0.00    -0.342 C  
HETATM    5  O   UNL     1     -12.518  14.578  66.969  1.00  0.00    -0.547 OA 
HETATM    6  H   UNL     1     -12.336  15.435  66.599  1.00  0.00     0.000 HD 
BRANCH   4   7
HETATM    7  C   UNL     1     -11.978  15.523  69.152  1.00  0.00    -0.309 C  
HETATM    8  O   UNL     1     -13.024  15.173  70.061  1.00  0.00    -0.618 OA 
HETATM    9  H   UNL     1     -13.182  15.872  70.685  1.00  0.00     0.000 HD 
ENDBRANCH   4   7
ENDBRANCH   2   4
TORSDOF 2
ENDMDL
MODEL       58
REMARK 921   NORMALIZED FREE ENERGY PREDICTED BY IDOCK:   -2.47 KCAL/MOL
REMARK 922        TOTAL FREE ENERGY PREDICTED BY IDOCK:   -2.76 KCAL/MOL
REMARK 923 INTER-LIGAND FREE ENERGY PREDICTED BY IDOCK:   -2.56 KCAL/MOL
REMARK 924 INTRA-LIGAND FREE ENERGY PREDICTED BY IDOCK:   -0.21 KCAL/MOL
REMARK 927      BINDING AFFINITY PREDICTED BY RF-SCORE:    0.00 PKD
ROOT
HETATM    1  O   UNL     1      -9.778  15.157  69.984  1.00  0.00    -0.474 OA 
HETATM    2  C   UNL     1     -10.914  15.954  70.282  1.00  0.00    -0.362 C  
HETATM    3  H   UNL     1      -8.976  15.592  70.252  1.00  0.00     0.000 HD 
ENDROOT
BRANCH   2   4
HETATM    4  C   UNL     1     -12.202  15.255  69.853  1.00  0.00    -0.323 C  
HETATM    5  O   UNL     1     -12.097  14.875  68.477  1.00  0.00    -0.542 OA 
HETATM    6  H   UNL     1     -12.898  14.440  68.209  1.00  0.00     0.000 HD 
BRANCH   4   7
HETATM    7  C   UNL     1     -12.515  14.034  70.728  1.00  0.00    -0.372 C  
HETATM    8  O   UNL     1     -11.832  12.872  70.251  1.00  0.00    -0.486 OA 
HETATM    9  H   UNL     1     -12.026  12.116  70.793  1.00  0.00     0.000 HD 
ENDBRANCH   4   7
ENDBRANCH   2   4
TORSDOF 2
ENDMDL
MODEL       59
REMARK 921   NORMALIZED FREE ENERGY PREDICTED BY IDOCK:   -2.47 KCAL/MOL
REMARK 922        TOTAL FREE ENERGY PREDICTED BY IDOCK:   -2.76 KCAL/MOL
REMARK 923 INTER-LIGAND FREE ENERGY PREDICTED BY IDOCK:   -2.54 KCAL/MOL
REMARK 924 INTRA-LIGAND FREE ENERGY PREDICTED BY IDOCK:   -0.22 KCAL/MOL
REMARK 927      BINDING AFFINITY PREDICTED BY RF-SCORE:    0.00 PKD
ROOT
HETATM    1  O   UNL     1     -10.391  18.638  65.799  1.00  0.00    -0.573 OA 
HETATM    2  C   UNL     1     -10.713  18.690  67.180  1.00  0.00    -0.377 C  
HETATM    3  H   UNL     1     -10.888  17.959  65.357  1.00  0.00     0.000 HD 
ENDROOT
BRANCH   2   4
HETATM    4  C   UNL     1      -9.914  19.781  67.890  1.00  0.00    -0.416 C  
HETATM    5  O   UNL     1     -10.494  20.032  69.174  1.00  0.00    -0.609 OA 
HETATM    6  H   UNL     1      -9.996  20.711  69.615  1.00  0.00     0.000 HD 
BRANCH   4   7
HETATM    7  C   UNL     1      -8.431  19.411  68.030  1.00  0.00    -0.320 C  
HETATM    8  O   UNL     1      -7.770  19.449  66.762  1.00  0.00    -0.240 OA 
HETATM    9  H   UNL     1      -6.852  19.219  66.849  1.00  0.00     0.000 HD 
ENDBRANCH   4   7
ENDBRANCH   2   4
TORSDOF 2
ENDMDL
MODEL       60
REMARK 921   NORMALIZED FREE ENERGY PREDICTED BY IDOCK:   -2.46 KCAL/MOL
REMARK 922        TOTAL FREE ENERGY PREDICTED BY IDOCK:   -2.75 KCAL/MOL
REMARK 923 INTER-LIGAND FREE ENERGY PREDICTED BY IDOCK:   -2.53 KCAL/MOL
REMARK 924 INTRA-LIGAND FREE ENERGY PREDICTED BY IDOCK:   -0.21 KCAL/MOL
REMARK 927      BINDING AFFINITY PREDICTED BY RF-SCORE:    0.00 PKD
ROOT
HETATM    1  O   UNL     1     -11.917   7.287  70.166  1.00  0.00    -0.534 OA 
HETATM    2  C   UNL     1     -12.633   7.461  71.379  1.00  0.00    -0.370 C  
HETATM    3  H   UNL     1     -12.440   6.820  69.525  1.00  0.00     0.000 HD 
ENDROOT
BRANCH   2   4
HETATM    4  C   UNL     1     -11.792   8.212  72.410  1.00  0.00    -0.388 C  
HETATM    5  O   UNL     1     -11.528   7.350  73.522  1.00  0.00    -0.582 OA 
HETATM    6  H   UNL     1     -11.005   7.817  74.163  1.00  0.00     0.000 HD 
BRANCH   4   7
HETATM    7  C   UNL     1     -10.480   8.737  71.811  1.00  0.00    -0.346 C  
HETATM    8  O   UNL     1     -10.731   9.760  70.844  1.00  0.00    -0.312 OA 
HETATM    9  H   UNL     1      -9.918  10.086  70.473  1.00  0.00     0.000 HD 
ENDBRANCH   4   7
ENDBRANCH   2   4
TORSDOF 2
ENDMDL
MODEL       61
REMARK 921   NORMALIZED FREE ENERGY PREDICTED BY IDOCK:   -2.45 KCAL/MOL
REMARK 922        TOTAL FREE ENERGY PREDICTED BY IDOCK:   -2.73 KCAL/MOL
REMARK 923 INTER-LIGAND FREE ENERGY PREDICTED BY IDOCK:   -2.53 KCAL/MOL
REMARK 924 INTRA-LIGAND FREE ENERGY PREDICTED BY IDOCK:   -0.20 KCAL/MOL
REMARK 927      BINDING AFFINITY PREDICTED BY RF-SCORE:    0.00 PKD
ROOT
HETATM    1  O   UNL     1     -11.486   2.204  63.626  1.00  0.00    -0.610 OA 
HETATM    2  C   UNL     1     -10.317   2.966  63.363  1.00  0.00    -0.190 C  
HETATM    3  H   UNL     1     -11.620   1.543  62.956  1.00  0.00     0.000 HD 
ENDROOT
BRANCH   2   4
HETATM    4  C   UNL     1     -10.101   4.028  64.440  1.00  0.00    -0.190 C  
HETATM    5  O   UNL     1     -11.371   4.443  64.956  1.00  0.00    -1.040 OA 
HETATM    6  H   UNL     1     -11.236   5.103  65.626  1.00  0.00     0.000 HD 
BRANCH   4   7
HETATM    7  C   UNL     1      -9.197   3.524  65.573  1.00  0.00    -0.156 C  
HETATM    8  O   UNL     1      -9.752   2.361  66.194  1.00  0.00    -0.349 OA 
HETATM    9  H   UNL     1      -9.192   2.049  66.896  1.00  0.00     0.000 HD 
ENDBRANCH   4   7
ENDBRANCH   2   4
TORSDOF 2
ENDMDL
MODEL       62
REMARK 921   NORMALIZED FREE ENERGY PREDICTED BY IDOCK:   -2.44 KCAL/MOL
REMARK 922        TOTAL FREE ENERGY PREDICTED BY IDOCK:   -2.73 KCAL/MOL
REMARK 923 INTER-LIGAND FREE ENERGY PREDICTED BY IDOCK:   -2.54 KCAL/MOL
REMARK 924 INTRA-LIGAND FREE ENERGY PREDICTED BY IDOCK:   -0.19 KCAL/MOL
REMARK 927      BINDING AFFINITY PREDICTED BY RF-SCORE:    0.00 PKD
ROOT
HETATM    1  O   UNL     1     -10.364  18.454  65.331  1.00  0.00    -0.493 OA 
HETATM    2  C   UNL     1     -10.436  17.697  66.530  1.00  0.00    -0.283 C  
HETATM    3  H   UNL     1     -10.820  19.283  65.423  1.00  0.00     0.000 HD 
ENDROOT
BRANCH   2   4
HETATM    4  C   UNL     1      -9.702  16.365  66.382  1.00  0.00    -0.287 C  
HETATM    5  O   UNL     1      -9.423  15.833  67.681  1.00  0.00    -0.216 OA 
HETATM    6  H   UNL     1      -8.966  15.005  67.589  1.00  0.00     0.000 HD 
BRANCH   4   7
HETATM    7  C   UNL     1     -10.502  15.357  65.546  1.00  0.00    -0.380 C  
HETATM    8  O   UNL     1     -11.099  15.989  64.411  1.00  0.00    -0.877 OA 
HETATM    9  H   UNL     1     -11.594  15.365  63.894  1.00  0.00     0.000 HD 
ENDBRANCH   4   7
ENDBRANCH   2   4
TORSDOF 2
ENDMDL
MODEL       63
REMARK 921   NORMALIZED FREE ENERGY PREDICTED BY IDOCK:   -2.44 KCAL/MOL
REMARK 922        TOTAL FREE ENERGY PREDICTED BY IDOCK:   -2.72 KCAL/MOL
REMARK 923 INTER-LIGAND FREE ENERGY PREDICTED BY IDOCK:   -2.51 KCAL/MOL
REMARK 924 INTRA-LIGAND FREE ENERGY PREDICTED BY IDOCK:   -0.21 KCAL/MOL
REMARK 927      BINDING AFFINITY PREDICTED BY RF-SCORE:    0.00 PKD
ROOT
HETATM    1  O   UNL     1     -11.559  12.285  70.299  1.00  0.00    -0.525 OA 
HETATM    2  C   UNL     1     -11.554  12.995  69.069  1.00  0.00    -0.318 C  
HETATM    3  H   UNL     1     -12.224  12.625  70.886  1.00  0.00     0.000 HD 
ENDROOT
BRANCH   2   4
HETATM    4  C   UNL     1     -10.484  12.448  68.125  1.00  0.00    -0.219 C  
HETATM    5  O   UNL     1      -9.239  12.359  68.824  1.00  0.00    -0.393 OA 
HETATM    6  H   UNL     1      -8.573  12.019  68.237  1.00  0.00     0.000 HD 
BRANCH   4   7
HETATM    7  C   UNL     1     -10.875  11.085  67.540  1.00  0.00    -0.263 C  
HETATM    8  O   UNL     1     -12.080  10.596  68.135  1.00  0.00    -0.797 OA 
HETATM    9  H   UNL     1     -12.321   9.752  67.773  1.00  0.00     0.000 HD 
ENDBRANCH   4   7
ENDBRANCH   2   4
TORSDOF 2
ENDMDL
MODEL       64
REMARK 921   NORMALIZED FREE ENERGY PREDICTED BY IDOCK:   -2.43 KCAL/MOL
REMARK 922        TOTAL FREE ENERGY PREDICTED BY IDOCK:   -2.72 KCAL/MOL
REMARK 923 INTER-LIGAND FREE ENERGY PREDICTED BY IDOCK:   -2.50 KCAL/MOL
REMARK 924 INTRA-LIGAND FREE ENERGY PREDICTED BY IDOCK:   -0.22 KCAL/MOL
REMARK 927      BINDING AFFINITY PREDICTED BY RF-SCORE:    0.00 PKD
ROOT
HETATM    1  O   UNL     1      -9.557  11.335  65.622  1.00  0.00    -0.214 OA 
HETATM    2  C   UNL     1     -10.838  11.799  66.021  1.00  0.00    -0.296 C  
HETATM    3  H   UNL     1      -9.294  10.579  66.134  1.00  0.00     0.000 HD 
ENDROOT
BRANCH   2   4
HETATM    4  C   UNL     1     -11.262  13.014  65.198  1.00  0.00    -0.293 C  
HETATM    5  O   UNL     1     -10.116  13.830  64.937  1.00  0.00    -0.551 OA 
HETATM    6  H   UNL     1     -10.379  14.587  64.425  1.00  0.00     0.000 HD 
BRANCH   4   7
HETATM    7  C   UNL     1     -11.948  12.611  63.886  1.00  0.00    -0.479 C  
HETATM    8  O   UNL     1     -11.060  11.866  63.050  1.00  0.00    -0.669 OA 
HETATM    9  H   UNL     1     -11.485  11.616  62.237  1.00  0.00     0.000 HD 
ENDBRANCH   4   7
ENDBRANCH   2   4
TORSDOF 2
ENDMDL
MODEL       65
REMARK 921   NORMALIZED FREE ENERGY PREDICTED BY IDOCK:   -2.42 KCAL/MOL
REMARK 922        TOTAL FREE ENERGY PREDICTED BY IDOCK:   -2.71 KCAL/MOL
REMARK 923 INTER-LIGAND FREE ENERGY PREDICTED BY IDOCK:   -2.49 KCAL/MOL
REMARK 924 INTRA-LIGAND FREE ENERGY PREDICTED BY IDOCK:   -0.22 KCAL/MOL
REMARK 927      BINDING AFFINITY PREDICTED BY RF-SCORE:    0.00 PKD
ROOT
HETATM    1  O   UNL     1     -11.720   4.600  65.027  1.00  0.00    -1.047 OA 
HETATM    2  C   UNL     1     -10.385   4.388  65.461  1.00  0.00    -0.224 C  
HETATM    3  H   UNL     1     -12.138   5.287  65.534  1.00  0.00     0.000 HD 
ENDROOT
BRANCH   2   4
HETATM    4  C   UNL     1      -9.712   3.285  64.646  1.00  0.00    -0.149 C  
HETATM    5  O   UNL     1      -9.764   2.058  65.380  1.00  0.00    -0.341 OA 
HETATM    6  H   UNL     1      -9.345   1.371  64.873  1.00  0.00     0.000 HD 
BRANCH   4   7
HETATM    7  C   UNL     1     -10.356   3.115  63.263  1.00  0.00    -0.194 C  
HETATM    8  O   UNL     1     -11.525   2.296  63.339  1.00  0.00    -0.536 OA 
HETATM    9  H   UNL     1     -11.924   2.191  62.483  1.00  0.00     0.000 HD 
ENDBRANCH   4   7
ENDBRANCH   2   4
TORSDOF 2
ENDMDL
MODEL       66
REMARK 921   NORMALIZED FREE ENERGY PREDICTED BY IDOCK:   -2.42 KCAL/MOL
REMARK 922        TOTAL FREE ENERGY PREDICTED BY IDOCK:   -2.71 KCAL/MOL
REMARK 923 INTER-LIGAND FREE ENERGY PREDICTED BY IDOCK:   -2.49 KCAL/MOL
REMARK 924 INTRA-LIGAND FREE ENERGY PREDICTED BY IDOCK:   -0.22 KCAL/MOL
REMARK 927      BINDING AFFINITY PREDICTED BY RF-SCORE:    0.00 PKD
ROOT
HETATM    1  O   UNL     1     -14.048   7.458  71.003  1.00  0.00    -0.640 OA 
HETATM    2  C   UNL     1     -13.127   8.179  71.808  1.00  0.00    -0.345 C  
HETATM    3  H   UNL     1     -14.900   7.409  71.421  1.00  0.00     0.000 HD 
ENDROOT
BRANCH   2   4
HETATM    4  C   UNL     1     -11.757   8.257  71.137  1.00  0.00    -0.280 C  
HETATM    5  O   UNL     1     -10.860   8.988  71.980  1.00  0.00    -0.352 OA 
HETATM    6  H   UNL     1     -10.007   9.037  71.563  1.00  0.00     0.000 HD 
BRANCH   4   7
HETATM    7  C   UNL     1     -11.189   6.867  70.821  1.00  0.00    -0.294 C  
HETATM    8  O   UNL     1     -11.633   6.411  69.540  1.00  0.00    -0.581 OA 
HETATM    9  H   UNL     1     -11.281   5.550  69.344  1.00  0.00     0.000 HD 
ENDBRANCH   4   7
ENDBRANCH   2   4
TORSDOF 2
ENDMDL
MODEL       67
REMARK 921   NORMALIZED FREE ENERGY PREDICTED BY IDOCK:   -2.40 KCAL/MOL
REMARK 922        TOTAL FREE ENERGY PREDICTED BY IDOCK:   -2.68 KCAL/MOL
REMARK 923 INTER-LIGAND FREE ENERGY PREDICTED BY IDOCK:   -2.46 KCAL/MOL
REMARK 924 INTRA-LIGAND FREE ENERGY PREDICTED BY IDOCK:   -0.22 KCAL/MOL
REMARK 927      BINDING AFFINITY PREDICTED BY RF-SCORE:    0.00 PKD
ROOT
HETATM    1  O   UNL     1      -8.286  17.612  68.259  1.00  0.00    -0.257 OA 
HETATM    2  C   UNL     1      -8.172  18.448  67.118  1.00  0.00    -0.245 C  
HETATM    3  H   UNL     1      -7.756  16.828  68.162  1.00  0.00     0.000 HD 
ENDROOT
BRANCH   2   4
HETATM    4  C   UNL     1      -9.022  19.707  67.273  1.00  0.00    -0.318 C  
HETATM    5  O   UNL     1      -9.211  20.310  65.989  1.00  0.00    -0.602 OA 
HETATM    6  H   UNL     1      -9.741  21.094  66.086  1.00  0.00     0.000 HD 
BRANCH   4   7
HETATM    7  C   UNL     1     -10.374  19.411  67.936  1.00  0.00    -0.430 C  
HETATM    8  O   UNL     1     -10.284  19.519  69.359  1.00  0.00    -0.610 OA 
HETATM    9  H   UNL     1     -11.121  19.336  69.769  1.00  0.00     0.000 HD 
ENDBRANCH   4   7
ENDBRANCH   2   4
TORSDOF 2
ENDMDL
MODEL       68
REMARK 921   NORMALIZED FREE ENERGY PREDICTED BY IDOCK:   -2.39 KCAL/MOL
REMARK 922        TOTAL FREE ENERGY PREDICTED BY IDOCK:   -2.68 KCAL/MOL
REMARK 923 INTER-LIGAND FREE ENERGY PREDICTED BY IDOCK:   -2.46 KCAL/MOL
REMARK 924 INTRA-LIGAND FREE ENERGY PREDICTED BY IDOCK:   -0.22 KCAL/MOL
REMARK 927      BINDING AFFINITY PREDICTED BY RF-SCORE:    0.00 PKD
ROOT
HETATM    1  O   UNL     1      -7.880  18.396  65.714  1.00  0.00    -0.510 OA 
HETATM    2  C   UNL     1      -8.550  17.794  66.811  1.00  0.00    -0.252 C  
HETATM    3  H   UNL     1      -7.444  17.742  65.180  1.00  0.00     0.000 HD 
ENDROOT
BRANCH   2   4
HETATM    4  C   UNL     1      -9.251  18.844  67.670  1.00  0.00    -0.286 C  
HETATM    5  O   UNL     1      -8.288  19.798  68.129  1.00  0.00    -0.313 OA 
HETATM    6  H   UNL     1      -8.724  20.452  68.663  1.00  0.00     0.000 HD 
BRANCH   4   7
HETATM    7  C   UNL     1     -10.386  19.545  66.911  1.00  0.00    -0.454 C  
HETATM    8  O   UNL     1      -9.867  20.436  65.920  1.00  0.00    -0.642 OA 
HETATM    9  H   UNL     1     -10.570  20.870  65.450  1.00  0.00     0.000 HD 
ENDBRANCH   4   7
ENDBRANCH   2   4
TORSDOF 2
ENDMDL
MODEL       69
REMARK 921   NORMALIZED FREE ENERGY PREDICTED BY IDOCK:   -2.36 KCAL/MOL
REMARK 922        TOTAL FREE ENERGY PREDICTED BY IDOCK:   -2.64 KCAL/MOL
REMARK 923 INTER-LIGAND FREE ENERGY PREDICTED BY IDOCK:   -2.62 KCAL/MOL
REMARK 924 INTRA-LIGAND FREE ENERGY PREDICTED BY IDOCK:   -0.02 KCAL/MOL
REMARK 927      BINDING AFFINITY PREDICTED BY RF-SCORE:    0.00 PKD
ROOT
HETATM    1  O   UNL     1     -10.177  11.753  65.452  1.00  0.00    -0.242 OA 
HETATM    2  C   UNL     1     -11.115  12.645  66.033  1.00  0.00    -0.287 C  
HETATM    3  H   UNL     1     -10.246  10.887  65.837  1.00  0.00     0.000 HD 
ENDROOT
BRANCH   2   4
HETATM    4  C   UNL     1     -11.003  14.038  65.415  1.00  0.00    -0.321 C  
HETATM    5  O   UNL     1      -9.949  14.042  64.447  1.00  0.00    -0.702 OA 
HETATM    6  H   UNL     1      -9.880  14.908  64.062  1.00  0.00     0.000 HD 
BRANCH   4   7
HETATM    7  C   UNL     1     -12.323  14.493  64.779  1.00  0.00    -0.391 C  
HETATM    8  O   UNL     1     -13.389  13.600  65.111  1.00  0.00    -0.677 OA 
HETATM    9  H   UNL     1     -14.206  13.881  64.717  1.00  0.00     0.000 HD 
ENDBRANCH   4   7
ENDBRANCH   2   4
TORSDOF 2
ENDMDL
MODEL       70
REMARK 921   NORMALIZED FREE ENERGY PREDICTED BY IDOCK:   -2.36 KCAL/MOL
REMARK 922        TOTAL FREE ENERGY PREDICTED BY IDOCK:   -2.64 KCAL/MOL
REMARK 923 INTER-LIGAND FREE ENERGY PREDICTED BY IDOCK:   -2.62 KCAL/MOL
REMARK 924 INTRA-LIGAND FREE ENERGY PREDICTED BY IDOCK:   -0.02 KCAL/MOL
REMARK 927      BINDING AFFINITY PREDICTED BY RF-SCORE:    0.00 PKD
ROOT
HETATM    1  O   UNL     1     -11.051  10.730  70.218  1.00  0.00    -0.405 OA 
HETATM    2  C   UNL     1     -11.001   9.513  70.946  1.00  0.00    -0.337 C  
HETATM    3  H   UNL     1     -10.188  10.975  69.902  1.00  0.00     0.000 HD 
ENDROOT
BRANCH   2   4
HETATM    4  C   UNL     1     -12.387   9.119  71.453  1.00  0.00    -0.333 C  
HETATM    5  O   UNL     1     -13.382   9.801  70.682  1.00  0.00    -0.609 OA 
HETATM    6  H   UNL     1     -14.245   9.556  70.998  1.00  0.00     0.000 HD 
BRANCH   4   7
HETATM    7  C   UNL     1     -12.610   7.602  71.403  1.00  0.00    -0.333 C  
HETATM    8  O   UNL     1     -12.108   7.049  70.183  1.00  0.00    -0.606 OA 
HETATM    9  H   UNL     1     -12.246   6.110  70.151  1.00  0.00     0.000 HD 
ENDBRANCH   4   7
ENDBRANCH   2   4
TORSDOF 2
ENDMDL
MODEL       71
REMARK 921   NORMALIZED FREE ENERGY PREDICTED BY IDOCK:   -2.36 KCAL/MOL
REMARK 922        TOTAL FREE ENERGY PREDICTED BY IDOCK:   -2.63 KCAL/MOL
REMARK 923 INTER-LIGAND FREE ENERGY PREDICTED BY IDOCK:   -2.61 KCAL/MOL
REMARK 924 INTRA-LIGAND FREE ENERGY PREDICTED BY IDOCK:   -0.03 KCAL/MOL
REMARK 927      BINDING AFFINITY PREDICTED BY RF-SCORE:    0.00 PKD
ROOT
HETATM    1  O   UNL     1     -14.374  15.314  71.296  1.00  0.00    -0.642 OA 
HETATM    2  C   UNL     1     -13.377  14.305  71.270  1.00  0.00    -0.321 C  
HETATM    3  H   UNL     1     -15.169  14.998  71.709  1.00  0.00     0.000 HD 
ENDROOT
BRANCH   2   4
HETATM    4  C   UNL     1     -12.098  14.813  70.606  1.00  0.00    -0.310 C  
HETATM    5  O   UNL     1     -11.045  14.846  71.575  1.00  0.00    -0.567 OA 
HETATM    6  H   UNL     1     -10.249  15.162  71.162  1.00  0.00     0.000 HD 
BRANCH   4   7
HETATM    7  C   UNL     1     -11.695  13.955  69.400  1.00  0.00    -0.315 C  
HETATM    8  O   UNL     1     -12.624  14.113  68.324  1.00  0.00    -0.451 OA 
HETATM    9  H   UNL     1     -12.375  13.581  67.577  1.00  0.00     0.000 HD 
ENDBRANCH   4   7
ENDBRANCH   2   4
TORSDOF 2
ENDMDL
MODEL       72
REMARK 921   NORMALIZED FREE ENERGY PREDICTED BY IDOCK:   -2.35 KCAL/MOL
REMARK 922        TOTAL FREE ENERGY PREDICTED BY IDOCK:   -2.63 KCAL/MOL
REMARK 923 INTER-LIGAND FREE ENERGY PREDICTED BY IDOCK:   -2.62 KCAL/MOL
REMARK 924 INTRA-LIGAND FREE ENERGY PREDICTED BY IDOCK:   -0.00 KCAL/MOL
REMARK 927      BINDING AFFINITY PREDICTED BY RF-SCORE:    0.00 PKD
ROOT
HETATM    1  O   UNL     1     -11.846   7.440  72.992  1.00  0.00    -0.571 OA 
HETATM    2  C   UNL     1     -12.424   8.651  72.527  1.00  0.00    -0.304 C  
HETATM    3  H   UNL     1     -12.202   7.195  73.838  1.00  0.00     0.000 HD 
ENDROOT
BRANCH   2   4
HETATM    4  C   UNL     1     -11.851   9.045  71.167  1.00  0.00    -0.301 C  
HETATM    5  O   UNL     1     -11.987   7.946  70.260  1.00  0.00    -0.478 OA 
HETATM    6  H   UNL     1     -11.630   8.192  69.414  1.00  0.00     0.000 HD 
BRANCH   4   7
HETATM    7  C   UNL     1     -12.526  10.301  70.599  1.00  0.00    -0.318 C  
HETATM    8  O   UNL     1     -12.275  10.430  69.197  1.00  0.00    -0.651 OA 
HETATM    9  H   UNL     1     -12.694  11.207  68.846  1.00  0.00     0.000 HD 
ENDBRANCH   4   7
ENDBRANCH   2   4
TORSDOF 2
ENDMDL
MODEL       73
REMARK 921   NORMALIZED FREE ENERGY PREDICTED BY IDOCK:   -2.35 KCAL/MOL
REMARK 922        TOTAL FREE ENERGY PREDICTED BY IDOCK:   -2.62 KCAL/MOL
REMARK 923 INTER-LIGAND FREE ENERGY PREDICTED BY IDOCK:   -2.62 KCAL/MOL
REMARK 924 INTRA-LIGAND FREE ENERGY PREDICTED BY IDOCK:   -0.00 KCAL/MOL
REMARK 927      BINDING AFFINITY PREDICTED BY RF-SCORE:    0.00 PKD
ROOT
HETATM    1  O   UNL     1     -12.988  12.465  64.562  1.00  0.00    -0.770 OA 
HETATM    2  C   UNL     1     -12.653  13.556  65.406  1.00  0.00    -0.483 C  
HETATM    3  H   UNL     1     -13.906  12.233  64.652  1.00  0.00     0.000 HD 
ENDROOT
BRANCH   2   4
HETATM    4  C   UNL     1     -11.179  13.929  65.260  1.00  0.00    -0.313 C  
HETATM    5  O   UNL     1     -10.908  15.098  66.041  1.00  0.00    -0.322 OA 
HETATM    6  H   UNL     1      -9.991  15.329  65.950  1.00  0.00     0.000 HD 
BRANCH   4   7
HETATM    7  C   UNL     1     -10.250  12.778  65.671  1.00  0.00    -0.279 C  
HETATM    8  O   UNL     1      -9.066  13.274  66.301  1.00  0.00    -0.453 OA 
HETATM    9  H   UNL     1      -8.491  12.561  66.555  1.00  0.00     0.000 HD 
ENDBRANCH   4   7
ENDBRANCH   2   4
TORSDOF 2
ENDMDL
MODEL       74
REMARK 921   NORMALIZED FREE ENERGY PREDICTED BY IDOCK:   -2.33 KCAL/MOL
REMARK 922        TOTAL FREE ENERGY PREDICTED BY IDOCK:   -2.60 KCAL/MOL
REMARK 923 INTER-LIGAND FREE ENERGY PREDICTED BY IDOCK:   -2.39 KCAL/MOL
REMARK 924 INTRA-LIGAND FREE ENERGY PREDICTED BY IDOCK:   -0.21 KCAL/MOL
REMARK 927      BINDING AFFINITY PREDICTED BY RF-SCORE:    0.00 PKD
ROOT
HETATM    1  O   UNL     1     -12.517  10.559  68.973  1.00  0.00    -0.770 OA 
HETATM    2  C   UNL     1     -11.434  10.759  69.869  1.00  0.00    -0.321 C  
HETATM    3  H   UNL     1     -13.204  11.199  69.119  1.00  0.00     0.000 HD 
ENDROOT
BRANCH   2   4
HETATM    4  C   UNL     1     -10.330   9.730  69.635  1.00  0.00    -0.238 C  
HETATM    5  O   UNL     1      -9.058  10.337  69.887  1.00  0.00    -0.387 OA 
HETATM    6  H   UNL     1      -8.371   9.697  69.741  1.00  0.00     0.000 HD 
BRANCH   4   7
HETATM    7  C   UNL     1     -10.513   8.479  70.504  1.00  0.00    -0.204 C  
HETATM    8  O   UNL     1     -11.824   7.930  70.344  1.00  0.00    -0.471 OA 
HETATM    9  H   UNL     1     -11.938   7.156  70.882  1.00  0.00     0.000 HD 
ENDBRANCH   4   7
ENDBRANCH   2   4
TORSDOF 2
ENDMDL
MODEL       75
REMARK 921   NORMALIZED FREE ENERGY PREDICTED BY IDOCK:   -2.32 KCAL/MOL
REMARK 922        TOTAL FREE ENERGY PREDICTED BY IDOCK:   -2.59 KCAL/MOL
REMARK 923 INTER-LIGAND FREE ENERGY PREDICTED BY IDOCK:   -2.37 KCAL/MOL
REMARK 924 INTRA-LIGAND FREE ENERGY PREDICTED BY IDOCK:   -0.22 KCAL/MOL
REMARK 927      BINDING AFFINITY PREDICTED BY RF-SCORE:    0.00 PKD
ROOT
HETATM    1  O   UNL     1     -11.632   4.479  65.138  1.00  0.00    -1.102 OA 
HETATM    2  C   UNL     1     -10.588   4.935  65.984  1.00  0.00    -0.261 C  
HETATM    3  H   UNL     1     -12.400   5.034  65.213  1.00  0.00     0.000 HD 
ENDROOT
BRANCH   2   4
HETATM    4  C   UNL     1      -9.354   4.042  65.863  1.00  0.00    -0.166 C  
HETATM    5  O   UNL     1      -9.770   2.681  65.718  1.00  0.00    -0.367 OA 
HETATM    6  H   UNL     1      -9.002   2.125  65.643  1.00  0.00     0.000 HD 
BRANCH   4   7
HETATM    7  C   UNL     1      -8.453   4.460  64.694  1.00  0.00    -0.125 C  
HETATM    8  O   UNL     1      -9.199   5.158  63.694  1.00  0.00    -0.351 OA 
HETATM    9  H   UNL     1      -8.641   5.417  62.970  1.00  0.00     0.000 HD 
ENDBRANCH   4   7
ENDBRANCH   2   4
TORSDOF 2
ENDMDL
MODEL       76
REMARK 921   NORMALIZED FREE ENERGY PREDICTED BY IDOCK:   -2.32 KCAL/MOL
REMARK 922        TOTAL FREE ENERGY PREDICTED BY IDOCK:   -2.59 KCAL/MOL
REMARK 923 INTER-LIGAND FREE ENERGY PREDICTED BY IDOCK:   -2.57 KCAL/MOL
REMARK 924 INTRA-LIGAND FREE ENERGY PREDICTED BY IDOCK:   -0.02 KCAL/MOL
REMARK 927      BINDING AFFINITY PREDICTED BY RF-SCORE:    0.00 PKD
ROOT
HETATM    1  O   UNL     1     -10.100   8.701  70.596  1.00  0.00    -0.186 OA 
HETATM    2  C   UNL     1     -10.913   9.239  71.627  1.00  0.00    -0.363 C  
HETATM    3  H   UNL     1      -9.455   9.334  70.304  1.00  0.00     0.000 HD 
ENDROOT
BRANCH   2   4
HETATM    4  C   UNL     1     -11.950   8.221  72.097  1.00  0.00    -0.369 C  
HETATM    5  O   UNL     1     -11.563   7.709  73.377  1.00  0.00    -0.641 OA 
HETATM    6  H   UNL     1     -12.208   7.075  73.669  1.00  0.00     0.000 HD 
BRANCH   4   7
HETATM    7  C   UNL     1     -13.360   8.821  72.159  1.00  0.00    -0.423 C  
HETATM    8  O   UNL     1     -13.849   9.121  70.849  1.00  0.00    -0.590 OA 
HETATM    9  H   UNL     1     -14.723   9.492  70.887  1.00  0.00     0.000 HD 
ENDBRANCH   4   7
ENDBRANCH   2   4
TORSDOF 2
ENDMDL
MODEL       77
REMARK 921   NORMALIZED FREE ENERGY PREDICTED BY IDOCK:   -2.31 KCAL/MOL
REMARK 922        TOTAL FREE ENERGY PREDICTED BY IDOCK:   -2.59 KCAL/MOL
REMARK 923 INTER-LIGAND FREE ENERGY PREDICTED BY IDOCK:   -2.58 KCAL/MOL
REMARK 924 INTRA-LIGAND FREE ENERGY PREDICTED BY IDOCK:   -0.00 KCAL/MOL
REMARK 927      BINDING AFFINITY PREDICTED BY RF-SCORE:    0.00 PKD
ROOT
HETATM    1  O   UNL     1      -9.912  16.831  65.273  1.00  0.00    -0.546 OA 
HETATM    2  C   UNL     1     -10.440  16.038  66.325  1.00  0.00    -0.320 C  
HETATM    3  H   UNL     1      -9.637  17.683  65.593  1.00  0.00     0.000 HD 
ENDROOT
BRANCH   2   4
HETATM    4  C   UNL     1     -10.883  14.669  65.811  1.00  0.00    -0.323 C  
HETATM    5  O   UNL     1      -9.825  14.090  65.040  1.00  0.00    -0.588 OA 
HETATM    6  H   UNL     1     -10.100  13.238  64.720  1.00  0.00     0.000 HD 
BRANCH   4   7
HETATM    7  C   UNL     1     -11.296  13.731  66.952  1.00  0.00    -0.328 C  
HETATM    8  O   UNL     1     -12.566  14.106  67.491  1.00  0.00    -0.480 OA 
HETATM    9  H   UNL     1     -12.822  13.525  68.198  1.00  0.00     0.000 HD 
ENDBRANCH   4   7
ENDBRANCH   2   4
TORSDOF 2
ENDMDL
MODEL       78
REMARK 921   NORMALIZED FREE ENERGY PREDICTED BY IDOCK:   -2.30 KCAL/MOL
REMARK 922        TOTAL FREE ENERGY PREDICTED BY IDOCK:   -2.57 KCAL/MOL
REMARK 923 INTER-LIGAND FREE ENERGY PREDICTED BY IDOCK:   -2.57 KCAL/MOL
REMARK 924 INTRA-LIGAND FREE ENERGY PREDICTED BY IDOCK:   -0.00 KCAL/MOL
REMARK 927      BINDING AFFINITY PREDICTED BY RF-SCORE:    0.00 PKD
ROOT
HETATM    1  O   UNL     1     -11.471   6.764  68.356  1.00  0.00    -0.558 OA 
HETATM    2  C   UNL     1     -11.198   6.140  69.601  1.00  0.00    -0.418 C  
HETATM    3  H   UNL     1     -11.471   6.130  67.648  1.00  0.00     0.000 HD 
ENDROOT
BRANCH   2   4
HETATM    4  C   UNL     1     -11.200   7.159  70.738  1.00  0.00    -0.279 C  
HETATM    5  O   UNL     1     -11.447   8.463  70.203  1.00  0.00    -0.448 OA 
HETATM    6  H   UNL     1     -11.447   9.098  70.911  1.00  0.00     0.000 HD 
BRANCH   4   7
HETATM    7  C   UNL     1     -12.232   6.815  71.820  1.00  0.00    -0.358 C  
HETATM    8  O   UNL     1     -11.657   6.908  73.126  1.00  0.00    -0.508 OA 
HETATM    9  H   UNL     1     -12.297   6.695  73.796  1.00  0.00     0.000 HD 
ENDBRANCH   4   7
ENDBRANCH   2   4
TORSDOF 2
ENDMDL
MODEL       79
REMARK 921   NORMALIZED FREE ENERGY PREDICTED BY IDOCK:   -2.29 KCAL/MOL
REMARK 922        TOTAL FREE ENERGY PREDICTED BY IDOCK:   -2.56 KCAL/MOL
REMARK 923 INTER-LIGAND FREE ENERGY PREDICTED BY IDOCK:   -2.52 KCAL/MOL
REMARK 924 INTRA-LIGAND FREE ENERGY PREDICTED BY IDOCK:   -0.04 KCAL/MOL
REMARK 927      BINDING AFFINITY PREDICTED BY RF-SCORE:    0.00 PKD
ROOT
HETATM    1  O   UNL     1     -13.586   7.877  70.999  1.00  0.00    -0.564 OA 
HETATM    2  C   UNL     1     -12.376   7.414  71.579  1.00  0.00    -0.353 C  
HETATM    3  H   UNL     1     -14.271   7.954  71.654  1.00  0.00     0.000 HD 
ENDROOT
BRANCH   2   4
HETATM    4  C   UNL     1     -11.276   7.290  70.526  1.00  0.00    -0.279 C  
HETATM    5  O   UNL     1     -11.790   6.594  69.386  1.00  0.00    -0.651 OA 
HETATM    6  H   UNL     1     -11.105   6.516  68.731  1.00  0.00     0.000 HD 
BRANCH   4   7
HETATM    7  C   UNL     1     -10.714   8.658  70.115  1.00  0.00    -0.234 C  
HETATM    8  O   UNL     1     -11.232   9.065  68.846  1.00  0.00    -0.439 OA 
HETATM    9  H   UNL     1     -10.884   9.912  68.592  1.00  0.00     0.000 HD 
ENDBRANCH   4   7
ENDBRANCH   2   4
TORSDOF 2
ENDMDL
MODEL       80
REMARK 921   NORMALIZED FREE ENERGY PREDICTED BY IDOCK:   -2.26 KCAL/MOL
REMARK 922        TOTAL FREE ENERGY PREDICTED BY IDOCK:   -2.52 KCAL/MOL
REMARK 923 INTER-LIGAND FREE ENERGY PREDICTED BY IDOCK:   -2.30 KCAL/MOL
REMARK 924 INTRA-LIGAND FREE ENERGY PREDICTED BY IDOCK:   -0.22 KCAL/MOL
REMARK 927      BINDING AFFINITY PREDICTED BY RF-SCORE:    0.00 PKD
ROOT
HETATM    1  O   UNL     1     -10.435   7.676  71.440  1.00  0.00    -0.208 OA 
HETATM    2  C   UNL     1     -11.205   8.430  72.363  1.00  0.00    -0.368 C  
HETATM    3  H   UNL     1      -9.612   7.400  71.827  1.00  0.00     0.000 HD 
ENDROOT
BRANCH   2   4
HETATM    4  C   UNL     1     -12.528   8.873  71.740  1.00  0.00    -0.362 C  
HETATM    5  O   UNL     1     -12.295   9.310  70.397  1.00  0.00    -0.479 OA 
HETATM    6  H   UNL     1     -13.118   9.585  70.010  1.00  0.00     0.000 HD 
BRANCH   4   7
HETATM    7  C   UNL     1     -13.582   7.758  71.771  1.00  0.00    -0.329 C  
HETATM    8  O   UNL     1     -13.010   6.523  72.211  1.00  0.00    -0.554 OA 
HETATM    9  H   UNL     1     -13.663   5.833  72.229  1.00  0.00     0.000 HD 
ENDBRANCH   4   7
ENDBRANCH   2   4
TORSDOF 2
ENDMDL
MODEL       81
REMARK 921   NORMALIZED FREE ENERGY PREDICTED BY IDOCK:   -2.26 KCAL/MOL
REMARK 922        TOTAL FREE ENERGY PREDICTED BY IDOCK:   -2.52 KCAL/MOL
REMARK 923 INTER-LIGAND FREE ENERGY PREDICTED BY IDOCK:   -2.30 KCAL/MOL
REMARK 924 INTRA-LIGAND FREE ENERGY PREDICTED BY IDOCK:   -0.22 KCAL/MOL
REMARK 927      BINDING AFFINITY PREDICTED BY RF-SCORE:    0.00 PKD
ROOT
HETATM    1  O   UNL     1      -7.487  18.490  65.469  1.00  0.00    -0.516 OA 
HETATM    2  C   UNL     1      -7.692  17.335  66.268  1.00  0.00    -0.318 C  
HETATM    3  H   UNL     1      -6.728  18.385  64.906  1.00  0.00     0.000 HD 
ENDROOT
BRANCH   2   4
HETATM    4  C   UNL     1      -8.912  17.503  67.172  1.00  0.00    -0.238 C  
HETATM    5  O   UNL     1      -8.955  18.847  67.661  1.00  0.00    -0.283 OA 
HETATM    6  H   UNL     1      -9.715  18.952  68.224  1.00  0.00     0.000 HD 
BRANCH   4   7
HETATM    7  C   UNL     1     -10.218  17.149  66.448  1.00  0.00    -0.328 C  
HETATM    8  O   UNL     1     -10.456  18.039  65.354  1.00  0.00    -0.621 OA 
HETATM    9  H   UNL     1     -11.265  17.820  64.906  1.00  0.00     0.000 HD 
ENDBRANCH   4   7
ENDBRANCH   2   4
TORSDOF 2
ENDMDL
MODEL       82
REMARK 921   NORMALIZED FREE ENERGY PREDICTED BY IDOCK:   -2.26 KCAL/MOL
REMARK 922        TOTAL FREE ENERGY PREDICTED BY IDOCK:   -2.52 KCAL/MOL
REMARK 923 INTER-LIGAND FREE ENERGY PREDICTED BY IDOCK:   -2.52 KCAL/MOL
REMARK 924 INTRA-LIGAND FREE ENERGY PREDICTED BY IDOCK:   -0.00 KCAL/MOL
REMARK 927      BINDING AFFINITY PREDICTED BY RF-SCORE:    0.00 PKD
ROOT
HETATM    1  O   UNL     1     -10.825  14.942  70.269  1.00  0.00    -0.417 OA 
HETATM    2  C   UNL     1     -10.611  14.595  68.909  1.00  0.00    -0.253 C  
HETATM    3  H   UNL     1     -10.142  15.522  70.585  1.00  0.00     0.000 HD 
ENDROOT
BRANCH   2   4
HETATM    4  C   UNL     1     -11.708  13.662  68.401  1.00  0.00    -0.358 C  
HETATM    5  O   UNL     1     -12.317  14.237  67.240  1.00  0.00    -0.598 OA 
HETATM    6  H   UNL     1     -13.000  13.657  66.924  1.00  0.00     0.000 HD 
BRANCH   4   7
HETATM    7  C   UNL     1     -11.173  12.258  68.091  1.00  0.00    -0.269 C  
HETATM    8  O   UNL     1     -12.217  11.283  68.162  1.00  0.00    -0.626 OA 
HETATM    9  H   UNL     1     -11.886  10.414  67.970  1.00  0.00     0.000 HD 
ENDBRANCH   4   7
ENDBRANCH   2   4
TORSDOF 2
ENDMDL
MODEL       83
REMARK 921   NORMALIZED FREE ENERGY PREDICTED BY IDOCK:   -2.25 KCAL/MOL
REMARK 922        TOTAL FREE ENERGY PREDICTED BY IDOCK:   -2.52 KCAL/MOL
REMARK 923 INTER-LIGAND FREE ENERGY PREDICTED BY IDOCK:   -2.34 KCAL/MOL
REMARK 924 INTRA-LIGAND FREE ENERGY PREDICTED BY IDOCK:   -0.18 KCAL/MOL
REMARK 927      BINDING AFFINITY PREDICTED BY RF-SCORE:    0.00 PKD
ROOT
HETATM    1  O   UNL     1     -12.734  15.988  71.171  1.00  0.00    -0.552 OA 
HETATM    2  C   UNL     1     -11.935  14.888  70.765  1.00  0.00    -0.314 C  
HETATM    3  H   UNL     1     -13.144  15.821  72.012  1.00  0.00     0.000 HD 
ENDROOT
BRANCH   2   4
HETATM    4  C   UNL     1     -11.276  15.157  69.414  1.00  0.00    -0.283 C  
HETATM    5  O   UNL     1     -12.275  15.568  68.475  1.00  0.00    -0.546 OA 
HETATM    6  H   UNL     1     -11.864  15.736  67.634  1.00  0.00     0.000 HD 
BRANCH   4   7
HETATM    7  C   UNL     1     -10.163  16.209  69.514  1.00  0.00    -0.261 C  
HETATM    8  O   UNL     1     -10.682  17.526  69.315  1.00  0.00    -0.379 OA 
HETATM    9  H   UNL     1      -9.993  18.177  69.378  1.00  0.00     0.000 HD 
ENDBRANCH   4   7
ENDBRANCH   2   4
TORSDOF 2
ENDMDL
MODEL       84
REMARK 921   NORMALIZED FREE ENERGY PREDICTED BY IDOCK:   -2.23 KCAL/MOL
REMARK 922        TOTAL FREE ENERGY PREDICTED BY IDOCK:   -2.50 KCAL/MOL
REMARK 923 INTER-LIGAND FREE ENERGY PREDICTED BY IDOCK:   -2.35 KCAL/MOL
REMARK 924 INTRA-LIGAND FREE ENERGY PREDICTED BY IDOCK:   -0.15 KCAL/MOL
REMARK 927      BINDING AFFINITY PREDICTED BY RF-SCORE:    0.00 PKD
ROOT
HETATM    1  O   UNL     1      -7.494  17.762  65.671  1.00  0.00    -0.533 OA 
HETATM    2  C   UNL     1      -8.518  18.413  66.407  1.00  0.00    -0.245 C  
HETATM    3  H   UNL     1      -7.603  16.818  65.696  1.00  0.00     0.000 HD 
ENDROOT
BRANCH   2   4
HETATM    4  C   UNL     1      -8.343  19.930  66.366  1.00  0.00    -0.334 C  
HETATM    5  O   UNL     1      -9.631  20.553  66.335  1.00  0.00    -0.631 OA 
HETATM    6  H   UNL     1      -9.523  21.497  66.310  1.00  0.00     0.000 HD 
BRANCH   4   7
HETATM    7  C   UNL     1      -7.521  20.447  67.554  1.00  0.00    -0.319 C  
HETATM    8  O   UNL     1      -7.184  19.383  68.448  1.00  0.00    -0.284 OA 
HETATM    9  H   UNL     1      -6.675  19.704  69.183  1.00  0.00     0.000 HD 
ENDBRANCH   4   7
ENDBRANCH   2   4
TORSDOF 2
ENDMDL
MODEL       85
REMARK 921   NORMALIZED FREE ENERGY PREDICTED BY IDOCK:   -2.23 KCAL/MOL
REMARK 922        TOTAL FREE ENERGY PREDICTED BY IDOCK:   -2.49 KCAL/MOL
REMARK 923 INTER-LIGAND FREE ENERGY PREDICTED BY IDOCK:   -2.30 KCAL/MOL
REMARK 924 INTRA-LIGAND FREE ENERGY PREDICTED BY IDOCK:   -0.19 KCAL/MOL
REMARK 927      BINDING AFFINITY PREDICTED BY RF-SCORE:    0.00 PKD
ROOT
HETATM    1  O   UNL     1     -10.503  17.723  68.413  1.00  0.00    -0.369 OA 
HETATM    2  C   UNL     1      -9.477  16.823  68.799  1.00  0.00    -0.259 C  
HETATM    3  H   UNL     1     -10.158  18.600  68.284  1.00  0.00     0.000 HD 
ENDROOT
BRANCH   2   4
HETATM    4  C   UNL     1     -10.031  15.414  69.006  1.00  0.00    -0.229 C  
HETATM    5  O   UNL     1     -10.055  15.117  70.405  1.00  0.00    -0.496 OA 
HETATM    6  H   UNL     1     -10.401  14.240  70.534  1.00  0.00     0.000 HD 
BRANCH   4   7
HETATM    7  C   UNL     1     -11.429  15.250  68.395  1.00  0.00    -0.345 C  
HETATM    8  O   UNL     1     -12.447  15.469  69.375  1.00  0.00    -0.598 OA 
HETATM    9  H   UNL     1     -13.313  15.368  68.996  1.00  0.00     0.000 HD 
ENDBRANCH   4   7
ENDBRANCH   2   4
TORSDOF 2
ENDMDL
MODEL       86
REMARK 921   NORMALIZED FREE ENERGY PREDICTED BY IDOCK:   -2.22 KCAL/MOL
REMARK 922        TOTAL FREE ENERGY PREDICTED BY IDOCK:   -2.48 KCAL/MOL
REMARK 923 INTER-LIGAND FREE ENERGY PREDICTED BY IDOCK:   -2.26 KCAL/MOL
REMARK 924 INTRA-LIGAND FREE ENERGY PREDICTED BY IDOCK:   -0.22 KCAL/MOL
REMARK 927      BINDING AFFINITY PREDICTED BY RF-SCORE:    0.00 PKD
ROOT
HETATM    1  O   UNL     1      -9.419   6.668  71.323  1.00  0.00    -0.162 OA 
HETATM    2  C   UNL     1     -10.781   6.273  71.264  1.00  0.00    -0.248 C  
HETATM    3  H   UNL     1      -8.851   5.917  71.457  1.00  0.00     0.000 HD 
ENDROOT
BRANCH   2   4
HETATM    4  C   UNL     1     -11.692   7.480  71.048  1.00  0.00    -0.292 C  
HETATM    5  O   UNL     1     -12.967   7.031  70.577  1.00  0.00    -0.551 OA 
HETATM    6  H   UNL     1     -13.534   7.781  70.443  1.00  0.00     0.000 HD 
BRANCH   4   7
HETATM    7  C   UNL     1     -11.852   8.317  72.325  1.00  0.00    -0.388 C  
HETATM    8  O   UNL     1     -11.294   7.642  73.455  1.00  0.00    -0.622 OA 
HETATM    9  H   UNL     1     -11.393   8.160  74.245  1.00  0.00     0.000 HD 
ENDBRANCH   4   7
ENDBRANCH   2   4
TORSDOF 2
ENDMDL
MODEL       87
REMARK 921   NORMALIZED FREE ENERGY PREDICTED BY IDOCK:   -2.17 KCAL/MOL
REMARK 922        TOTAL FREE ENERGY PREDICTED BY IDOCK:   -2.42 KCAL/MOL
REMARK 923 INTER-LIGAND FREE ENERGY PREDICTED BY IDOCK:   -2.22 KCAL/MOL
REMARK 924 INTRA-LIGAND FREE ENERGY PREDICTED BY IDOCK:   -0.21 KCAL/MOL
REMARK 927      BINDING AFFINITY PREDICTED BY RF-SCORE:    0.00 PKD
ROOT
HETATM    1  O   UNL     1      -8.396  18.443  68.521  1.00  0.00    -0.317 OA 
HETATM    2  C   UNL     1      -9.719  18.919  68.327  1.00  0.00    -0.361 C  
HETATM    3  H   UNL     1      -7.943  18.954  69.183  1.00  0.00     0.000 HD 
ENDROOT
BRANCH   2   4
HETATM    4  C   UNL     1     -10.447  18.099  67.263  1.00  0.00    -0.393 C  
HETATM    5  O   UNL     1      -9.654  18.060  66.073  1.00  0.00    -0.499 OA 
HETATM    6  H   UNL     1     -10.106  17.550  65.411  1.00  0.00     0.000 HD 
BRANCH   4   7
HETATM    7  C   UNL     1     -10.763  16.678  67.748  1.00  0.00    -0.327 C  
HETATM    8  O   UNL     1     -10.792  16.617  69.177  1.00  0.00    -0.320 OA 
HETATM    9  H   UNL     1     -10.987  15.737  69.477  1.00  0.00     0.000 HD 
ENDBRANCH   4   7
ENDBRANCH   2   4
TORSDOF 2
ENDMDL
MODEL       88
REMARK 921   NORMALIZED FREE ENERGY PREDICTED BY IDOCK:   -2.16 KCAL/MOL
REMARK 922        TOTAL FREE ENERGY PREDICTED BY IDOCK:   -2.42 KCAL/MOL
REMARK 923 INTER-LIGAND FREE ENERGY PREDICTED BY IDOCK:   -2.41 KCAL/MOL
REMARK 924 INTRA-LIGAND FREE ENERGY PREDICTED BY IDOCK:   -0.01 KCAL/MOL
REMARK 927      BINDING AFFINITY PREDICTED BY RF-SCORE:    0.00 PKD
ROOT
HETATM    1  O   UNL     1      -9.962  19.122  68.266  1.00  0.00    -0.356 OA 
HETATM    2  C   UNL     1      -9.385  18.717  67.033  1.00  0.00    -0.297 C  
HETATM    3  H   UNL     1     -10.327  18.378  68.732  1.00  0.00     0.000 HD 
ENDROOT
BRANCH   2   4
HETATM    4  C   UNL     1      -8.799  19.912  66.284  1.00  0.00    -0.345 C  
HETATM    5  O   UNL     1      -8.828  21.063  67.134  1.00  0.00    -0.573 OA 
HETATM    6  H   UNL     1      -8.463  21.807  66.668  1.00  0.00     0.000 HD 
BRANCH   4   7
HETATM    7  C   UNL     1      -7.372  19.640  65.791  1.00  0.00    -0.304 C  
HETATM    8  O   UNL     1      -7.178  18.249  65.522  1.00  0.00    -0.536 OA 
HETATM    9  H   UNL     1      -6.294  18.080  65.217  1.00  0.00     0.000 HD 
ENDBRANCH   4   7
ENDBRANCH   2   4
TORSDOF 2
ENDMDL
MODEL       89
REMARK 921   NORMALIZED FREE ENERGY PREDICTED BY IDOCK:   -2.16 KCAL/MOL
REMARK 922        TOTAL FREE ENERGY PREDICTED BY IDOCK:   -2.41 KCAL/MOL
REMARK 923 INTER-LIGAND FREE ENERGY PREDICTED BY IDOCK:   -2.41 KCAL/MOL
REMARK 924 INTRA-LIGAND FREE ENERGY PREDICTED BY IDOCK:   -0.00 KCAL/MOL
REMARK 927      BINDING AFFINITY PREDICTED BY RF-SCORE:    0.00 PKD
ROOT
HETATM    1  O   UNL     1     -11.250   6.329  66.519  1.00  0.00    -0.726 OA 
HETATM    2  C   UNL     1     -10.959   6.194  67.901  1.00  0.00    -0.304 C  
HETATM    3  H   UNL     1     -11.523   5.499  66.145  1.00  0.00     0.000 HD 
ENDROOT
BRANCH   2   4
HETATM    4  C   UNL     1     -10.519   7.527  68.502  1.00  0.00    -0.180 C  
HETATM    5  O   UNL     1     -11.150   8.597  67.791  1.00  0.00    -0.482 OA 
HETATM    6  H   UNL     1     -10.876   9.427  68.165  1.00  0.00     0.000 HD 
BRANCH   4   7
HETATM    7  C   UNL     1     -10.835   7.616  70.002  1.00  0.00    -0.243 C  
HETATM    8  O   UNL     1     -11.836   8.604  70.258  1.00  0.00    -0.477 OA 
HETATM    9  H   UNL     1     -12.032   8.658  71.186  1.00  0.00     0.000 HD 
ENDBRANCH   4   7
ENDBRANCH   2   4
TORSDOF 2
ENDMDL
MODEL       90
REMARK 921   NORMALIZED FREE ENERGY PREDICTED BY IDOCK:   -2.15 KCAL/MOL
REMARK 922        TOTAL FREE ENERGY PREDICTED BY IDOCK:   -2.41 KCAL/MOL
REMARK 923 INTER-LIGAND FREE ENERGY PREDICTED BY IDOCK:   -2.22 KCAL/MOL
REMARK 924 INTRA-LIGAND FREE ENERGY PREDICTED BY IDOCK:   -0.19 KCAL/MOL
REMARK 927      BINDING AFFINITY PREDICTED BY RF-SCORE:    0.00 PKD
ROOT
HETATM    1  O   UNL     1     -11.923  11.920  66.723  1.00  0.00    -0.613 OA 
HETATM    2  C   UNL     1     -11.137  12.667  67.639  1.00  0.00    -0.263 C  
HETATM    3  H   UNL     1     -12.661  11.511  67.162  1.00  0.00     0.000 HD 
ENDROOT
BRANCH   2   4
HETATM    4  C   UNL     1      -9.952  13.325  66.934  1.00  0.00    -0.250 C  
HETATM    5  O   UNL     1      -8.948  12.338  66.677  1.00  0.00    -0.204 OA 
HETATM    6  H   UNL     1      -8.211  12.748  66.239  1.00  0.00     0.000 HD 
BRANCH   4   7
HETATM    7  C   UNL     1     -10.370  14.023  65.633  1.00  0.00    -0.329 C  
HETATM    8  O   UNL     1     -10.099  13.196  64.498  1.00  0.00    -0.561 OA 
HETATM    9  H   UNL     1     -10.358  13.628  63.692  1.00  0.00     0.000 HD 
ENDBRANCH   4   7
ENDBRANCH   2   4
TORSDOF 2
ENDMDL
MODEL       91
REMARK 921   NORMALIZED FREE ENERGY PREDICTED BY IDOCK:   -2.14 KCAL/MOL
REMARK 922        TOTAL FREE ENERGY PREDICTED BY IDOCK:   -2.40 KCAL/MOL
REMARK 923 INTER-LIGAND FREE ENERGY PREDICTED BY IDOCK:   -2.19 KCAL/MOL
REMARK 924 INTRA-LIGAND FREE ENERGY PREDICTED BY IDOCK:   -0.20 KCAL/MOL
REMARK 927      BINDING AFFINITY PREDICTED BY RF-SCORE:    0.00 PKD
ROOT
HETATM    1  O   UNL     1     -10.408  10.203  65.928  1.00  0.00    -0.229 OA 
HETATM    2  C   UNL     1      -9.629   9.973  64.764  1.00  0.00    -0.308 C  
HETATM    3  H   UNL     1     -10.693   9.384  66.316  1.00  0.00     0.000 HD 
ENDROOT
BRANCH   2   4
HETATM    4  C   UNL     1      -9.172  11.291  64.141  1.00  0.00    -0.044 C  
HETATM    5  O   UNL     1      -8.078  11.038  63.253  1.00  0.00    -0.369 OA 
HETATM    6  H   UNL     1      -7.793  11.858  62.865  1.00  0.00     0.000 HD 
BRANCH   4   7
HETATM    7  C   UNL     1     -10.312  12.007  63.404  1.00  0.00    -0.434 C  
HETATM    8  O   UNL     1     -11.398  11.113  63.148  1.00  0.00    -0.808 OA 
HETATM    9  H   UNL     1     -12.104  11.557  62.692  1.00  0.00     0.000 HD 
ENDBRANCH   4   7
ENDBRANCH   2   4
TORSDOF 2
ENDMDL
MODEL       92
REMARK 921   NORMALIZED FREE ENERGY PREDICTED BY IDOCK:   -2.14 KCAL/MOL
REMARK 922        TOTAL FREE ENERGY PREDICTED BY IDOCK:   -2.39 KCAL/MOL
REMARK 923 INTER-LIGAND FREE ENERGY PREDICTED BY IDOCK:   -2.39 KCAL/MOL
REMARK 924 INTRA-LIGAND FREE ENERGY PREDICTED BY IDOCK:   -0.00 KCAL/MOL
REMARK 927      BINDING AFFINITY PREDICTED BY RF-SCORE:    0.00 PKD
ROOT
HETATM    1  O   UNL     1     -12.472  10.639  68.980  1.00  0.00    -0.777 OA 
HETATM    2  C   UNL     1     -11.564  10.784  70.061  1.00  0.00    -0.334 C  
HETATM    3  H   UNL     1     -12.928  11.455  68.806  1.00  0.00     0.000 HD 
ENDROOT
BRANCH   2   4
HETATM    4  C   UNL     1     -10.830   9.473  70.341  1.00  0.00    -0.282 C  
HETATM    5  O   UNL     1     -11.481   8.409  69.639  1.00  0.00    -0.442 OA 
HETATM    6  H   UNL     1     -11.025   7.594  69.813  1.00  0.00     0.000 HD 
BRANCH   4   7
HETATM    7  C   UNL     1      -9.348   9.549  69.953  1.00  0.00    -0.223 C  
HETATM    8  O   UNL     1      -8.518   9.648  71.114  1.00  0.00    -0.335 OA 
HETATM    9  H   UNL     1      -7.600   9.695  70.874  1.00  0.00     0.000 HD 
ENDBRANCH   4   7
ENDBRANCH   2   4
TORSDOF 2
ENDMDL
MODEL       93
REMARK 921   NORMALIZED FREE ENERGY PREDICTED BY IDOCK:   -2.13 KCAL/MOL
REMARK 922        TOTAL FREE ENERGY PREDICTED BY IDOCK:   -2.38 KCAL/MOL
REMARK 923 INTER-LIGAND FREE ENERGY PREDICTED BY IDOCK:   -2.38 KCAL/MOL
REMARK 924 INTRA-LIGAND FREE ENERGY PREDICTED BY IDOCK:   -0.00 KCAL/MOL
REMARK 927      BINDING AFFINITY PREDICTED BY RF-SCORE:    0.00 PKD
ROOT
HETATM    1  O   UNL     1     -10.296  16.118  67.325  1.00  0.00    -0.276 OA 
HETATM    2  C   UNL     1      -9.956  16.962  66.235  1.00  0.00    -0.309 C  
HETATM    3  H   UNL     1     -10.737  15.332  67.023  1.00  0.00     0.000 HD 
ENDROOT
BRANCH   2   4
HETATM    4  C   UNL     1      -9.248  18.225  66.719  1.00  0.00    -0.288 C  
HETATM    5  O   UNL     1      -8.309  18.651  65.726  1.00  0.00    -0.462 OA 
HETATM    6  H   UNL     1      -7.868  19.437  66.028  1.00  0.00     0.000 HD 
BRANCH   4   7
HETATM    7  C   UNL     1     -10.237  19.352  67.044  1.00  0.00    -0.408 C  
HETATM    8  O   UNL     1      -9.700  20.627  66.683  1.00  0.00    -0.637 OA 
HETATM    9  H   UNL     1     -10.313  21.325  66.884  1.00  0.00     0.000 HD 
ENDBRANCH   4   7
ENDBRANCH   2   4
TORSDOF 2
ENDMDL
MODEL       94
REMARK 921   NORMALIZED FREE ENERGY PREDICTED BY IDOCK:   -2.12 KCAL/MOL
REMARK 922        TOTAL FREE ENERGY PREDICTED BY IDOCK:   -2.37 KCAL/MOL
REMARK 923 INTER-LIGAND FREE ENERGY PREDICTED BY IDOCK:   -2.37 KCAL/MOL
REMARK 924 INTRA-LIGAND FREE ENERGY PREDICTED BY IDOCK:   -0.00 KCAL/MOL
REMARK 927      BINDING AFFINITY PREDICTED BY RF-SCORE:    0.00 PKD
ROOT
HETATM    1  O   UNL     1     -10.880   7.283  74.037  1.00  0.00    -0.556 OA 
HETATM    2  C   UNL     1     -11.080   6.634  72.790  1.00  0.00    -0.249 C  
HETATM    3  H   UNL     1     -10.309   6.772  74.600  1.00  0.00     0.000 HD 
ENDROOT
BRANCH   2   4
HETATM    4  C   UNL     1     -11.998   7.455  71.886  1.00  0.00    -0.302 C  
HETATM    5  O   UNL     1     -12.283   8.708  72.516  1.00  0.00    -0.381 OA 
HETATM    6  H   UNL     1     -12.854   9.219  71.953  1.00  0.00     0.000 HD 
BRANCH   4   7
HETATM    7  C   UNL     1     -11.390   7.675  70.495  1.00  0.00    -0.250 C  
HETATM    8  O   UNL     1     -11.966   6.784  69.536  1.00  0.00    -0.634 OA 
HETATM    9  H   UNL     1     -11.589   6.920  68.674  1.00  0.00     0.000 HD 
ENDBRANCH   4   7
ENDBRANCH   2   4
TORSDOF 2
ENDMDL
MODEL       95
REMARK 921   NORMALIZED FREE ENERGY PREDICTED BY IDOCK:   -2.12 KCAL/MOL
REMARK 922        TOTAL FREE ENERGY PREDICTED BY IDOCK:   -2.37 KCAL/MOL
REMARK 923 INTER-LIGAND FREE ENERGY PREDICTED BY IDOCK:   -2.32 KCAL/MOL
REMARK 924 INTRA-LIGAND FREE ENERGY PREDICTED BY IDOCK:   -0.05 KCAL/MOL
REMARK 927      BINDING AFFINITY PREDICTED BY RF-SCORE:    0.00 PKD
ROOT
HETATM    1  O   UNL     1      -7.464  18.350  68.962  1.00  0.00    -0.272 OA 
HETATM    2  C   UNL     1      -8.271  19.501  68.764  1.00  0.00    -0.313 C  
HETATM    3  H   UNL     1      -6.544  18.584  69.019  1.00  0.00     0.000 HD 
ENDROOT
BRANCH   2   4
HETATM    4  C   UNL     1      -9.749  19.125  68.672  1.00  0.00    -0.417 C  
HETATM    5  O   UNL     1     -10.508  19.980  69.533  1.00  0.00    -0.597 OA 
HETATM    6  H   UNL     1     -11.427  19.746  69.476  1.00  0.00     0.000 HD 
BRANCH   4   7
HETATM    7  C   UNL     1     -10.275  19.203  67.233  1.00  0.00    -0.398 C  
HETATM    8  O   UNL     1      -9.692  18.183  66.417  1.00  0.00    -0.322 OA 
HETATM    9  H   UNL     1     -10.018  18.231  65.526  1.00  0.00     0.000 HD 
ENDBRANCH   4   7
ENDBRANCH   2   4
TORSDOF 2
ENDMDL
MODEL       96
REMARK 921   NORMALIZED FREE ENERGY PREDICTED BY IDOCK:   -2.11 KCAL/MOL
REMARK 922        TOTAL FREE ENERGY PREDICTED BY IDOCK:   -2.36 KCAL/MOL
REMARK 923 INTER-LIGAND FREE ENERGY PREDICTED BY IDOCK:   -2.35 KCAL/MOL
REMARK 924 INTRA-LIGAND FREE ENERGY PREDICTED BY IDOCK:   -0.01 KCAL/MOL
REMARK 927      BINDING AFFINITY PREDICTED BY RF-SCORE:    0.00 PKD
ROOT
HETATM    1  O   UNL     1      -9.992  14.343  64.696  1.00  0.00    -0.556 OA 
HETATM    2  C   UNL     1     -11.155  14.917  65.273  1.00  0.00    -0.378 C  
HETATM    3  H   UNL     1     -10.047  14.342  63.747  1.00  0.00     0.000 HD 
ENDROOT
BRANCH   2   4
HETATM    4  C   UNL     1     -11.067  14.919  66.798  1.00  0.00    -0.335 C  
HETATM    5  O   UNL     1     -12.227  14.277  67.337  1.00  0.00    -0.572 OA 
HETATM    6  H   UNL     1     -12.173  14.278  68.286  1.00  0.00     0.000 HD 
BRANCH   4   7
HETATM    7  C   UNL     1      -9.789  14.236  67.302  1.00  0.00    -0.244 C  
HETATM    8  O   UNL     1      -9.934  13.813  68.660  1.00  0.00    -0.262 OA 
HETATM    9  H   UNL     1      -9.143  13.390  68.973  1.00  0.00     0.000 HD 
ENDBRANCH   4   7
ENDBRANCH   2   4
TORSDOF 2
ENDMDL
MODEL       97
REMARK 921   NORMALIZED FREE ENERGY PREDICTED BY IDOCK:   -2.10 KCAL/MOL
REMARK 922        TOTAL FREE ENERGY PREDICTED BY IDOCK:   -2.34 KCAL/MOL
REMARK 923 INTER-LIGAND FREE ENERGY PREDICTED BY IDOCK:   -2.12 KCAL/MOL
REMARK 924 INTRA-LIGAND FREE ENERGY PREDICTED BY IDOCK:   -0.22 KCAL/MOL
REMARK 927      BINDING AFFINITY PREDICTED BY RF-SCORE:    0.00 PKD
ROOT
HETATM    1  O   UNL     1      -9.996  19.991  67.462  1.00  0.00    -0.378 OA 
HETATM    2  C   UNL     1     -10.655  18.851  67.990  1.00  0.00    -0.304 C  
HETATM    3  H   UNL     1     -10.444  20.791  67.713  1.00  0.00     0.000 HD 
ENDROOT
BRANCH   2   4
HETATM    4  C   UNL     1      -9.935  17.565  67.588  1.00  0.00    -0.309 C  
HETATM    5  O   UNL     1     -10.138  16.573  68.600  1.00  0.00    -0.230 OA 
HETATM    6  H   UNL     1      -9.690  15.774  68.349  1.00  0.00     0.000 HD 
BRANCH   4   7
HETATM    7  C   UNL     1     -10.402  17.046  66.221  1.00  0.00    -0.306 C  
HETATM    8  O   UNL     1     -10.581  18.123  65.297  1.00  0.00    -0.591 OA 
HETATM    9  H   UNL     1     -10.871  17.801  64.451  1.00  0.00     0.000 HD 
ENDBRANCH   4   7
ENDBRANCH   2   4
TORSDOF 2
ENDMDL
MODEL       98
REMARK 921   NORMALIZED FREE ENERGY PREDICTED BY IDOCK:   -2.09 KCAL/MOL
REMARK 922        TOTAL FREE ENERGY PREDICTED BY IDOCK:   -2.34 KCAL/MOL
REMARK 923 INTER-LIGAND FREE ENERGY PREDICTED BY IDOCK:   -2.34 KCAL/MOL
REMARK 924 INTRA-LIGAND FREE ENERGY PREDICTED BY IDOCK:   -0.01 KCAL/MOL
REMARK 927      BINDING AFFINITY PREDICTED BY RF-SCORE:    0.00 PKD
ROOT
HETATM    1  O   UNL     1      -7.366  19.289  69.191  1.00  0.00    -0.346 OA 
HETATM    2  C   UNL     1      -7.103  20.172  68.111  1.00  0.00    -0.275 C  
HETATM    3  H   UNL     1      -6.800  19.478  69.931  1.00  0.00     0.000 HD 
ENDROOT
BRANCH   2   4
HETATM    4  C   UNL     1      -8.011  19.869  66.921  1.00  0.00    -0.306 C  
HETATM    5  O   UNL     1      -9.154  20.730  66.968  1.00  0.00    -0.589 OA 
HETATM    6  H   UNL     1      -9.719  20.541  66.228  1.00  0.00     0.000 HD 
BRANCH   4   7
HETATM    7  C   UNL     1      -7.277  20.020  65.582  1.00  0.00    -0.308 C  
HETATM    8  O   UNL     1      -6.787  18.759  65.120  1.00  0.00    -0.512 OA 
HETATM    9  H   UNL     1      -6.332  18.852  64.291  1.00  0.00     0.000 HD 
ENDBRANCH   4   7
ENDBRANCH   2   4
TORSDOF 2
ENDMDL
MODEL       99
REMARK 921   NORMALIZED FREE ENERGY PREDICTED BY IDOCK:   -2.09 KCAL/MOL
REMARK 922        TOTAL FREE ENERGY PREDICTED BY IDOCK:   -2.34 KCAL/MOL
REMARK 923 INTER-LIGAND FREE ENERGY PREDICTED BY IDOCK:   -2.17 KCAL/MOL
REMARK 924 INTRA-LIGAND FREE ENERGY PREDICTED BY IDOCK:   -0.17 KCAL/MOL
REMARK 927      BINDING AFFINITY PREDICTED BY RF-SCORE:    0.00 PKD
ROOT
HETATM    1  O   UNL     1      -8.500  18.229  68.551  1.00  0.00    -0.306 OA 
HETATM    2  C   UNL     1      -7.201  18.269  67.978  1.00  0.00    -0.236 C  
HETATM    3  H   UNL     1      -8.522  17.651  69.305  1.00  0.00     0.000 HD 
ENDROOT
BRANCH   2   4
HETATM    4  C   UNL     1      -7.165  19.198  66.766  1.00  0.00    -0.211 C  
HETATM    5  O   UNL     1      -7.611  18.482  65.609  1.00  0.00    -0.511 OA 
HETATM    6  H   UNL     1      -7.589  19.060  64.855  1.00  0.00     0.000 HD 
BRANCH   4   7
HETATM    7  C   UNL     1      -8.011  20.459  66.980  1.00  0.00    -0.312 C  
HETATM    8  O   UNL     1      -9.264  20.359  66.299  1.00  0.00    -0.594 OA 
HETATM    9  H   UNL     1      -9.788  21.141  66.432  1.00  0.00     0.000 HD 
ENDBRANCH   4   7
ENDBRANCH   2   4
TORSDOF 2
ENDMDL
MODEL      100
REMARK 921   NORMALIZED FREE ENERGY PREDICTED BY IDOCK:   -2.08 KCAL/MOL
REMARK 922        TOTAL FREE ENERGY PREDICTED BY IDOCK:   -2.33 KCAL/MOL
REMARK 923 INTER-LIGAND FREE ENERGY PREDICTED BY IDOCK:   -2.10 KCAL/MOL
REMARK 924 INTRA-LIGAND FREE ENERGY PREDICTED BY IDOCK:   -0.22 KCAL/MOL
REMARK 927      BINDING AFFINITY PREDICTED BY RF-SCORE:    0.00 PKD
ROOT
HETATM    1  O   UNL     1      -9.413  14.728  69.839  1.00  0.00    -0.418 OA 
HETATM    2  C   UNL     1     -10.750  15.022  69.467  1.00  0.00    -0.256 C  
HETATM    3  H   UNL     1      -9.296  14.802  70.780  1.00  0.00     0.000 HD 
ENDROOT
BRANCH   2   4
HETATM    4  C   UNL     1     -10.938  14.902  67.955  1.00  0.00    -0.279 C  
HETATM    5  O   UNL     1     -12.286  14.512  67.676  1.00  0.00    -0.617 OA 
HETATM    6  H   UNL     1     -12.403  14.437  66.736  1.00  0.00     0.000 HD 
BRANCH   4   7
HETATM    7  C   UNL     1     -10.591  16.207  67.226  1.00  0.00    -0.305 C  
HETATM    8  O   UNL     1      -9.366  16.758  67.715  1.00  0.00    -0.229 OA 
HETATM    9  H   UNL     1      -9.151  17.566  67.264  1.00  0.00     0.000 HD 
ENDBRANCH   4   7
ENDBRANCH   2   4
TORSDOF 2
ENDMDL
MODEL      101
REMARK 921   NORMALIZED FREE ENERGY PREDICTED BY IDOCK:   -2.07 KCAL/MOL
REMARK 922        TOTAL FREE ENERGY PREDICTED BY IDOCK:   -2.32 KCAL/MOL
REMARK 923 INTER-LIGAND FREE ENERGY PREDICTED BY IDOCK:   -2.11 KCAL/MOL
REMARK 924 INTRA-LIGAND FREE ENERGY PREDICTED BY IDOCK:   -0.21 KCAL/MOL
REMARK 927      BINDING AFFINITY PREDICTED BY RF-SCORE:    0.00 PKD
ROOT
HETATM    1  O   UNL     1     -10.882  12.447  65.551  1.00  0.00    -0.267 OA 
HETATM    2  C   UNL     1     -11.327  11.983  64.286  1.00  0.00    -0.364 C  
HETATM    3  H   UNL     1     -11.464  13.116  65.894  1.00  0.00     0.000 HD 
ENDROOT
BRANCH   2   4
HETATM    4  C   UNL     1     -10.392  10.908  63.735  1.00  0.00    -0.317 C  
HETATM    5  O   UNL     1      -9.614  11.461  62.669  1.00  0.00    -0.544 OA 
HETATM    6  H   UNL     1      -9.032  10.792  62.326  1.00  0.00     0.000 HD 
BRANCH   4   7
HETATM    7  C   UNL     1      -9.480  10.325  64.823  1.00  0.00    -0.283 C  
HETATM    8  O   UNL     1     -10.212   9.465  65.700  1.00  0.00    -0.331 OA 
HETATM    9  H   UNL     1      -9.647   9.104  66.374  1.00  0.00     0.000 HD 
ENDBRANCH   4   7
ENDBRANCH   2   4
TORSDOF 2
ENDMDL
MODEL      102
REMARK 921   NORMALIZED FREE ENERGY PREDICTED BY IDOCK:   -2.07 KCAL/MOL
REMARK 922        TOTAL FREE ENERGY PREDICTED BY IDOCK:   -2.31 KCAL/MOL
REMARK 923 INTER-LIGAND FREE ENERGY PREDICTED BY IDOCK:   -2.31 KCAL/MOL
REMARK 924 INTRA-LIGAND FREE ENERGY PREDICTED BY IDOCK:   -0.01 KCAL/MOL
REMARK 927      BINDING AFFINITY PREDICTED BY RF-SCORE:    0.00 PKD
ROOT
HETATM    1  O   UNL     1     -14.309  15.153  71.740  1.00  0.00    -0.499 OA 
HETATM    2  C   UNL     1     -13.382  14.272  72.357  1.00  0.00    -0.474 C  
HETATM    3  H   UNL     1     -14.992  14.668  71.290  1.00  0.00     0.000 HD 
ENDROOT
BRANCH   2   4
HETATM    4  C   UNL     1     -12.284  15.051  73.081  1.00  0.00    -0.364 C  
HETATM    5  O   UNL     1     -11.246  15.377  72.151  1.00  0.00    -0.404 OA 
HETATM    6  H   UNL     1     -10.563  15.862  72.601  1.00  0.00     0.000 HD 
BRANCH   4   7
HETATM    7  C   UNL     1     -12.825  16.319  73.754  1.00  0.00    -0.456 C  
HETATM    8  O   UNL     1     -11.759  17.125  74.263  1.00  0.00    -0.110 OA 
HETATM    9  H   UNL     1     -12.094  17.910  74.680  1.00  0.00     0.000 HD 
ENDBRANCH   4   7
ENDBRANCH   2   4
TORSDOF 2
ENDMDL
MODEL      103
REMARK 921   NORMALIZED FREE ENERGY PREDICTED BY IDOCK:   -2.06 KCAL/MOL
REMARK 922        TOTAL FREE ENERGY PREDICTED BY IDOCK:   -2.31 KCAL/MOL
REMARK 923 INTER-LIGAND FREE ENERGY PREDICTED BY IDOCK:   -2.30 KCAL/MOL
REMARK 924 INTRA-LIGAND FREE ENERGY PREDICTED BY IDOCK:   -0.01 KCAL/MOL
REMARK 927      BINDING AFFINITY PREDICTED BY RF-SCORE:    0.00 PKD
ROOT
HETATM    1  O   UNL     1     -10.347   9.297  69.808  1.00  0.00    -0.198 OA 
HETATM    2  C   UNL     1     -11.345  10.058  70.473  1.00  0.00    -0.335 C  
HETATM    3  H   UNL     1     -10.045   8.580  70.355  1.00  0.00     0.000 HD 
ENDROOT
BRANCH   2   4
HETATM    4  C   UNL     1     -11.831  11.210  69.595  1.00  0.00    -0.348 C  
HETATM    5  O   UNL     1     -11.431  12.452  70.183  1.00  0.00    -0.519 OA 
HETATM    6  H   UNL     1     -11.734  13.169  69.637  1.00  0.00     0.000 HD 
BRANCH   4   7
HETATM    7  C   UNL     1     -11.308  11.099  68.157  1.00  0.00    -0.309 C  
HETATM    8  O   UNL     1     -12.014  11.985  67.284  1.00  0.00    -0.591 OA 
HETATM    9  H   UNL     1     -11.690  11.917  66.394  1.00  0.00     0.000 HD 
ENDBRANCH   4   7
ENDBRANCH   2   4
TORSDOF 2
ENDMDL
MODEL      104
REMARK 921   NORMALIZED FREE ENERGY PREDICTED BY IDOCK:   -2.06 KCAL/MOL
REMARK 922        TOTAL FREE ENERGY PREDICTED BY IDOCK:   -2.30 KCAL/MOL
REMARK 923 INTER-LIGAND FREE ENERGY PREDICTED BY IDOCK:   -2.30 KCAL/MOL
REMARK 924 INTRA-LIGAND FREE ENERGY PREDICTED BY IDOCK:   -0.00 KCAL/MOL
REMARK 927      BINDING AFFINITY PREDICTED BY RF-SCORE:    0.00 PKD
ROOT
HETATM    1  O   UNL     1     -10.892  10.010  67.454  1.00  0.00    -0.282 OA 
HETATM    2  C   UNL     1     -10.281  10.601  66.317  1.00  0.00    -0.245 C  
HETATM    3  H   UNL     1     -10.468   9.190  67.682  1.00  0.00     0.000 HD 
ENDROOT
BRANCH   2   4
HETATM    4  C   UNL     1     -10.963  11.918  65.951  1.00  0.00    -0.307 C  
HETATM    5  O   UNL     1     -12.155  12.065  66.730  1.00  0.00    -0.613 OA 
HETATM    6  H   UNL     1     -12.579  12.885  66.502  1.00  0.00     0.000 HD 
BRANCH   4   7
HETATM    7  C   UNL     1     -10.034  13.123  66.153  1.00  0.00    -0.291 C  
HETATM    8  O   UNL     1     -10.029  13.966  64.998  1.00  0.00    -0.563 OA 
HETATM    9  H   UNL     1      -9.454  14.713  65.123  1.00  0.00     0.000 HD 
ENDBRANCH   4   7
ENDBRANCH   2   4
TORSDOF 2
ENDMDL
MODEL      105
REMARK 921   NORMALIZED FREE ENERGY PREDICTED BY IDOCK:   -2.06 KCAL/MOL
REMARK 922        TOTAL FREE ENERGY PREDICTED BY IDOCK:   -2.30 KCAL/MOL
REMARK 923 INTER-LIGAND FREE ENERGY PREDICTED BY IDOCK:   -2.30 KCAL/MOL
REMARK 924 INTRA-LIGAND FREE ENERGY PREDICTED BY IDOCK:   -0.00 KCAL/MOL
REMARK 927      BINDING AFFINITY PREDICTED BY RF-SCORE:    0.00 PKD
ROOT
HETATM    1  O   UNL     1     -11.457  16.472  70.633  1.00  0.00    -0.541 OA 
HETATM    2  C   UNL     1     -10.682  15.562  69.868  1.00  0.00    -0.311 C  
HETATM    3  H   UNL     1     -10.997  17.295  70.753  1.00  0.00     0.000 HD 
ENDROOT
BRANCH   2   4
HETATM    4  C   UNL     1     -11.421  14.239  69.674  1.00  0.00    -0.282 C  
HETATM    5  O   UNL     1     -12.782  14.506  69.322  1.00  0.00    -0.545 OA 
HETATM    6  H   UNL     1     -13.242  13.683  69.202  1.00  0.00     0.000 HD 
BRANCH   4   7
HETATM    7  C   UNL     1     -10.752  13.355  68.613  1.00  0.00    -0.255 C  
HETATM    8  O   UNL     1      -9.400  13.057  68.971  1.00  0.00    -0.363 OA 
HETATM    9  H   UNL     1      -8.986  12.509  68.314  1.00  0.00     0.000 HD 
ENDBRANCH   4   7
ENDBRANCH   2   4
TORSDOF 2
ENDMDL
MODEL      106
REMARK 921   NORMALIZED FREE ENERGY PREDICTED BY IDOCK:   -2.04 KCAL/MOL
REMARK 922        TOTAL FREE ENERGY PREDICTED BY IDOCK:   -2.28 KCAL/MOL
REMARK 923 INTER-LIGAND FREE ENERGY PREDICTED BY IDOCK:   -2.27 KCAL/MOL
REMARK 924 INTRA-LIGAND FREE ENERGY PREDICTED BY IDOCK:   -0.02 KCAL/MOL
REMARK 927      BINDING AFFINITY PREDICTED BY RF-SCORE:    0.00 PKD
ROOT
HETATM    1  O   UNL     1     -11.758   7.599  73.246  1.00  0.00    -0.649 OA 
HETATM    2  C   UNL     1     -11.181   7.612  71.950  1.00  0.00    -0.257 C  
HETATM    3  H   UNL     1     -11.520   8.380  73.733  1.00  0.00     0.000 HD 
ENDROOT
BRANCH   2   4
HETATM    4  C   UNL     1     -11.562   6.357  71.167  1.00  0.00    -0.318 C  
HETATM    5  O   UNL     1     -12.316   6.733  70.010  1.00  0.00    -0.605 OA 
HETATM    6  H   UNL     1     -12.553   5.952  69.523  1.00  0.00     0.000 HD 
BRANCH   4   7
HETATM    7  C   UNL     1     -10.332   5.532  70.766  1.00  0.00    -0.251 C  
HETATM    8  O   UNL     1     -10.085   4.487  71.710  1.00  0.00    -0.187 OA 
HETATM    9  H   UNL     1      -9.323   3.976  71.462  1.00  0.00     0.000 HD 
ENDBRANCH   4   7
ENDBRANCH   2   4
TORSDOF 2
ENDMDL
MODEL      107
REMARK 921   NORMALIZED FREE ENERGY PREDICTED BY IDOCK:   -2.04 KCAL/MOL
REMARK 922        TOTAL FREE ENERGY PREDICTED BY IDOCK:   -2.28 KCAL/MOL
REMARK 923 INTER-LIGAND FREE ENERGY PREDICTED BY IDOCK:   -2.25 KCAL/MOL
REMARK 924 INTRA-LIGAND FREE ENERGY PREDICTED BY IDOCK:   -0.03 KCAL/MOL
REMARK 927      BINDING AFFINITY PREDICTED BY RF-SCORE:    0.00 PKD
ROOT
HETATM    1  O   UNL     1     -12.012  11.819  67.159  1.00  0.00    -0.617 OA 
HETATM    2  C   UNL     1     -11.773  12.590  68.326  1.00  0.00    -0.340 C  
HETATM    3  H   UNL     1     -12.815  11.316  67.241  1.00  0.00     0.000 HD 
ENDROOT
BRANCH   2   4
HETATM    4  C   UNL     1     -10.483  13.398  68.195  1.00  0.00    -0.245 C  
HETATM    5  O   UNL     1     -10.184  14.018  69.449  1.00  0.00    -0.431 OA 
HETATM    6  H   UNL     1      -9.382  14.521  69.367  1.00  0.00     0.000 HD 
BRANCH   4   7
HETATM    7  C   UNL     1      -9.306  12.532  67.726  1.00  0.00    -0.198 C  
HETATM    8  O   UNL     1      -8.737  13.048  66.519  1.00  0.00    -0.418 OA 
HETATM    9  H   UNL     1      -8.008  12.512  66.229  1.00  0.00     0.000 HD 
ENDBRANCH   4   7
ENDBRANCH   2   4
TORSDOF 2
ENDMDL
MODEL      108
REMARK 921   NORMALIZED FREE ENERGY PREDICTED BY IDOCK:   -2.03 KCAL/MOL
REMARK 922        TOTAL FREE ENERGY PREDICTED BY IDOCK:   -2.27 KCAL/MOL
REMARK 923 INTER-LIGAND FREE ENERGY PREDICTED BY IDOCK:   -2.05 KCAL/MOL
REMARK 924 INTRA-LIGAND FREE ENERGY PREDICTED BY IDOCK:   -0.22 KCAL/MOL
REMARK 927      BINDING AFFINITY PREDICTED BY RF-SCORE:    0.00 PKD
ROOT
HETATM    1  O   UNL     1      -9.002  10.925  66.148  1.00  0.00    -0.170 OA 
HETATM    2  C   UNL     1     -10.257  10.318  66.419  1.00  0.00    -0.225 C  
HETATM    3  H   UNL     1      -8.419  10.319  65.705  1.00  0.00     0.000 HD 
ENDROOT
BRANCH   2   4
HETATM    4  C   UNL     1     -11.194  11.291  67.132  1.00  0.00    -0.275 C  
HETATM    5  O   UNL     1     -11.932  10.586  68.135  1.00  0.00    -0.788 OA 
HETATM    6  H   UNL     1     -12.516  11.191  68.578  1.00  0.00     0.000 HD 
BRANCH   4   7
HETATM    7  C   UNL     1     -10.436  12.473  67.750  1.00  0.00    -0.220 C  
HETATM    8  O   UNL     1      -9.496  12.024  68.730  1.00  0.00    -0.375 OA 
HETATM    9  H   UNL     1      -9.026  12.756  69.113  1.00  0.00     0.000 HD 
ENDBRANCH   4   7
ENDBRANCH   2   4
TORSDOF 2
ENDMDL
MODEL      109
REMARK 921   NORMALIZED FREE ENERGY PREDICTED BY IDOCK:   -2.01 KCAL/MOL
REMARK 922        TOTAL FREE ENERGY PREDICTED BY IDOCK:   -2.25 KCAL/MOL
REMARK 923 INTER-LIGAND FREE ENERGY PREDICTED BY IDOCK:   -2.22 KCAL/MOL
REMARK 924 INTRA-LIGAND FREE ENERGY PREDICTED BY IDOCK:   -0.02 KCAL/MOL
REMARK 927      BINDING AFFINITY PREDICTED BY RF-SCORE:    0.00 PKD
ROOT
HETATM    1  O   UNL     1     -11.298   6.774  67.156  1.00  0.00    -0.708 OA 
HETATM    2  C   UNL     1     -10.639   8.031  67.173  1.00  0.00    -0.297 C  
HETATM    3  H   UNL     1     -11.510   6.512  66.267  1.00  0.00     0.000 HD 
ENDROOT
BRANCH   2   4
HETATM    4  C   UNL     1     -10.298   8.452  68.601  1.00  0.00    -0.197 C  
HETATM    5  O   UNL     1      -8.927   8.140  68.871  1.00  0.00    -0.140 OA 
HETATM    6  H   UNL     1      -8.715   8.402  69.759  1.00  0.00     0.000 HD 
BRANCH   4   7
HETATM    7  C   UNL     1     -10.571   9.942  68.844  1.00  0.00    -0.218 C  
HETATM    8  O   UNL     1     -11.615  10.418  67.991  1.00  0.00    -0.663 OA 
HETATM    9  H   UNL     1     -11.784  11.341  68.142  1.00  0.00     0.000 HD 
ENDBRANCH   4   7
ENDBRANCH   2   4
TORSDOF 2
ENDMDL
MODEL      110
REMARK 921   NORMALIZED FREE ENERGY PREDICTED BY IDOCK:   -2.01 KCAL/MOL
REMARK 922        TOTAL FREE ENERGY PREDICTED BY IDOCK:   -2.24 KCAL/MOL
REMARK 923 INTER-LIGAND FREE ENERGY PREDICTED BY IDOCK:   -2.02 KCAL/MOL
REMARK 924 INTRA-LIGAND FREE ENERGY PREDICTED BY IDOCK:   -0.22 KCAL/MOL
REMARK 927      BINDING AFFINITY PREDICTED BY RF-SCORE:    0.00 PKD
ROOT
HETATM    1  O   UNL     1      -9.623  14.355  65.397  1.00  0.00    -0.538 OA 
HETATM    2  C   UNL     1     -10.909  14.952  65.454  1.00  0.00    -0.369 C  
HETATM    3  H   UNL     1      -9.407  14.094  64.509  1.00  0.00     0.000 HD 
ENDROOT
BRANCH   2   4
HETATM    4  C   UNL     1     -11.256  15.372  66.882  1.00  0.00    -0.214 C  
HETATM    5  O   UNL     1     -10.958  14.296  67.776  1.00  0.00    -0.256 OA 
HETATM    6  H   UNL     1     -11.173  14.557  68.664  1.00  0.00     0.000 HD 
BRANCH   4   7
HETATM    7  C   UNL     1     -10.512  16.647  67.304  1.00  0.00    -0.313 C  
HETATM    8  O   UNL     1      -9.793  17.210  66.203  1.00  0.00    -0.332 OA 
HETATM    9  H   UNL     1      -9.333  17.999  66.465  1.00  0.00     0.000 HD 
ENDBRANCH   4   7
ENDBRANCH   2   4
TORSDOF 2
ENDMDL
MODEL      111
REMARK 921   NORMALIZED FREE ENERGY PREDICTED BY IDOCK:   -2.00 KCAL/MOL
REMARK 922        TOTAL FREE ENERGY PREDICTED BY IDOCK:   -2.24 KCAL/MOL
REMARK 923 INTER-LIGAND FREE ENERGY PREDICTED BY IDOCK:   -2.24 KCAL/MOL
REMARK 924 INTRA-LIGAND FREE ENERGY PREDICTED BY IDOCK:   -0.00 KCAL/MOL
REMARK 927      BINDING AFFINITY PREDICTED BY RF-SCORE:    0.00 PKD
ROOT
HETATM    1  O   UNL     1     -10.385   9.189  69.798  1.00  0.00    -0.199 OA 
HETATM    2  C   UNL     1     -11.170  10.060  70.598  1.00  0.00    -0.350 C  
HETATM    3  H   UNL     1     -10.080   8.444  70.304  1.00  0.00     0.000 HD 
ENDROOT
BRANCH   2   4
HETATM    4  C   UNL     1     -11.661  11.257  69.786  1.00  0.00    -0.349 C  
HETATM    5  O   UNL     1     -12.629  10.813  68.829  1.00  0.00    -0.732 OA 
HETATM    6  H   UNL     1     -12.934  11.558  68.324  1.00  0.00     0.000 HD 
BRANCH   4   7
HETATM    7  C   UNL     1     -12.250  12.357  70.679  1.00  0.00    -0.278 C  
HETATM    8  O   UNL     1     -12.213  13.627  70.022  1.00  0.00    -0.330 OA 
HETATM    9  H   UNL     1     -12.578  14.308  70.575  1.00  0.00     0.000 HD 
ENDBRANCH   4   7
ENDBRANCH   2   4
TORSDOF 2
ENDMDL
MODEL      112
REMARK 921   NORMALIZED FREE ENERGY PREDICTED BY IDOCK:   -2.00 KCAL/MOL
REMARK 922        TOTAL FREE ENERGY PREDICTED BY IDOCK:   -2.23 KCAL/MOL
REMARK 923 INTER-LIGAND FREE ENERGY PREDICTED BY IDOCK:   -2.01 KCAL/MOL
REMARK 924 INTRA-LIGAND FREE ENERGY PREDICTED BY IDOCK:   -0.22 KCAL/MOL
REMARK 927      BINDING AFFINITY PREDICTED BY RF-SCORE:    0.00 PKD
ROOT
HETATM    1  O   UNL     1     -11.449  16.299  68.579  1.00  0.00    -0.371 OA 
HETATM    2  C   UNL     1     -10.599  15.255  69.029  1.00  0.00    -0.245 C  
HETATM    3  H   UNL     1     -11.467  17.017  69.202  1.00  0.00     0.000 HD 
ENDROOT
BRANCH   2   4
HETATM    4  C   UNL     1     -10.571  14.102  68.028  1.00  0.00    -0.239 C  
HETATM    5  O   UNL     1     -11.233  12.967  68.596  1.00  0.00    -0.248 OA 
HETATM    6  H   UNL     1     -11.215  12.249  67.973  1.00  0.00     0.000 HD 
BRANCH   4   7
HETATM    7  C   UNL     1     -11.211  14.485  66.687  1.00  0.00    -0.346 C  
HETATM    8  O   UNL     1     -12.631  14.320  66.730  1.00  0.00    -0.563 OA 
HETATM    9  H   UNL     1     -13.027  14.558  65.900  1.00  0.00     0.000 HD 
ENDBRANCH   4   7
ENDBRANCH   2   4
TORSDOF 2
ENDMDL
MODEL      113
REMARK 921   NORMALIZED FREE ENERGY PREDICTED BY IDOCK:   -1.99 KCAL/MOL
REMARK 922        TOTAL FREE ENERGY PREDICTED BY IDOCK:   -2.22 KCAL/MOL
REMARK 923 INTER-LIGAND FREE ENERGY PREDICTED BY IDOCK:   -2.21 KCAL/MOL
REMARK 924 INTRA-LIGAND FREE ENERGY PREDICTED BY IDOCK:   -0.01 KCAL/MOL
REMARK 927      BINDING AFFINITY PREDICTED BY RF-SCORE:    0.00 PKD
ROOT
HETATM    1  O   UNL     1     -10.005   8.627  71.978  1.00  0.00    -0.283 OA 
HETATM    2  C   UNL     1     -10.870   8.388  70.879  1.00  0.00    -0.231 C  
HETATM    3  H   UNL     1      -9.626   9.497  71.932  1.00  0.00     0.000 HD 
ENDROOT
BRANCH   2   4
HETATM    4  C   UNL     1     -11.480   6.990  70.953  1.00  0.00    -0.308 C  
HETATM    5  O   UNL     1     -12.905   7.100  71.037  1.00  0.00    -0.527 OA 
HETATM    6  H   UNL     1     -13.284   6.230  71.084  1.00  0.00     0.000 HD 
BRANCH   4   7
HETATM    7  C   UNL     1     -11.075   6.120  69.756  1.00  0.00    -0.416 C  
HETATM    8  O   UNL     1     -11.074   6.881  68.545  1.00  0.00    -0.449 OA 
HETATM    9  H   UNL     1     -10.823   6.342  67.804  1.00  0.00     0.000 HD 
ENDBRANCH   4   7
ENDBRANCH   2   4
TORSDOF 2
ENDMDL
MODEL      114
REMARK 921   NORMALIZED FREE ENERGY PREDICTED BY IDOCK:   -1.99 KCAL/MOL
REMARK 922        TOTAL FREE ENERGY PREDICTED BY IDOCK:   -2.22 KCAL/MOL
REMARK 923 INTER-LIGAND FREE ENERGY PREDICTED BY IDOCK:   -2.01 KCAL/MOL
REMARK 924 INTRA-LIGAND FREE ENERGY PREDICTED BY IDOCK:   -0.21 KCAL/MOL
REMARK 927      BINDING AFFINITY PREDICTED BY RF-SCORE:    0.00 PKD
ROOT
HETATM    1  O   UNL     1      -8.872  10.941  67.880  1.00  0.00    -0.130 OA 
HETATM    2  C   UNL     1      -9.990  10.295  68.470  1.00  0.00    -0.164 C  
HETATM    3  H   UNL     1      -8.071  10.732  68.347  1.00  0.00     0.000 HD 
ENDROOT
BRANCH   2   4
HETATM    4  C   UNL     1     -11.277  10.631  67.719  1.00  0.00    -0.313 C  
HETATM    5  O   UNL     1     -12.336  10.828  68.662  1.00  0.00    -0.825 OA 
HETATM    6  H   UNL     1     -13.137  11.037  68.195  1.00  0.00     0.000 HD 
BRANCH   4   7
HETATM    7  C   UNL     1     -11.116  11.866  66.822  1.00  0.00    -0.308 C  
HETATM    8  O   UNL     1     -10.723  11.492  65.499  1.00  0.00    -0.273 OA 
HETATM    9  H   UNL     1     -10.623  12.256  64.944  1.00  0.00     0.000 HD 
ENDBRANCH   4   7
ENDBRANCH   2   4
TORSDOF 2
ENDMDL
MODEL      115
REMARK 921   NORMALIZED FREE ENERGY PREDICTED BY IDOCK:   -1.99 KCAL/MOL
REMARK 922        TOTAL FREE ENERGY PREDICTED BY IDOCK:   -2.22 KCAL/MOL
REMARK 923 INTER-LIGAND FREE ENERGY PREDICTED BY IDOCK:   -2.01 KCAL/MOL
REMARK 924 INTRA-LIGAND FREE ENERGY PREDICTED BY IDOCK:   -0.21 KCAL/MOL
REMARK 927      BINDING AFFINITY PREDICTED BY RF-SCORE:    0.00 PKD
ROOT
HETATM    1  O   UNL     1     -11.255   6.021  71.802  1.00  0.00    -0.268 OA 
HETATM    2  C   UNL     1     -12.021   6.790  70.888  1.00  0.00    -0.383 C  
HETATM    3  H   UNL     1     -11.552   5.118  71.822  1.00  0.00     0.000 HD 
ENDROOT
BRANCH   2   4
HETATM    4  C   UNL     1     -11.543   8.240  70.854  1.00  0.00    -0.262 C  
HETATM    5  O   UNL     1     -12.635   9.088  70.483  1.00  0.00    -0.469 OA 
HETATM    6  H   UNL     1     -12.337   9.991  70.462  1.00  0.00     0.000 HD 
BRANCH   4   7
HETATM    7  C   UNL     1     -10.950   8.682  72.199  1.00  0.00    -0.364 C  
HETATM    8  O   UNL     1      -9.532   8.492  72.221  1.00  0.00    -0.262 OA 
HETATM    9  H   UNL     1      -9.165   8.766  73.053  1.00  0.00     0.000 HD 
ENDBRANCH   4   7
ENDBRANCH   2   4
TORSDOF 2
ENDMDL
MODEL      116
REMARK 921   NORMALIZED FREE ENERGY PREDICTED BY IDOCK:   -1.99 KCAL/MOL
REMARK 922        TOTAL FREE ENERGY PREDICTED BY IDOCK:   -2.22 KCAL/MOL
REMARK 923 INTER-LIGAND FREE ENERGY PREDICTED BY IDOCK:   -2.22 KCAL/MOL
REMARK 924 INTRA-LIGAND FREE ENERGY PREDICTED BY IDOCK:   -0.00 KCAL/MOL
REMARK 927      BINDING AFFINITY PREDICTED BY RF-SCORE:    0.00 PKD
ROOT
HETATM    1  O   UNL     1      -9.759   5.314  70.759  1.00  0.00    -0.166 OA 
HETATM    2  C   UNL     1     -10.086   6.094  71.898  1.00  0.00    -0.189 C  
HETATM    3  H   UNL     1      -8.866   4.994  70.810  1.00  0.00     0.000 HD 
ENDROOT
BRANCH   2   4
HETATM    4  C   UNL     1     -11.522   6.609  71.817  1.00  0.00    -0.291 C  
HETATM    5  O   UNL     1     -12.350   5.840  72.695  1.00  0.00    -0.519 OA 
HETATM    6  H   UNL     1     -13.243   6.160  72.644  1.00  0.00     0.000 HD 
BRANCH   4   7
HETATM    7  C   UNL     1     -11.619   8.103  72.154  1.00  0.00    -0.357 C  
HETATM    8  O   UNL     1     -12.717   8.361  73.033  1.00  0.00    -0.697 OA 
HETATM    9  H   UNL     1     -12.777   9.286  73.242  1.00  0.00     0.000 HD 
ENDBRANCH   4   7
ENDBRANCH   2   4
TORSDOF 2
ENDMDL
MODEL      117
REMARK 921   NORMALIZED FREE ENERGY PREDICTED BY IDOCK:   -1.99 KCAL/MOL
REMARK 922        TOTAL FREE ENERGY PREDICTED BY IDOCK:   -2.22 KCAL/MOL
REMARK 923 INTER-LIGAND FREE ENERGY PREDICTED BY IDOCK:   -2.01 KCAL/MOL
REMARK 924 INTRA-LIGAND FREE ENERGY PREDICTED BY IDOCK:   -0.21 KCAL/MOL
REMARK 927      BINDING AFFINITY PREDICTED BY RF-SCORE:    0.00 PKD
ROOT
HETATM    1  O   UNL     1      -9.889   4.601  67.464  1.00  0.00    -0.171 OA 
HETATM    2  C   UNL     1      -9.350   3.357  67.041  1.00  0.00    -0.184 C  
HETATM    3  H   UNL     1      -9.910   4.659  68.412  1.00  0.00     0.000 HD 
ENDROOT
BRANCH   2   4
HETATM    4  C   UNL     1      -9.316   3.263  65.517  1.00  0.00    -0.134 C  
HETATM    5  O   UNL     1      -9.884   2.014  65.108  1.00  0.00    -0.337 OA 
HETATM    6  H   UNL     1      -9.862   1.956  64.160  1.00  0.00     0.000 HD 
BRANCH   4   7
HETATM    7  C   UNL     1     -10.051   4.434  64.851  1.00  0.00    -0.118 C  
HETATM    8  O   UNL     1     -11.447   4.405  65.157  1.00  0.00    -1.069 OA 
HETATM    9  H   UNL     1     -11.902   5.130  64.744  1.00  0.00     0.000 HD 
ENDBRANCH   4   7
ENDBRANCH   2   4
TORSDOF 2
ENDMDL
MODEL      118
REMARK 921   NORMALIZED FREE ENERGY PREDICTED BY IDOCK:   -1.98 KCAL/MOL
REMARK 922        TOTAL FREE ENERGY PREDICTED BY IDOCK:   -2.22 KCAL/MOL
REMARK 923 INTER-LIGAND FREE ENERGY PREDICTED BY IDOCK:   -2.01 KCAL/MOL
REMARK 924 INTRA-LIGAND FREE ENERGY PREDICTED BY IDOCK:   -0.20 KCAL/MOL
REMARK 927      BINDING AFFINITY PREDICTED BY RF-SCORE:    0.00 PKD
ROOT
HETATM    1  O   UNL     1     -11.397  14.667  67.280  1.00  0.00    -0.327 OA 
HETATM    2  C   UNL     1     -11.867  14.364  68.585  1.00  0.00    -0.331 C  
HETATM    3  H   UNL     1     -11.694  14.018  66.652  1.00  0.00     0.000 HD 
ENDROOT
BRANCH   2   4
HETATM    4  C   UNL     1     -11.390  15.407  69.595  1.00  0.00    -0.307 C  
HETATM    5  O   UNL     1     -11.231  14.787  70.875  1.00  0.00    -0.482 OA 
HETATM    6  H   UNL     1     -10.934  15.436  71.503  1.00  0.00     0.000 HD 
BRANCH   4   7
HETATM    7  C   UNL     1     -10.084  16.081  69.154  1.00  0.00    -0.242 C  
HETATM    8  O   UNL     1     -10.344  17.317  68.485  1.00  0.00    -0.326 OA 
HETATM    9  H   UNL     1      -9.535  17.735  68.212  1.00  0.00     0.000 HD 
ENDBRANCH   4   7
ENDBRANCH   2   4
TORSDOF 2
ENDMDL
MODEL      119
REMARK 921   NORMALIZED FREE ENERGY PREDICTED BY IDOCK:   -1.98 KCAL/MOL
REMARK 922        TOTAL FREE ENERGY PREDICTED BY IDOCK:   -2.21 KCAL/MOL
REMARK 923 INTER-LIGAND FREE ENERGY PREDICTED BY IDOCK:   -1.99 KCAL/MOL
REMARK 924 INTRA-LIGAND FREE ENERGY PREDICTED BY IDOCK:   -0.22 KCAL/MOL
REMARK 927      BINDING AFFINITY PREDICTED BY RF-SCORE:    0.00 PKD
ROOT
HETATM    1  O   UNL     1     -10.797  15.364  68.107  1.00  0.00    -0.265 OA 
HETATM    2  C   UNL     1     -11.040  16.567  68.821  1.00  0.00    -0.309 C  
HETATM    3  H   UNL     1     -11.350  14.660  68.427  1.00  0.00     0.000 HD 
ENDROOT
BRANCH   2   4
HETATM    4  C   UNL     1     -10.151  17.698  68.308  1.00  0.00    -0.362 C  
HETATM    5  O   UNL     1      -8.801  17.232  68.215  1.00  0.00    -0.242 OA 
HETATM    6  H   UNL     1      -8.248  17.936  67.895  1.00  0.00     0.000 HD 
BRANCH   4   7
HETATM    7  C   UNL     1     -10.631  18.240  66.955  1.00  0.00    -0.349 C  
HETATM    8  O   UNL     1     -10.410  17.286  65.913  1.00  0.00    -0.461 OA 
HETATM    9  H   UNL     1     -10.707  17.622  65.075  1.00  0.00     0.000 HD 
ENDBRANCH   4   7
ENDBRANCH   2   4
TORSDOF 2
ENDMDL
MODEL      120
REMARK 921   NORMALIZED FREE ENERGY PREDICTED BY IDOCK:   -1.98 KCAL/MOL
REMARK 922        TOTAL FREE ENERGY PREDICTED BY IDOCK:   -2.21 KCAL/MOL
REMARK 923 INTER-LIGAND FREE ENERGY PREDICTED BY IDOCK:   -2.21 KCAL/MOL
REMARK 924 INTRA-LIGAND FREE ENERGY PREDICTED BY IDOCK:   -0.00 KCAL/MOL
REMARK 927      BINDING AFFINITY PREDICTED BY RF-SCORE:    0.00 PKD
ROOT
HETATM    1  O   UNL     1     -13.667  15.765  70.831  1.00  0.00    -0.744 OA 
HETATM    2  C   UNL     1     -12.932  14.647  70.355  1.00  0.00    -0.200 C  
HETATM    3  H   UNL     1     -14.408  15.487  71.357  1.00  0.00     0.000 HD 
ENDROOT
BRANCH   2   4
HETATM    4  C   UNL     1     -11.742  15.094  69.508  1.00  0.00    -0.327 C  
HETATM    5  O   UNL     1     -11.013  16.104  70.214  1.00  0.00    -0.344 OA 
HETATM    6  H   UNL     1     -10.272  16.382  69.688  1.00  0.00     0.000 HD 
BRANCH   4   7
HETATM    7  C   UNL     1     -10.823  13.921  69.142  1.00  0.00    -0.189 C  
HETATM    8  O   UNL     1      -9.447  14.280  69.292  1.00  0.00    -0.402 OA 
HETATM    9  H   UNL     1      -8.878  13.554  69.065  1.00  0.00     0.000 HD 
ENDBRANCH   4   7
ENDBRANCH   2   4
TORSDOF 2
ENDMDL
MODEL      121
REMARK 921   NORMALIZED FREE ENERGY PREDICTED BY IDOCK:   -1.93 KCAL/MOL
REMARK 922        TOTAL FREE ENERGY PREDICTED BY IDOCK:   -2.16 KCAL/MOL
REMARK 923 INTER-LIGAND FREE ENERGY PREDICTED BY IDOCK:   -2.13 KCAL/MOL
REMARK 924 INTRA-LIGAND FREE ENERGY PREDICTED BY IDOCK:   -0.03 KCAL/MOL
REMARK 927      BINDING AFFINITY PREDICTED BY RF-SCORE:    0.00 PKD
ROOT
HETATM    1  O   UNL     1      -9.588  14.995  69.662  1.00  0.00    -0.410 OA 
HETATM    2  C   UNL     1     -10.836  15.669  69.595  1.00  0.00    -0.287 C  
HETATM    3  H   UNL     1      -9.420  14.674  70.541  1.00  0.00     0.000 HD 
ENDROOT
BRANCH   2   4
HETATM    4  C   UNL     1     -11.106  16.184  68.183  1.00  0.00    -0.332 C  
HETATM    5  O   UNL     1      -9.946  16.869  67.700  1.00  0.00    -0.257 OA 
HETATM    6  H   UNL     1     -10.115  17.190  66.821  1.00  0.00     0.000 HD 
BRANCH   4   7
HETATM    7  C   UNL     1     -11.505  15.054  67.224  1.00  0.00    -0.304 C  
HETATM    8  O   UNL     1     -12.459  14.179  67.830  1.00  0.00    -0.535 OA 
HETATM    9  H   UNL     1     -12.706  13.479  67.236  1.00  0.00     0.000 HD 
ENDBRANCH   4   7
ENDBRANCH   2   4
TORSDOF 2
ENDMDL
MODEL      122
REMARK 921   NORMALIZED FREE ENERGY PREDICTED BY IDOCK:   -1.92 KCAL/MOL
REMARK 922        TOTAL FREE ENERGY PREDICTED BY IDOCK:   -2.15 KCAL/MOL
REMARK 923 INTER-LIGAND FREE ENERGY PREDICTED BY IDOCK:   -1.95 KCAL/MOL
REMARK 924 INTRA-LIGAND FREE ENERGY PREDICTED BY IDOCK:   -0.21 KCAL/MOL
REMARK 927      BINDING AFFINITY PREDICTED BY RF-SCORE:    0.00 PKD
ROOT
HETATM    1  O   UNL     1      -9.296   7.954  65.423  1.00  0.00    -0.381 OA 
HETATM    2  C   UNL     1     -10.034   8.608  66.444  1.00  0.00    -0.260 C  
HETATM    3  H   UNL     1      -8.927   8.582  64.813  1.00  0.00     0.000 HD 
ENDROOT
BRANCH   2   4
HETATM    4  C   UNL     1     -10.628   7.598  67.424  1.00  0.00    -0.286 C  
HETATM    5  O   UNL     1     -11.465   6.683  66.710  1.00  0.00    -0.776 OA 
HETATM    6  H   UNL     1     -11.834   6.054  67.320  1.00  0.00     0.000 HD 
BRANCH   4   7
HETATM    7  C   UNL     1      -9.542   6.843  68.202  1.00  0.00    -0.124 C  
HETATM    8  O   UNL     1      -8.247   7.389  67.938  1.00  0.00    -0.118 OA 
HETATM    9  H   UNL     1      -7.575   6.921  68.419  1.00  0.00     0.000 HD 
ENDBRANCH   4   7
ENDBRANCH   2   4
TORSDOF 2
ENDMDL
MODEL      123
REMARK 921   NORMALIZED FREE ENERGY PREDICTED BY IDOCK:   -1.91 KCAL/MOL
REMARK 922        TOTAL FREE ENERGY PREDICTED BY IDOCK:   -2.14 KCAL/MOL
REMARK 923 INTER-LIGAND FREE ENERGY PREDICTED BY IDOCK:   -1.92 KCAL/MOL
REMARK 924 INTRA-LIGAND FREE ENERGY PREDICTED BY IDOCK:   -0.22 KCAL/MOL
REMARK 927      BINDING AFFINITY PREDICTED BY RF-SCORE:    0.00 PKD
ROOT
HETATM    1  O   UNL     1      -9.113  15.392  66.174  1.00  0.00    -0.306 OA 
HETATM    2  C   UNL     1     -10.158  14.678  66.815  1.00  0.00    -0.265 C  
HETATM    3  H   UNL     1      -8.656  14.840  65.549  1.00  0.00     0.000 HD 
ENDROOT
BRANCH   2   4
HETATM    4  C   UNL     1     -10.892  15.564  67.820  1.00  0.00    -0.309 C  
HETATM    5  O   UNL     1     -12.163  14.980  68.125  1.00  0.00    -0.557 OA 
HETATM    6  H   UNL     1     -12.620  15.531  68.750  1.00  0.00     0.000 HD 
BRANCH   4   7
HETATM    7  C   UNL     1     -10.076  15.780  69.102  1.00  0.00    -0.238 C  
HETATM    8  O   UNL     1      -8.902  16.552  68.838  1.00  0.00    -0.241 OA 
HETATM    9  H   UNL     1      -8.397  16.687  69.632  1.00  0.00     0.000 HD 
ENDBRANCH   4   7
ENDBRANCH   2   4
TORSDOF 2
ENDMDL
MODEL      124
REMARK 921   NORMALIZED FREE ENERGY PREDICTED BY IDOCK:   -1.91 KCAL/MOL
REMARK 922        TOTAL FREE ENERGY PREDICTED BY IDOCK:   -2.14 KCAL/MOL
REMARK 923 INTER-LIGAND FREE ENERGY PREDICTED BY IDOCK:   -2.13 KCAL/MOL
REMARK 924 INTRA-LIGAND FREE ENERGY PREDICTED BY IDOCK:   -0.00 KCAL/MOL
REMARK 927      BINDING AFFINITY PREDICTED BY RF-SCORE:    0.00 PKD
ROOT
HETATM    1  O   UNL     1     -11.429   6.680  68.721  1.00  0.00    -0.584 OA 
HETATM    2  C   UNL     1     -10.593   7.384  69.627  1.00  0.00    -0.236 C  
HETATM    3  H   UNL     1     -11.673   5.831  69.071  1.00  0.00     0.000 HD 
ENDROOT
BRANCH   2   4
HETATM    4  C   UNL     1     -10.200   8.749  69.064  1.00  0.00    -0.207 C  
HETATM    5  O   UNL     1     -11.377   9.438  68.632  1.00  0.00    -0.459 OA 
HETATM    6  H   UNL     1     -11.133  10.287  68.282  1.00  0.00     0.000 HD 
BRANCH   4   7
HETATM    7  C   UNL     1      -9.425   9.592  70.085  1.00  0.00    -0.246 C  
HETATM    8  O   UNL     1      -9.025  10.843  69.520  1.00  0.00    -0.401 OA 
HETATM    9  H   UNL     1      -8.545  11.365  70.152  1.00  0.00     0.000 HD 
ENDBRANCH   4   7
ENDBRANCH   2   4
TORSDOF 2
ENDMDL
MODEL      125
REMARK 921   NORMALIZED FREE ENERGY PREDICTED BY IDOCK:   -1.91 KCAL/MOL
REMARK 922        TOTAL FREE ENERGY PREDICTED BY IDOCK:   -2.13 KCAL/MOL
REMARK 923 INTER-LIGAND FREE ENERGY PREDICTED BY IDOCK:   -1.91 KCAL/MOL
REMARK 924 INTRA-LIGAND FREE ENERGY PREDICTED BY IDOCK:   -0.22 KCAL/MOL
REMARK 927      BINDING AFFINITY PREDICTED BY RF-SCORE:    0.00 PKD
ROOT
HETATM    1  O   UNL     1      -8.782   9.300  71.691  1.00  0.00    -0.312 OA 
HETATM    2  C   UNL     1      -9.421   8.610  70.627  1.00  0.00    -0.184 C  
HETATM    3  H   UNL     1      -7.982   8.858  71.952  1.00  0.00     0.000 HD 
ENDROOT
BRANCH   2   4
HETATM    4  C   UNL     1     -10.706   9.321  70.207  1.00  0.00    -0.243 C  
HETATM    5  O   UNL     1     -11.399   8.515  69.247  1.00  0.00    -0.413 OA 
HETATM    6  H   UNL     1     -12.198   8.957  68.986  1.00  0.00     0.000 HD 
BRANCH   4   7
HETATM    7  C   UNL     1     -11.612   9.631  71.406  1.00  0.00    -0.400 C  
HETATM    8  O   UNL     1     -11.457   8.648  72.434  1.00  0.00    -0.363 OA 
HETATM    9  H   UNL     1     -12.018   8.840  73.177  1.00  0.00     0.000 HD 
ENDBRANCH   4   7
ENDBRANCH   2   4
TORSDOF 2
ENDMDL
MODEL      126
REMARK 921   NORMALIZED FREE ENERGY PREDICTED BY IDOCK:   -1.90 KCAL/MOL
REMARK 922        TOTAL FREE ENERGY PREDICTED BY IDOCK:   -2.13 KCAL/MOL
REMARK 923 INTER-LIGAND FREE ENERGY PREDICTED BY IDOCK:   -2.13 KCAL/MOL
REMARK 924 INTRA-LIGAND FREE ENERGY PREDICTED BY IDOCK:   -0.00 KCAL/MOL
REMARK 927      BINDING AFFINITY PREDICTED BY RF-SCORE:    0.00 PKD
ROOT
HETATM    1  O   UNL     1     -11.867   8.164  71.900  1.00  0.00    -0.282 OA 
HETATM    2  C   UNL     1     -12.137   9.540  71.681  1.00  0.00    -0.398 C  
HETATM    3  H   UNL     1     -12.334   7.842  72.663  1.00  0.00     0.000 HD 
ENDROOT
BRANCH   2   4
HETATM    4  C   UNL     1     -11.387  10.059  70.456  1.00  0.00    -0.335 C  
HETATM    5  O   UNL     1     -11.529  11.481  70.382  1.00  0.00    -0.495 OA 
HETATM    6  H   UNL     1     -11.062  11.803  69.620  1.00  0.00     0.000 HD 
BRANCH   4   7
HETATM    7  C   UNL     1      -9.904   9.664  70.478  1.00  0.00    -0.231 C  
HETATM    8  O   UNL     1      -9.143  10.478  69.582  1.00  0.00    -0.386 OA 
HETATM    9  H   UNL     1      -8.225  10.234  69.596  1.00  0.00     0.000 HD 
ENDBRANCH   4   7
ENDBRANCH   2   4
TORSDOF 2
ENDMDL
MODEL      127
REMARK 921   NORMALIZED FREE ENERGY PREDICTED BY IDOCK:   -1.90 KCAL/MOL
REMARK 922        TOTAL FREE ENERGY PREDICTED BY IDOCK:   -2.13 KCAL/MOL
REMARK 923 INTER-LIGAND FREE ENERGY PREDICTED BY IDOCK:   -1.90 KCAL/MOL
REMARK 924 INTRA-LIGAND FREE ENERGY PREDICTED BY IDOCK:   -0.22 KCAL/MOL
REMARK 927      BINDING AFFINITY PREDICTED BY RF-SCORE:    0.00 PKD
ROOT
HETATM    1  O   UNL     1      -9.728   6.433  71.166  1.00  0.00    -0.174 OA 
HETATM    2  C   UNL     1      -8.885   7.307  71.901  1.00  0.00    -0.122 C  
HETATM    3  H   UNL     1      -9.292   5.607  70.990  1.00  0.00     0.000 HD 
ENDROOT
BRANCH   2   4
HETATM    4  C   UNL     1      -9.585   8.635  72.183  1.00  0.00    -0.307 C  
HETATM    5  O   UNL     1      -9.185   9.598  71.203  1.00  0.00    -0.333 OA 
HETATM    6  H   UNL     1      -9.621  10.424  71.379  1.00  0.00     0.000 HD 
BRANCH   4   7
HETATM    7  C   UNL     1     -11.113   8.488  72.204  1.00  0.00    -0.366 C  
HETATM    8  O   UNL     1     -11.523   7.527  73.180  1.00  0.00    -0.601 OA 
HETATM    9  H   UNL     1     -12.469   7.436  73.193  1.00  0.00     0.000 HD 
ENDBRANCH   4   7
ENDBRANCH   2   4
TORSDOF 2
ENDMDL
MODEL      128
REMARK 921   NORMALIZED FREE ENERGY PREDICTED BY IDOCK:   -1.90 KCAL/MOL
REMARK 922        TOTAL FREE ENERGY PREDICTED BY IDOCK:   -2.13 KCAL/MOL
REMARK 923 INTER-LIGAND FREE ENERGY PREDICTED BY IDOCK:   -1.91 KCAL/MOL
REMARK 924 INTRA-LIGAND FREE ENERGY PREDICTED BY IDOCK:   -0.22 KCAL/MOL
REMARK 927      BINDING AFFINITY PREDICTED BY RF-SCORE:    0.00 PKD
ROOT
HETATM    1  O   UNL     1      -9.210   9.533  66.926  1.00  0.00    -0.138 OA 
HETATM    2  C   UNL     1      -9.172  10.697  67.737  1.00  0.00    -0.146 C  
HETATM    3  H   UNL     1      -8.808   8.795  67.370  1.00  0.00     0.000 HD 
ENDROOT
BRANCH   2   4
HETATM    4  C   UNL     1      -9.818  11.884  67.024  1.00  0.00    -0.192 C  
HETATM    5  O   UNL     1      -9.244  12.021  65.720  1.00  0.00    -0.385 OA 
HETATM    6  H   UNL     1      -9.646  12.759  65.277  1.00  0.00     0.000 HD 
BRANCH   4   7
HETATM    7  C   UNL     1     -11.343  11.738  66.930  1.00  0.00    -0.320 C  
HETATM    8  O   UNL     1     -11.820  10.735  67.830  1.00  0.00    -0.724 OA 
HETATM    9  H   UNL     1     -12.764  10.645  67.772  1.00  0.00     0.000 HD 
ENDBRANCH   4   7
ENDBRANCH   2   4
TORSDOF 2
ENDMDL
MODEL      129
REMARK 921   NORMALIZED FREE ENERGY PREDICTED BY IDOCK:   -1.88 KCAL/MOL
REMARK 922        TOTAL FREE ENERGY PREDICTED BY IDOCK:   -2.10 KCAL/MOL
REMARK 923 INTER-LIGAND FREE ENERGY PREDICTED BY IDOCK:   -2.10 KCAL/MOL
REMARK 924 INTRA-LIGAND FREE ENERGY PREDICTED BY IDOCK:   -0.00 KCAL/MOL
REMARK 927      BINDING AFFINITY PREDICTED BY RF-SCORE:    0.00 PKD
ROOT
HETATM    1  O   UNL     1      -7.887  12.129  66.251  1.00  0.00    -0.357 OA 
HETATM    2  C   UNL     1      -8.947  12.240  67.190  1.00  0.00    -0.192 C  
HETATM    3  H   UNL     1      -7.341  11.375  66.441  1.00  0.00     0.000 HD 
ENDROOT
BRANCH   2   4
HETATM    4  C   UNL     1      -9.825  13.452  66.885  1.00  0.00    -0.256 C  
HETATM    5  O   UNL     1      -9.537  13.924  65.565  1.00  0.00    -0.517 OA 
HETATM    6  H   UNL     1     -10.083  14.679  65.376  1.00  0.00     0.000 HD 
BRANCH   4   7
HETATM    7  C   UNL     1     -11.319  13.133  67.031  1.00  0.00    -0.312 C  
HETATM    8  O   UNL     1     -12.085  14.328  67.197  1.00  0.00    -0.465 OA 
HETATM    9  H   UNL     1     -13.010  14.131  67.287  1.00  0.00     0.000 HD 
ENDBRANCH   4   7
ENDBRANCH   2   4
TORSDOF 2
ENDMDL
MODEL      130
REMARK 921   NORMALIZED FREE ENERGY PREDICTED BY IDOCK:   -1.87 KCAL/MOL
REMARK 922        TOTAL FREE ENERGY PREDICTED BY IDOCK:   -2.09 KCAL/MOL
REMARK 923 INTER-LIGAND FREE ENERGY PREDICTED BY IDOCK:   -2.09 KCAL/MOL
REMARK 924 INTRA-LIGAND FREE ENERGY PREDICTED BY IDOCK:   -0.00 KCAL/MOL
REMARK 927      BINDING AFFINITY PREDICTED BY RF-SCORE:    0.00 PKD
ROOT
HETATM    1  O   UNL     1      -9.920  10.795  66.533  1.00  0.00    -0.199 OA 
HETATM    2  C   UNL     1     -11.024  10.844  67.424  1.00  0.00    -0.293 C  
HETATM    3  H   UNL     1     -10.205  10.888  65.631  1.00  0.00     0.000 HD 
ENDROOT
BRANCH   2   4
HETATM    4  C   UNL     1     -10.566  10.695  68.873  1.00  0.00    -0.212 C  
HETATM    5  O   UNL     1      -9.389  11.483  69.080  1.00  0.00    -0.398 OA 
HETATM    6  H   UNL     1      -9.104  11.390  69.982  1.00  0.00     0.000 HD 
BRANCH   4   7
HETATM    7  C   UNL     1     -11.664  11.093  69.869  1.00  0.00    -0.355 C  
HETATM    8  O   UNL     1     -12.904  10.460  69.545  1.00  0.00    -0.632 OA 
HETATM    9  H   UNL     1     -13.584  10.706  70.161  1.00  0.00     0.000 HD 
ENDBRANCH   4   7
ENDBRANCH   2   4
TORSDOF 2
ENDMDL
MODEL      131
REMARK 921   NORMALIZED FREE ENERGY PREDICTED BY IDOCK:   -1.86 KCAL/MOL
REMARK 922        TOTAL FREE ENERGY PREDICTED BY IDOCK:   -2.09 KCAL/MOL
REMARK 923 INTER-LIGAND FREE ENERGY PREDICTED BY IDOCK:   -1.88 KCAL/MOL
REMARK 924 INTRA-LIGAND FREE ENERGY PREDICTED BY IDOCK:   -0.21 KCAL/MOL
REMARK 927      BINDING AFFINITY PREDICTED BY RF-SCORE:    0.00 PKD
ROOT
HETATM    1  O   UNL     1     -10.639  11.631  64.158  1.00  0.00    -0.298 OA 
HETATM    2  C   UNL     1     -10.164  10.693  65.111  1.00  0.00    -0.299 C  
HETATM    3  H   UNL     1     -10.357  11.398  63.280  1.00  0.00     0.000 HD 
ENDROOT
BRANCH   2   4
HETATM    4  C   UNL     1     -10.617  11.067  66.521  1.00  0.00    -0.254 C  
HETATM    5  O   UNL     1      -9.551  10.816  67.442  1.00  0.00    -0.158 OA 
HETATM    6  H   UNL     1      -9.833  11.049  68.319  1.00  0.00     0.000 HD 
BRANCH   4   7
HETATM    7  C   UNL     1     -11.076  12.529  66.611  1.00  0.00    -0.283 C  
HETATM    8  O   UNL     1     -12.382  12.692  66.053  1.00  0.00    -0.587 OA 
HETATM    9  H   UNL     1     -12.666  13.597  66.109  1.00  0.00     0.000 HD 
ENDBRANCH   4   7
ENDBRANCH   2   4
TORSDOF 2
ENDMDL
MODEL      132
REMARK 921   NORMALIZED FREE ENERGY PREDICTED BY IDOCK:   -1.86 KCAL/MOL
REMARK 922        TOTAL FREE ENERGY PREDICTED BY IDOCK:   -2.08 KCAL/MOL
REMARK 923 INTER-LIGAND FREE ENERGY PREDICTED BY IDOCK:   -2.08 KCAL/MOL
REMARK 924 INTRA-LIGAND FREE ENERGY PREDICTED BY IDOCK:   -0.00 KCAL/MOL
REMARK 927      BINDING AFFINITY PREDICTED BY RF-SCORE:    0.00 PKD
ROOT
HETATM    1  O   UNL     1     -10.519   7.405  66.547  1.00  0.00    -0.496 OA 
HETATM    2  C   UNL     1     -10.821   6.218  67.264  1.00  0.00    -0.375 C  
HETATM    3  H   UNL     1     -10.823   8.174  67.016  1.00  0.00     0.000 HD 
ENDROOT
BRANCH   2   4
HETATM    4  C   UNL     1     -10.333   4.983  66.510  1.00  0.00    -0.284 C  
HETATM    5  O   UNL     1      -9.746   5.388  65.269  1.00  0.00    -0.365 OA 
HETATM    6  H   UNL     1      -9.442   4.619  64.800  1.00  0.00     0.000 HD 
BRANCH   4   7
HETATM    7  C   UNL     1      -9.335   4.160  67.336  1.00  0.00    -0.175 C  
HETATM    8  O   UNL     1      -9.748   2.795  67.431  1.00  0.00    -0.383 OA 
HETATM    9  H   UNL     1      -9.130   2.285  67.942  1.00  0.00     0.000 HD 
ENDBRANCH   4   7
ENDBRANCH   2   4
TORSDOF 2
ENDMDL
MODEL      133
REMARK 921   NORMALIZED FREE ENERGY PREDICTED BY IDOCK:   -1.85 KCAL/MOL
REMARK 922        TOTAL FREE ENERGY PREDICTED BY IDOCK:   -2.07 KCAL/MOL
REMARK 923 INTER-LIGAND FREE ENERGY PREDICTED BY IDOCK:   -1.91 KCAL/MOL
REMARK 924 INTRA-LIGAND FREE ENERGY PREDICTED BY IDOCK:   -0.16 KCAL/MOL
REMARK 927      BINDING AFFINITY PREDICTED BY RF-SCORE:    0.00 PKD
ROOT
HETATM    1  O   UNL     1      -9.164   8.046  65.408  1.00  0.00    -0.402 OA 
HETATM    2  C   UNL     1      -9.894   8.079  66.625  1.00  0.00    -0.252 C  
HETATM    3  H   UNL     1      -9.369   8.800  64.867  1.00  0.00     0.000 HD 
ENDROOT
BRANCH   2   4
HETATM    4  C   UNL     1      -9.565   6.867  67.494  1.00  0.00    -0.128 C  
HETATM    5  O   UNL     1      -9.364   7.296  68.845  1.00  0.00    -0.145 OA 
HETATM    6  H   UNL     1      -9.159   6.542  69.386  1.00  0.00     0.000 HD 
BRANCH   4   7
HETATM    7  C   UNL     1     -10.659   5.794  67.425  1.00  0.00    -0.265 C  
HETATM    8  O   UNL     1     -11.410   5.904  66.213  1.00  0.00    -0.717 OA 
HETATM    9  H   UNL     1     -12.088   5.239  66.171  1.00  0.00     0.000 HD 
ENDBRANCH   4   7
ENDBRANCH   2   4
TORSDOF 2
ENDMDL
MODEL      134
REMARK 921   NORMALIZED FREE ENERGY PREDICTED BY IDOCK:   -1.85 KCAL/MOL
REMARK 922        TOTAL FREE ENERGY PREDICTED BY IDOCK:   -2.07 KCAL/MOL
REMARK 923 INTER-LIGAND FREE ENERGY PREDICTED BY IDOCK:   -2.05 KCAL/MOL
REMARK 924 INTRA-LIGAND FREE ENERGY PREDICTED BY IDOCK:   -0.02 KCAL/MOL
REMARK 927      BINDING AFFINITY PREDICTED BY RF-SCORE:    0.00 PKD
ROOT
HETATM    1  O   UNL     1      -8.034   5.348  68.069  1.00  0.00    -0.095 OA 
HETATM    2  C   UNL     1      -9.094   5.852  68.867  1.00  0.00    -0.120 C  
HETATM    3  H   UNL     1      -7.193   5.490  68.489  1.00  0.00     0.000 HD 
ENDROOT
BRANCH   2   4
HETATM    4  C   UNL     1     -10.445   5.623  68.191  1.00  0.00    -0.195 C  
HETATM    5  O   UNL     1     -11.452   6.368  68.885  1.00  0.00    -0.582 OA 
HETATM    6  H   UNL     1     -12.292   6.225  68.464  1.00  0.00     0.000 HD 
BRANCH   4   7
HETATM    7  C   UNL     1     -10.418   6.004  66.705  1.00  0.00    -0.267 C  
HETATM    8  O   UNL     1     -11.268   5.147  65.939  1.00  0.00    -0.794 OA 
HETATM    9  H   UNL     1     -11.252   5.383  65.019  1.00  0.00     0.000 HD 
ENDBRANCH   4   7
ENDBRANCH   2   4
TORSDOF 2
ENDMDL
MODEL      135
REMARK 921   NORMALIZED FREE ENERGY PREDICTED BY IDOCK:   -1.84 KCAL/MOL
REMARK 922        TOTAL FREE ENERGY PREDICTED BY IDOCK:   -2.06 KCAL/MOL
REMARK 923 INTER-LIGAND FREE ENERGY PREDICTED BY IDOCK:   -1.84 KCAL/MOL
REMARK 924 INTRA-LIGAND FREE ENERGY PREDICTED BY IDOCK:   -0.22 KCAL/MOL
REMARK 927      BINDING AFFINITY PREDICTED BY RF-SCORE:    0.00 PKD
ROOT
HETATM    1  O   UNL     1     -12.704   7.583  71.625  1.00  0.00    -0.331 OA 
HETATM    2  C   UNL     1     -11.891   8.200  72.611  1.00  0.00    -0.326 C  
HETATM    3  H   UNL     1     -13.470   8.112  71.435  1.00  0.00     0.000 HD 
ENDROOT
BRANCH   2   4
HETATM    4  C   UNL     1     -10.659   7.351  72.917  1.00  0.00    -0.321 C  
HETATM    5  O   UNL     1     -10.736   6.876  74.265  1.00  0.00    -0.463 OA 
HETATM    6  H   UNL     1      -9.969   6.347  74.455  1.00  0.00     0.000 HD 
BRANCH   4   7
HETATM    7  C   UNL     1     -10.511   6.178  71.939  1.00  0.00    -0.213 C  
HETATM    8  O   UNL     1     -10.048   6.629  70.663  1.00  0.00    -0.183 OA 
HETATM    9  H   UNL     1      -9.956   5.902  70.057  1.00  0.00     0.000 HD 
ENDBRANCH   4   7
ENDBRANCH   2   4
TORSDOF 2
ENDMDL
MODEL      136
REMARK 921   NORMALIZED FREE ENERGY PREDICTED BY IDOCK:   -1.83 KCAL/MOL
REMARK 922        TOTAL FREE ENERGY PREDICTED BY IDOCK:   -2.04 KCAL/MOL
REMARK 923 INTER-LIGAND FREE ENERGY PREDICTED BY IDOCK:   -1.82 KCAL/MOL
REMARK 924 INTRA-LIGAND FREE ENERGY PREDICTED BY IDOCK:   -0.22 KCAL/MOL
REMARK 927      BINDING AFFINITY PREDICTED BY RF-SCORE:    0.00 PKD
ROOT
HETATM    1  O   UNL     1      -9.339   4.766  66.391  1.00  0.00    -0.130 OA 
HETATM    2  C   UNL     1      -8.911   5.792  67.274  1.00  0.00    -0.112 C  
HETATM    3  H   UNL     1      -9.162   3.907  66.756  1.00  0.00     0.000 HD 
ENDROOT
BRANCH   2   4
HETATM    4  C   UNL     1      -9.195   7.174  66.688  1.00  0.00    -0.160 C  
HETATM    5  O   UNL     1      -8.873   7.171  65.294  1.00  0.00    -0.367 OA 
HETATM    6  H   UNL     1      -9.050   8.030  64.929  1.00  0.00     0.000 HD 
BRANCH   4   7
HETATM    7  C   UNL     1     -10.653   7.603  66.904  1.00  0.00    -0.289 C  
HETATM    8  O   UNL     1     -11.497   6.468  67.114  1.00  0.00    -0.768 OA 
HETATM    9  H   UNL     1     -12.399   6.734  67.248  1.00  0.00     0.000 HD 
ENDBRANCH   4   7
ENDBRANCH   2   4
TORSDOF 2
ENDMDL
MODEL      137
REMARK 921   NORMALIZED FREE ENERGY PREDICTED BY IDOCK:   -1.82 KCAL/MOL
REMARK 922        TOTAL FREE ENERGY PREDICTED BY IDOCK:   -2.04 KCAL/MOL
REMARK 923 INTER-LIGAND FREE ENERGY PREDICTED BY IDOCK:   -1.82 KCAL/MOL
REMARK 924 INTRA-LIGAND FREE ENERGY PREDICTED BY IDOCK:   -0.21 KCAL/MOL
REMARK 927      BINDING AFFINITY PREDICTED BY RF-SCORE:    0.00 PKD
ROOT
HETATM    1  O   UNL     1      -8.339   5.367  68.179  1.00  0.00    -0.099 OA 
HETATM    2  C   UNL     1      -9.659   5.178  67.695  1.00  0.00    -0.140 C  
HETATM    3  H   UNL     1      -7.797   4.606  68.002  1.00  0.00     0.000 HD 
ENDROOT
BRANCH   2   4
HETATM    4  C   UNL     1     -10.529   6.401  67.979  1.00  0.00    -0.220 C  
HETATM    5  O   UNL     1     -11.418   6.614  66.879  1.00  0.00    -0.777 OA 
HETATM    6  H   UNL     1     -11.959   7.375  67.056  1.00  0.00     0.000 HD 
BRANCH   4   7
HETATM    7  C   UNL     1     -11.315   6.257  69.289  1.00  0.00    -0.341 C  
HETATM    8  O   UNL     1     -10.497   5.698  70.320  1.00  0.00    -0.246 OA 
HETATM    9  H   UNL     1     -10.984   5.609  71.131  1.00  0.00     0.000 HD 
ENDBRANCH   4   7
ENDBRANCH   2   4
TORSDOF 2
ENDMDL
MODEL      138
REMARK 921   NORMALIZED FREE ENERGY PREDICTED BY IDOCK:   -1.80 KCAL/MOL
REMARK 922        TOTAL FREE ENERGY PREDICTED BY IDOCK:   -2.01 KCAL/MOL
REMARK 923 INTER-LIGAND FREE ENERGY PREDICTED BY IDOCK:   -1.81 KCAL/MOL
REMARK 924 INTRA-LIGAND FREE ENERGY PREDICTED BY IDOCK:   -0.20 KCAL/MOL
REMARK 927      BINDING AFFINITY PREDICTED BY RF-SCORE:    0.00 PKD
ROOT
HETATM    1  O   UNL     1     -10.757   9.975  67.865  1.00  0.00    -0.236 OA 
HETATM    2  C   UNL     1     -10.138  11.243  68.010  1.00  0.00    -0.177 C  
HETATM    3  H   UNL     1     -10.120   9.273  67.941  1.00  0.00     0.000 HD 
ENDROOT
BRANCH   2   4
HETATM    4  C   UNL     1     -11.161  12.371  67.890  1.00  0.00    -0.266 C  
HETATM    5  O   UNL     1     -12.245  11.938  67.061  1.00  0.00    -0.492 OA 
HETATM    6  H   UNL     1     -12.881  12.640  66.985  1.00  0.00     0.000 HD 
BRANCH   4   7
HETATM    7  C   UNL     1     -11.679  12.829  69.260  1.00  0.00    -0.319 C  
HETATM    8  O   UNL     1     -12.147  11.718  70.029  1.00  0.00    -0.319 OA 
HETATM    9  H   UNL     1     -12.467  12.001  70.878  1.00  0.00     0.000 HD 
ENDBRANCH   4   7
ENDBRANCH   2   4
TORSDOF 2
ENDMDL
MODEL      139
REMARK 921   NORMALIZED FREE ENERGY PREDICTED BY IDOCK:   -1.79 KCAL/MOL
REMARK 922        TOTAL FREE ENERGY PREDICTED BY IDOCK:   -2.00 KCAL/MOL
REMARK 923 INTER-LIGAND FREE ENERGY PREDICTED BY IDOCK:   -1.98 KCAL/MOL
REMARK 924 INTRA-LIGAND FREE ENERGY PREDICTED BY IDOCK:   -0.02 KCAL/MOL
REMARK 927      BINDING AFFINITY PREDICTED BY RF-SCORE:    0.00 PKD
ROOT
HETATM    1  O   UNL     1      -9.447  11.848  63.333  1.00  0.00    -0.552 OA 
HETATM    2  C   UNL     1      -9.673  11.139  64.542  1.00  0.00    -0.265 C  
HETATM    3  H   UNL     1      -9.221  11.254  62.626  1.00  0.00     0.000 HD 
ENDROOT
BRANCH   2   4
HETATM    4  C   UNL     1     -10.037  12.094  65.677  1.00  0.00    -0.248 C  
HETATM    5  O   UNL     1     -11.336  11.762  66.176  1.00  0.00    -0.330 OA 
HETATM    6  H   UNL     1     -11.562  12.356  66.882  1.00  0.00     0.000 HD 
BRANCH   4   7
HETATM    7  C   UNL     1      -9.000  12.065  66.809  1.00  0.00    -0.198 C  
HETATM    8  O   UNL     1      -7.972  13.034  66.589  1.00  0.00    -0.388 OA 
HETATM    9  H   UNL     1      -7.331  13.016  67.290  1.00  0.00     0.000 HD 
ENDBRANCH   4   7
ENDBRANCH   2   4
TORSDOF 2
ENDMDL
MODEL      140
REMARK 921   NORMALIZED FREE ENERGY PREDICTED BY IDOCK:   -1.79 KCAL/MOL
REMARK 922        TOTAL FREE ENERGY PREDICTED BY IDOCK:   -2.00 KCAL/MOL
REMARK 923 INTER-LIGAND FREE ENERGY PREDICTED BY IDOCK:   -2.00 KCAL/MOL
REMARK 924 INTRA-LIGAND FREE ENERGY PREDICTED BY IDOCK:   -0.00 KCAL/MOL
REMARK 927      BINDING AFFINITY PREDICTED BY RF-SCORE:    0.00 PKD
ROOT
HETATM    1  O   UNL     1      -8.170   8.383  66.773  1.00  0.00    -0.100 OA 
HETATM    2  C   UNL     1      -8.904   7.169  66.821  1.00  0.00    -0.130 C  
HETATM    3  H   UNL     1      -7.255   8.221  66.571  1.00  0.00     0.000 HD 
ENDROOT
BRANCH   2   4
HETATM    4  C   UNL     1     -10.374   7.430  67.146  1.00  0.00    -0.307 C  
HETATM    5  O   UNL     1     -11.177   6.407  66.549  1.00  0.00    -0.699 OA 
HETATM    6  H   UNL     1     -12.092   6.569  66.750  1.00  0.00     0.000 HD 
BRANCH   4   7
HETATM    7  C   UNL     1     -10.627   7.502  68.657  1.00  0.00    -0.142 C  
HETATM    8  O   UNL     1     -11.558   6.499  69.071  1.00  0.00    -0.619 OA 
HETATM    9  H   UNL     1     -11.714   6.543  70.007  1.00  0.00     0.000 HD 
ENDBRANCH   4   7
ENDBRANCH   2   4
TORSDOF 2
ENDMDL
MODEL      141
REMARK 921   NORMALIZED FREE ENERGY PREDICTED BY IDOCK:   -1.79 KCAL/MOL
REMARK 922        TOTAL FREE ENERGY PREDICTED BY IDOCK:   -2.00 KCAL/MOL
REMARK 923 INTER-LIGAND FREE ENERGY PREDICTED BY IDOCK:   -1.78 KCAL/MOL
REMARK 924 INTRA-LIGAND FREE ENERGY PREDICTED BY IDOCK:   -0.22 KCAL/MOL
REMARK 927      BINDING AFFINITY PREDICTED BY RF-SCORE:    0.00 PKD
ROOT
HETATM    1  O   UNL     1     -11.656   6.909  67.215  1.00  0.00    -0.668 OA 
HETATM    2  C   UNL     1     -10.599   6.749  68.149  1.00  0.00    -0.230 C  
HETATM    3  H   UNL     1     -12.355   6.287  67.380  1.00  0.00     0.000 HD 
ENDROOT
BRANCH   2   4
HETATM    4  C   UNL     1      -9.475   7.749  67.882  1.00  0.00    -0.144 C  
HETATM    5  O   UNL     1      -8.266   7.271  68.481  1.00  0.00    -0.123 OA 
HETATM    6  H   UNL     1      -7.567   7.893  68.315  1.00  0.00     0.000 HD 
BRANCH   4   7
HETATM    7  C   UNL     1      -9.272   8.002  66.383  1.00  0.00    -0.194 C  
HETATM    8  O   UNL     1     -10.099   9.075  65.926  1.00  0.00    -0.418 OA 
HETATM    9  H   UNL     1      -9.974   9.232  64.997  1.00  0.00     0.000 HD 
ENDBRANCH   4   7
ENDBRANCH   2   4
TORSDOF 2
ENDMDL
MODEL      142
REMARK 921   NORMALIZED FREE ENERGY PREDICTED BY IDOCK:   -1.78 KCAL/MOL
REMARK 922        TOTAL FREE ENERGY PREDICTED BY IDOCK:   -1.99 KCAL/MOL
REMARK 923 INTER-LIGAND FREE ENERGY PREDICTED BY IDOCK:   -1.97 KCAL/MOL
REMARK 924 INTRA-LIGAND FREE ENERGY PREDICTED BY IDOCK:   -0.01 KCAL/MOL
REMARK 927      BINDING AFFINITY PREDICTED BY RF-SCORE:    0.00 PKD
ROOT
HETATM    1  O   UNL     1     -11.611  14.356  66.578  1.00  0.00    -0.354 OA 
HETATM    2  C   UNL     1     -11.028  15.570  67.029  1.00  0.00    -0.283 C  
HETATM    3  H   UNL     1     -11.710  13.739  67.294  1.00  0.00     0.000 HD 
ENDROOT
BRANCH   2   4
HETATM    4  C   UNL     1     -10.869  16.562  65.879  1.00  0.00    -0.095 C  
HETATM    5  O   UNL     1      -9.477  16.748  65.604  1.00  0.00    -0.523 OA 
HETATM    6  H   UNL     1      -9.378  17.365  64.888  1.00  0.00     0.000 HD 
BRANCH   4   7
HETATM    7  C   UNL     1     -11.612  16.106  64.616  1.00  0.00    -0.133 C  
HETATM    8  O   UNL     1     -11.072  14.879  64.118  1.00  0.00    -0.587 OA 
HETATM    9  H   UNL     1     -11.533  14.596  63.336  1.00  0.00     0.000 HD 
ENDBRANCH   4   7
ENDBRANCH   2   4
TORSDOF 2
ENDMDL
MODEL      143
REMARK 921   NORMALIZED FREE ENERGY PREDICTED BY IDOCK:   -1.78 KCAL/MOL
REMARK 922        TOTAL FREE ENERGY PREDICTED BY IDOCK:   -1.99 KCAL/MOL
REMARK 923 INTER-LIGAND FREE ENERGY PREDICTED BY IDOCK:   -1.98 KCAL/MOL
REMARK 924 INTRA-LIGAND FREE ENERGY PREDICTED BY IDOCK:   -0.00 KCAL/MOL
REMARK 927      BINDING AFFINITY PREDICTED BY RF-SCORE:    0.00 PKD
ROOT
HETATM    1  O   UNL     1     -10.335   4.844  70.976  1.00  0.00    -0.208 OA 
HETATM    2  C   UNL     1     -10.172   6.240  71.176  1.00  0.00    -0.198 C  
HETATM    3  H   UNL     1      -9.966   4.351  71.700  1.00  0.00     0.000 HD 
ENDROOT
BRANCH   2   4
HETATM    4  C   UNL     1     -10.764   7.034  70.013  1.00  0.00    -0.242 C  
HETATM    5  O   UNL     1     -12.137   6.667  69.842  1.00  0.00    -0.641 OA 
HETATM    6  H   UNL     1     -12.505   7.160  69.118  1.00  0.00     0.000 HD 
BRANCH   4   7
HETATM    7  C   UNL     1     -10.632   8.548  70.222  1.00  0.00    -0.226 C  
HETATM    8  O   UNL     1     -11.916   9.177  70.246  1.00  0.00    -0.470 OA 
HETATM    9  H   UNL     1     -11.835  10.115  70.376  1.00  0.00     0.000 HD 
ENDBRANCH   4   7
ENDBRANCH   2   4
TORSDOF 2
ENDMDL
MODEL      144
REMARK 921   NORMALIZED FREE ENERGY PREDICTED BY IDOCK:   -1.77 KCAL/MOL
REMARK 922        TOTAL FREE ENERGY PREDICTED BY IDOCK:   -1.98 KCAL/MOL
REMARK 923 INTER-LIGAND FREE ENERGY PREDICTED BY IDOCK:   -1.76 KCAL/MOL
REMARK 924 INTRA-LIGAND FREE ENERGY PREDICTED BY IDOCK:   -0.22 KCAL/MOL
REMARK 927      BINDING AFFINITY PREDICTED BY RF-SCORE:    0.00 PKD
ROOT
HETATM    1  O   UNL     1      -9.349  13.840  66.289  1.00  0.00    -0.423 OA 
HETATM    2  C   UNL     1     -10.629  13.277  66.532  1.00  0.00    -0.286 C  
HETATM    3  H   UNL     1      -9.401  14.787  66.218  1.00  0.00     0.000 HD 
ENDROOT
BRANCH   2   4
HETATM    4  C   UNL     1     -10.546  11.756  66.645  1.00  0.00    -0.240 C  
HETATM    5  O   UNL     1      -9.696  11.251  65.610  1.00  0.00    -0.212 OA 
HETATM    6  H   UNL     1      -9.645  10.305  65.681  1.00  0.00     0.000 HD 
BRANCH   4   7
HETATM    7  C   UNL     1     -10.044  11.307  68.024  1.00  0.00    -0.177 C  
HETATM    8  O   UNL     1      -9.800  12.431  68.873  1.00  0.00    -0.419 OA 
HETATM    9  H   UNL     1      -9.489  12.153  69.726  1.00  0.00     0.000 HD 
ENDBRANCH   4   7
ENDBRANCH   2   4
TORSDOF 2
ENDMDL
MODEL      145
REMARK 921   NORMALIZED FREE ENERGY PREDICTED BY IDOCK:   -1.76 KCAL/MOL
REMARK 922        TOTAL FREE ENERGY PREDICTED BY IDOCK:   -1.97 KCAL/MOL
REMARK 923 INTER-LIGAND FREE ENERGY PREDICTED BY IDOCK:   -1.97 KCAL/MOL
REMARK 924 INTRA-LIGAND FREE ENERGY PREDICTED BY IDOCK:   -0.00 KCAL/MOL
REMARK 927      BINDING AFFINITY PREDICTED BY RF-SCORE:    0.00 PKD
ROOT
HETATM    1  O   UNL     1      -5.903  18.656  70.221  1.00  0.00    -0.236 OA 
HETATM    2  C   UNL     1      -6.457  19.710  69.448  1.00  0.00    -0.335 C  
HETATM    3  H   UNL     1      -5.842  18.900  71.137  1.00  0.00     0.000 HD 
ENDROOT
BRANCH   2   4
HETATM    4  C   UNL     1      -6.555  19.318  67.975  1.00  0.00    -0.234 C  
HETATM    5  O   UNL     1      -6.432  17.897  67.856  1.00  0.00    -0.178 OA 
HETATM    6  H   UNL     1      -6.493  17.652  66.940  1.00  0.00     0.000 HD 
BRANCH   4   7
HETATM    7  C   UNL     1      -7.864  19.801  67.336  1.00  0.00    -0.276 C  
HETATM    8  O   UNL     1      -7.872  21.224  67.197  1.00  0.00    -0.713 OA 
HETATM    9  H   UNL     1      -8.682  21.524  66.801  1.00  0.00     0.000 HD 
ENDBRANCH   4   7
ENDBRANCH   2   4
TORSDOF 2
ENDMDL
MODEL      146
REMARK 921   NORMALIZED FREE ENERGY PREDICTED BY IDOCK:   -1.76 KCAL/MOL
REMARK 922        TOTAL FREE ENERGY PREDICTED BY IDOCK:   -1.97 KCAL/MOL
REMARK 923 INTER-LIGAND FREE ENERGY PREDICTED BY IDOCK:   -1.75 KCAL/MOL
REMARK 924 INTRA-LIGAND FREE ENERGY PREDICTED BY IDOCK:   -0.22 KCAL/MOL
REMARK 927      BINDING AFFINITY PREDICTED BY RF-SCORE:    0.00 PKD
ROOT
HETATM    1  O   UNL     1     -11.115  13.746  66.653  1.00  0.00    -0.304 OA 
HETATM    2  C   UNL     1     -11.182  14.631  67.761  1.00  0.00    -0.308 C  
HETATM    3  H   UNL     1     -11.298  12.852  66.919  1.00  0.00     0.000 HD 
ENDROOT
BRANCH   2   4
HETATM    4  C   UNL     1     -10.888  16.068  67.333  1.00  0.00    -0.277 C  
HETATM    5  O   UNL     1     -10.528  16.839  68.484  1.00  0.00    -0.293 OA 
HETATM    6  H   UNL     1     -10.345  17.733  68.218  1.00  0.00     0.000 HD 
BRANCH   4   7
HETATM    7  C   UNL     1      -9.785  16.139  66.269  1.00  0.00    -0.307 C  
HETATM    8  O   UNL     1      -8.708  15.252  66.585  1.00  0.00    -0.263 OA 
HETATM    9  H   UNL     1      -8.025  15.296  65.926  1.00  0.00     0.000 HD 
ENDBRANCH   4   7
ENDBRANCH   2   4
TORSDOF 2
ENDMDL
MODEL      147
REMARK 921   NORMALIZED FREE ENERGY PREDICTED BY IDOCK:   -1.75 KCAL/MOL
REMARK 922        TOTAL FREE ENERGY PREDICTED BY IDOCK:   -1.96 KCAL/MOL
REMARK 923 INTER-LIGAND FREE ENERGY PREDICTED BY IDOCK:   -1.76 KCAL/MOL
REMARK 924 INTRA-LIGAND FREE ENERGY PREDICTED BY IDOCK:   -0.19 KCAL/MOL
REMARK 927      BINDING AFFINITY PREDICTED BY RF-SCORE:    0.00 PKD
ROOT
HETATM    1  O   UNL     1     -11.653   4.345  64.648  1.00  0.00    -0.919 OA 
HETATM    2  C   UNL     1     -10.567   3.613  64.100  1.00  0.00    -0.237 C  
HETATM    3  H   UNL     1     -12.444   4.215  64.138  1.00  0.00     0.000 HD 
ENDROOT
BRANCH   2   4
HETATM    4  C   UNL     1      -9.295   3.821  64.919  1.00  0.00    -0.156 C  
HETATM    5  O   UNL     1      -8.162   3.806  64.044  1.00  0.00    -0.089 OA 
HETATM    6  H   UNL     1      -7.371   3.935  64.554  1.00  0.00     0.000 HD 
BRANCH   4   7
HETATM    7  C   UNL     1      -9.337   5.125  65.726  1.00  0.00    -0.154 C  
HETATM    8  O   UNL     1     -10.186   4.995  66.869  1.00  0.00    -0.208 OA 
HETATM    9  H   UNL     1     -10.212   5.802  67.369  1.00  0.00     0.000 HD 
ENDBRANCH   4   7
ENDBRANCH   2   4
TORSDOF 2
ENDMDL
MODEL      148
REMARK 921   NORMALIZED FREE ENERGY PREDICTED BY IDOCK:   -1.75 KCAL/MOL
REMARK 922        TOTAL FREE ENERGY PREDICTED BY IDOCK:   -1.95 KCAL/MOL
REMARK 923 INTER-LIGAND FREE ENERGY PREDICTED BY IDOCK:   -1.94 KCAL/MOL
REMARK 924 INTRA-LIGAND FREE ENERGY PREDICTED BY IDOCK:   -0.02 KCAL/MOL
REMARK 927      BINDING AFFINITY PREDICTED BY RF-SCORE:    0.00 PKD
ROOT
HETATM    1  O   UNL     1      -5.887  20.670  70.581  1.00  0.00    -0.534 OA 
HETATM    2  C   UNL     1      -6.473  20.034  69.456  1.00  0.00    -0.335 C  
HETATM    3  H   UNL     1      -6.141  21.585  70.626  1.00  0.00     0.000 HD 
ENDROOT
BRANCH   2   4
HETATM    4  C   UNL     1      -6.064  18.564  69.382  1.00  0.00    -0.259 C  
HETATM    5  O   UNL     1      -5.573  18.146  70.660  1.00  0.00    -0.230 OA 
HETATM    6  H   UNL     1      -5.318  17.231  70.615  1.00  0.00     0.000 HD 
BRANCH   4   7
HETATM    7  C   UNL     1      -7.222  17.665  68.929  1.00  0.00    -0.256 C  
HETATM    8  O   UNL     1      -8.394  18.437  68.654  1.00  0.00    -0.324 OA 
HETATM    9  H   UNL     1      -9.111  17.880  68.373  1.00  0.00     0.000 HD 
ENDBRANCH   4   7
ENDBRANCH   2   4
TORSDOF 2
ENDMDL
MODEL      149
REMARK 921   NORMALIZED FREE ENERGY PREDICTED BY IDOCK:   -1.75 KCAL/MOL
REMARK 922        TOTAL FREE ENERGY PREDICTED BY IDOCK:   -1.95 KCAL/MOL
REMARK 923 INTER-LIGAND FREE ENERGY PREDICTED BY IDOCK:   -1.95 KCAL/MOL
REMARK 924 INTRA-LIGAND FREE ENERGY PREDICTED BY IDOCK:   -0.01 KCAL/MOL
REMARK 927      BINDING AFFINITY PREDICTED BY RF-SCORE:    0.00 PKD
ROOT
HETATM    1  O   UNL     1      -8.572   9.386  67.558  1.00  0.00    -0.122 OA 
HETATM    2  C   UNL     1      -8.911   8.452  68.570  1.00  0.00    -0.136 C  
HETATM    3  H   UNL     1      -7.640   9.575  67.566  1.00  0.00     0.000 HD 
ENDROOT
BRANCH   2   4
HETATM    4  C   UNL     1     -10.408   8.149  68.557  1.00  0.00    -0.198 C  
HETATM    5  O   UNL     1     -11.060   9.029  67.637  1.00  0.00    -0.484 OA 
HETATM    6  H   UNL     1     -11.992   8.841  67.629  1.00  0.00     0.000 HD 
BRANCH   4   7
HETATM    7  C   UNL     1     -10.697   6.684  68.200  1.00  0.00    -0.258 C  
HETATM    8  O   UNL     1     -11.618   6.593  67.110  1.00  0.00    -0.749 OA 
HETATM    9  H   UNL     1     -11.797   5.687  66.889  1.00  0.00     0.000 HD 
ENDBRANCH   4   7
ENDBRANCH   2   4
TORSDOF 2
ENDMDL
MODEL      150
REMARK 921   NORMALIZED FREE ENERGY PREDICTED BY IDOCK:   -1.73 KCAL/MOL
REMARK 922        TOTAL FREE ENERGY PREDICTED BY IDOCK:   -1.94 KCAL/MOL
REMARK 923 INTER-LIGAND FREE ENERGY PREDICTED BY IDOCK:   -1.94 KCAL/MOL
REMARK 924 INTRA-LIGAND FREE ENERGY PREDICTED BY IDOCK:   -0.00 KCAL/MOL
REMARK 927      BINDING AFFINITY PREDICTED BY RF-SCORE:    0.00 PKD
ROOT
HETATM    1  O   UNL     1      -8.628   7.625  68.091  1.00  0.00    -0.124 OA 
HETATM    2  C   UNL     1      -9.059   8.624  69.003  1.00  0.00    -0.145 C  
HETATM    3  H   UNL     1      -7.704   7.436  68.204  1.00  0.00     0.000 HD 
ENDROOT
BRANCH   2   4
HETATM    4  C   UNL     1     -10.545   8.928  68.821  1.00  0.00    -0.157 C  
HETATM    5  O   UNL     1     -11.294   8.240  69.828  1.00  0.00    -0.454 OA 
HETATM    6  H   UNL     1     -12.218   8.429  69.715  1.00  0.00     0.000 HD 
BRANCH   4   7
HETATM    7  C   UNL     1     -10.834  10.434  68.868  1.00  0.00    -0.236 C  
HETATM    8  O   UNL     1     -12.173  10.713  68.449  1.00  0.00    -0.822 OA 
HETATM    9  H   UNL     1     -12.353  11.646  68.478  1.00  0.00     0.000 HD 
ENDBRANCH   4   7
ENDBRANCH   2   4
TORSDOF 2
ENDMDL
MODEL      151
REMARK 921   NORMALIZED FREE ENERGY PREDICTED BY IDOCK:   -1.71 KCAL/MOL
REMARK 922        TOTAL FREE ENERGY PREDICTED BY IDOCK:   -1.92 KCAL/MOL
REMARK 923 INTER-LIGAND FREE ENERGY PREDICTED BY IDOCK:   -1.91 KCAL/MOL
REMARK 924 INTRA-LIGAND FREE ENERGY PREDICTED BY IDOCK:   -0.00 KCAL/MOL
REMARK 927      BINDING AFFINITY PREDICTED BY RF-SCORE:    0.00 PKD
ROOT
HETATM    1  O   UNL     1      -9.638  14.232  65.939  1.00  0.00    -0.434 OA 
HETATM    2  C   UNL     1     -10.767  14.353  66.791  1.00  0.00    -0.292 C  
HETATM    3  H   UNL     1      -9.844  14.520  65.057  1.00  0.00     0.000 HD 
ENDROOT
BRANCH   2   4
HETATM    4  C   UNL     1     -10.436  13.889  68.209  1.00  0.00    -0.250 C  
HETATM    5  O   UNL     1      -9.176  13.210  68.201  1.00  0.00    -0.206 OA 
HETATM    6  H   UNL     1      -8.970  12.922  69.083  1.00  0.00     0.000 HD 
BRANCH   4   7
HETATM    7  C   UNL     1     -10.415  15.055  69.206  1.00  0.00    -0.249 C  
HETATM    8  O   UNL     1     -10.737  14.607  70.526  1.00  0.00    -0.481 OA 
HETATM    9  H   UNL     1     -10.724  15.329  71.144  1.00  0.00     0.000 HD 
ENDBRANCH   4   7
ENDBRANCH   2   4
TORSDOF 2
ENDMDL
MODEL      152
REMARK 921   NORMALIZED FREE ENERGY PREDICTED BY IDOCK:   -1.71 KCAL/MOL
REMARK 922        TOTAL FREE ENERGY PREDICTED BY IDOCK:   -1.91 KCAL/MOL
REMARK 923 INTER-LIGAND FREE ENERGY PREDICTED BY IDOCK:   -1.69 KCAL/MOL
REMARK 924 INTRA-LIGAND FREE ENERGY PREDICTED BY IDOCK:   -0.22 KCAL/MOL
REMARK 927      BINDING AFFINITY PREDICTED BY RF-SCORE:    0.00 PKD
ROOT
HETATM    1  O   UNL     1      -8.790  17.622  68.679  1.00  0.00    -0.287 OA 
HETATM    2  C   UNL     1      -9.107  16.846  67.533  1.00  0.00    -0.222 C  
HETATM    3  H   UNL     1      -8.858  17.102  69.472  1.00  0.00     0.000 HD 
ENDROOT
BRANCH   2   4
HETATM    4  C   UNL     1      -8.998  17.681  66.258  1.00  0.00    -0.183 C  
HETATM    5  O   UNL     1     -10.278  18.244  65.952  1.00  0.00    -0.541 OA 
HETATM    6  H   UNL     1     -10.210  18.763  65.159  1.00  0.00     0.000 HD 
BRANCH   4   7
HETATM    7  C   UNL     1      -7.938  18.785  66.381  1.00  0.00    -0.282 C  
HETATM    8  O   UNL     1      -6.694  18.253  66.844  1.00  0.00    -0.180 OA 
HETATM    9  H   UNL     1      -6.038  18.936  66.919  1.00  0.00     0.000 HD 
ENDBRANCH   4   7
ENDBRANCH   2   4
TORSDOF 2
ENDMDL
MODEL      153
REMARK 921   NORMALIZED FREE ENERGY PREDICTED BY IDOCK:   -1.70 KCAL/MOL
REMARK 922        TOTAL FREE ENERGY PREDICTED BY IDOCK:   -1.90 KCAL/MOL
REMARK 923 INTER-LIGAND FREE ENERGY PREDICTED BY IDOCK:   -1.90 KCAL/MOL
REMARK 924 INTRA-LIGAND FREE ENERGY PREDICTED BY IDOCK:   -0.00 KCAL/MOL
REMARK 927      BINDING AFFINITY PREDICTED BY RF-SCORE:    0.00 PKD
ROOT
HETATM    1  O   UNL     1      -9.481   9.570  70.375  1.00  0.00    -0.242 OA 
HETATM    2  C   UNL     1      -9.495   8.835  71.590  1.00  0.00    -0.288 C  
HETATM    3  H   UNL     1      -8.592   9.700  70.066  1.00  0.00     0.000 HD 
ENDROOT
BRANCH   2   4
HETATM    4  C   UNL     1     -10.924   8.625  72.087  1.00  0.00    -0.364 C  
HETATM    5  O   UNL     1     -11.821   8.653  70.972  1.00  0.00    -0.286 OA 
HETATM    6  H   UNL     1     -12.710   8.523  71.282  1.00  0.00     0.000 HD 
BRANCH   4   7
HETATM    7  C   UNL     1     -11.076   7.314  72.870  1.00  0.00    -0.325 C  
HETATM    8  O   UNL     1     -10.293   7.337  74.066  1.00  0.00    -0.397 OA 
HETATM    9  H   UNL     1     -10.387   6.525  74.551  1.00  0.00     0.000 HD 
ENDBRANCH   4   7
ENDBRANCH   2   4
TORSDOF 2
ENDMDL
MODEL      154
REMARK 921   NORMALIZED FREE ENERGY PREDICTED BY IDOCK:   -1.70 KCAL/MOL
REMARK 922        TOTAL FREE ENERGY PREDICTED BY IDOCK:   -1.90 KCAL/MOL
REMARK 923 INTER-LIGAND FREE ENERGY PREDICTED BY IDOCK:   -1.89 KCAL/MOL
REMARK 924 INTRA-LIGAND FREE ENERGY PREDICTED BY IDOCK:   -0.00 KCAL/MOL
REMARK 927      BINDING AFFINITY PREDICTED BY RF-SCORE:    0.00 PKD
ROOT
HETATM    1  O   UNL     1      -9.470  15.626  66.434  1.00  0.00    -0.245 OA 
HETATM    2  C   UNL     1     -10.164  14.458  66.846  1.00  0.00    -0.265 C  
HETATM    3  H   UNL     1      -8.757  15.409  65.845  1.00  0.00     0.000 HD 
ENDROOT
BRANCH   2   4
HETATM    4  C   UNL     1     -11.311  14.807  67.793  1.00  0.00    -0.330 C  
HETATM    5  O   UNL     1     -12.524  14.922  67.042  1.00  0.00    -0.300 OA 
HETATM    6  H   UNL     1     -13.238  15.139  67.632  1.00  0.00     0.000 HD 
BRANCH   4   7
HETATM    7  C   UNL     1     -11.466  13.773  68.916  1.00  0.00    -0.304 C  
HETATM    8  O   UNL     1     -12.561  14.106  69.773  1.00  0.00    -0.449 OA 
HETATM    9  H   UNL     1     -12.657  13.465  70.469  1.00  0.00     0.000 HD 
ENDBRANCH   4   7
ENDBRANCH   2   4
TORSDOF 2
ENDMDL
MODEL      155
REMARK 921   NORMALIZED FREE ENERGY PREDICTED BY IDOCK:   -1.69 KCAL/MOL
REMARK 922        TOTAL FREE ENERGY PREDICTED BY IDOCK:   -1.89 KCAL/MOL
REMARK 923 INTER-LIGAND FREE ENERGY PREDICTED BY IDOCK:   -1.87 KCAL/MOL
REMARK 924 INTRA-LIGAND FREE ENERGY PREDICTED BY IDOCK:   -0.02 KCAL/MOL
REMARK 927      BINDING AFFINITY PREDICTED BY RF-SCORE:    0.00 PKD
ROOT
HETATM    1  O   UNL     1     -10.597  10.919  62.778  1.00  0.00    -0.780 OA 
HETATM    2  C   UNL     1      -9.396  10.194  62.559  1.00  0.00    -0.285 C  
HETATM    3  H   UNL     1     -10.920  11.296  61.967  1.00  0.00     0.000 HD 
ENDROOT
BRANCH   2   4
HETATM    4  C   UNL     1      -8.878   9.587  63.862  1.00  0.00    -0.210 C  
HETATM    5  O   UNL     1      -7.501   9.941  64.032  1.00  0.00    -0.127 OA 
HETATM    6  H   UNL     1      -7.178   9.564  64.842  1.00  0.00     0.000 HD 
BRANCH   4   7
HETATM    7  C   UNL     1      -9.704  10.034  65.075  1.00  0.00    -0.317 C  
HETATM    8  O   UNL     1      -8.857  10.461  66.145  1.00  0.00    -0.150 OA 
HETATM    9  H   UNL     1      -9.368  10.738  66.896  1.00  0.00     0.000 HD 
ENDBRANCH   4   7
ENDBRANCH   2   4
TORSDOF 2
ENDMDL
MODEL      156
REMARK 921   NORMALIZED FREE ENERGY PREDICTED BY IDOCK:   -1.68 KCAL/MOL
REMARK 922        TOTAL FREE ENERGY PREDICTED BY IDOCK:   -1.88 KCAL/MOL
REMARK 923 INTER-LIGAND FREE ENERGY PREDICTED BY IDOCK:   -1.70 KCAL/MOL
REMARK 924 INTRA-LIGAND FREE ENERGY PREDICTED BY IDOCK:   -0.18 KCAL/MOL
REMARK 927      BINDING AFFINITY PREDICTED BY RF-SCORE:    0.00 PKD
ROOT
HETATM    1  O   UNL     1     -10.921  16.864  66.935  1.00  0.00    -0.092 OA 
HETATM    2  C   UNL     1     -10.203  18.087  66.883  1.00  0.00    -0.362 C  
HETATM    3  H   UNL     1     -11.293  16.650  66.087  1.00  0.00     0.000 HD 
ENDROOT
BRANCH   2   4
HETATM    4  C   UNL     1      -9.604  18.431  68.245  1.00  0.00    -0.334 C  
HETATM    5  O   UNL     1     -10.351  19.501  68.833  1.00  0.00    -0.565 OA 
HETATM    6  H   UNL     1      -9.978  19.715  69.681  1.00  0.00     0.000 HD 
BRANCH   4   7
HETATM    7  C   UNL     1      -9.570  17.217  69.183  1.00  0.00    -0.116 C  
HETATM    8  O   UNL     1      -8.473  16.355  68.868  1.00  0.00    -0.231 OA 
HETATM    9  H   UNL     1      -8.452  15.603  69.448  1.00  0.00     0.000 HD 
ENDBRANCH   4   7
ENDBRANCH   2   4
TORSDOF 2
ENDMDL
MODEL      157
REMARK 921   NORMALIZED FREE ENERGY PREDICTED BY IDOCK:   -1.68 KCAL/MOL
REMARK 922        TOTAL FREE ENERGY PREDICTED BY IDOCK:   -1.88 KCAL/MOL
REMARK 923 INTER-LIGAND FREE ENERGY PREDICTED BY IDOCK:   -1.87 KCAL/MOL
REMARK 924 INTRA-LIGAND FREE ENERGY PREDICTED BY IDOCK:   -0.00 KCAL/MOL
REMARK 927      BINDING AFFINITY PREDICTED BY RF-SCORE:    0.00 PKD
ROOT
HETATM    1  O   UNL     1      -8.029   8.850  72.235  1.00  0.00    -0.371 OA 
HETATM    2  C   UNL     1      -8.744   8.372  71.106  1.00  0.00    -0.159 C  
HETATM    3  H   UNL     1      -7.462   8.175  72.590  1.00  0.00     0.000 HD 
ENDROOT
BRANCH   2   4
HETATM    4  C   UNL     1      -9.657   9.456  70.535  1.00  0.00    -0.271 C  
HETATM    5  O   UNL     1      -8.863  10.424  69.841  1.00  0.00    -0.384 OA 
HETATM    6  H   UNL     1      -9.431  11.098  69.486  1.00  0.00     0.000 HD 
BRANCH   4   7
HETATM    7  C   UNL     1     -10.733   8.875  69.609  1.00  0.00    -0.217 C  
HETATM    8  O   UNL     1     -11.980   8.735  70.295  1.00  0.00    -0.473 OA 
HETATM    9  H   UNL     1     -12.647   8.375  69.722  1.00  0.00     0.000 HD 
ENDBRANCH   4   7
ENDBRANCH   2   4
TORSDOF 2
ENDMDL
MODEL      158
REMARK 921   NORMALIZED FREE ENERGY PREDICTED BY IDOCK:   -1.68 KCAL/MOL
REMARK 922        TOTAL FREE ENERGY PREDICTED BY IDOCK:   -1.87 KCAL/MOL
REMARK 923 INTER-LIGAND FREE ENERGY PREDICTED BY IDOCK:   -1.69 KCAL/MOL
REMARK 924 INTRA-LIGAND FREE ENERGY PREDICTED BY IDOCK:   -0.18 KCAL/MOL
REMARK 927      BINDING AFFINITY PREDICTED BY RF-SCORE:    0.00 PKD
ROOT
HETATM    1  O   UNL     1     -10.788   6.087  71.173  1.00  0.00    -0.254 OA 
HETATM    2  C   UNL     1     -11.550   6.349  70.005  1.00  0.00    -0.377 C  
HETATM    3  H   UNL     1     -11.329   6.138  71.953  1.00  0.00     0.000 HD 
ENDROOT
BRANCH   2   4
HETATM    4  C   UNL     1     -10.681   6.267  68.752  1.00  0.00    -0.297 C  
HETATM    5  O   UNL     1     -11.113   7.256  67.812  1.00  0.00    -0.496 OA 
HETATM    6  H   UNL     1     -10.571   7.205  67.032  1.00  0.00     0.000 HD 
BRANCH   4   7
HETATM    7  C   UNL     1      -9.190   6.441  69.072  1.00  0.00    -0.129 C  
HETATM    8  O   UNL     1      -8.879   7.810  69.345  1.00  0.00    -0.138 OA 
HETATM    9  H   UNL     1      -7.956   7.917  69.543  1.00  0.00     0.000 HD 
ENDBRANCH   4   7
ENDBRANCH   2   4
TORSDOF 2
ENDMDL
MODEL      159
REMARK 921   NORMALIZED FREE ENERGY PREDICTED BY IDOCK:   -1.65 KCAL/MOL
REMARK 922        TOTAL FREE ENERGY PREDICTED BY IDOCK:   -1.85 KCAL/MOL
REMARK 923 INTER-LIGAND FREE ENERGY PREDICTED BY IDOCK:   -1.85 KCAL/MOL
REMARK 924 INTRA-LIGAND FREE ENERGY PREDICTED BY IDOCK:   -0.00 KCAL/MOL
REMARK 927      BINDING AFFINITY PREDICTED BY RF-SCORE:    0.00 PKD
ROOT
HETATM    1  O   UNL     1      -9.315  15.079  69.680  1.00  0.00    -0.422 OA 
HETATM    2  C   UNL     1     -10.148  16.060  69.081  1.00  0.00    -0.242 C  
HETATM    3  H   UNL     1      -9.754  14.660  70.412  1.00  0.00     0.000 HD 
ENDROOT
BRANCH   2   4
HETATM    4  C   UNL     1      -9.443  16.735  67.906  1.00  0.00    -0.230 C  
HETATM    5  O   UNL     1     -10.418  17.144  66.942  1.00  0.00    -0.320 OA 
HETATM    6  H   UNL     1      -9.980  17.564  66.211  1.00  0.00     0.000 HD 
BRANCH   4   7
HETATM    7  C   UNL     1      -8.591  17.930  68.354  1.00  0.00    -0.293 C  
HETATM    8  O   UNL     1      -9.388  19.111  68.478  1.00  0.00    -0.339 OA 
HETATM    9  H   UNL     1      -8.860  19.851  68.756  1.00  0.00     0.000 HD 
ENDBRANCH   4   7
ENDBRANCH   2   4
TORSDOF 2
ENDMDL
MODEL      160
REMARK 921   NORMALIZED FREE ENERGY PREDICTED BY IDOCK:   -1.65 KCAL/MOL
REMARK 922        TOTAL FREE ENERGY PREDICTED BY IDOCK:   -1.85 KCAL/MOL
REMARK 923 INTER-LIGAND FREE ENERGY PREDICTED BY IDOCK:   -1.84 KCAL/MOL
REMARK 924 INTRA-LIGAND FREE ENERGY PREDICTED BY IDOCK:   -0.01 KCAL/MOL
REMARK 927      BINDING AFFINITY PREDICTED BY RF-SCORE:    0.00 PKD
ROOT
HETATM    1  O   UNL     1      -7.802   8.741  73.330  1.00  0.00    -0.400 OA 
HETATM    2  C   UNL     1      -8.833   7.895  73.816  1.00  0.00    -0.271 C  
HETATM    3  H   UNL     1      -7.427   9.261  74.032  1.00  0.00     0.000 HD 
ENDROOT
BRANCH   2   4
HETATM    4  C   UNL     1      -9.434   7.059  72.687  1.00  0.00    -0.142 C  
HETATM    5  O   UNL     1      -8.551   5.976  72.380  1.00  0.00    -0.120 OA 
HETATM    6  H   UNL     1      -8.925   5.456  71.678  1.00  0.00     0.000 HD 
BRANCH   4   7
HETATM    7  C   UNL     1     -10.832   6.533  73.041  1.00  0.00    -0.261 C  
HETATM    8  O   UNL     1     -11.759   7.609  73.205  1.00  0.00    -0.649 OA 
HETATM    9  H   UNL     1     -12.624   7.284  73.424  1.00  0.00     0.000 HD 
ENDBRANCH   4   7
ENDBRANCH   2   4
TORSDOF 2
ENDMDL
MODEL      161
REMARK 921   NORMALIZED FREE ENERGY PREDICTED BY IDOCK:   -1.63 KCAL/MOL
REMARK 922        TOTAL FREE ENERGY PREDICTED BY IDOCK:   -1.83 KCAL/MOL
REMARK 923 INTER-LIGAND FREE ENERGY PREDICTED BY IDOCK:   -1.83 KCAL/MOL
REMARK 924 INTRA-LIGAND FREE ENERGY PREDICTED BY IDOCK:   -0.00 KCAL/MOL
REMARK 927      BINDING AFFINITY PREDICTED BY RF-SCORE:    0.00 PKD
ROOT
HETATM    1  O   UNL     1      -7.981  12.055  66.517  1.00  0.00    -0.373 OA 
HETATM    2  C   UNL     1      -9.365  11.895  66.791  1.00  0.00    -0.201 C  
HETATM    3  H   UNL     1      -7.776  11.786  65.629  1.00  0.00     0.000 HD 
ENDROOT
BRANCH   2   4
HETATM    4  C   UNL     1      -9.695  12.328  68.218  1.00  0.00    -0.219 C  
HETATM    5  O   UNL     1      -8.598  11.999  69.077  1.00  0.00    -0.361 OA 
HETATM    6  H   UNL     1      -8.804  12.268  69.965  1.00  0.00     0.000 HD 
BRANCH   4   7
HETATM    7  C   UNL     1     -10.021  13.824  68.306  1.00  0.00    -0.243 C  
HETATM    8  O   UNL     1     -10.623  14.146  69.563  1.00  0.00    -0.429 OA 
HETATM    9  H   UNL     1     -10.824  15.073  69.618  1.00  0.00     0.000 HD 
ENDBRANCH   4   7
ENDBRANCH   2   4
TORSDOF 2
ENDMDL
MODEL      162
REMARK 921   NORMALIZED FREE ENERGY PREDICTED BY IDOCK:   -1.61 KCAL/MOL
REMARK 922        TOTAL FREE ENERGY PREDICTED BY IDOCK:   -1.80 KCAL/MOL
REMARK 923 INTER-LIGAND FREE ENERGY PREDICTED BY IDOCK:   -1.80 KCAL/MOL
REMARK 924 INTRA-LIGAND FREE ENERGY PREDICTED BY IDOCK:   -0.00 KCAL/MOL
REMARK 927      BINDING AFFINITY PREDICTED BY RF-SCORE:    0.00 PKD
ROOT
HETATM    1  O   UNL     1      -8.414   7.991  66.477  1.00  0.00    -0.125 OA 
HETATM    2  C   UNL     1      -9.453   8.845  66.025  1.00  0.00    -0.252 C  
HETATM    3  H   UNL     1      -8.668   7.535  67.271  1.00  0.00     0.000 HD 
ENDROOT
BRANCH   2   4
HETATM    4  C   UNL     1      -9.044   9.578  64.748  1.00  0.00    -0.218 C  
HETATM    5  O   UNL     1      -8.998   8.646  63.663  1.00  0.00    -0.393 OA 
HETATM    6  H   UNL     1      -8.744   9.102  62.869  1.00  0.00     0.000 HD 
BRANCH   4   7
HETATM    7  C   UNL     1      -9.992  10.740  64.422  1.00  0.00    -0.338 C  
HETATM    8  O   UNL     1      -9.423  11.605  63.436  1.00  0.00    -0.470 OA 
HETATM    9  H   UNL     1     -10.009  12.325  63.234  1.00  0.00     0.000 HD 
ENDBRANCH   4   7
ENDBRANCH   2   4
TORSDOF 2
ENDMDL
MODEL      163
REMARK 921   NORMALIZED FREE ENERGY PREDICTED BY IDOCK:   -1.59 KCAL/MOL
REMARK 922        TOTAL FREE ENERGY PREDICTED BY IDOCK:   -1.77 KCAL/MOL
REMARK 923 INTER-LIGAND FREE ENERGY PREDICTED BY IDOCK:   -1.77 KCAL/MOL
REMARK 924 INTRA-LIGAND FREE ENERGY PREDICTED BY IDOCK:   -0.00 KCAL/MOL
REMARK 927      BINDING AFFINITY PREDICTED BY RF-SCORE:    0.00 PKD
ROOT
HETATM    1  O   UNL     1     -12.116   6.739  69.695  1.00  0.00    -0.635 OA 
HETATM    2  C   UNL     1     -10.994   5.973  70.106  1.00  0.00    -0.359 C  
HETATM    3  H   UNL     1     -12.390   6.500  68.817  1.00  0.00     0.000 HD 
ENDROOT
BRANCH   2   4
HETATM    4  C   UNL     1     -10.554   6.358  71.517  1.00  0.00    -0.231 C  
HETATM    5  O   UNL     1     -11.395   5.701  72.470  1.00  0.00    -0.283 OA 
HETATM    6  H   UNL     1     -11.121   5.941  73.348  1.00  0.00     0.000 HD 
BRANCH   4   7
HETATM    7  C   UNL     1      -9.079   6.018  71.773  1.00  0.00    -0.145 C  
HETATM    8  O   UNL     1      -8.550   6.805  72.843  1.00  0.00    -0.117 OA 
HETATM    9  H   UNL     1      -7.637   6.595  73.002  1.00  0.00     0.000 HD 
ENDBRANCH   4   7
ENDBRANCH   2   4
TORSDOF 2
ENDMDL
MODEL      164
REMARK 921   NORMALIZED FREE ENERGY PREDICTED BY IDOCK:   -1.58 KCAL/MOL
REMARK 922        TOTAL FREE ENERGY PREDICTED BY IDOCK:   -1.77 KCAL/MOL
REMARK 923 INTER-LIGAND FREE ENERGY PREDICTED BY IDOCK:   -1.55 KCAL/MOL
REMARK 924 INTRA-LIGAND FREE ENERGY PREDICTED BY IDOCK:   -0.22 KCAL/MOL
REMARK 927      BINDING AFFINITY PREDICTED BY RF-SCORE:    0.00 PKD
ROOT
HETATM    1  O   UNL     1      -9.061   5.399  69.167  1.00  0.00    -0.105 OA 
HETATM    2  C   UNL     1      -9.331   6.319  70.213  1.00  0.00    -0.161 C  
HETATM    3  H   UNL     1      -8.227   5.589  68.753  1.00  0.00     0.000 HD 
ENDROOT
BRANCH   2   4
HETATM    4  C   UNL     1     -10.672   6.013  70.880  1.00  0.00    -0.267 C  
HETATM    5  O   UNL     1     -10.659   6.518  72.219  1.00  0.00    -0.204 OA 
HETATM    6  H   UNL     1     -11.493   6.328  72.634  1.00  0.00     0.000 HD 
BRANCH   4   7
HETATM    7  C   UNL     1     -11.853   6.597  70.093  1.00  0.00    -0.284 C  
HETATM    8  O   UNL     1     -11.479   6.884  68.743  1.00  0.00    -0.529 OA 
HETATM    9  H   UNL     1     -12.211   7.245  68.256  1.00  0.00     0.000 HD 
ENDBRANCH   4   7
ENDBRANCH   2   4
TORSDOF 2
ENDMDL
MODEL      165
REMARK 921   NORMALIZED FREE ENERGY PREDICTED BY IDOCK:   -1.57 KCAL/MOL
REMARK 922        TOTAL FREE ENERGY PREDICTED BY IDOCK:   -1.76 KCAL/MOL
REMARK 923 INTER-LIGAND FREE ENERGY PREDICTED BY IDOCK:   -1.73 KCAL/MOL
REMARK 924 INTRA-LIGAND FREE ENERGY PREDICTED BY IDOCK:   -0.03 KCAL/MOL
REMARK 927      BINDING AFFINITY PREDICTED BY RF-SCORE:    0.00 PKD
ROOT
HETATM    1  O   UNL     1     -12.971   7.129  70.573  1.00  0.00    -0.581 OA 
HETATM    2  C   UNL     1     -11.896   6.530  71.282  1.00  0.00    -0.329 C  
HETATM    3  H   UNL     1     -13.793   7.008  71.034  1.00  0.00     0.000 HD 
ENDROOT
BRANCH   2   4
HETATM    4  C   UNL     1     -10.575   6.724  70.541  1.00  0.00    -0.225 C  
HETATM    5  O   UNL     1      -9.643   5.725  70.969  1.00  0.00    -0.163 OA 
HETATM    6  H   UNL     1      -8.820   5.846  70.508  1.00  0.00     0.000 HD 
BRANCH   4   7
HETATM    7  C   UNL     1     -10.756   6.676  69.018  1.00  0.00    -0.259 C  
HETATM    8  O   UNL     1     -10.506   5.362  68.512  1.00  0.00    -0.177 OA 
HETATM    9  H   UNL     1     -10.618   5.333  67.569  1.00  0.00     0.000 HD 
ENDBRANCH   4   7
ENDBRANCH   2   4
TORSDOF 2
ENDMDL
MODEL      166
REMARK 921   NORMALIZED FREE ENERGY PREDICTED BY IDOCK:   -1.57 KCAL/MOL
REMARK 922        TOTAL FREE ENERGY PREDICTED BY IDOCK:   -1.76 KCAL/MOL
REMARK 923 INTER-LIGAND FREE ENERGY PREDICTED BY IDOCK:   -1.76 KCAL/MOL
REMARK 924 INTRA-LIGAND FREE ENERGY PREDICTED BY IDOCK:   -0.00 KCAL/MOL
REMARK 927      BINDING AFFINITY PREDICTED BY RF-SCORE:    0.00 PKD
ROOT
HETATM    1  O   UNL     1      -9.628   3.632  71.962  1.00  0.00    -0.126 OA 
HETATM    2  C   UNL     1      -9.937   4.976  72.294  1.00  0.00    -0.182 C  
HETATM    3  H   UNL     1      -9.482   3.112  72.744  1.00  0.00     0.000 HD 
ENDROOT
BRANCH   2   4
HETATM    4  C   UNL     1     -10.173   5.812  71.037  1.00  0.00    -0.217 C  
HETATM    5  O   UNL     1     -10.274   4.942  69.905  1.00  0.00    -0.257 OA 
HETATM    6  H   UNL     1     -10.421   5.462  69.123  1.00  0.00     0.000 HD 
BRANCH   4   7
HETATM    7  C   UNL     1     -11.425   6.691  71.156  1.00  0.00    -0.320 C  
HETATM    8  O   UNL     1     -12.135   6.744  69.916  1.00  0.00    -0.656 OA 
HETATM    9  H   UNL     1     -12.910   7.289  69.989  1.00  0.00     0.000 HD 
ENDBRANCH   4   7
ENDBRANCH   2   4
TORSDOF 2
ENDMDL
MODEL      167
REMARK 921   NORMALIZED FREE ENERGY PREDICTED BY IDOCK:   -1.57 KCAL/MOL
REMARK 922        TOTAL FREE ENERGY PREDICTED BY IDOCK:   -1.76 KCAL/MOL
REMARK 923 INTER-LIGAND FREE ENERGY PREDICTED BY IDOCK:   -1.74 KCAL/MOL
REMARK 924 INTRA-LIGAND FREE ENERGY PREDICTED BY IDOCK:   -0.01 KCAL/MOL
REMARK 927      BINDING AFFINITY PREDICTED BY RF-SCORE:    0.00 PKD
ROOT
HETATM    1  O   UNL     1      -8.152  18.626  68.424  1.00  0.00    -0.312 OA 
HETATM    2  C   UNL     1      -9.352  17.954  68.778  1.00  0.00    -0.229 C  
HETATM    3  H   UNL     1      -8.089  19.466  68.863  1.00  0.00     0.000 HD 
ENDROOT
BRANCH   2   4
HETATM    4  C   UNL     1      -9.453  16.604  68.071  1.00  0.00    -0.224 C  
HETATM    5  O   UNL     1     -10.829  16.219  67.984  1.00  0.00    -0.321 OA 
HETATM    6  H   UNL     1     -10.892  15.378  67.545  1.00  0.00     0.000 HD 
BRANCH   4   7
HETATM    7  C   UNL     1      -8.812  16.633  66.677  1.00  0.00    -0.248 C  
HETATM    8  O   UNL     1      -8.443  15.318  66.254  1.00  0.00    -0.410 OA 
HETATM    9  H   UNL     1      -8.046  15.336  65.391  1.00  0.00     0.000 HD 
ENDBRANCH   4   7
ENDBRANCH   2   4
TORSDOF 2
ENDMDL
MODEL      168
REMARK 921   NORMALIZED FREE ENERGY PREDICTED BY IDOCK:   -1.54 KCAL/MOL
REMARK 922        TOTAL FREE ENERGY PREDICTED BY IDOCK:   -1.72 KCAL/MOL
REMARK 923 INTER-LIGAND FREE ENERGY PREDICTED BY IDOCK:   -1.69 KCAL/MOL
REMARK 924 INTRA-LIGAND FREE ENERGY PREDICTED BY IDOCK:   -0.03 KCAL/MOL
REMARK 927      BINDING AFFINITY PREDICTED BY RF-SCORE:    0.00 PKD
ROOT
HETATM    1  O   UNL     1      -9.466  19.913  67.162  1.00  0.00    -0.331 OA 
HETATM    2  C   UNL     1      -9.324  19.121  68.331  1.00  0.00    -0.363 C  
HETATM    3  H   UNL     1     -10.070  20.632  67.309  1.00  0.00     0.000 HD 
ENDROOT
BRANCH   2   4
HETATM    4  C   UNL     1      -8.353  17.965  68.096  1.00  0.00    -0.267 C  
HETATM    5  O   UNL     1      -7.311  18.017  69.076  1.00  0.00    -0.262 OA 
HETATM    6  H   UNL     1      -6.707  17.298  68.930  1.00  0.00     0.000 HD 
BRANCH   4   7
HETATM    7  C   UNL     1      -9.058  16.603  68.130  1.00  0.00    -0.213 C  
HETATM    8  O   UNL     1      -9.936  16.452  67.011  1.00  0.00    -0.249 OA 
HETATM    9  H   UNL     1     -10.373  15.608  67.032  1.00  0.00     0.000 HD 
ENDBRANCH   4   7
ENDBRANCH   2   4
TORSDOF 2
ENDMDL
MODEL      169
REMARK 921   NORMALIZED FREE ENERGY PREDICTED BY IDOCK:   -1.53 KCAL/MOL
REMARK 922        TOTAL FREE ENERGY PREDICTED BY IDOCK:   -1.71 KCAL/MOL
REMARK 923 INTER-LIGAND FREE ENERGY PREDICTED BY IDOCK:   -1.71 KCAL/MOL
REMARK 924 INTRA-LIGAND FREE ENERGY PREDICTED BY IDOCK:   -0.00 KCAL/MOL
REMARK 927      BINDING AFFINITY PREDICTED BY RF-SCORE:    0.00 PKD
ROOT
HETATM    1  O   UNL     1     -11.538   4.420  65.012  1.00  0.00    -1.067 OA 
HETATM    2  C   UNL     1     -10.194   4.423  65.466  1.00  0.00    -0.241 C  
HETATM    3  H   UNL     1     -11.983   5.224  65.257  1.00  0.00     0.000 HD 
ENDROOT
BRANCH   2   4
HETATM    4  C   UNL     1      -9.479   3.132  65.073  1.00  0.00    -0.132 C  
HETATM    5  O   UNL     1      -8.743   3.349  63.865  1.00  0.00    -0.093 OA 
HETATM    6  H   UNL     1      -8.298   2.545  63.620  1.00  0.00     0.000 HD 
BRANCH   4   7
HETATM    7  C   UNL     1      -8.553   2.624  66.186  1.00  0.00    -0.111 C  
HETATM    8  O   UNL     1      -7.268   3.247  66.109  1.00  0.00    -0.064 OA 
HETATM    9  H   UNL     1      -6.694   2.932  66.798  1.00  0.00     0.000 HD 
ENDBRANCH   4   7
ENDBRANCH   2   4
TORSDOF 2
ENDMDL
MODEL      170
REMARK 921   NORMALIZED FREE ENERGY PREDICTED BY IDOCK:   -1.53 KCAL/MOL
REMARK 922        TOTAL FREE ENERGY PREDICTED BY IDOCK:   -1.71 KCAL/MOL
REMARK 923 INTER-LIGAND FREE ENERGY PREDICTED BY IDOCK:   -1.50 KCAL/MOL
REMARK 924 INTRA-LIGAND FREE ENERGY PREDICTED BY IDOCK:   -0.21 KCAL/MOL
REMARK 927      BINDING AFFINITY PREDICTED BY RF-SCORE:    0.00 PKD
ROOT
HETATM    1  O   UNL     1      -8.726  14.934  69.740  1.00  0.00    -0.444 OA 
HETATM    2  C   UNL     1      -8.561  16.059  68.890  1.00  0.00    -0.229 C  
HETATM    3  H   UNL     1      -9.480  15.043  70.308  1.00  0.00     0.000 HD 
ENDROOT
BRANCH   2   4
HETATM    4  C   UNL     1      -7.349  15.882  67.977  1.00  0.00    -0.131 C  
HETATM    5  O   UNL     1      -6.197  16.453  68.605  1.00  0.00    -0.125 OA 
HETATM    6  H   UNL     1      -5.443  16.344  68.037  1.00  0.00     0.000 HD 
BRANCH   4   7
HETATM    7  C   UNL     1      -7.100  14.409  67.628  1.00  0.00    -0.183 C  
HETATM    8  O   UNL     1      -8.218  13.849  66.934  1.00  0.00    -0.385 OA 
HETATM    9  H   UNL     1      -8.063  12.937  66.718  1.00  0.00     0.000 HD 
ENDBRANCH   4   7
ENDBRANCH   2   4
TORSDOF 2
ENDMDL
MODEL      171
REMARK 921   NORMALIZED FREE ENERGY PREDICTED BY IDOCK:   -1.51 KCAL/MOL
REMARK 922        TOTAL FREE ENERGY PREDICTED BY IDOCK:   -1.69 KCAL/MOL
REMARK 923 INTER-LIGAND FREE ENERGY PREDICTED BY IDOCK:   -1.54 KCAL/MOL
REMARK 924 INTRA-LIGAND FREE ENERGY PREDICTED BY IDOCK:   -0.15 KCAL/MOL
REMARK 927      BINDING AFFINITY PREDICTED BY RF-SCORE:    0.00 PKD
ROOT
HETATM    1  O   UNL     1      -9.566   4.708  67.490  1.00  0.00    -0.144 OA 
HETATM    2  C   UNL     1     -10.448   4.752  66.379  1.00  0.00    -0.239 C  
HETATM    3  H   UNL     1      -9.991   5.033  68.276  1.00  0.00     0.000 HD 
ENDROOT
BRANCH   2   4
HETATM    4  C   UNL     1      -9.765   4.229  65.116  1.00  0.00    -0.194 C  
HETATM    5  O   UNL     1     -10.682   4.300  64.020  1.00  0.00    -0.469 OA 
HETATM    6  H   UNL     1     -10.258   3.974  63.234  1.00  0.00     0.000 HD 
BRANCH   4   7
HETATM    7  C   UNL     1      -8.478   4.999  64.795  1.00  0.00    -0.148 C  
HETATM    8  O   UNL     1      -8.688   6.411  64.886  1.00  0.00    -0.349 OA 
HETATM    9  H   UNL     1      -7.891   6.888  64.687  1.00  0.00     0.000 HD 
ENDBRANCH   4   7
ENDBRANCH   2   4
TORSDOF 2
ENDMDL
MODEL      172
REMARK 921   NORMALIZED FREE ENERGY PREDICTED BY IDOCK:   -1.50 KCAL/MOL
REMARK 922        TOTAL FREE ENERGY PREDICTED BY IDOCK:   -1.68 KCAL/MOL
REMARK 923 INTER-LIGAND FREE ENERGY PREDICTED BY IDOCK:   -1.67 KCAL/MOL
REMARK 924 INTRA-LIGAND FREE ENERGY PREDICTED BY IDOCK:   -0.00 KCAL/MOL
REMARK 927      BINDING AFFINITY PREDICTED BY RF-SCORE:    0.00 PKD
ROOT
HETATM    1  O   UNL     1     -10.839  14.467  69.977  1.00  0.00    -0.452 OA 
HETATM    2  C   UNL     1     -11.651  15.064  70.976  1.00  0.00    -0.322 C  
HETATM    3  H   UNL     1      -9.956  14.817  70.000  1.00  0.00     0.000 HD 
ENDROOT
BRANCH   2   4
HETATM    4  C   UNL     1     -13.070  14.501  70.939  1.00  0.00    -0.345 C  
HETATM    5  O   UNL     1     -13.380  14.089  69.603  1.00  0.00     0.285 OA 
HETATM    6  H   UNL     1     -14.263  13.738  69.580  1.00  0.00     0.000 HD 
BRANCH   4   7
HETATM    7  C   UNL     1     -13.253  13.335  71.920  1.00  0.00    -0.431 C  
HETATM    8  O   UNL     1     -13.704  13.802  73.194  1.00  0.00    -0.408 OA 
HETATM    9  H   UNL     1     -13.817  13.080  73.801  1.00  0.00     0.000 HD 
ENDBRANCH   4   7
ENDBRANCH   2   4
TORSDOF 2
ENDMDL
MODEL      173
REMARK 921   NORMALIZED FREE ENERGY PREDICTED BY IDOCK:   -1.48 KCAL/MOL
REMARK 922        TOTAL FREE ENERGY PREDICTED BY IDOCK:   -1.65 KCAL/MOL
REMARK 923 INTER-LIGAND FREE ENERGY PREDICTED BY IDOCK:   -1.44 KCAL/MOL
REMARK 924 INTRA-LIGAND FREE ENERGY PREDICTED BY IDOCK:   -0.21 KCAL/MOL
REMARK 927      BINDING AFFINITY PREDICTED BY RF-SCORE:    0.00 PKD
ROOT
HETATM    1  O   UNL     1     -10.058   3.992  70.027  1.00  0.00    -0.113 OA 
HETATM    2  C   UNL     1     -10.164   5.282  70.609  1.00  0.00    -0.257 C  
HETATM    3  H   UNL     1      -9.382   3.479  70.455  1.00  0.00     0.000 HD 
ENDROOT
BRANCH   2   4
HETATM    4  C   UNL     1     -11.250   6.107  69.922  1.00  0.00    -0.414 C  
HETATM    5  O   UNL     1     -11.709   7.124  70.819  1.00  0.00    -0.306 OA 
HETATM    6  H   UNL     1     -12.385   7.637  70.391  1.00  0.00     0.000 HD 
BRANCH   4   7
HETATM    7  C   UNL     1     -10.759   6.727  68.607  1.00  0.00    -0.234 C  
HETATM    8  O   UNL     1      -9.656   5.990  68.073  1.00  0.00    -0.116 OA 
HETATM    9  H   UNL     1      -9.352   6.374  67.259  1.00  0.00     0.000 HD 
ENDBRANCH   4   7
ENDBRANCH   2   4
TORSDOF 2
ENDMDL
MODEL      174
REMARK 921   NORMALIZED FREE ENERGY PREDICTED BY IDOCK:   -1.47 KCAL/MOL
REMARK 922        TOTAL FREE ENERGY PREDICTED BY IDOCK:   -1.64 KCAL/MOL
REMARK 923 INTER-LIGAND FREE ENERGY PREDICTED BY IDOCK:   -1.64 KCAL/MOL
REMARK 924 INTRA-LIGAND FREE ENERGY PREDICTED BY IDOCK:   -0.00 KCAL/MOL
REMARK 927      BINDING AFFINITY PREDICTED BY RF-SCORE:    0.00 PKD
ROOT
HETATM    1  O   UNL     1      -9.742   7.747  68.259  1.00  0.00    -0.153 OA 
HETATM    2  C   UNL     1     -10.288   8.613  67.275  1.00  0.00    -0.296 C  
HETATM    3  H   UNL     1      -9.882   6.836  68.027  1.00  0.00     0.000 HD 
ENDROOT
BRANCH   2   4
HETATM    4  C   UNL     1     -10.063  10.077  67.649  1.00  0.00    -0.190 C  
HETATM    5  O   UNL     1      -8.754  10.475  67.230  1.00  0.00    -0.126 OA 
HETATM    6  H   UNL     1      -8.614  11.386  67.462  1.00  0.00     0.000 HD 
BRANCH   4   7
HETATM    7  C   UNL     1     -11.129  10.997  67.038  1.00  0.00    -0.244 C  
HETATM    8  O   UNL     1     -12.075  11.413  68.027  1.00  0.00    -0.629 OA 
HETATM    9  H   UNL     1     -12.735  11.983  67.649  1.00  0.00     0.000 HD 
ENDBRANCH   4   7
ENDBRANCH   2   4
TORSDOF 2
ENDMDL
MODEL      175
REMARK 921   NORMALIZED FREE ENERGY PREDICTED BY IDOCK:   -1.46 KCAL/MOL
REMARK 922        TOTAL FREE ENERGY PREDICTED BY IDOCK:   -1.63 KCAL/MOL
REMARK 923 INTER-LIGAND FREE ENERGY PREDICTED BY IDOCK:   -1.63 KCAL/MOL
REMARK 924 INTRA-LIGAND FREE ENERGY PREDICTED BY IDOCK:   -0.00 KCAL/MOL
REMARK 927      BINDING AFFINITY PREDICTED BY RF-SCORE:    0.00 PKD
ROOT
HETATM    1  O   UNL     1     -10.054   3.666  65.811  1.00  0.00    -0.409 OA 
HETATM    2  C   UNL     1     -10.633   4.866  66.300  1.00  0.00    -0.255 C  
HETATM    3  H   UNL     1     -10.722   3.015  65.627  1.00  0.00     0.000 HD 
ENDROOT
BRANCH   2   4
HETATM    4  C   UNL     1      -9.560   5.912  66.595  1.00  0.00    -0.153 C  
HETATM    5  O   UNL     1      -9.255   6.628  65.394  1.00  0.00    -0.365 OA 
HETATM    6  H   UNL     1      -8.588   7.279  65.578  1.00  0.00     0.000 HD 
BRANCH   4   7
HETATM    7  C   UNL     1      -9.988   6.879  67.707  1.00  0.00    -0.148 C  
HETATM    8  O   UNL     1     -10.434   8.123  67.162  1.00  0.00    -0.295 OA 
HETATM    9  H   UNL     1     -10.699   8.722  67.850  1.00  0.00     0.000 HD 
ENDBRANCH   4   7
ENDBRANCH   2   4
TORSDOF 2
ENDMDL
MODEL      176
REMARK 921   NORMALIZED FREE ENERGY PREDICTED BY IDOCK:   -1.45 KCAL/MOL
REMARK 922        TOTAL FREE ENERGY PREDICTED BY IDOCK:   -1.63 KCAL/MOL
REMARK 923 INTER-LIGAND FREE ENERGY PREDICTED BY IDOCK:   -1.41 KCAL/MOL
REMARK 924 INTRA-LIGAND FREE ENERGY PREDICTED BY IDOCK:   -0.22 KCAL/MOL
REMARK 927      BINDING AFFINITY PREDICTED BY RF-SCORE:    0.00 PKD
ROOT
HETATM    1  O   UNL     1      -7.670   9.213  66.234  1.00  0.00    -0.094 OA 
HETATM    2  C   UNL     1      -8.492   8.233  66.851  1.00  0.00    -0.118 C  
HETATM    3  H   UNL     1      -6.749   9.027  66.381  1.00  0.00     0.000 HD 
ENDROOT
BRANCH   2   4
HETATM    4  C   UNL     1      -9.971   8.531  66.615  1.00  0.00    -0.293 C  
HETATM    5  O   UNL     1     -10.697   7.299  66.552  1.00  0.00    -0.493 OA 
HETATM    6  H   UNL     1     -11.617   7.484  66.405  1.00  0.00     0.000 HD 
BRANCH   4   7
HETATM    7  C   UNL     1     -10.555   9.446  67.699  1.00  0.00    -0.271 C  
HETATM    8  O   UNL     1      -9.516  10.086  68.446  1.00  0.00    -0.138 OA 
HETATM    9  H   UNL     1      -9.878  10.653  69.117  1.00  0.00     0.000 HD 
ENDBRANCH   4   7
ENDBRANCH   2   4
TORSDOF 2
ENDMDL
MODEL      177
REMARK 921   NORMALIZED FREE ENERGY PREDICTED BY IDOCK:   -1.45 KCAL/MOL
REMARK 922        TOTAL FREE ENERGY PREDICTED BY IDOCK:   -1.63 KCAL/MOL
REMARK 923 INTER-LIGAND FREE ENERGY PREDICTED BY IDOCK:   -1.62 KCAL/MOL
REMARK 924 INTRA-LIGAND FREE ENERGY PREDICTED BY IDOCK:   -0.00 KCAL/MOL
REMARK 927      BINDING AFFINITY PREDICTED BY RF-SCORE:    0.00 PKD
ROOT
HETATM    1  O   UNL     1      -6.935  19.523  67.654  1.00  0.00    -0.227 OA 
HETATM    2  C   UNL     1      -8.273  19.233  67.279  1.00  0.00    -0.277 C  
HETATM    3  H   UNL     1      -6.892  20.313  68.180  1.00  0.00     0.000 HD 
ENDROOT
BRANCH   2   4
HETATM    4  C   UNL     1      -8.342  17.962  66.434  1.00  0.00    -0.242 C  
HETATM    5  O   UNL     1      -7.399  18.057  65.361  1.00  0.00    -0.495 OA 
HETATM    6  H   UNL     1      -7.443  17.266  64.835  1.00  0.00     0.000 HD 
BRANCH   4   7
HETATM    7  C   UNL     1      -8.085  16.700  67.268  1.00  0.00    -0.168 C  
HETATM    8  O   UNL     1      -9.312  16.041  67.593  1.00  0.00    -0.212 OA 
HETATM    9  H   UNL     1      -9.153  15.259  68.109  1.00  0.00     0.000 HD 
ENDBRANCH   4   7
ENDBRANCH   2   4
TORSDOF 2
ENDMDL
MODEL      178
REMARK 921   NORMALIZED FREE ENERGY PREDICTED BY IDOCK:   -1.45 KCAL/MOL
REMARK 922        TOTAL FREE ENERGY PREDICTED BY IDOCK:   -1.63 KCAL/MOL
REMARK 923 INTER-LIGAND FREE ENERGY PREDICTED BY IDOCK:   -1.59 KCAL/MOL
REMARK 924 INTRA-LIGAND FREE ENERGY PREDICTED BY IDOCK:   -0.04 KCAL/MOL
REMARK 927      BINDING AFFINITY PREDICTED BY RF-SCORE:    0.00 PKD
ROOT
HETATM    1  O   UNL     1      -6.426  10.730  65.650  1.00  0.00    -0.246 OA 
HETATM    2  C   UNL     1      -7.237   9.926  64.807  1.00  0.00    -0.136 C  
HETATM    3  H   UNL     1      -5.522  10.438  65.634  1.00  0.00     0.000 HD 
ENDROOT
BRANCH   2   4
HETATM    4  C   UNL     1      -8.690  10.395  64.833  1.00  0.00    -0.184 C  
HETATM    5  O   UNL     1      -9.553   9.271  64.634  1.00  0.00    -0.412 OA 
HETATM    6  H   UNL     1     -10.458   9.563  64.650  1.00  0.00     0.000 HD 
BRANCH   4   7
HETATM    7  C   UNL     1      -9.039  11.118  66.141  1.00  0.00    -0.201 C  
HETATM    8  O   UNL     1      -9.356  12.492  65.899  1.00  0.00    -0.409 OA 
HETATM    9  H   UNL     1      -9.572  12.940  66.709  1.00  0.00     0.000 HD 
ENDBRANCH   4   7
ENDBRANCH   2   4
TORSDOF 2
ENDMDL
MODEL      179
REMARK 921   NORMALIZED FREE ENERGY PREDICTED BY IDOCK:   -1.44 KCAL/MOL
REMARK 922        TOTAL FREE ENERGY PREDICTED BY IDOCK:   -1.61 KCAL/MOL
REMARK 923 INTER-LIGAND FREE ENERGY PREDICTED BY IDOCK:   -1.61 KCAL/MOL
REMARK 924 INTRA-LIGAND FREE ENERGY PREDICTED BY IDOCK:   -0.00 KCAL/MOL
REMARK 927      BINDING AFFINITY PREDICTED BY RF-SCORE:    0.00 PKD
ROOT
HETATM    1  O   UNL     1      -8.037  12.648  66.672  1.00  0.00    -0.405 OA 
HETATM    2  C   UNL     1      -8.118  11.366  67.276  1.00  0.00    -0.148 C  
HETATM    3  H   UNL     1      -7.132  12.891  66.507  1.00  0.00     0.000 HD 
ENDROOT
BRANCH   2   4
HETATM    4  C   UNL     1      -9.571  10.976  67.541  1.00  0.00    -0.164 C  
HETATM    5  O   UNL     1     -10.436  11.865  66.827  1.00  0.00    -0.212 OA 
HETATM    6  H   UNL     1     -11.340  11.622  66.992  1.00  0.00     0.000 HD 
BRANCH   4   7
HETATM    7  C   UNL     1      -9.856   9.518  67.156  1.00  0.00    -0.185 C  
HETATM    8  O   UNL     1     -11.079   9.062  67.741  1.00  0.00    -0.497 OA 
HETATM    9  H   UNL     1     -11.256   8.160  67.503  1.00  0.00     0.000 HD 
ENDBRANCH   4   7
ENDBRANCH   2   4
TORSDOF 2
ENDMDL
MODEL      180
REMARK 921   NORMALIZED FREE ENERGY PREDICTED BY IDOCK:   -1.41 KCAL/MOL
REMARK 922        TOTAL FREE ENERGY PREDICTED BY IDOCK:   -1.58 KCAL/MOL
REMARK 923 INTER-LIGAND FREE ENERGY PREDICTED BY IDOCK:   -1.41 KCAL/MOL
REMARK 924 INTRA-LIGAND FREE ENERGY PREDICTED BY IDOCK:   -0.16 KCAL/MOL
REMARK 927      BINDING AFFINITY PREDICTED BY RF-SCORE:    0.00 PKD
ROOT
HETATM    1  O   UNL     1      -8.104   4.572  64.112  1.00  0.00    -0.092 OA 
HETATM    2  C   UNL     1      -8.693   3.440  64.734  1.00  0.00    -0.111 C  
HETATM    3  H   UNL     1      -7.705   4.336  63.282  1.00  0.00     0.000 HD 
ENDROOT
BRANCH   2   4
HETATM    4  C   UNL     1      -9.336   3.819  66.067  1.00  0.00    -0.170 C  
HETATM    5  O   UNL     1      -8.414   4.608  66.827  1.00  0.00    -0.106 OA 
HETATM    6  H   UNL     1      -8.814   4.844  67.657  1.00  0.00     0.000 HD 
BRANCH   4   7
HETATM    7  C   UNL     1     -10.660   4.570  65.876  1.00  0.00    -0.152 C  
HETATM    8  O   UNL     1     -11.250   4.257  64.611  1.00  0.00    -0.783 OA 
HETATM    9  H   UNL     1     -12.070   4.722  64.493  1.00  0.00     0.000 HD 
ENDBRANCH   4   7
ENDBRANCH   2   4
TORSDOF 2
ENDMDL
MODEL      181
REMARK 921   NORMALIZED FREE ENERGY PREDICTED BY IDOCK:   -1.39 KCAL/MOL
REMARK 922        TOTAL FREE ENERGY PREDICTED BY IDOCK:   -1.56 KCAL/MOL
REMARK 923 INTER-LIGAND FREE ENERGY PREDICTED BY IDOCK:   -1.39 KCAL/MOL
REMARK 924 INTRA-LIGAND FREE ENERGY PREDICTED BY IDOCK:   -0.17 KCAL/MOL
REMARK 927      BINDING AFFINITY PREDICTED BY RF-SCORE:    0.00 PKD
ROOT
HETATM    1  O   UNL     1     -10.024   8.032  72.035  1.00  0.00    -0.183 OA 
HETATM    2  C   UNL     1     -11.226   7.610  72.660  1.00  0.00    -0.366 C  
HETATM    3  H   UNL     1     -10.072   8.948  71.786  1.00  0.00     0.000 HD 
ENDROOT
BRANCH   2   4
HETATM    4  C   UNL     1     -11.149   6.138  73.062  1.00  0.00    -0.218 C  
HETATM    5  O   UNL     1     -10.865   5.347  71.903  1.00  0.00    -0.231 OA 
HETATM    6  H   UNL     1     -10.817   4.431  72.153  1.00  0.00     0.000 HD 
BRANCH   4   7
HETATM    7  C   UNL     1     -10.099   5.893  74.154  1.00  0.00    -0.267 C  
HETATM    8  O   UNL     1      -8.847   5.503  73.584  1.00  0.00    -0.125 OA 
HETATM    9  H   UNL     1      -8.197   5.351  74.260  1.00  0.00     0.000 HD 
ENDBRANCH   4   7
ENDBRANCH   2   4
TORSDOF 2
ENDMDL
MODEL      182
REMARK 921   NORMALIZED FREE ENERGY PREDICTED BY IDOCK:   -1.38 KCAL/MOL
REMARK 922        TOTAL FREE ENERGY PREDICTED BY IDOCK:   -1.54 KCAL/MOL
REMARK 923 INTER-LIGAND FREE ENERGY PREDICTED BY IDOCK:   -1.54 KCAL/MOL
REMARK 924 INTRA-LIGAND FREE ENERGY PREDICTED BY IDOCK:   -0.00 KCAL/MOL
REMARK 927      BINDING AFFINITY PREDICTED BY RF-SCORE:    0.00 PKD
ROOT
HETATM    1  O   UNL     1      -8.337  18.592  67.655  1.00  0.00    -0.262 OA 
HETATM    2  C   UNL     1      -9.303  17.760  68.278  1.00  0.00    -0.288 C  
HETATM    3  H   UNL     1      -8.573  19.509  67.735  1.00  0.00     0.000 HD 
ENDROOT
BRANCH   2   4
HETATM    4  C   UNL     1      -8.922  16.286  68.149  1.00  0.00    -0.187 C  
HETATM    5  O   UNL     1      -7.539  16.185  67.796  1.00  0.00    -0.129 OA 
HETATM    6  H   UNL     1      -7.302  15.268  67.715  1.00  0.00     0.000 HD 
BRANCH   4   7
HETATM    7  C   UNL     1      -9.210  15.501  69.436  1.00  0.00    -0.280 C  
HETATM    8  O   UNL     1      -9.246  14.094  69.182  1.00  0.00    -0.395 OA 
HETATM    9  H   UNL     1      -9.425  13.608  69.979  1.00  0.00     0.000 HD 
ENDBRANCH   4   7
ENDBRANCH   2   4
TORSDOF 2
ENDMDL
MODEL      183
REMARK 921   NORMALIZED FREE ENERGY PREDICTED BY IDOCK:   -1.34 KCAL/MOL
REMARK 922        TOTAL FREE ENERGY PREDICTED BY IDOCK:   -1.50 KCAL/MOL
REMARK 923 INTER-LIGAND FREE ENERGY PREDICTED BY IDOCK:   -1.50 KCAL/MOL
REMARK 924 INTRA-LIGAND FREE ENERGY PREDICTED BY IDOCK:   -0.00 KCAL/MOL
REMARK 927      BINDING AFFINITY PREDICTED BY RF-SCORE:    0.00 PKD
ROOT
HETATM    1  O   UNL     1     -10.573   4.496  71.788  1.00  0.00    -0.099 OA 
HETATM    2  C   UNL     1      -9.959   5.438  72.654  1.00  0.00    -0.165 C  
HETATM    3  H   UNL     1     -10.201   3.630  71.906  1.00  0.00     0.000 HD 
ENDROOT
BRANCH   2   4
HETATM    4  C   UNL     1     -10.557   6.830  72.464  1.00  0.00    -0.221 C  
HETATM    5  O   UNL     1     -11.011   7.325  73.728  1.00  0.00    -0.547 OA 
HETATM    6  H   UNL     1     -11.383   8.192  73.609  1.00  0.00     0.000 HD 
BRANCH   4   7
HETATM    7  C   UNL     1      -9.556   7.806  71.830  1.00  0.00    -0.165 C  
HETATM    8  O   UNL     1      -9.172   8.823  72.759  1.00  0.00    -0.305 OA 
HETATM    9  H   UNL     1      -8.552   9.427  72.366  1.00  0.00     0.000 HD 
ENDBRANCH   4   7
ENDBRANCH   2   4
TORSDOF 2
ENDMDL
MODEL      184
REMARK 921   NORMALIZED FREE ENERGY PREDICTED BY IDOCK:   -1.34 KCAL/MOL
REMARK 922        TOTAL FREE ENERGY PREDICTED BY IDOCK:   -1.50 KCAL/MOL
REMARK 923 INTER-LIGAND FREE ENERGY PREDICTED BY IDOCK:   -1.49 KCAL/MOL
REMARK 924 INTRA-LIGAND FREE ENERGY PREDICTED BY IDOCK:   -0.01 KCAL/MOL
REMARK 927      BINDING AFFINITY PREDICTED BY RF-SCORE:    0.00 PKD
ROOT
HETATM    1  O   UNL     1      -7.177   7.662  63.688  1.00  0.00    -0.070 OA 
HETATM    2  C   UNL     1      -8.390   8.231  64.154  1.00  0.00    -0.043 C  
HETATM    3  H   UNL     1      -7.008   6.826  64.109  1.00  0.00     0.000 HD 
ENDROOT
BRANCH   2   4
HETATM    4  C   UNL     1      -8.661   9.574  63.478  1.00  0.00    -0.213 C  
HETATM    5  O   UNL     1      -9.588   9.384  62.405  1.00  0.00    -0.570 OA 
HETATM    6  H   UNL     1      -9.757  10.220  61.985  1.00  0.00     0.000 HD 
BRANCH   4   7
HETATM    7  C   UNL     1      -9.187  10.622  64.468  1.00  0.00    -0.231 C  
HETATM    8  O   UNL     1      -8.138  11.107  65.309  1.00  0.00    -0.364 OA 
HETATM    9  H   UNL     1      -8.464  11.756  65.922  1.00  0.00     0.000 HD 
ENDBRANCH   4   7
ENDBRANCH   2   4
TORSDOF 2
ENDMDL
MODEL      185
REMARK 921   NORMALIZED FREE ENERGY PREDICTED BY IDOCK:   -1.34 KCAL/MOL
REMARK 922        TOTAL FREE ENERGY PREDICTED BY IDOCK:   -1.50 KCAL/MOL
REMARK 923 INTER-LIGAND FREE ENERGY PREDICTED BY IDOCK:   -1.28 KCAL/MOL
REMARK 924 INTRA-LIGAND FREE ENERGY PREDICTED BY IDOCK:   -0.22 KCAL/MOL
REMARK 927      BINDING AFFINITY PREDICTED BY RF-SCORE:    0.00 PKD
ROOT
HETATM    1  O   UNL     1      -9.970   6.525  65.973  1.00  0.00    -0.403 OA 
HETATM    2  C   UNL     1     -10.566   5.449  66.682  1.00  0.00    -0.294 C  
HETATM    3  H   UNL     1     -10.440   6.705  65.167  1.00  0.00     0.000 HD 
ENDROOT
BRANCH   2   4
HETATM    4  C   UNL     1      -9.811   5.160  67.978  1.00  0.00    -0.151 C  
HETATM    5  O   UNL     1      -8.694   4.311  67.693  1.00  0.00    -0.102 OA 
HETATM    6  H   UNL     1      -8.224   4.131  68.500  1.00  0.00     0.000 HD 
BRANCH   4   7
HETATM    7  C   UNL     1      -9.348   6.446  68.674  1.00  0.00    -0.124 C  
HETATM    8  O   UNL     1     -10.419   7.389  68.777  1.00  0.00    -0.203 OA 
HETATM    9  H   UNL     1     -10.132   8.185  69.208  1.00  0.00     0.000 HD 
ENDBRANCH   4   7
ENDBRANCH   2   4
TORSDOF 2
ENDMDL
MODEL      186
REMARK 921   NORMALIZED FREE ENERGY PREDICTED BY IDOCK:   -1.33 KCAL/MOL
REMARK 922        TOTAL FREE ENERGY PREDICTED BY IDOCK:   -1.49 KCAL/MOL
REMARK 923 INTER-LIGAND FREE ENERGY PREDICTED BY IDOCK:   -1.49 KCAL/MOL
REMARK 924 INTRA-LIGAND FREE ENERGY PREDICTED BY IDOCK:   -0.00 KCAL/MOL
REMARK 927      BINDING AFFINITY PREDICTED BY RF-SCORE:    0.00 PKD
ROOT
HETATM    1  O   UNL     1     -10.328   9.719  65.936  1.00  0.00    -0.214 OA 
HETATM    2  C   UNL     1      -9.049   9.323  65.465  1.00  0.00    -0.221 C  
HETATM    3  H   UNL     1     -10.903   8.968  66.036  1.00  0.00     0.000 HD 
ENDROOT
BRANCH   2   4
HETATM    4  C   UNL     1      -8.126  10.529  65.305  1.00  0.00    -0.131 C  
HETATM    5  O   UNL     1      -8.758  11.685  65.864  1.00  0.00    -0.360 OA 
HETATM    6  H   UNL     1      -8.184  12.436  65.764  1.00  0.00     0.000 HD 
BRANCH   4   7
HETATM    7  C   UNL     1      -6.755  10.296  65.955  1.00  0.00    -0.114 C  
HETATM    8  O   UNL     1      -5.812  11.284  65.533  1.00  0.00    -0.446 OA 
HETATM    9  H   UNL     1      -4.964  11.140  65.936  1.00  0.00     0.000 HD 
ENDBRANCH   4   7
ENDBRANCH   2   4
TORSDOF 2
ENDMDL
MODEL      187
REMARK 921   NORMALIZED FREE ENERGY PREDICTED BY IDOCK:   -1.33 KCAL/MOL
REMARK 922        TOTAL FREE ENERGY PREDICTED BY IDOCK:   -1.48 KCAL/MOL
REMARK 923 INTER-LIGAND FREE ENERGY PREDICTED BY IDOCK:   -1.48 KCAL/MOL
REMARK 924 INTRA-LIGAND FREE ENERGY PREDICTED BY IDOCK:   -0.00 KCAL/MOL
REMARK 927      BINDING AFFINITY PREDICTED BY RF-SCORE:    0.00 PKD
ROOT
HETATM    1  O   UNL     1     -12.643  13.095  70.442  1.00  0.00    -0.226 OA 
HETATM    2  C   UNL     1     -12.357  13.934  71.551  1.00  0.00    -0.237 C  
HETATM    3  H   UNL     1     -11.863  12.941  69.921  1.00  0.00     0.000 HD 
ENDROOT
BRANCH   2   4
HETATM    4  C   UNL     1     -13.610  14.183  72.388  1.00  0.00    -0.532 C  
HETATM    5  O   UNL     1     -13.410  13.658  73.704  1.00  0.00     0.248 OA 
HETATM    6  H   UNL     1     -14.190  13.813  74.225  1.00  0.00     0.000 HD 
BRANCH   4   7
HETATM    7  C   UNL     1     -13.977  15.672  72.449  1.00  0.00    -0.515 C  
HETATM    8  O   UNL     1     -14.170  16.097  73.801  1.00  0.00    -0.220 OA 
HETATM    9  H   UNL     1     -14.397  17.019  73.839  1.00  0.00     0.000 HD 
ENDBRANCH   4   7
ENDBRANCH   2   4
TORSDOF 2
ENDMDL
MODEL      188
REMARK 921   NORMALIZED FREE ENERGY PREDICTED BY IDOCK:   -1.33 KCAL/MOL
REMARK 922        TOTAL FREE ENERGY PREDICTED BY IDOCK:   -1.48 KCAL/MOL
REMARK 923 INTER-LIGAND FREE ENERGY PREDICTED BY IDOCK:   -1.45 KCAL/MOL
REMARK 924 INTRA-LIGAND FREE ENERGY PREDICTED BY IDOCK:   -0.03 KCAL/MOL
REMARK 927      BINDING AFFINITY PREDICTED BY RF-SCORE:    0.00 PKD
ROOT
HETATM    1  O   UNL     1      -6.053  18.205  69.295  1.00  0.00    -0.225 OA 
HETATM    2  C   UNL     1      -7.074  18.932  68.630  1.00  0.00    -0.297 C  
HETATM    3  H   UNL     1      -5.685  18.710  70.011  1.00  0.00     0.000 HD 
ENDROOT
BRANCH   2   4
HETATM    4  C   UNL     1      -7.666  18.120  67.479  1.00  0.00    -0.218 C  
HETATM    5  O   UNL     1      -6.954  16.884  67.360  1.00  0.00    -0.135 OA 
HETATM    6  H   UNL     1      -7.322  16.378  66.644  1.00  0.00     0.000 HD 
BRANCH   4   7
HETATM    7  C   UNL     1      -9.167  17.863  67.667  1.00  0.00    -0.258 C  
HETATM    8  O   UNL     1      -9.623  18.378  68.921  1.00  0.00    -0.320 OA 
HETATM    9  H   UNL     1     -10.553  18.219  69.037  1.00  0.00     0.000 HD 
ENDBRANCH   4   7
ENDBRANCH   2   4
TORSDOF 2
ENDMDL
MODEL      189
REMARK 921   NORMALIZED FREE ENERGY PREDICTED BY IDOCK:   -1.29 KCAL/MOL
REMARK 922        TOTAL FREE ENERGY PREDICTED BY IDOCK:   -1.45 KCAL/MOL
REMARK 923 INTER-LIGAND FREE ENERGY PREDICTED BY IDOCK:   -1.23 KCAL/MOL
REMARK 924 INTRA-LIGAND FREE ENERGY PREDICTED BY IDOCK:   -0.22 KCAL/MOL
REMARK 927      BINDING AFFINITY PREDICTED BY RF-SCORE:    0.00 PKD
ROOT
HETATM    1  O   UNL     1      -8.510   9.333  66.684  1.00  0.00    -0.124 OA 
HETATM    2  C   UNL     1      -9.508  10.035  67.409  1.00  0.00    -0.152 C  
HETATM    3  H   UNL     1      -8.869   8.955  65.888  1.00  0.00     0.000 HD 
ENDROOT
BRANCH   2   4
HETATM    4  C   UNL     1      -8.933  10.641  68.688  1.00  0.00    -0.170 C  
HETATM    5  O   UNL     1      -9.587  11.886  68.956  1.00  0.00    -0.409 OA 
HETATM    6  H   UNL     1      -9.229  12.263  69.751  1.00  0.00     0.000 HD 
BRANCH   4   7
HETATM    7  C   UNL     1      -9.065   9.692  69.886  1.00  0.00    -0.225 C  
HETATM    8  O   UNL     1      -9.273   8.345  69.454  1.00  0.00    -0.153 OA 
HETATM    9  H   UNL     1      -9.354   7.757  70.196  1.00  0.00     0.000 HD 
ENDBRANCH   4   7
ENDBRANCH   2   4
TORSDOF 2
ENDMDL
MODEL      190
REMARK 921   NORMALIZED FREE ENERGY PREDICTED BY IDOCK:   -1.28 KCAL/MOL
REMARK 922        TOTAL FREE ENERGY PREDICTED BY IDOCK:   -1.43 KCAL/MOL
REMARK 923 INTER-LIGAND FREE ENERGY PREDICTED BY IDOCK:   -1.23 KCAL/MOL
REMARK 924 INTRA-LIGAND FREE ENERGY PREDICTED BY IDOCK:   -0.20 KCAL/MOL
REMARK 927      BINDING AFFINITY PREDICTED BY RF-SCORE:    0.00 PKD
ROOT
HETATM    1  O   UNL     1      -9.447   8.932  72.189  1.00  0.00    -0.327 OA 
HETATM    2  C   UNL     1      -9.251   7.998  73.239  1.00  0.00    -0.278 C  
HETATM    3  H   UNL     1     -10.091   9.588  72.431  1.00  0.00     0.000 HD 
ENDROOT
BRANCH   2   4
HETATM    4  C   UNL     1      -8.215   6.945  72.850  1.00  0.00    -0.107 C  
HETATM    5  O   UNL     1      -8.656   6.261  71.673  1.00  0.00    -0.132 OA 
HETATM    6  H   UNL     1      -8.012   5.606  71.431  1.00  0.00     0.000 HD 
BRANCH   4   7
HETATM    7  C   UNL     1      -6.825   7.557  72.631  1.00  0.00    -0.065 C  
HETATM    8  O   UNL     1      -6.811   8.941  72.989  1.00  0.00    -0.323 OA 
HETATM    9  H   UNL     1      -5.950   9.320  72.853  1.00  0.00     0.000 HD 
ENDBRANCH   4   7
ENDBRANCH   2   4
TORSDOF 2
ENDMDL
MODEL      191
REMARK 921   NORMALIZED FREE ENERGY PREDICTED BY IDOCK:   -1.28 KCAL/MOL
REMARK 922        TOTAL FREE ENERGY PREDICTED BY IDOCK:   -1.43 KCAL/MOL
REMARK 923 INTER-LIGAND FREE ENERGY PREDICTED BY IDOCK:   -1.21 KCAL/MOL
REMARK 924 INTRA-LIGAND FREE ENERGY PREDICTED BY IDOCK:   -0.22 KCAL/MOL
REMARK 927      BINDING AFFINITY PREDICTED BY RF-SCORE:    0.00 PKD
ROOT
HETATM    1  O   UNL     1     -10.610   4.208  65.657  1.00  0.00    -0.478 OA 
HETATM    2  C   UNL     1      -9.403   4.952  65.588  1.00  0.00    -0.161 C  
HETATM    3  H   UNL     1     -11.034   4.166  64.808  1.00  0.00     0.000 HD 
ENDROOT
BRANCH   2   4
HETATM    4  C   UNL     1      -8.721   5.019  66.953  1.00  0.00    -0.107 C  
HETATM    5  O   UNL     1      -8.391   6.379  67.250  1.00  0.00    -0.112 OA 
HETATM    6  H   UNL     1      -7.966   6.421  68.100  1.00  0.00     0.000 HD 
BRANCH   4   7
HETATM    7  C   UNL     1      -9.594   4.420  68.064  1.00  0.00    -0.148 C  
HETATM    8  O   UNL     1      -9.472   2.995  68.100  1.00  0.00    -0.201 OA 
HETATM    9  H   UNL     1     -10.013   2.624  68.788  1.00  0.00     0.000 HD 
ENDBRANCH   4   7
ENDBRANCH   2   4
TORSDOF 2
ENDMDL
MODEL      192
REMARK 921   NORMALIZED FREE ENERGY PREDICTED BY IDOCK:   -1.28 KCAL/MOL
REMARK 922        TOTAL FREE ENERGY PREDICTED BY IDOCK:   -1.43 KCAL/MOL
REMARK 923 INTER-LIGAND FREE ENERGY PREDICTED BY IDOCK:   -1.23 KCAL/MOL
REMARK 924 INTRA-LIGAND FREE ENERGY PREDICTED BY IDOCK:   -0.20 KCAL/MOL
REMARK 927      BINDING AFFINITY PREDICTED BY RF-SCORE:    0.00 PKD
ROOT
HETATM    1  O   UNL     1      -9.029   5.406  62.773  1.00  0.00    -0.331 OA 
HETATM    2  C   UNL     1      -9.027   4.034  62.410  1.00  0.00    -0.097 C  
HETATM    3  H   UNL     1      -9.315   5.950  62.048  1.00  0.00     0.000 HD 
ENDROOT
BRANCH   2   4
HETATM    4  C   UNL     1      -8.567   3.159  63.576  1.00  0.00    -0.089 C  
HETATM    5  O   UNL     1      -7.663   3.905  64.397  1.00  0.00    -0.078 OA 
HETATM    6  H   UNL     1      -7.377   3.361  65.122  1.00  0.00     0.000 HD 
BRANCH   4   7
HETATM    7  C   UNL     1      -9.748   2.639  64.406  1.00  0.00    -0.112 C  
HETATM    8  O   UNL     1     -10.937   3.385  64.133  1.00  0.00    -0.520 OA 
HETATM    9  H   UNL     1     -11.668   3.063  64.647  1.00  0.00     0.000 HD 
ENDBRANCH   4   7
ENDBRANCH   2   4
TORSDOF 2
ENDMDL
MODEL      193
REMARK 921   NORMALIZED FREE ENERGY PREDICTED BY IDOCK:   -1.27 KCAL/MOL
REMARK 922        TOTAL FREE ENERGY PREDICTED BY IDOCK:   -1.42 KCAL/MOL
REMARK 923 INTER-LIGAND FREE ENERGY PREDICTED BY IDOCK:   -1.20 KCAL/MOL
REMARK 924 INTRA-LIGAND FREE ENERGY PREDICTED BY IDOCK:   -0.22 KCAL/MOL
REMARK 927      BINDING AFFINITY PREDICTED BY RF-SCORE:    0.00 PKD
ROOT
HETATM    1  O   UNL     1      -8.795  16.659  68.679  1.00  0.00    -0.231 OA 
HETATM    2  C   UNL     1      -8.051  15.627  69.309  1.00  0.00    -0.244 C  
HETATM    3  H   UNL     1      -9.725  16.464  68.687  1.00  0.00     0.000 HD 
ENDROOT
BRANCH   2   4
HETATM    4  C   UNL     1      -6.557  15.942  69.296  1.00  0.00    -0.170 C  
HETATM    5  O   UNL     1      -6.014  15.605  68.015  1.00  0.00    -0.120 OA 
HETATM    6  H   UNL     1      -5.084  15.801  68.007  1.00  0.00     0.000 HD 
BRANCH   4   7
HETATM    7  C   UNL     1      -6.274  17.412  69.633  1.00  0.00    -0.233 C  
HETATM    8  O   UNL     1      -6.317  18.225  68.458  1.00  0.00    -0.202 OA 
HETATM    9  H   UNL     1      -6.142  19.136  68.667  1.00  0.00     0.000 HD 
ENDBRANCH   4   7
ENDBRANCH   2   4
TORSDOF 2
ENDMDL
MODEL      194
REMARK 921   NORMALIZED FREE ENERGY PREDICTED BY IDOCK:   -1.23 KCAL/MOL
REMARK 922        TOTAL FREE ENERGY PREDICTED BY IDOCK:   -1.38 KCAL/MOL
REMARK 923 INTER-LIGAND FREE ENERGY PREDICTED BY IDOCK:   -1.37 KCAL/MOL
REMARK 924 INTRA-LIGAND FREE ENERGY PREDICTED BY IDOCK:   -0.01 KCAL/MOL
REMARK 927      BINDING AFFINITY PREDICTED BY RF-SCORE:    0.00 PKD
ROOT
HETATM    1  O   UNL     1     -10.371   5.021  71.070  1.00  0.00    -0.223 OA 
HETATM    2  C   UNL     1     -10.069   4.338  72.277  1.00  0.00    -0.182 C  
HETATM    3  H   UNL     1     -10.772   4.435  70.438  1.00  0.00     0.000 HD 
ENDROOT
BRANCH   2   4
HETATM    4  C   UNL     1      -9.426   5.280  73.294  1.00  0.00    -0.141 C  
HETATM    5  O   UNL     1      -8.161   5.723  72.792  1.00  0.00    -0.111 OA 
HETATM    6  H   UNL     1      -7.761   6.309  73.425  1.00  0.00     0.000 HD 
BRANCH   4   7
HETATM    7  C   UNL     1     -10.328   6.478  73.621  1.00  0.00    -0.304 C  
HETATM    8  O   UNL     1      -9.599   7.495  74.313  1.00  0.00    -0.409 OA 
HETATM    9  H   UNL     1     -10.157   8.237  74.515  1.00  0.00     0.000 HD 
ENDBRANCH   4   7
ENDBRANCH   2   4
TORSDOF 2
ENDMDL
MODEL      195
REMARK 921   NORMALIZED FREE ENERGY PREDICTED BY IDOCK:   -1.22 KCAL/MOL
REMARK 922        TOTAL FREE ENERGY PREDICTED BY IDOCK:   -1.37 KCAL/MOL
REMARK 923 INTER-LIGAND FREE ENERGY PREDICTED BY IDOCK:   -1.18 KCAL/MOL
REMARK 924 INTRA-LIGAND FREE ENERGY PREDICTED BY IDOCK:   -0.19 KCAL/MOL
REMARK 927      BINDING AFFINITY PREDICTED BY RF-SCORE:    0.00 PKD
ROOT
HETATM    1  O   UNL     1      -7.374   6.912  68.092  1.00  0.00    -0.091 OA 
HETATM    2  C   UNL     1      -8.607   6.668  67.433  1.00  0.00    -0.119 C  
HETATM    3  H   UNL     1      -6.839   6.127  68.119  1.00  0.00     0.000 HD 
ENDROOT
BRANCH   2   4
HETATM    4  C   UNL     1      -9.466   7.930  67.390  1.00  0.00    -0.144 C  
HETATM    5  O   UNL     1     -10.094   8.030  66.107  1.00  0.00    -0.475 OA 
HETATM    6  H   UNL     1     -10.628   8.816  66.081  1.00  0.00     0.000 HD 
BRANCH   4   7
HETATM    7  C   UNL     1     -10.516   7.952  68.509  1.00  0.00    -0.167 C  
HETATM    8  O   UNL     1      -9.939   7.571  69.761  1.00  0.00    -0.182 OA 
HETATM    9  H   UNL     1     -10.590   7.584  70.454  1.00  0.00     0.000 HD 
ENDBRANCH   4   7
ENDBRANCH   2   4
TORSDOF 2
ENDMDL
MODEL      196
REMARK 921   NORMALIZED FREE ENERGY PREDICTED BY IDOCK:   -1.21 KCAL/MOL
REMARK 922        TOTAL FREE ENERGY PREDICTED BY IDOCK:   -1.35 KCAL/MOL
REMARK 923 INTER-LIGAND FREE ENERGY PREDICTED BY IDOCK:   -1.16 KCAL/MOL
REMARK 924 INTRA-LIGAND FREE ENERGY PREDICTED BY IDOCK:   -0.19 KCAL/MOL
REMARK 927      BINDING AFFINITY PREDICTED BY RF-SCORE:    0.00 PKD
ROOT
HETATM    1  O   UNL     1     -10.011   6.688  73.706  1.00  0.00    -0.212 OA 
HETATM    2  C   UNL     1     -10.687   5.456  73.508  1.00  0.00    -0.287 C  
HETATM    3  H   UNL     1      -9.942   6.894  74.632  1.00  0.00     0.000 HD 
ENDROOT
BRANCH   2   4
HETATM    4  C   UNL     1     -10.798   5.125  72.020  1.00  0.00    -0.125 C  
HETATM    5  O   UNL     1     -11.273   6.276  71.315  1.00  0.00    -0.276 OA 
HETATM    6  H   UNL     1     -11.342   6.069  70.389  1.00  0.00     0.000 HD 
BRANCH   4   7
HETATM    7  C   UNL     1      -9.463   4.646  71.436  1.00  0.00    -0.157 C  
HETATM    8  O   UNL     1      -8.581   4.196  72.468  1.00  0.00    -0.101 OA 
HETATM    9  H   UNL     1      -7.755   3.900  72.106  1.00  0.00     0.000 HD 
ENDBRANCH   4   7
ENDBRANCH   2   4
TORSDOF 2
ENDMDL
MODEL      197
REMARK 921   NORMALIZED FREE ENERGY PREDICTED BY IDOCK:   -1.20 KCAL/MOL
REMARK 922        TOTAL FREE ENERGY PREDICTED BY IDOCK:   -1.34 KCAL/MOL
REMARK 923 INTER-LIGAND FREE ENERGY PREDICTED BY IDOCK:   -1.34 KCAL/MOL
REMARK 924 INTRA-LIGAND FREE ENERGY PREDICTED BY IDOCK:   -0.00 KCAL/MOL
REMARK 927      BINDING AFFINITY PREDICTED BY RF-SCORE:    0.00 PKD
ROOT
HETATM    1  O   UNL     1      -8.418   7.515  68.196  1.00  0.00    -0.123 OA 
HETATM    2  C   UNL     1      -8.658   8.129  69.453  1.00  0.00    -0.135 C  
HETATM    3  H   UNL     1      -7.503   7.272  68.104  1.00  0.00     0.000 HD 
ENDROOT
BRANCH   2   4
HETATM    4  C   UNL     1     -10.127   8.519  69.601  1.00  0.00    -0.202 C  
HETATM    5  O   UNL     1     -10.909   7.339  69.813  1.00  0.00    -0.239 OA 
HETATM    6  H   UNL     1     -11.824   7.582  69.906  1.00  0.00     0.000 HD 
BRANCH   4   7
HETATM    7  C   UNL     1     -10.345   9.524  70.740  1.00  0.00    -0.306 C  
HETATM    8  O   UNL     1     -10.256   8.882  72.015  1.00  0.00    -0.334 OA 
HETATM    9  H   UNL     1     -10.391   9.504  72.720  1.00  0.00     0.000 HD 
ENDBRANCH   4   7
ENDBRANCH   2   4
TORSDOF 2
ENDMDL
MODEL      198
REMARK 921   NORMALIZED FREE ENERGY PREDICTED BY IDOCK:   -1.19 KCAL/MOL
REMARK 922        TOTAL FREE ENERGY PREDICTED BY IDOCK:   -1.33 KCAL/MOL
REMARK 923 INTER-LIGAND FREE ENERGY PREDICTED BY IDOCK:   -1.11 KCAL/MOL
REMARK 924 INTRA-LIGAND FREE ENERGY PREDICTED BY IDOCK:   -0.22 KCAL/MOL
REMARK 927      BINDING AFFINITY PREDICTED BY RF-SCORE:    0.00 PKD
ROOT
HETATM    1  O   UNL     1      -9.364   5.113  63.351  1.00  0.00    -0.347 OA 
HETATM    2  C   UNL     1      -9.884   3.814  63.109  1.00  0.00    -0.153 C  
HETATM    3  H   UNL     1      -9.141   5.549  62.536  1.00  0.00     0.000 HD 
ENDROOT
BRANCH   2   4
HETATM    4  C   UNL     1     -10.243   3.114  64.418  1.00  0.00    -0.047 C  
HETATM    5  O   UNL     1     -10.403   1.713  64.175  1.00  0.00    -0.329 OA 
HETATM    6  H   UNL     1     -10.626   1.277  64.990  1.00  0.00     0.000 HD 
BRANCH   4   7
HETATM    7  C   UNL     1      -9.190   3.356  65.508  1.00  0.00    -0.153 C  
HETATM    8  O   UNL     1      -7.868   3.182  64.993  1.00  0.00    -0.080 OA 
HETATM    9  H   UNL     1      -7.216   3.332  65.668  1.00  0.00     0.000 HD 
ENDBRANCH   4   7
ENDBRANCH   2   4
TORSDOF 2
ENDMDL
MODEL      199
REMARK 921   NORMALIZED FREE ENERGY PREDICTED BY IDOCK:   -1.17 KCAL/MOL
REMARK 922        TOTAL FREE ENERGY PREDICTED BY IDOCK:   -1.31 KCAL/MOL
REMARK 923 INTER-LIGAND FREE ENERGY PREDICTED BY IDOCK:   -1.31 KCAL/MOL
REMARK 924 INTRA-LIGAND FREE ENERGY PREDICTED BY IDOCK:   -0.00 KCAL/MOL
REMARK 927      BINDING AFFINITY PREDICTED BY RF-SCORE:    0.00 PKD
ROOT
HETATM    1  O   UNL     1      -8.097   4.581  64.113  1.00  0.00    -0.092 OA 
HETATM    2  C   UNL     1      -8.644   3.464  64.798  1.00  0.00    -0.101 C  
HETATM    3  H   UNL     1      -7.718   4.319  63.281  1.00  0.00     0.000 HD 
ENDROOT
BRANCH   2   4
HETATM    4  C   UNL     1      -9.254   3.885  66.134  1.00  0.00    -0.160 C  
HETATM    5  O   UNL     1     -10.617   4.272  65.930  1.00  0.00    -0.467 OA 
HETATM    6  H   UNL     1     -10.996   4.534  66.761  1.00  0.00     0.000 HD 
BRANCH   4   7
HETATM    7  C   UNL     1      -9.159   2.773  67.186  1.00  0.00    -0.165 C  
HETATM    8  O   UNL     1      -9.746   1.560  66.706  1.00  0.00    -0.325 OA 
HETATM    9  H   UNL     1      -9.687   0.871  67.358  1.00  0.00     0.000 HD 
ENDBRANCH   4   7
ENDBRANCH   2   4
TORSDOF 2
ENDMDL
MODEL      200
REMARK 921   NORMALIZED FREE ENERGY PREDICTED BY IDOCK:   -1.17 KCAL/MOL
REMARK 922        TOTAL FREE ENERGY PREDICTED BY IDOCK:   -1.31 KCAL/MOL
REMARK 923 INTER-LIGAND FREE ENERGY PREDICTED BY IDOCK:   -1.13 KCAL/MOL
REMARK 924 INTRA-LIGAND FREE ENERGY PREDICTED BY IDOCK:   -0.18 KCAL/MOL
REMARK 927      BINDING AFFINITY PREDICTED BY RF-SCORE:    0.00 PKD
ROOT
HETATM    1  O   UNL     1     -10.314   3.542  65.327  1.00  0.00    -0.407 OA 
HETATM    2  C   UNL     1     -10.233   4.594  66.276  1.00  0.00    -0.275 C  
HETATM    3  H   UNL     1     -11.065   3.655  64.755  1.00  0.00     0.000 HD 
ENDROOT
BRANCH   2   4
HETATM    4  C   UNL     1      -9.026   4.412  67.195  1.00  0.00    -0.119 C  
HETATM    5  O   UNL     1      -9.470   3.924  68.466  1.00  0.00    -0.156 OA 
HETATM    6  H   UNL     1      -8.720   3.810  69.038  1.00  0.00     0.000 HD 
BRANCH   4   7
HETATM    7  C   UNL     1      -7.978   3.468  66.591  1.00  0.00    -0.088 C  
HETATM    8  O   UNL     1      -8.429   2.112  66.623  1.00  0.00    -0.089 OA 
HETATM    9  H   UNL     1      -7.780   1.527  66.249  1.00  0.00     0.000 HD 
ENDBRANCH   4   7
ENDBRANCH   2   4
TORSDOF 2
ENDMDL
MODEL      201
REMARK 921   NORMALIZED FREE ENERGY PREDICTED BY IDOCK:   -1.15 KCAL/MOL
REMARK 922        TOTAL FREE ENERGY PREDICTED BY IDOCK:   -1.29 KCAL/MOL
REMARK 923 INTER-LIGAND FREE ENERGY PREDICTED BY IDOCK:   -1.08 KCAL/MOL
REMARK 924 INTRA-LIGAND FREE ENERGY PREDICTED BY IDOCK:   -0.21 KCAL/MOL
REMARK 927      BINDING AFFINITY PREDICTED BY RF-SCORE:    0.00 PKD
ROOT
HETATM    1  O   UNL     1      -9.577   4.490  70.945  1.00  0.00    -0.153 OA 
HETATM    2  C   UNL     1      -8.698   5.284  71.728  1.00  0.00    -0.134 C  
HETATM    3  H   UNL     1      -9.330   3.573  70.980  1.00  0.00     0.000 HD 
ENDROOT
BRANCH   2   4
HETATM    4  C   UNL     1      -9.094   6.758  71.671  1.00  0.00    -0.144 C  
HETATM    5  O   UNL     1      -9.759   7.021  70.431  1.00  0.00    -0.176 OA 
HETATM    6  H   UNL     1     -10.005   7.939  70.396  1.00  0.00     0.000 HD 
BRANCH   4   7
HETATM    7  C   UNL     1      -9.981   7.163  72.856  1.00  0.00    -0.197 C  
HETATM    8  O   UNL     1     -10.934   6.140  73.157  1.00  0.00    -0.280 OA 
HETATM    9  H   UNL     1     -11.484   6.391  73.891  1.00  0.00     0.000 HD 
ENDBRANCH   4   7
ENDBRANCH   2   4
TORSDOF 2
ENDMDL
MODEL      202
REMARK 921   NORMALIZED FREE ENERGY PREDICTED BY IDOCK:   -1.13 KCAL/MOL
REMARK 922        TOTAL FREE ENERGY PREDICTED BY IDOCK:   -1.27 KCAL/MOL
REMARK 923 INTER-LIGAND FREE ENERGY PREDICTED BY IDOCK:   -1.26 KCAL/MOL
REMARK 924 INTRA-LIGAND FREE ENERGY PREDICTED BY IDOCK:   -0.01 KCAL/MOL
REMARK 927      BINDING AFFINITY PREDICTED BY RF-SCORE:    0.00 PKD
ROOT
HETATM    1  O   UNL     1      -7.780   4.594  65.217  1.00  0.00    -0.083 OA 
HETATM    2  C   UNL     1      -8.488   5.820  65.321  1.00  0.00    -0.148 C  
HETATM    3  H   UNL     1      -8.143   3.940  65.803  1.00  0.00     0.000 HD 
ENDROOT
BRANCH   2   4
HETATM    4  C   UNL     1      -7.905   6.872  64.379  1.00  0.00    -0.112 C  
HETATM    5  O   UNL     1      -8.438   6.675  63.065  1.00  0.00    -0.337 OA 
HETATM    6  H   UNL     1      -8.075   7.330  62.479  1.00  0.00     0.000 HD 
BRANCH   4   7
HETATM    7  C   UNL     1      -8.182   8.300  64.867  1.00  0.00    -0.151 C  
HETATM    8  O   UNL     1      -9.426   8.370  65.568  1.00  0.00    -0.431 OA 
HETATM    9  H   UNL     1      -9.598   9.255  65.870  1.00  0.00     0.000 HD 
ENDBRANCH   4   7
ENDBRANCH   2   4
TORSDOF 2
ENDMDL
MODEL      203
REMARK 921   NORMALIZED FREE ENERGY PREDICTED BY IDOCK:   -1.13 KCAL/MOL
REMARK 922        TOTAL FREE ENERGY PREDICTED BY IDOCK:   -1.26 KCAL/MOL
REMARK 923 INTER-LIGAND FREE ENERGY PREDICTED BY IDOCK:   -1.09 KCAL/MOL
REMARK 924 INTRA-LIGAND FREE ENERGY PREDICTED BY IDOCK:   -0.17 KCAL/MOL
REMARK 927      BINDING AFFINITY PREDICTED BY RF-SCORE:    0.00 PKD
ROOT
HETATM    1  O   UNL     1      -9.665   7.107  66.271  1.00  0.00    -0.379 OA 
HETATM    2  C   UNL     1      -8.875   7.049  67.449  1.00  0.00    -0.119 C  
HETATM    3  H   UNL     1     -10.041   6.258  66.070  1.00  0.00     0.000 HD 
ENDROOT
BRANCH   2   4
HETATM    4  C   UNL     1      -8.271   8.414  67.773  1.00  0.00    -0.126 C  
HETATM    5  O   UNL     1      -8.226   9.205  66.581  1.00  0.00    -0.113 OA 
HETATM    6  H   UNL     1      -7.850  10.054  66.783  1.00  0.00     0.000 HD 
BRANCH   4   7
HETATM    7  C   UNL     1      -9.052   9.142  68.875  1.00  0.00    -0.139 C  
HETATM    8  O   UNL     1     -10.460   9.074  68.638  1.00  0.00    -0.213 OA 
HETATM    9  H   UNL     1     -10.944   9.525  69.320  1.00  0.00     0.000 HD 
ENDBRANCH   4   7
ENDBRANCH   2   4
TORSDOF 2
ENDMDL
MODEL      204
REMARK 921   NORMALIZED FREE ENERGY PREDICTED BY IDOCK:   -1.09 KCAL/MOL
REMARK 922        TOTAL FREE ENERGY PREDICTED BY IDOCK:   -1.21 KCAL/MOL
REMARK 923 INTER-LIGAND FREE ENERGY PREDICTED BY IDOCK:   -1.21 KCAL/MOL
REMARK 924 INTRA-LIGAND FREE ENERGY PREDICTED BY IDOCK:   -0.00 KCAL/MOL
REMARK 927      BINDING AFFINITY PREDICTED BY RF-SCORE:    0.00 PKD
ROOT
HETATM    1  O   UNL     1      -8.557   8.861  63.266  1.00  0.00    -0.322 OA 
HETATM    2  C   UNL     1      -8.486   9.592  64.480  1.00  0.00    -0.178 C  
HETATM    3  H   UNL     1      -8.414   9.429  62.517  1.00  0.00     0.000 HD 
ENDROOT
BRANCH   2   4
HETATM    4  C   UNL     1      -8.716   8.680  65.684  1.00  0.00    -0.182 C  
HETATM    5  O   UNL     1      -8.868   7.331  65.231  1.00  0.00    -0.364 OA 
HETATM    6  H   UNL     1      -9.011   6.764  65.980  1.00  0.00     0.000 HD 
BRANCH   4   7
HETATM    7  C   UNL     1      -7.579   8.782  66.709  1.00  0.00    -0.090 C  
HETATM    8  O   UNL     1      -6.928   7.520  66.880  1.00  0.00    -0.074 OA 
HETATM    9  H   UNL     1      -6.223   7.583  67.514  1.00  0.00     0.000 HD 
ENDBRANCH   4   7
ENDBRANCH   2   4
TORSDOF 2
ENDMDL
MODEL      205
REMARK 921   NORMALIZED FREE ENERGY PREDICTED BY IDOCK:   -1.08 KCAL/MOL
REMARK 922        TOTAL FREE ENERGY PREDICTED BY IDOCK:   -1.21 KCAL/MOL
REMARK 923 INTER-LIGAND FREE ENERGY PREDICTED BY IDOCK:   -1.20 KCAL/MOL
REMARK 924 INTRA-LIGAND FREE ENERGY PREDICTED BY IDOCK:   -0.00 KCAL/MOL
REMARK 927      BINDING AFFINITY PREDICTED BY RF-SCORE:    0.00 PKD
ROOT
HETATM    1  O   UNL     1      -9.551   3.358  69.394  1.00  0.00    -0.172 OA 
HETATM    2  C   UNL     1      -9.713   4.754  69.191  1.00  0.00    -0.188 C  
HETATM    3  H   UNL     1      -9.115   2.954  68.652  1.00  0.00     0.000 HD 
ENDROOT
BRANCH   2   4
HETATM    4  C   UNL     1     -10.413   5.404  70.383  1.00  0.00    -0.275 C  
HETATM    5  O   UNL     1     -10.074   4.690  71.577  1.00  0.00    -0.191 OA 
HETATM    6  H   UNL     1     -10.510   5.094  72.318  1.00  0.00     0.000 HD 
BRANCH   4   7
HETATM    7  C   UNL     1     -10.057   6.889  70.522  1.00  0.00    -0.187 C  
HETATM    8  O   UNL     1     -10.398   7.380  71.821  1.00  0.00    -0.192 OA 
HETATM    9  H   UNL     1     -10.177   8.301  71.907  1.00  0.00     0.000 HD 
ENDBRANCH   4   7
ENDBRANCH   2   4
TORSDOF 2
ENDMDL
MODEL      206
REMARK 921   NORMALIZED FREE ENERGY PREDICTED BY IDOCK:   -1.05 KCAL/MOL
REMARK 922        TOTAL FREE ENERGY PREDICTED BY IDOCK:   -1.18 KCAL/MOL
REMARK 923 INTER-LIGAND FREE ENERGY PREDICTED BY IDOCK:   -1.17 KCAL/MOL
REMARK 924 INTRA-LIGAND FREE ENERGY PREDICTED BY IDOCK:   -0.00 KCAL/MOL
REMARK 927      BINDING AFFINITY PREDICTED BY RF-SCORE:    0.00 PKD
ROOT
HETATM    1  O   UNL     1      -8.575   9.187  71.764  1.00  0.00    -0.340 OA 
HETATM    2  C   UNL     1      -8.591   7.930  71.105  1.00  0.00    -0.128 C  
HETATM    3  H   UNL     1      -7.701   9.401  72.070  1.00  0.00     0.000 HD 
ENDROOT
BRANCH   2   4
HETATM    4  C   UNL     1      -9.995   7.586  70.612  1.00  0.00    -0.183 C  
HETATM    5  O   UNL     1     -10.732   8.796  70.404  1.00  0.00    -0.213 OA 
HETATM    6  H   UNL     1     -11.606   8.582  70.098  1.00  0.00     0.000 HD 
BRANCH   4   7
HETATM    7  C   UNL     1      -9.967   6.744  69.330  1.00  0.00    -0.160 C  
HETATM    8  O   UNL     1      -9.716   5.367  69.625  1.00  0.00    -0.150 OA 
HETATM    9  H   UNL     1      -9.698   4.846  68.831  1.00  0.00     0.000 HD 
ENDBRANCH   4   7
ENDBRANCH   2   4
TORSDOF 2
ENDMDL
MODEL      207
REMARK 921   NORMALIZED FREE ENERGY PREDICTED BY IDOCK:   -1.04 KCAL/MOL
REMARK 922        TOTAL FREE ENERGY PREDICTED BY IDOCK:   -1.16 KCAL/MOL
REMARK 923 INTER-LIGAND FREE ENERGY PREDICTED BY IDOCK:   -0.94 KCAL/MOL
REMARK 924 INTRA-LIGAND FREE ENERGY PREDICTED BY IDOCK:   -0.22 KCAL/MOL
REMARK 927      BINDING AFFINITY PREDICTED BY RF-SCORE:    0.00 PKD
ROOT
HETATM    1  O   UNL     1      -8.704   7.470  66.264  1.00  0.00    -0.136 OA 
HETATM    2  C   UNL     1      -7.656   8.397  66.023  1.00  0.00    -0.085 C  
HETATM    3  H   UNL     1      -9.057   7.574  67.141  1.00  0.00     0.000 HD 
ENDROOT
BRANCH   2   4
HETATM    4  C   UNL     1      -7.090   8.231  64.614  1.00  0.00    -0.080 C  
HETATM    5  O   UNL     1      -6.721   6.863  64.412  1.00  0.00    -0.044 OA 
HETATM    6  H   UNL     1      -6.368   6.760  63.535  1.00  0.00     0.000 HD 
BRANCH   4   7
HETATM    7  C   UNL     1      -8.082   8.688  63.537  1.00  0.00    -0.167 C  
HETATM    8  O   UNL     1      -9.229   9.308  64.125  1.00  0.00    -0.432 OA 
HETATM    9  H   UNL     1      -9.844   9.591  63.457  1.00  0.00     0.000 HD 
ENDBRANCH   4   7
ENDBRANCH   2   4
TORSDOF 2
ENDMDL
MODEL      208
REMARK 921   NORMALIZED FREE ENERGY PREDICTED BY IDOCK:   -1.04 KCAL/MOL
REMARK 922        TOTAL FREE ENERGY PREDICTED BY IDOCK:   -1.16 KCAL/MOL
REMARK 923 INTER-LIGAND FREE ENERGY PREDICTED BY IDOCK:   -0.94 KCAL/MOL
REMARK 924 INTRA-LIGAND FREE ENERGY PREDICTED BY IDOCK:   -0.22 KCAL/MOL
REMARK 927      BINDING AFFINITY PREDICTED BY RF-SCORE:    0.00 PKD
ROOT
HETATM    1  O   UNL     1      -6.141   8.428  63.707  1.00  0.00    -0.070 OA 
HETATM    2  C   UNL     1      -6.562   7.386  64.574  1.00  0.00    -0.040 C  
HETATM    3  H   UNL     1      -5.272   8.257  63.363  1.00  0.00     0.000 HD 
ENDROOT
BRANCH   2   4
HETATM    4  C   UNL     1      -7.959   7.662  65.126  1.00  0.00    -0.130 C  
HETATM    5  O   UNL     1      -7.909   7.664  66.556  1.00  0.00    -0.100 OA 
HETATM    6  H   UNL     1      -8.779   7.836  66.900  1.00  0.00     0.000 HD 
BRANCH   4   7
HETATM    7  C   UNL     1      -8.535   8.985  64.603  1.00  0.00    -0.177 C  
HETATM    8  O   UNL     1      -9.034   8.837  63.272  1.00  0.00    -0.421 OA 
HETATM    9  H   UNL     1      -9.391   9.656  62.948  1.00  0.00     0.000 HD 
ENDBRANCH   4   7
ENDBRANCH   2   4
TORSDOF 2
ENDMDL
MODEL      209
REMARK 921   NORMALIZED FREE ENERGY PREDICTED BY IDOCK:   -1.03 KCAL/MOL
REMARK 922        TOTAL FREE ENERGY PREDICTED BY IDOCK:   -1.15 KCAL/MOL
REMARK 923 INTER-LIGAND FREE ENERGY PREDICTED BY IDOCK:   -1.14 KCAL/MOL
REMARK 924 INTRA-LIGAND FREE ENERGY PREDICTED BY IDOCK:   -0.01 KCAL/MOL
REMARK 927      BINDING AFFINITY PREDICTED BY RF-SCORE:    0.00 PKD
ROOT
HETATM    1  O   UNL     1      -7.304   7.910  69.304  1.00  0.00    -0.078 OA 
HETATM    2  C   UNL     1      -8.467   7.763  68.504  1.00  0.00    -0.129 C  
HETATM    3  H   UNL     1      -6.919   7.064  69.505  1.00  0.00     0.000 HD 
ENDROOT
BRANCH   2   4
HETATM    4  C   UNL     1      -9.086   9.122  68.181  1.00  0.00    -0.132 C  
HETATM    5  O   UNL     1      -9.931   8.995  67.033  1.00  0.00    -0.191 OA 
HETATM    6  H   UNL     1     -10.316   9.841  66.833  1.00  0.00     0.000 HD 
BRANCH   4   7
HETATM    7  C   UNL     1      -9.870   9.696  69.369  1.00  0.00    -0.193 C  
HETATM    8  O   UNL     1      -9.665  11.106  69.486  1.00  0.00    -0.418 OA 
HETATM    9  H   UNL     1     -10.151  11.461  70.222  1.00  0.00     0.000 HD 
ENDBRANCH   4   7
ENDBRANCH   2   4
TORSDOF 2
ENDMDL
MODEL      210
REMARK 921   NORMALIZED FREE ENERGY PREDICTED BY IDOCK:   -0.99 KCAL/MOL
REMARK 922        TOTAL FREE ENERGY PREDICTED BY IDOCK:   -1.11 KCAL/MOL
REMARK 923 INTER-LIGAND FREE ENERGY PREDICTED BY IDOCK:   -0.88 KCAL/MOL
REMARK 924 INTRA-LIGAND FREE ENERGY PREDICTED BY IDOCK:   -0.22 KCAL/MOL
REMARK 927      BINDING AFFINITY PREDICTED BY RF-SCORE:    0.00 PKD
ROOT
HETATM    1  O   UNL     1      -7.065   2.857  65.919  1.00  0.00    -0.058 OA 
HETATM    2  C   UNL     1      -7.315   3.789  66.961  1.00  0.00    -0.071 C  
HETATM    3  H   UNL     1      -6.535   2.132  66.230  1.00  0.00     0.000 HD 
ENDROOT
BRANCH   2   4
HETATM    4  C   UNL     1      -8.166   4.955  66.462  1.00  0.00    -0.107 C  
HETATM    5  O   UNL     1      -7.346   5.842  65.694  1.00  0.00    -0.073 OA 
HETATM    6  H   UNL     1      -7.876   6.568  65.383  1.00  0.00     0.000 HD 
BRANCH   4   7
HETATM    7  C   UNL     1      -9.368   4.479  65.635  1.00  0.00    -0.164 C  
HETATM    8  O   UNL     1      -9.997   3.350  66.247  1.00  0.00    -0.411 OA 
HETATM    9  H   UNL     1     -10.741   3.055  65.735  1.00  0.00     0.000 HD 
ENDBRANCH   4   7
ENDBRANCH   2   4
TORSDOF 2
ENDMDL
MODEL      211
REMARK 921   NORMALIZED FREE ENERGY PREDICTED BY IDOCK:   -0.95 KCAL/MOL
REMARK 922        TOTAL FREE ENERGY PREDICTED BY IDOCK:   -1.07 KCAL/MOL
REMARK 923 INTER-LIGAND FREE ENERGY PREDICTED BY IDOCK:   -1.06 KCAL/MOL
REMARK 924 INTRA-LIGAND FREE ENERGY PREDICTED BY IDOCK:   -0.00 KCAL/MOL
REMARK 927      BINDING AFFINITY PREDICTED BY RF-SCORE:    0.00 PKD
ROOT
HETATM    1  O   UNL     1      -7.186   7.490  68.931  1.00  0.00    -0.077 OA 
HETATM    2  C   UNL     1      -8.039   7.532  67.798  1.00  0.00    -0.119 C  
HETATM    3  H   UNL     1      -6.855   6.611  69.077  1.00  0.00     0.000 HD 
ENDROOT
BRANCH   2   4
HETATM    4  C   UNL     1      -8.571   8.945  67.564  1.00  0.00    -0.120 C  
HETATM    5  O   UNL     1      -7.612   9.691  66.807  1.00  0.00    -0.097 OA 
HETATM    6  H   UNL     1      -7.943  10.570  66.662  1.00  0.00     0.000 HD 
BRANCH   4   7
HETATM    7  C   UNL     1      -9.932   8.938  66.854  1.00  0.00    -0.247 C  
HETATM    8  O   UNL     1      -9.779   8.702  65.452  1.00  0.00    -0.405 OA 
HETATM    9  H   UNL     1     -10.621   8.697  65.013  1.00  0.00     0.000 HD 
ENDBRANCH   4   7
ENDBRANCH   2   4
TORSDOF 2
ENDMDL
MODEL      212
REMARK 921   NORMALIZED FREE ENERGY PREDICTED BY IDOCK:   -0.95 KCAL/MOL
REMARK 922        TOTAL FREE ENERGY PREDICTED BY IDOCK:   -1.06 KCAL/MOL
REMARK 923 INTER-LIGAND FREE ENERGY PREDICTED BY IDOCK:   -1.03 KCAL/MOL
REMARK 924 INTRA-LIGAND FREE ENERGY PREDICTED BY IDOCK:   -0.03 KCAL/MOL
REMARK 927      BINDING AFFINITY PREDICTED BY RF-SCORE:    0.00 PKD
ROOT
HETATM    1  O   UNL     1      -8.086   8.250  72.054  1.00  0.00    -0.119 OA 
HETATM    2  C   UNL     1      -8.833   8.019  70.870  1.00  0.00    -0.139 C  
HETATM    3  H   UNL     1      -7.228   8.605  71.853  1.00  0.00     0.000 HD 
ENDROOT
BRANCH   2   4
HETATM    4  C   UNL     1     -10.212   7.448  71.193  1.00  0.00    -0.193 C  
HETATM    5  O   UNL     1     -10.529   6.417  70.252  1.00  0.00    -0.199 OA 
HETATM    6  H   UNL     1     -11.388   6.062  70.453  1.00  0.00     0.000 HD 
BRANCH   4   7
HETATM    7  C   UNL     1     -10.292   6.912  72.629  1.00  0.00    -0.203 C  
HETATM    8  O   UNL     1     -10.228   5.484  72.648  1.00  0.00    -0.178 OA 
HETATM    9  H   UNL     1     -10.277   5.152  73.537  1.00  0.00     0.000 HD 
ENDBRANCH   4   7
ENDBRANCH   2   4
TORSDOF 2
ENDMDL
MODEL      213
REMARK 921   NORMALIZED FREE ENERGY PREDICTED BY IDOCK:   -0.95 KCAL/MOL
REMARK 922        TOTAL FREE ENERGY PREDICTED BY IDOCK:   -1.06 KCAL/MOL
REMARK 923 INTER-LIGAND FREE ENERGY PREDICTED BY IDOCK:   -1.04 KCAL/MOL
REMARK 924 INTRA-LIGAND FREE ENERGY PREDICTED BY IDOCK:   -0.02 KCAL/MOL
REMARK 927      BINDING AFFINITY PREDICTED BY RF-SCORE:    0.00 PKD
ROOT
HETATM    1  O   UNL     1      -8.046   4.527  72.161  1.00  0.00    -0.096 OA 
HETATM    2  C   UNL     1      -9.259   4.016  71.629  1.00  0.00    -0.126 C  
HETATM    3  H   UNL     1      -7.337   3.904  72.052  1.00  0.00     0.000 HD 
ENDROOT
BRANCH   2   4
HETATM    4  C   UNL     1     -10.399   5.018  71.803  1.00  0.00    -0.200 C  
HETATM    5  O   UNL     1     -10.898   4.938  73.142  1.00  0.00    -0.232 OA 
HETATM    6  H   UNL     1     -11.607   5.561  73.250  1.00  0.00     0.000 HD 
BRANCH   4   7
HETATM    7  C   UNL     1      -9.962   6.452  71.474  1.00  0.00    -0.180 C  
HETATM    8  O   UNL     1     -10.421   7.369  72.470  1.00  0.00    -0.206 OA 
HETATM    9  H   UNL     1     -10.150   8.257  72.267  1.00  0.00     0.000 HD 
ENDBRANCH   4   7
ENDBRANCH   2   4
TORSDOF 2
ENDMDL
MODEL      214
REMARK 921   NORMALIZED FREE ENERGY PREDICTED BY IDOCK:   -0.94 KCAL/MOL
REMARK 922        TOTAL FREE ENERGY PREDICTED BY IDOCK:   -1.06 KCAL/MOL
REMARK 923 INTER-LIGAND FREE ENERGY PREDICTED BY IDOCK:   -1.04 KCAL/MOL
REMARK 924 INTRA-LIGAND FREE ENERGY PREDICTED BY IDOCK:   -0.02 KCAL/MOL
REMARK 927      BINDING AFFINITY PREDICTED BY RF-SCORE:    0.00 PKD
ROOT
HETATM    1  O   UNL     1     -10.587   6.223  67.273  1.00  0.00    -0.220 OA 
HETATM    2  C   UNL     1     -10.438   6.072  68.677  1.00  0.00    -0.241 C  
HETATM    3  H   UNL     1     -11.148   5.545  66.915  1.00  0.00     0.000 HD 
ENDROOT
BRANCH   2   4
HETATM    4  C   UNL     1      -9.537   7.163  69.253  1.00  0.00    -0.155 C  
HETATM    5  O   UNL     1     -10.308   8.008  70.113  1.00  0.00    -0.206 OA 
HETATM    6  H   UNL     1      -9.747   8.686  70.471  1.00  0.00     0.000 HD 
BRANCH   4   7
HETATM    7  C   UNL     1      -8.334   6.578  70.006  1.00  0.00    -0.134 C  
HETATM    8  O   UNL     1      -7.214   6.411  69.134  1.00  0.00    -0.084 OA 
HETATM    9  H   UNL     1      -6.469   6.049  69.601  1.00  0.00     0.000 HD 
ENDBRANCH   4   7
ENDBRANCH   2   4
TORSDOF 2
ENDMDL
MODEL      215
REMARK 921   NORMALIZED FREE ENERGY PREDICTED BY IDOCK:   -0.92 KCAL/MOL
REMARK 922        TOTAL FREE ENERGY PREDICTED BY IDOCK:   -1.03 KCAL/MOL
REMARK 923 INTER-LIGAND FREE ENERGY PREDICTED BY IDOCK:   -0.81 KCAL/MOL
REMARK 924 INTRA-LIGAND FREE ENERGY PREDICTED BY IDOCK:   -0.22 KCAL/MOL
REMARK 927      BINDING AFFINITY PREDICTED BY RF-SCORE:    0.00 PKD
ROOT
HETATM    1  O   UNL     1      -7.143   8.255  64.686  1.00  0.00    -0.077 OA 
HETATM    2  C   UNL     1      -6.606   6.973  64.972  1.00  0.00    -0.046 C  
HETATM    3  H   UNL     1      -6.607   8.715  64.050  1.00  0.00     0.000 HD 
ENDROOT
BRANCH   2   4
HETATM    4  C   UNL     1      -7.467   6.233  65.994  1.00  0.00    -0.082 C  
HETATM    5  O   UNL     1      -7.912   7.156  66.993  1.00  0.00    -0.109 OA 
HETATM    6  H   UNL     1      -8.448   6.696  67.629  1.00  0.00     0.000 HD 
BRANCH   4   7
HETATM    7  C   UNL     1      -8.663   5.529  65.339  1.00  0.00    -0.148 C  
HETATM    8  O   UNL     1      -8.739   5.836  63.944  1.00  0.00    -0.347 OA 
HETATM    9  H   UNL     1      -9.479   5.400  63.538  1.00  0.00     0.000 HD 
ENDBRANCH   4   7
ENDBRANCH   2   4
TORSDOF 2
ENDMDL
MODEL      216
REMARK 921   NORMALIZED FREE ENERGY PREDICTED BY IDOCK:   -0.91 KCAL/MOL
REMARK 922        TOTAL FREE ENERGY PREDICTED BY IDOCK:   -1.01 KCAL/MOL
REMARK 923 INTER-LIGAND FREE ENERGY PREDICTED BY IDOCK:   -0.79 KCAL/MOL
REMARK 924 INTRA-LIGAND FREE ENERGY PREDICTED BY IDOCK:   -0.22 KCAL/MOL
REMARK 927      BINDING AFFINITY PREDICTED BY RF-SCORE:    0.00 PKD
ROOT
HETATM    1  O   UNL     1      -9.115   6.927  72.018  1.00  0.00    -0.138 OA 
HETATM    2  C   UNL     1      -7.916   6.794  71.271  1.00  0.00    -0.106 C  
HETATM    3  H   UNL     1      -8.943   7.293  72.879  1.00  0.00     0.000 HD 
ENDROOT
BRANCH   2   4
HETATM    4  C   UNL     1      -8.193   6.207  69.889  1.00  0.00    -0.120 C  
HETATM    5  O   UNL     1      -7.178   5.250  69.570  1.00  0.00    -0.058 OA 
HETATM    6  H   UNL     1      -7.350   4.884  68.710  1.00  0.00     0.000 HD 
BRANCH   4   7
HETATM    7  C   UNL     1      -9.585   5.567  69.803  1.00  0.00    -0.163 C  
HETATM    8  O   UNL     1     -10.584   6.549  69.514  1.00  0.00    -0.206 OA 
HETATM    9  H   UNL     1     -11.446   6.153  69.461  1.00  0.00     0.000 HD 
ENDBRANCH   4   7
ENDBRANCH   2   4
TORSDOF 2
ENDMDL
MODEL      217
REMARK 921   NORMALIZED FREE ENERGY PREDICTED BY IDOCK:   -0.89 KCAL/MOL
REMARK 922        TOTAL FREE ENERGY PREDICTED BY IDOCK:   -1.00 KCAL/MOL
REMARK 923 INTER-LIGAND FREE ENERGY PREDICTED BY IDOCK:   -0.78 KCAL/MOL
REMARK 924 INTRA-LIGAND FREE ENERGY PREDICTED BY IDOCK:   -0.22 KCAL/MOL
REMARK 927      BINDING AFFINITY PREDICTED BY RF-SCORE:    0.00 PKD
ROOT
HETATM    1  O   UNL     1      -6.380   7.891  64.541  1.00  0.00    -0.051 OA 
HETATM    2  C   UNL     1      -7.414   7.998  65.507  1.00  0.00    -0.081 C  
HETATM    3  H   UNL     1      -6.072   6.995  64.469  1.00  0.00     0.000 HD 
ENDROOT
BRANCH   2   4
HETATM    4  C   UNL     1      -7.910   9.438  65.622  1.00  0.00    -0.099 C  
HETATM    5  O   UNL     1      -7.574   9.952  66.915  1.00  0.00    -0.094 OA 
HETATM    6  H   UNL     1      -7.883  10.848  66.987  1.00  0.00     0.000 HD 
BRANCH   4   7
HETATM    7  C   UNL     1      -7.335  10.336  64.519  1.00  0.00    -0.076 C  
HETATM    8  O   UNL     1      -6.050  10.845  64.888  1.00  0.00    -0.374 OA 
HETATM    9  H   UNL     1      -5.694  11.400  64.204  1.00  0.00     0.000 HD 
ENDBRANCH   4   7
ENDBRANCH   2   4
TORSDOF 2
ENDMDL
MODEL      218
REMARK 921   NORMALIZED FREE ENERGY PREDICTED BY IDOCK:   -0.89 KCAL/MOL
REMARK 922        TOTAL FREE ENERGY PREDICTED BY IDOCK:   -0.99 KCAL/MOL
REMARK 923 INTER-LIGAND FREE ENERGY PREDICTED BY IDOCK:   -0.77 KCAL/MOL
REMARK 924 INTRA-LIGAND FREE ENERGY PREDICTED BY IDOCK:   -0.22 KCAL/MOL
REMARK 927      BINDING AFFINITY PREDICTED BY RF-SCORE:    0.00 PKD
ROOT
HETATM    1  O   UNL     1      -7.254   9.141  73.611  1.00  0.00    -0.211 OA 
HETATM    2  C   UNL     1      -6.719   7.833  73.477  1.00  0.00    -0.087 C  
HETATM    3  H   UNL     1      -6.562   9.783  73.721  1.00  0.00     0.000 HD 
ENDROOT
BRANCH   2   4
HETATM    4  C   UNL     1      -7.832   6.801  73.300  1.00  0.00    -0.095 C  
HETATM    5  O   UNL     1      -7.985   6.059  74.514  1.00  0.00    -0.102 OA 
HETATM    6  H   UNL     1      -8.677   5.417  74.404  1.00  0.00     0.000 HD 
BRANCH   4   7
HETATM    7  C   UNL     1      -9.161   7.451  72.892  1.00  0.00    -0.148 C  
HETATM    8  O   UNL     1      -9.092   7.971  71.562  1.00  0.00    -0.131 OA 
HETATM    9  H   UNL     1      -9.915   8.373  71.310  1.00  0.00     0.000 HD 
ENDBRANCH   4   7
ENDBRANCH   2   4
TORSDOF 2
ENDMDL
MODEL      219
REMARK 921   NORMALIZED FREE ENERGY PREDICTED BY IDOCK:   -0.85 KCAL/MOL
REMARK 922        TOTAL FREE ENERGY PREDICTED BY IDOCK:   -0.95 KCAL/MOL
REMARK 923 INTER-LIGAND FREE ENERGY PREDICTED BY IDOCK:   -0.80 KCAL/MOL
REMARK 924 INTRA-LIGAND FREE ENERGY PREDICTED BY IDOCK:   -0.15 KCAL/MOL
REMARK 927      BINDING AFFINITY PREDICTED BY RF-SCORE:    0.00 PKD
ROOT
HETATM    1  O   UNL     1      -7.874   8.949  65.373  1.00  0.00    -0.096 OA 
HETATM    2  C   UNL     1      -7.020   8.898  66.505  1.00  0.00    -0.080 C  
HETATM    3  H   UNL     1      -8.289   8.108  65.221  1.00  0.00     0.000 HD 
ENDROOT
BRANCH   2   4
HETATM    4  C   UNL     1      -6.352  10.250  66.749  1.00  0.00    -0.072 C  
HETATM    5  O   UNL     1      -6.411  11.030  65.550  1.00  0.00    -0.364 OA 
HETATM    6  H   UNL     1      -5.996  11.871  65.702  1.00  0.00     0.000 HD 
BRANCH   4   7
HETATM    7  C   UNL     1      -6.995  11.008  67.918  1.00  0.00    -0.073 C  
HETATM    8  O   UNL     1      -8.422  10.986  67.821  1.00  0.00    -0.119 OA 
HETATM    9  H   UNL     1      -8.820  11.455  68.545  1.00  0.00     0.000 HD 
ENDBRANCH   4   7
ENDBRANCH   2   4
TORSDOF 2
ENDMDL
MODEL      220
REMARK 921   NORMALIZED FREE ENERGY PREDICTED BY IDOCK:   -0.84 KCAL/MOL
REMARK 922        TOTAL FREE ENERGY PREDICTED BY IDOCK:   -0.94 KCAL/MOL
REMARK 923 INTER-LIGAND FREE ENERGY PREDICTED BY IDOCK:   -0.94 KCAL/MOL
REMARK 924 INTRA-LIGAND FREE ENERGY PREDICTED BY IDOCK:   -0.00 KCAL/MOL
REMARK 927      BINDING AFFINITY PREDICTED BY RF-SCORE:    0.00 PKD
ROOT
HETATM    1  O   UNL     1      -7.711   2.726  66.427  1.00  0.00    -0.075 OA 
HETATM    2  C   UNL     1      -7.664   2.519  65.023  1.00  0.00    -0.077 C  
HETATM    3  H   UNL     1      -7.230   2.049  66.888  1.00  0.00     0.000 HD 
ENDROOT
BRANCH   2   4
HETATM    4  C   UNL     1      -8.438   3.607  64.282  1.00  0.00    -0.090 C  
HETATM    5  O   UNL     1      -8.354   3.369  62.873  1.00  0.00    -0.076 OA 
HETATM    6  H   UNL     1      -8.836   4.046  62.412  1.00  0.00     0.000 HD 
BRANCH   4   7
HETATM    7  C   UNL     1      -9.904   3.680  64.731  1.00  0.00    -0.175 C  
HETATM    8  O   UNL     1     -10.705   4.361  63.762  1.00  0.00    -0.444 OA 
HETATM    9  H   UNL     1     -11.612   4.406  64.040  1.00  0.00     0.000 HD 
ENDBRANCH   4   7
ENDBRANCH   2   4
TORSDOF 2
ENDMDL
MODEL      221
REMARK 921   NORMALIZED FREE ENERGY PREDICTED BY IDOCK:   -0.82 KCAL/MOL
REMARK 922        TOTAL FREE ENERGY PREDICTED BY IDOCK:   -0.92 KCAL/MOL
REMARK 923 INTER-LIGAND FREE ENERGY PREDICTED BY IDOCK:   -0.70 KCAL/MOL
REMARK 924 INTRA-LIGAND FREE ENERGY PREDICTED BY IDOCK:   -0.22 KCAL/MOL
REMARK 927      BINDING AFFINITY PREDICTED BY RF-SCORE:    0.00 PKD
ROOT
HETATM    1  O   UNL     1      -9.374   4.865  66.384  1.00  0.00    -0.130 OA 
HETATM    2  C   UNL     1      -8.919   5.975  67.142  1.00  0.00    -0.114 C  
HETATM    3  H   UNL     1      -9.253   4.052  66.862  1.00  0.00     0.000 HD 
ENDROOT
BRANCH   2   4
HETATM    4  C   UNL     1      -9.113   7.281  66.374  1.00  0.00    -0.158 C  
HETATM    5  O   UNL     1      -8.842   8.385  67.243  1.00  0.00    -0.128 OA 
HETATM    6  H   UNL     1      -8.963   9.197  66.765  1.00  0.00     0.000 HD 
BRANCH   4   7
HETATM    7  C   UNL     1      -8.229   7.349  65.121  1.00  0.00    -0.113 C  
HETATM    8  O   UNL     1      -7.150   6.415  65.202  1.00  0.00    -0.057 OA 
HETATM    9  H   UNL     1      -6.603   6.457  64.426  1.00  0.00     0.000 HD 
ENDBRANCH   4   7
ENDBRANCH   2   4
TORSDOF 2
ENDMDL
MODEL      222
REMARK 921   NORMALIZED FREE ENERGY PREDICTED BY IDOCK:   -0.77 KCAL/MOL
REMARK 922        TOTAL FREE ENERGY PREDICTED BY IDOCK:   -0.86 KCAL/MOL
REMARK 923 INTER-LIGAND FREE ENERGY PREDICTED BY IDOCK:   -0.67 KCAL/MOL
REMARK 924 INTRA-LIGAND FREE ENERGY PREDICTED BY IDOCK:   -0.19 KCAL/MOL
REMARK 927      BINDING AFFINITY PREDICTED BY RF-SCORE:    0.00 PKD
ROOT
HETATM    1  O   UNL     1      -7.443   8.475  73.432  1.00  0.00    -0.312 OA 
HETATM    2  C   UNL     1      -6.374   7.703  72.906  1.00  0.00    -0.061 C  
HETATM    3  H   UNL     1      -7.185   8.912  74.235  1.00  0.00     0.000 HD 
ENDROOT
BRANCH   2   4
HETATM    4  C   UNL     1      -6.789   7.000  71.614  1.00  0.00    -0.060 C  
HETATM    5  O   UNL     1      -5.715   6.168  71.164  1.00  0.00    -0.024 OA 
HETATM    6  H   UNL     1      -5.973   5.731  70.361  1.00  0.00     0.000 HD 
BRANCH   4   7
HETATM    7  C   UNL     1      -8.072   6.178  71.791  1.00  0.00    -0.110 C  
HETATM    8  O   UNL     1      -8.034   5.421  73.004  1.00  0.00    -0.101 OA 
HETATM    9  H   UNL     1      -8.829   4.912  73.113  1.00  0.00     0.000 HD 
ENDBRANCH   4   7
ENDBRANCH   2   4
TORSDOF 2
ENDMDL
MODEL      223
REMARK 921   NORMALIZED FREE ENERGY PREDICTED BY IDOCK:   -0.76 KCAL/MOL
REMARK 922        TOTAL FREE ENERGY PREDICTED BY IDOCK:   -0.86 KCAL/MOL
REMARK 923 INTER-LIGAND FREE ENERGY PREDICTED BY IDOCK:   -0.66 KCAL/MOL
REMARK 924 INTRA-LIGAND FREE ENERGY PREDICTED BY IDOCK:   -0.20 KCAL/MOL
REMARK 927      BINDING AFFINITY PREDICTED BY RF-SCORE:    0.00 PKD
ROOT
HETATM    1  O   UNL     1      -7.117   8.310  71.966  1.00  0.00    -0.077 OA 
HETATM    2  C   UNL     1      -7.128   8.466  70.555  1.00  0.00    -0.038 C  
HETATM    3  H   UNL     1      -6.591   8.986  72.380  1.00  0.00     0.000 HD 
ENDROOT
BRANCH   2   4
HETATM    4  C   UNL     1      -7.972   7.381  69.890  1.00  0.00    -0.121 C  
HETATM    5  O   UNL     1      -7.650   6.112  70.469  1.00  0.00    -0.091 OA 
HETATM    6  H   UNL     1      -8.176   5.436  70.055  1.00  0.00     0.000 HD 
BRANCH   4   7
HETATM    7  C   UNL     1      -9.475   7.664  70.012  1.00  0.00    -0.161 C  
HETATM    8  O   UNL     1      -9.758   8.444  71.176  1.00  0.00    -0.167 OA 
HETATM    9  H   UNL     1     -10.689   8.620  71.251  1.00  0.00     0.000 HD 
ENDBRANCH   4   7
ENDBRANCH   2   4
TORSDOF 2
ENDMDL
MODEL      224
REMARK 921   NORMALIZED FREE ENERGY PREDICTED BY IDOCK:   -0.75 KCAL/MOL
REMARK 922        TOTAL FREE ENERGY PREDICTED BY IDOCK:   -0.84 KCAL/MOL
REMARK 923 INTER-LIGAND FREE ENERGY PREDICTED BY IDOCK:   -0.84 KCAL/MOL
REMARK 924 INTRA-LIGAND FREE ENERGY PREDICTED BY IDOCK:   -0.01 KCAL/MOL
REMARK 927      BINDING AFFINITY PREDICTED BY RF-SCORE:    0.00 PKD
ROOT
HETATM    1  O   UNL     1      -6.177   8.925  64.588  1.00  0.00    -0.065 OA 
HETATM    2  C   UNL     1      -6.609   7.619  64.935  1.00  0.00    -0.047 C  
HETATM    3  H   UNL     1      -5.289   8.913  64.251  1.00  0.00     0.000 HD 
ENDROOT
BRANCH   2   4
HETATM    4  C   UNL     1      -8.037   7.639  65.477  1.00  0.00    -0.130 C  
HETATM    5  O   UNL     1      -8.725   6.462  65.041  1.00  0.00    -0.345 OA 
HETATM    6  H   UNL     1      -9.613   6.474  65.378  1.00  0.00     0.000 HD 
BRANCH   4   7
HETATM    7  C   UNL     1      -8.072   7.749  67.007  1.00  0.00    -0.117 C  
HETATM    8  O   UNL     1      -9.103   8.642  67.435  1.00  0.00    -0.132 OA 
HETATM    9  H   UNL     1      -9.124   8.710  68.382  1.00  0.00     0.000 HD 
ENDBRANCH   4   7
ENDBRANCH   2   4
TORSDOF 2
ENDMDL
MODEL      225
REMARK 921   NORMALIZED FREE ENERGY PREDICTED BY IDOCK:   -0.74 KCAL/MOL
REMARK 922        TOTAL FREE ENERGY PREDICTED BY IDOCK:   -0.83 KCAL/MOL
REMARK 923 INTER-LIGAND FREE ENERGY PREDICTED BY IDOCK:   -0.83 KCAL/MOL
REMARK 924 INTRA-LIGAND FREE ENERGY PREDICTED BY IDOCK:   -0.00 KCAL/MOL
REMARK 927      BINDING AFFINITY PREDICTED BY RF-SCORE:    0.00 PKD
ROOT
HETATM    1  O   UNL     1      -8.307   8.182  67.534  1.00  0.00    -0.121 OA 
HETATM    2  C   UNL     1      -6.959   8.272  67.968  1.00  0.00    -0.081 C  
HETATM    3  H   UNL     1      -8.361   7.808  66.661  1.00  0.00     0.000 HD 
ENDROOT
BRANCH   2   4
HETATM    4  C   UNL     1      -6.872   8.872  69.370  1.00  0.00    -0.049 C  
HETATM    5  O   UNL     1      -5.738   8.325  70.049  1.00  0.00    -0.023 OA 
HETATM    6  H   UNL     1      -5.684   8.698  70.921  1.00  0.00     0.000 HD 
BRANCH   4   7
HETATM    7  C   UNL     1      -6.795  10.404  69.337  1.00  0.00    -0.083 C  
HETATM    8  O   UNL     1      -6.895  10.952  70.654  1.00  0.00    -0.472 OA 
HETATM    9  H   UNL     1      -6.847  11.901  70.634  1.00  0.00     0.000 HD 
ENDBRANCH   4   7
ENDBRANCH   2   4
TORSDOF 2
ENDMDL
MODEL      226
REMARK 921   NORMALIZED FREE ENERGY PREDICTED BY IDOCK:   -0.68 KCAL/MOL
REMARK 922        TOTAL FREE ENERGY PREDICTED BY IDOCK:   -0.77 KCAL/MOL
REMARK 923 INTER-LIGAND FREE ENERGY PREDICTED BY IDOCK:   -0.56 KCAL/MOL
REMARK 924 INTRA-LIGAND FREE ENERGY PREDICTED BY IDOCK:   -0.20 KCAL/MOL
REMARK 927      BINDING AFFINITY PREDICTED BY RF-SCORE:    0.00 PKD
ROOT
HETATM    1  O   UNL     1      -7.739   8.090  66.886  1.00  0.00    -0.096 OA 
HETATM    2  C   UNL     1      -6.634   8.300  67.751  1.00  0.00    -0.061 C  
HETATM    3  H   UNL     1      -7.469   7.649  66.088  1.00  0.00     0.000 HD 
ENDROOT
BRANCH   2   4
HETATM    4  C   UNL     1      -7.067   9.008  69.033  1.00  0.00    -0.064 C  
HETATM    5  O   UNL     1      -7.730  10.231  68.696  1.00  0.00    -0.086 OA 
HETATM    6  H   UNL     1      -8.000  10.672  69.493  1.00  0.00     0.000 HD 
BRANCH   4   7
HETATM    7  C   UNL     1      -7.973   8.125  69.901  1.00  0.00    -0.109 C  
HETATM    8  O   UNL     1      -9.205   7.839  69.234  1.00  0.00    -0.146 OA 
HETATM    9  H   UNL     1      -9.766   7.292  69.772  1.00  0.00     0.000 HD 
ENDBRANCH   4   7
ENDBRANCH   2   4
TORSDOF 2
ENDMDL
MODEL      227
REMARK 921   NORMALIZED FREE ENERGY PREDICTED BY IDOCK:   -0.67 KCAL/MOL
REMARK 922        TOTAL FREE ENERGY PREDICTED BY IDOCK:   -0.75 KCAL/MOL
REMARK 923 INTER-LIGAND FREE ENERGY PREDICTED BY IDOCK:   -0.74 KCAL/MOL
REMARK 924 INTRA-LIGAND FREE ENERGY PREDICTED BY IDOCK:   -0.01 KCAL/MOL
REMARK 927      BINDING AFFINITY PREDICTED BY RF-SCORE:    0.00 PKD
ROOT
HETATM    1  O   UNL     1      -8.329   9.235  70.657  1.00  0.00    -0.183 OA 
HETATM    2  C   UNL     1      -7.759   8.028  70.176  1.00  0.00    -0.087 C  
HETATM    3  H   UNL     1      -7.685   9.754  71.125  1.00  0.00     0.000 HD 
ENDROOT
BRANCH   2   4
HETATM    4  C   UNL     1      -8.795   7.193  69.425  1.00  0.00    -0.136 C  
HETATM    5  O   UNL     1      -9.677   8.066  68.711  1.00  0.00    -0.151 OA 
HETATM    6  H   UNL     1     -10.321   7.547  68.244  1.00  0.00     0.000 HD 
BRANCH   4   7
HETATM    7  C   UNL     1      -8.141   6.186  68.469  1.00  0.00    -0.108 C  
HETATM    8  O   UNL     1      -6.946   6.724  67.896  1.00  0.00    -0.077 OA 
HETATM    9  H   UNL     1      -6.541   6.100  67.304  1.00  0.00     0.000 HD 
ENDBRANCH   4   7
ENDBRANCH   2   4
TORSDOF 2
ENDMDL
MODEL      228
REMARK 921   NORMALIZED FREE ENERGY PREDICTED BY IDOCK:   -0.63 KCAL/MOL
REMARK 922        TOTAL FREE ENERGY PREDICTED BY IDOCK:   -0.71 KCAL/MOL
REMARK 923 INTER-LIGAND FREE ENERGY PREDICTED BY IDOCK:   -0.50 KCAL/MOL
REMARK 924 INTRA-LIGAND FREE ENERGY PREDICTED BY IDOCK:   -0.21 KCAL/MOL
REMARK 927      BINDING AFFINITY PREDICTED BY RF-SCORE:    0.00 PKD
ROOT
HETATM    1  O   UNL     1      -7.136   8.320  71.969  1.00  0.00    -0.077 OA 
HETATM    2  C   UNL     1      -7.192   8.496  70.561  1.00  0.00    -0.045 C  
HETATM    3  H   UNL     1      -6.578   8.974  72.373  1.00  0.00     0.000 HD 
ENDROOT
BRANCH   2   4
HETATM    4  C   UNL     1      -8.089   7.444  69.912  1.00  0.00    -0.126 C  
HETATM    5  O   UNL     1      -7.963   7.530  68.489  1.00  0.00    -0.119 OA 
HETATM    6  H   UNL     1      -8.521   6.876  68.084  1.00  0.00     0.000 HD 
BRANCH   4   7
HETATM    7  C   UNL     1      -7.762   6.027  70.399  1.00  0.00    -0.097 C  
HETATM    8  O   UNL     1      -6.384   5.916  70.767  1.00  0.00    -0.036 OA 
HETATM    9  H   UNL     1      -6.181   5.038  71.069  1.00  0.00     0.000 HD 
ENDBRANCH   4   7
ENDBRANCH   2   4
TORSDOF 2
ENDMDL
MODEL      229
REMARK 921   NORMALIZED FREE ENERGY PREDICTED BY IDOCK:   -0.59 KCAL/MOL
REMARK 922        TOTAL FREE ENERGY PREDICTED BY IDOCK:   -0.66 KCAL/MOL
REMARK 923 INTER-LIGAND FREE ENERGY PREDICTED BY IDOCK:   -0.44 KCAL/MOL
REMARK 924 INTRA-LIGAND FREE ENERGY PREDICTED BY IDOCK:   -0.22 KCAL/MOL
REMARK 927      BINDING AFFINITY PREDICTED BY RF-SCORE:    0.00 PKD
ROOT
HETATM    1  O   UNL     1      -7.112   4.672  66.588  1.00  0.00    -0.068 OA 
HETATM    2  C   UNL     1      -7.721   5.818  67.162  1.00  0.00    -0.101 C  
HETATM    3  H   UNL     1      -6.795   4.857  65.711  1.00  0.00     0.000 HD 
ENDROOT
BRANCH   2   4
HETATM    4  C   UNL     1      -8.229   5.521  68.572  1.00  0.00    -0.098 C  
HETATM    5  O   UNL     1      -8.818   4.216  68.595  1.00  0.00    -0.094 OA 
HETATM    6  H   UNL     1      -9.135   4.031  69.472  1.00  0.00     0.000 HD 
BRANCH   4   7
HETATM    7  C   UNL     1      -7.116   5.630  69.621  1.00  0.00    -0.064 C  
HETATM    8  O   UNL     1      -5.989   4.826  69.261  1.00  0.00    -0.017 OA 
HETATM    9  H   UNL     1      -5.300   4.894  69.911  1.00  0.00     0.000 HD 
ENDBRANCH   4   7
ENDBRANCH   2   4
TORSDOF 2
ENDMDL
MODEL      230
REMARK 921   NORMALIZED FREE ENERGY PREDICTED BY IDOCK:   -0.13 KCAL/MOL
REMARK 922        TOTAL FREE ENERGY PREDICTED BY IDOCK:   -0.15 KCAL/MOL
REMARK 923 INTER-LIGAND FREE ENERGY PREDICTED BY IDOCK:   -0.76 KCAL/MOL
REMARK 924 INTRA-LIGAND FREE ENERGY PREDICTED BY IDOCK:    0.62 KCAL/MOL
REMARK 927      BINDING AFFINITY PREDICTED BY RF-SCORE:    0.00 PKD
ROOT
HETATM    1  O   UNL     1      -7.670   4.591  71.078  1.00  0.00    -0.068 OA 
HETATM    2  C   UNL     1      -7.887   5.825  71.745  1.00  0.00    -0.106 C  
HETATM    3  H   UNL     1      -6.805   4.247  71.269  1.00  0.00     0.000 HD 
ENDROOT
BRANCH   2   4
HETATM    4  C   UNL     1      -9.277   6.379  71.437  1.00  0.00    -0.149 C  
HETATM    5  O   UNL     1      -9.171   7.770  71.119  1.00  0.00    -0.145 OA 
HETATM    6  H   UNL     1     -10.036   8.115  70.927  1.00  0.00     0.000 HD 
BRANCH   4   7
HETATM    7  C   UNL     1      -9.962   5.614  70.296  1.00  0.00    -0.207 C  
HETATM    8  O   UNL     1      -8.998   5.075  69.388  1.00  0.00    -0.090 OA 
HETATM    9  H   UNL     1      -9.422   4.601  68.682  1.00  0.00     0.000 HD 
ENDBRANCH   4   7
ENDBRANCH   2   4
TORSDOF 2
ENDMDL
MODEL      231
REMARK 921   NORMALIZED FREE ENERGY PREDICTED BY IDOCK:   14.19 KCAL/MOL
REMARK 922        TOTAL FREE ENERGY PREDICTED BY IDOCK:   15.84 KCAL/MOL
REMARK 923 INTER-LIGAND FREE ENERGY PREDICTED BY IDOCK:   15.85 KCAL/MOL
REMARK 924 INTRA-LIGAND FREE ENERGY PREDICTED BY IDOCK:   -0.00 KCAL/MOL
REMARK 927      BINDING AFFINITY PREDICTED BY RF-SCORE:    0.00 PKD
ROOT
HETATM    1  O   UNL     1     -13.495  15.775  74.152  1.00  0.00    -0.674 OA 
HETATM    2  C   UNL     1     -12.129  16.029  74.443  1.00  0.00    -0.332 C  
HETATM    3  H   UNL     1     -14.044  16.496  74.439  1.00  0.00     0.000 HD 
ENDROOT
BRANCH   2   4
HETATM    4  C   UNL     1     -11.246  14.870  73.982  1.00  0.00     1.599 C  
HETATM    5  O   UNL     1     -11.755  14.350  72.750  1.00  0.00     0.124 OA 
HETATM    6  H   UNL     1     -11.206  13.629  72.463  1.00  0.00     0.000 HD 
BRANCH   4   7
HETATM    7  C   UNL     1      -9.778  15.291  73.825  1.00  0.00     9.070 C  
HETATM    8  O   UNL     1      -8.903  14.172  73.989  1.00  0.00     6.060 OA 
HETATM    9  H   UNL     1      -7.994  14.432  73.892  1.00  0.00     0.000 HD 
ENDBRANCH   4   7
ENDBRANCH   2   4
TORSDOF 2
ENDMDL
