MODEL        1
REMARK 921   NORMALIZED FREE ENERGY PREDICTED BY IDOCK:   -9.25 KCAL/MOL
REMARK 922        TOTAL FREE ENERGY PREDICTED BY IDOCK:  -12.31 KCAL/MOL
REMARK 923 INTER-LIGAND FREE ENERGY PREDICTED BY IDOCK:  -11.41 KCAL/MOL
REMARK 924 INTRA-LIGAND FREE ENERGY PREDICTED BY IDOCK:   -0.90 KCAL/MOL
REMARK 927      BINDING AFFINITY PREDICTED BY RF-SCORE:    0.00 PKD
ROOT
HETATM    1  C   UNL     1      -7.709   4.568  71.114  1.00  0.00    -0.076 C  
HETATM    2  C   UNL     1      -7.968   5.908  71.942  1.00  0.00    -0.107 C  
HETATM    3  C   UNL     1      -8.676   5.839  73.317  1.00  0.00    -0.118 C  
HETATM    4  C   UNL     1      -9.825   4.813  73.247  1.00  0.00    -0.171 C  
HETATM    5  C   UNL     1      -7.674   5.570  74.456  1.00  0.00    -0.098 C  
HETATM    6  C   UNL     1      -9.300   7.191  73.747  1.00  0.00    -0.232 C  
HETATM    7  O   UNL     1     -10.456   7.337  74.140  1.00  0.00    -0.255 OA 
HETATM    8  O   UNL     1      -8.463   8.237  73.732  1.00  0.00    -0.248 OA 
HETATM    9  C   UNL     1      -9.600   3.541  72.385  1.00  0.00    -0.198 C  
HETATM   10  C   UNL     1      -9.029   3.799  70.948  1.00  0.00    -0.154 C  
HETATM   11  C   UNL     1     -10.141   4.530  70.167  1.00  0.00    -0.220 C  
HETATM   12  C   UNL     1      -8.655   2.536  70.108  1.00  0.00    -0.104 C  
HETATM   13  C   UNL     1      -8.301   2.860  68.567  1.00  0.00    -0.085 C  
HETATM   14  C   UNL     1      -7.153   3.929  68.336  1.00  0.00    -0.051 C  
HETATM   15  C   UNL     1      -7.011   4.782  69.739  1.00  0.00    -0.053 C  
HETATM   16  C   UNL     1      -5.846   3.058  68.412  1.00  0.00    -0.023 C  
HETATM   17  C   UNL     1      -6.442   5.968  69.617  1.00  0.00    -0.042 C  
HETATM   18  C   UNL     1      -7.242   6.384  68.462  1.00  0.00    -0.085 C  
HETATM   19  C   UNL     1      -6.470   6.412  67.226  1.00  0.00    -0.052 C  
HETATM   20  O   UNL     1      -8.468   6.478  68.498  1.00  0.00    -0.123 OA 
HETATM   21  C   UNL     1      -6.721   7.915  66.720  1.00  0.00    -0.063 C  
HETATM   22  C   UNL     1      -5.476   8.319  65.897  1.00  0.00    -0.032 C  
HETATM   23  C   UNL     1      -6.763   8.872  67.976  1.00  0.00    -0.069 C  
HETATM   24  C   UNL     1      -7.367  10.264  67.930  1.00  0.00    -0.087 C  
HETATM   25  C   UNL     1      -8.667  10.384  67.103  1.00  0.00    -0.129 C  
HETATM   26  C   UNL     1      -8.411   9.701  65.673  1.00  0.00    -0.141 C  
HETATM   27  C   UNL     1      -8.228   5.402  65.753  1.00  0.00    -0.121 C  
HETATM   28  C   UNL     1      -8.055   8.099  65.946  1.00  0.00    -0.115 C  
HETATM   29  C   UNL     1      -7.283  10.591  65.013  1.00  0.00     0.005 C  
HETATM   30  C   UNL     1      -9.619  10.004  64.767  1.00  0.00    -0.374 C  
HETATM   31  C   UNL     1      -5.957   4.357  65.801  1.00  0.00    -0.023 C  
HETATM   32  C   UNL     1      -7.015   4.996  66.760  1.00  0.00    -0.064 C  
HETATM   33  C   UNL     1      -8.156   6.878  64.970  1.00  0.00    -0.117 C  
ENDROOT
BRANCH  25  34
HETATM   34  O   UNL     1      -9.968  10.250  67.805  1.00  0.00    -0.165 OA 
BRANCH  34  35
HETATM   35  C   UNL     1     -11.164  10.969  67.364  1.00  0.00    -0.285 C  
HETATM   36  C   UNL     1     -12.154  12.703  69.528  1.00  0.00    -0.192 C  
HETATM   37  O   UNL     1     -12.215  10.722  68.271  1.00  0.00    -0.449 OA 
HETATM   38  C   UNL     1     -12.890  10.543  70.661  1.00  0.00    -0.325 C  
HETATM   39  C   UNL     1     -11.989  11.209  69.573  1.00  0.00    -0.355 C  
HETATM   40  O   UNL     1     -11.831  13.249  70.816  1.00  0.00    -0.513 OA 
HETATM   41  C   UNL     1     -11.249  13.319  68.465  1.00  0.00    -0.271 C  
HETATM   42  O   UNL     1     -13.782   9.730  70.510  1.00  0.00    -0.004 OA 
HETATM   43  O   UNL     1     -12.557  10.889  71.927  1.00  0.00    -0.308 OA 
HETATM   44  O   UNL     1     -11.815  14.629  68.196  1.00  0.00    -0.380 OA 
HETATM   45  H   UNL     1     -11.935  14.193  70.787  1.00  0.00     0.000 HD 
HETATM   46  C   UNL     1     -11.090  12.535  67.138  1.00  0.00    -0.276 C  
HETATM   47  H   UNL     1     -11.252  15.013  67.534  1.00  0.00     0.000 HD 
BRANCH  46  48
HETATM   48  O   UNL     1      -9.944  12.990  66.369  1.00  0.00    -0.263 OA 
BRANCH  48  49
HETATM   49  C   UNL     1      -9.538  14.338  66.697  1.00  0.00    -0.289 C  
HETATM   50  O   UNL     1      -9.980  15.278  65.712  1.00  0.00    -0.309 OA 
HETATM   51  C   UNL     1      -9.798  16.625  66.202  1.00  0.00    -0.318 C  
HETATM   52  C   UNL     1     -10.585  17.607  65.331  1.00  0.00     0.039 C  
HETATM   53  C   UNL     1      -8.298  16.916  66.200  1.00  0.00    -0.251 C  
HETATM   54  O   UNL     1      -7.947  18.216  66.696  1.00  0.00    -0.231 OA 
HETATM   55  C   UNL     1      -7.569  15.906  67.101  1.00  0.00    -0.220 C  
HETATM   56  O   UNL     1     -11.260  16.991  64.333  1.00  0.00    -1.167 OA 
HETATM   57  O   UNL     1     -10.652  18.812  65.524  1.00  0.00    -0.596 OA 
HETATM   58  O   UNL     1      -6.155  15.974  66.863  1.00  0.00    -0.318 OA 
HETATM   59  C   UNL     1      -8.034  14.438  67.010  1.00  0.00    -0.014 C  
HETATM   60  H   UNL     1      -7.015  18.397  66.695  1.00  0.00     0.000 HD 
HETATM   61  H   UNL     1      -5.704  15.349  67.419  1.00  0.00     0.000 HD 
HETATM   62  O   UNL     1      -7.845  13.822  68.319  1.00  0.00    -0.126 OA 
HETATM   63  H   UNL     1      -6.917  13.884  68.513  1.00  0.00     0.000 HD 
ENDBRANCH  48  49
ENDBRANCH  46  48
ENDBRANCH  34  35
ENDBRANCH  25  34
TORSDOF 4
ENDMDL
MODEL        2
REMARK 921   NORMALIZED FREE ENERGY PREDICTED BY IDOCK:   -8.53 KCAL/MOL
REMARK 922        TOTAL FREE ENERGY PREDICTED BY IDOCK:  -11.43 KCAL/MOL
REMARK 923 INTER-LIGAND FREE ENERGY PREDICTED BY IDOCK:   -9.75 KCAL/MOL
REMARK 924 INTRA-LIGAND FREE ENERGY PREDICTED BY IDOCK:   -1.68 KCAL/MOL
REMARK 927      BINDING AFFINITY PREDICTED BY RF-SCORE:    0.00 PKD
ROOT
HETATM    1  C   UNL     1      -7.968   2.595  66.877  1.00  0.00    -0.076 C  
HETATM    2  C   UNL     1      -9.011   3.208  65.836  1.00  0.00    -0.145 C  
HETATM    3  C   UNL     1      -8.965   2.769  64.351  1.00  0.00    -0.116 C  
HETATM    4  C   UNL     1      -7.496   2.651  63.901  1.00  0.00    -0.066 C  
HETATM    5  C   UNL     1      -9.790   1.489  64.115  1.00  0.00    -0.085 C  
HETATM    6  C   UNL     1      -9.653   3.779  63.398  1.00  0.00    -0.142 C  
HETATM    7  O   UNL     1      -9.149   4.229  62.371  1.00  0.00    -0.106 OA 
HETATM    8  O   UNL     1     -10.911   4.108  63.725  1.00  0.00    -0.139 OA 
HETATM    9  C   UNL     1      -6.468   2.120  64.936  1.00  0.00    -0.023 C  
HETATM   10  C   UNL     1      -6.537   2.789  66.352  1.00  0.00    -0.036 C  
HETATM   11  C   UNL     1      -6.081   4.251  66.160  1.00  0.00    -0.031 C  
HETATM   12  C   UNL     1      -5.617   2.180  67.459  1.00  0.00    -0.018 C  
HETATM   13  C   UNL     1      -5.560   3.056  68.812  1.00  0.00    -0.021 C  
HETATM   14  C   UNL     1      -6.960   3.366  69.490  1.00  0.00    -0.041 C  
HETATM   15  C   UNL     1      -8.108   3.140  68.329  1.00  0.00    -0.077 C  
HETATM   16  C   UNL     1      -7.209   2.088  70.372  1.00  0.00    -0.033 C  
HETATM   17  C   UNL     1      -9.257   3.752  68.553  1.00  0.00    -0.214 C  
HETATM   18  C   UNL     1      -8.657   5.044  68.896  1.00  0.00    -0.086 C  
HETATM   19  C   UNL     1      -8.761   5.349  70.318  1.00  0.00    -0.135 C  
HETATM   20  O   UNL     1      -7.955   5.683  68.114  1.00  0.00    -0.095 OA 
HETATM   21  C   UNL     1      -9.483   6.783  70.290  1.00  0.00    -0.164 C  
HETATM   22  C   UNL     1     -10.285   6.899  71.607  1.00  0.00    -0.205 C  
HETATM   23  C   UNL     1     -10.537   6.797  69.114  1.00  0.00    -0.261 C  
HETATM   24  C   UNL     1     -11.109   8.079  68.537  1.00  0.00     0.315 C  
HETATM   25  C   UNL     1     -10.094   9.233  68.378  1.00  0.00    -0.191 C  
HETATM   26  C   UNL     1      -9.309   9.398  69.769  1.00  0.00    -0.217 C  
HETATM   27  C   UNL     1      -6.452   6.285  70.590  1.00  0.00    -0.044 C  
HETATM   28  C   UNL     1      -8.507   7.969  70.059  1.00  0.00    -0.129 C  
HETATM   29  C   UNL     1     -10.430   9.822  70.800  1.00  0.00    -0.339 C  
HETATM   30  C   UNL     1      -8.453  10.677  69.694  1.00  0.00     0.104 C  
HETATM   31  C   UNL     1      -7.184   4.436  72.106  1.00  0.00    -0.062 C  
HETATM   32  C   UNL     1      -7.273   4.880  70.608  1.00  0.00    -0.053 C  
HETATM   33  C   UNL     1      -7.270   7.692  70.978  1.00  0.00    -0.058 C  
ENDROOT
BRANCH  25  34
HETATM   34  O   UNL     1      -9.404   9.395  67.074  1.00  0.00    -0.141 OA 
BRANCH  34  35
HETATM   35  C   UNL     1      -8.972  10.704  66.584  1.00  0.00    -0.150 C  
HETATM   36  C   UNL     1      -9.407  10.887  63.678  1.00  0.00    -0.262 C  
HETATM   37  O   UNL     1      -8.033  10.525  65.546  1.00  0.00    -0.155 OA 
HETATM   38  C   UNL     1      -7.449   9.270  63.476  1.00  0.00    -0.101 C  
HETATM   39  C   UNL     1      -8.546   9.888  64.399  1.00  0.00    -0.185 C  
HETATM   40  O   UNL     1     -10.032  10.244  62.556  1.00  0.00    -0.691 OA 
HETATM   41  C   UNL     1     -10.476  11.458  64.606  1.00  0.00    -0.315 C  
HETATM   42  O   UNL     1      -6.240   9.334  63.592  1.00  0.00    -0.088 OA 
HETATM   43  O   UNL     1      -7.949   8.517  62.468  1.00  0.00    -0.134 OA 
HETATM   44  O   UNL     1     -10.910  12.692  63.975  1.00  0.00    -0.357 OA 
HETATM   45  H   UNL     1     -10.576  10.876  62.100  1.00  0.00     0.000 HD 
HETATM   46  C   UNL     1     -10.056  11.738  66.071  1.00  0.00    -0.231 C  
HETATM   47  H   UNL     1     -11.575  13.047  64.553  1.00  0.00     0.000 HD 
BRANCH  46  48
HETATM   48  O   UNL     1     -11.204  11.907  66.945  1.00  0.00    -0.290 OA 
BRANCH  48  49
HETATM   49  C   UNL     1     -11.350  13.258  67.437  1.00  0.00    -0.303 C  
HETATM   50  O   UNL     1     -10.519  14.176  66.718  1.00  0.00    -0.273 OA 
HETATM   51  C   UNL     1     -10.888  15.534  67.047  1.00  0.00    -0.314 C  
HETATM   52  C   UNL     1     -10.271  16.501  66.035  1.00  0.00    -0.356 C  
HETATM   53  C   UNL     1     -10.417  15.805  68.475  1.00  0.00    -0.236 C  
HETATM   54  O   UNL     1     -10.741  17.113  68.967  1.00  0.00    -0.309 OA 
HETATM   55  C   UNL     1     -11.081  14.811  69.442  1.00  0.00    -0.281 C  
HETATM   56  O   UNL     1      -9.548  15.866  65.083  1.00  0.00    -0.284 OA 
HETATM   57  O   UNL     1     -10.438  17.711  66.036  1.00  0.00    -0.387 OA 
HETATM   58  O   UNL     1     -10.418  14.853  70.715  1.00  0.00    -0.502 OA 
HETATM   59  C   UNL     1     -11.182  13.346  68.966  1.00  0.00    -0.275 C  
HETATM   60  H   UNL     1     -10.448  17.281  69.855  1.00  0.00     0.000 HD 
HETATM   61  H   UNL     1     -10.828  14.238  71.312  1.00  0.00     0.000 HD 
HETATM   62  O   UNL     1     -12.389  12.766  69.545  1.00  0.00    -0.138 OA 
HETATM   63  H   UNL     1     -12.286  12.821  70.488  1.00  0.00     0.000 HD 
ENDBRANCH  48  49
ENDBRANCH  46  48
ENDBRANCH  34  35
ENDBRANCH  25  34
TORSDOF 4
ENDMDL
MODEL        3
REMARK 921   NORMALIZED FREE ENERGY PREDICTED BY IDOCK:   -8.50 KCAL/MOL
REMARK 922        TOTAL FREE ENERGY PREDICTED BY IDOCK:  -11.38 KCAL/MOL
REMARK 923 INTER-LIGAND FREE ENERGY PREDICTED BY IDOCK:   -9.52 KCAL/MOL
REMARK 924 INTRA-LIGAND FREE ENERGY PREDICTED BY IDOCK:   -1.86 KCAL/MOL
REMARK 927      BINDING AFFINITY PREDICTED BY RF-SCORE:    0.00 PKD
ROOT
HETATM    1  C   UNL     1      -7.892   2.352  67.233  1.00  0.00    -0.065 C  
HETATM    2  C   UNL     1      -8.054   3.109  65.836  1.00  0.00    -0.086 C  
HETATM    3  C   UNL     1      -7.226   2.650  64.611  1.00  0.00    -0.054 C  
HETATM    4  C   UNL     1      -5.796   2.297  65.067  1.00  0.00    -0.017 C  
HETATM    5  C   UNL     1      -7.930   1.513  63.846  1.00  0.00    -0.061 C  
HETATM    6  C   UNL     1      -7.098   3.744  63.521  1.00  0.00    -0.049 C  
HETATM    7  O   UNL     1      -6.041   4.097  63.002  1.00  0.00    -0.017 OA 
HETATM    8  O   UNL     1      -8.257   4.270  63.100  1.00  0.00    -0.083 OA 
HETATM    9  C   UNL     1      -5.631   1.624  66.456  1.00  0.00    -0.017 C  
HETATM   10  C   UNL     1      -6.408   2.313  67.630  1.00  0.00    -0.028 C  
HETATM   11  C   UNL     1      -5.732   3.683  67.850  1.00  0.00    -0.022 C  
HETATM   12  C   UNL     1      -6.382   1.581  69.011  1.00  0.00    -0.025 C  
HETATM   13  C   UNL     1      -6.994   2.453  70.222  1.00  0.00    -0.033 C  
HETATM   14  C   UNL     1      -8.472   2.987  70.007  1.00  0.00    -0.090 C  
HETATM   15  C   UNL     1      -8.764   2.930  68.386  1.00  0.00    -0.140 C  
HETATM   16  C   UNL     1      -9.352   1.774  70.486  1.00  0.00    -0.176 C  
HETATM   17  C   UNL     1      -9.738   3.717  67.965  1.00  0.00    -0.105 C  
HETATM   18  C   UNL     1      -9.275   4.903  68.691  1.00  0.00    -0.120 C  
HETATM   19  C   UNL     1     -10.133   5.238  69.821  1.00  0.00    -0.334 C  
HETATM   20  O   UNL     1      -8.173   5.415  68.501  1.00  0.00    -0.094 OA 
HETATM   21  C   UNL     1     -10.507   6.767  69.503  1.00  0.00    -0.248 C  
HETATM   22  C   UNL     1     -11.894   7.024  70.136  1.00  0.00    -0.190 C  
HETATM   23  C   UNL     1     -10.682   6.932  67.943  1.00  0.00    -0.294 C  
HETATM   24  C   UNL     1     -10.639   8.281  67.248  1.00  0.00    -0.335 C  
HETATM   25  C   UNL     1      -9.571   9.259  67.787  1.00  0.00    -0.142 C  
HETATM   26  C   UNL     1      -9.712   9.316  69.386  1.00  0.00    -0.175 C  
HETATM   27  C   UNL     1      -8.298   5.803  71.431  1.00  0.00    -0.127 C  
HETATM   28  C   UNL     1      -9.425   7.783  69.964  1.00  0.00    -0.161 C  
HETATM   29  C   UNL     1     -11.152   9.923  69.627  1.00  0.00    -0.279 C  
HETATM   30  C   UNL     1      -8.805  10.443  69.913  1.00  0.00     0.140 C  
HETATM   31  C   UNL     1     -10.009   4.111  72.108  1.00  0.00    -0.243 C  
HETATM   32  C   UNL     1      -9.161   4.544  70.866  1.00  0.00    -0.185 C  
HETATM   33  C   UNL     1      -8.990   7.325  71.397  1.00  0.00    -0.139 C  
ENDROOT
BRANCH  25  34
HETATM   34  O   UNL     1      -8.244   9.295  67.124  1.00  0.00    -0.115 OA 
BRANCH  34  35
HETATM   35  C   UNL     1      -7.800  10.450  66.342  1.00  0.00    -0.128 C  
HETATM   36  C   UNL     1      -8.925  10.320  63.624  1.00  0.00    -0.240 C  
HETATM   37  O   UNL     1      -7.179   9.997  65.159  1.00  0.00    -0.127 OA 
HETATM   38  C   UNL     1      -7.280   8.412  63.242  1.00  0.00    -0.093 C  
HETATM   39  C   UNL     1      -8.032   9.303  64.280  1.00  0.00    -0.135 C  
HETATM   40  O   UNL     1      -9.880   9.639  62.796  1.00  0.00    -0.463 OA 
HETATM   41  C   UNL     1      -9.653  11.161  64.668  1.00  0.00    -0.250 C  
HETATM   42  O   UNL     1      -6.081   8.306  63.064  1.00  0.00    -0.079 OA 
HETATM   43  O   UNL     1      -8.100   7.620  62.512  1.00  0.00    -0.140 OA 
HETATM   44  O   UNL     1     -10.085  12.354  63.963  1.00  0.00    -0.461 OA 
HETATM   45  H   UNL     1     -10.444  10.282  62.382  1.00  0.00     0.000 HD 
HETATM   46  C   UNL     1      -8.851  11.561  65.932  1.00  0.00    -0.105 C  
HETATM   47  H   UNL     1     -10.539  12.878  64.613  1.00  0.00     0.000 HD 
BRANCH  46  48
HETATM   48  O   UNL     1      -9.716  12.013  67.008  1.00  0.00    -0.192 OA 
BRANCH  48  49
HETATM   49  C   UNL     1      -9.636  13.437  67.241  1.00  0.00    -0.234 C  
HETATM   50  O   UNL     1      -8.687  13.754  68.266  1.00  0.00    -0.172 OA 
HETATM   51  C   UNL     1      -8.437  15.177  68.282  1.00  0.00    -0.152 C  
HETATM   52  C   UNL     1      -7.183  15.476  69.106  1.00  0.00    -0.174 C  
HETATM   53  C   UNL     1      -9.683  15.857  68.846  1.00  0.00    -0.230 C  
HETATM   54  O   UNL     1      -9.605  17.288  68.896  1.00  0.00    -0.270 OA 
HETATM   55  C   UNL     1     -10.901  15.528  67.968  1.00  0.00    -0.300 C  
HETATM   56  O   UNL     1      -6.611  14.357  69.607  1.00  0.00    -0.133 OA 
HETATM   57  O   UNL     1      -6.704  16.588  69.267  1.00  0.00    -0.197 OA 
HETATM   58  O   UNL     1     -12.109  15.896  68.653  1.00  0.00    -0.499 OA 
HETATM   59  C   UNL     1     -11.020  14.073  67.468  1.00  0.00    -0.277 C  
HETATM   60  H   UNL     1     -10.379  17.711  69.248  1.00  0.00     0.000 HD 
HETATM   61  H   UNL     1     -12.861  15.692  68.110  1.00  0.00     0.000 HD 
HETATM   62  O   UNL     1     -11.679  14.096  66.166  1.00  0.00    -0.363 OA 
HETATM   63  H   UNL     1     -12.533  14.488  66.306  1.00  0.00     0.000 HD 
ENDBRANCH  48  49
ENDBRANCH  46  48
ENDBRANCH  34  35
ENDBRANCH  25  34
TORSDOF 4
ENDMDL
MODEL        4
REMARK 921   NORMALIZED FREE ENERGY PREDICTED BY IDOCK:   -8.46 KCAL/MOL
REMARK 922        TOTAL FREE ENERGY PREDICTED BY IDOCK:  -11.34 KCAL/MOL
REMARK 923 INTER-LIGAND FREE ENERGY PREDICTED BY IDOCK:   -9.52 KCAL/MOL
REMARK 924 INTRA-LIGAND FREE ENERGY PREDICTED BY IDOCK:   -1.82 KCAL/MOL
REMARK 927      BINDING AFFINITY PREDICTED BY RF-SCORE:    0.00 PKD
ROOT
HETATM    1  C   UNL     1      -8.090   4.448  71.129  1.00  0.00    -0.081 C  
HETATM    2  C   UNL     1      -7.826   5.939  71.637  1.00  0.00    -0.106 C  
HETATM    3  C   UNL     1      -8.399   6.401  72.999  1.00  0.00    -0.116 C  
HETATM    4  C   UNL     1      -9.822   5.832  73.172  1.00  0.00    -0.178 C  
HETATM    5  C   UNL     1      -7.448   6.052  74.160  1.00  0.00    -0.087 C  
HETATM    6  C   UNL     1      -8.508   7.941  73.121  1.00  0.00    -0.186 C  
HETATM    7  O   UNL     1      -9.515   8.548  73.482  1.00  0.00     0.012 OA 
HETATM    8  O   UNL     1      -7.379   8.617  72.863  1.00  0.00    -0.323 OA 
HETATM    9  C   UNL     1     -10.099   4.409  72.616  1.00  0.00    -0.229 C  
HETATM   10  C   UNL     1      -9.598   4.154  71.152  1.00  0.00    -0.249 C  
HETATM   11  C   UNL     1     -10.472   5.037  70.237  1.00  0.00    -0.243 C  
HETATM   12  C   UNL     1      -9.730   2.693  70.613  1.00  0.00    -0.080 C  
HETATM   13  C   UNL     1      -9.421   2.550  69.036  1.00  0.00    -0.151 C  
HETATM   14  C   UNL     1      -8.010   3.096  68.560  1.00  0.00    -0.063 C  
HETATM   15  C   UNL     1      -7.479   4.123  69.734  1.00  0.00    -0.049 C  
HETATM   16  C   UNL     1      -7.059   1.871  68.818  1.00  0.00    -0.039 C  
HETATM   17  C   UNL     1      -6.566   4.994  69.344  1.00  0.00    -0.043 C  
HETATM   18  C   UNL     1      -7.281   5.405  68.133  1.00  0.00    -0.071 C  
HETATM   19  C   UNL     1      -6.649   4.914  66.915  1.00  0.00    -0.050 C  
HETATM   20  O   UNL     1      -8.401   5.914  68.159  1.00  0.00    -0.114 OA 
HETATM   21  C   UNL     1      -6.436   6.273  66.087  1.00  0.00    -0.047 C  
HETATM   22  C   UNL     1      -5.202   6.051  65.183  1.00  0.00    -0.013 C  
HETATM   23  C   UNL     1      -6.058   7.427  67.097  1.00  0.00    -0.046 C  
HETATM   24  C   UNL     1      -6.174   8.899  66.744  1.00  0.00    -0.058 C  
HETATM   25  C   UNL     1      -7.429   9.276  65.924  1.00  0.00    -0.095 C  
HETATM   26  C   UNL     1      -7.532   8.265  64.682  1.00  0.00    -0.099 C  
HETATM   27  C   UNL     1      -8.758   4.273  65.723  1.00  0.00    -0.119 C  
HETATM   28  C   UNL     1      -7.697   6.730  65.303  1.00  0.00    -0.106 C  
HETATM   29  C   UNL     1      -6.234   8.564  63.828  1.00  0.00    -0.072 C  
HETATM   30  C   UNL     1      -8.646   8.762  63.742  1.00  0.00    -0.061 C  
HETATM   31  C   UNL     1      -6.958   2.557  65.983  1.00  0.00    -0.048 C  
HETATM   32  C   UNL     1      -7.664   3.701  66.784  1.00  0.00    -0.081 C  
HETATM   33  C   UNL     1      -8.273   5.441  64.628  1.00  0.00    -0.133 C  
ENDROOT
BRANCH  25  34
HETATM   34  O   UNL     1      -8.637   9.738  66.650  1.00  0.00    -0.126 OA 
BRANCH  34  35
HETATM   35  C   UNL     1      -8.777  11.115  67.126  1.00  0.00    -0.141 C  
HETATM   36  C   UNL     1     -11.372  12.218  66.279  1.00  0.00    -0.345 C  
HETATM   37  O   UNL     1      -9.052  11.959  66.030  1.00  0.00    -0.199 OA 
HETATM   38  C   UNL     1     -10.366  12.277  63.938  1.00  0.00    -0.429 C  
HETATM   39  C   UNL     1     -10.278  11.699  65.387  1.00  0.00    -0.263 C  
HETATM   40  O   UNL     1     -12.644  11.880  65.705  1.00  0.00    -0.019 OA 
HETATM   41  C   UNL     1     -11.262  11.622  67.679  1.00  0.00    -0.281 C  
HETATM   42  O   UNL     1      -9.553  12.963  63.348  1.00  0.00     0.308 OA 
HETATM   43  O   UNL     1     -11.472  11.884  63.264  1.00  0.00    -0.369 OA 
HETATM   44  O   UNL     1     -12.030  12.511  68.533  1.00  0.00    -0.313 OA 
HETATM   45  H   UNL     1     -13.335  12.207  66.269  1.00  0.00     0.000 HD 
HETATM   46  C   UNL     1      -9.836  11.443  68.257  1.00  0.00    -0.200 C  
HETATM   47  H   UNL     1     -11.962  12.140  69.405  1.00  0.00     0.000 HD 
BRANCH  46  48
HETATM   48  O   UNL     1      -9.816  10.540  69.395  1.00  0.00    -0.221 OA 
BRANCH  48  49
HETATM   49  C   UNL     1     -11.117  10.357  69.998  1.00  0.00    -0.314 C  
HETATM   50  O   UNL     1     -11.423  11.406  70.924  1.00  0.00     0.152 OA 
HETATM   51  C   UNL     1     -12.818  11.341  71.295  1.00  0.00    -0.389 C  
HETATM   52  C   UNL     1     -13.235  12.642  71.982  1.00  0.00    -0.427 C  
HETATM   53  C   UNL     1     -12.998  10.121  72.197  1.00  0.00    -0.340 C  
HETATM   54  O   UNL     1     -14.348   9.897  72.628  1.00  0.00    -0.478 OA 
HETATM   55  C   UNL     1     -12.575   8.848  71.446  1.00  0.00    -0.300 C  
HETATM   56  O   UNL     1     -12.220  13.533  72.068  1.00  0.00     0.084 OA 
HETATM   57  O   UNL     1     -14.365  12.893  72.373  1.00  0.00    -0.379 OA 
HETATM   58  O   UNL     1     -12.444   7.758  72.371  1.00  0.00    -0.501 OA 
HETATM   59  C   UNL     1     -11.297   8.946  70.586  1.00  0.00    -0.259 C  
HETATM   60  H   UNL     1     -14.459   9.139  73.190  1.00  0.00     0.000 HD 
HETATM   61  H   UNL     1     -12.182   6.971  71.907  1.00  0.00     0.000 HD 
HETATM   62  O   UNL     1     -11.448   8.044  69.449  1.00  0.00    -0.351 OA 
HETATM   63  H   UNL     1     -11.560   7.172  69.812  1.00  0.00     0.000 HD 
ENDBRANCH  48  49
ENDBRANCH  46  48
ENDBRANCH  34  35
ENDBRANCH  25  34
TORSDOF 4
ENDMDL
MODEL        5
REMARK 921   NORMALIZED FREE ENERGY PREDICTED BY IDOCK:   -8.29 KCAL/MOL
REMARK 922        TOTAL FREE ENERGY PREDICTED BY IDOCK:  -11.13 KCAL/MOL
REMARK 923 INTER-LIGAND FREE ENERGY PREDICTED BY IDOCK:   -9.82 KCAL/MOL
REMARK 924 INTRA-LIGAND FREE ENERGY PREDICTED BY IDOCK:   -1.31 KCAL/MOL
REMARK 927      BINDING AFFINITY PREDICTED BY RF-SCORE:    0.00 PKD
ROOT
HETATM    1  C   UNL     1      -7.941   2.514  66.842  1.00  0.00    -0.076 C  
HETATM    2  C   UNL     1      -8.412   3.267  65.515  1.00  0.00    -0.106 C  
HETATM    3  C   UNL     1      -7.821   2.852  64.145  1.00  0.00    -0.077 C  
HETATM    4  C   UNL     1      -6.315   2.566  64.305  1.00  0.00    -0.019 C  
HETATM    5  C   UNL     1      -8.610   1.685  63.520  1.00  0.00    -0.076 C  
HETATM    6  C   UNL     1      -7.962   3.954  63.065  1.00  0.00    -0.075 C  
HETATM    7  O   UNL     1      -7.046   4.359  62.352  1.00  0.00    -0.031 OA 
HETATM    8  O   UNL     1      -9.205   4.425  62.887  1.00  0.00    -0.129 OA 
HETATM    9  C   UNL     1      -5.847   1.897  65.626  1.00  0.00    -0.017 C  
HETATM   10  C   UNL     1      -6.409   2.545  66.939  1.00  0.00    -0.028 C  
HETATM   11  C   UNL     1      -5.766   3.945  67.037  1.00  0.00    -0.022 C  
HETATM   12  C   UNL     1      -6.076   1.810  68.278  1.00  0.00    -0.024 C  
HETATM   13  C   UNL     1      -6.476   2.649  69.597  1.00  0.00    -0.029 C  
HETATM   14  C   UNL     1      -7.990   3.112  69.684  1.00  0.00    -0.058 C  
HETATM   15  C   UNL     1      -8.594   3.046  68.152  1.00  0.00    -0.117 C  
HETATM   16  C   UNL     1      -8.701   1.858  70.312  1.00  0.00    -0.115 C  
HETATM   17  C   UNL     1      -9.667   3.787  67.942  1.00  0.00    -0.125 C  
HETATM   18  C   UNL     1      -9.125   4.992  68.577  1.00  0.00    -0.111 C  
HETATM   19  C   UNL     1      -9.757   5.282  69.858  1.00  0.00    -0.260 C  
HETATM   20  O   UNL     1      -8.107   5.556  68.179  1.00  0.00    -0.096 OA 
HETATM   21  C   UNL     1     -10.257   6.793  69.639  1.00  0.00    -0.207 C  
HETATM   22  C   UNL     1     -11.502   6.981  70.536  1.00  0.00    -0.363 C  
HETATM   23  C   UNL     1     -10.744   6.953  68.146  1.00  0.00    -0.260 C  
HETATM   24  C   UNL     1     -10.903   8.306  67.474  1.00  0.00    -0.094 C  
HETATM   25  C   UNL     1      -9.795   9.332  67.803  1.00  0.00    -0.171 C  
HETATM   26  C   UNL     1      -9.620   9.377  69.399  1.00  0.00    -0.177 C  
HETATM   27  C   UNL     1      -7.668   5.929  71.081  1.00  0.00    -0.109 C  
HETATM   28  C   UNL     1      -9.153   7.857  69.889  1.00  0.00    -0.146 C  
HETATM   29  C   UNL     1     -11.010   9.913  69.928  1.00  0.00    -0.321 C  
HETATM   30  C   UNL     1      -8.679  10.545  69.751  1.00  0.00     0.136 C  
HETATM   31  C   UNL     1      -9.131   4.155  72.061  1.00  0.00    -0.160 C  
HETATM   32  C   UNL     1      -8.567   4.632  70.682  1.00  0.00    -0.120 C  
HETATM   33  C   UNL     1      -8.423   7.417  71.203  1.00  0.00    -0.118 C  
ENDROOT
BRANCH  25  34
HETATM   34  O   UNL     1      -8.629   9.433  66.892  1.00  0.00    -0.126 OA 
BRANCH  34  35
HETATM   35  C   UNL     1      -8.295  10.676  66.196  1.00  0.00    -0.158 C  
HETATM   36  C   UNL     1      -8.945  10.436  63.334  1.00  0.00    -0.229 C  
HETATM   37  O   UNL     1      -7.426  10.389  65.123  1.00  0.00    -0.140 OA 
HETATM   38  C   UNL     1      -6.931   8.880  63.205  1.00  0.00    -0.089 C  
HETATM   39  C   UNL     1      -7.988   9.579  64.117  1.00  0.00    -0.137 C  
HETATM   40  O   UNL     1      -9.616   9.620  62.362  1.00  0.00    -0.558 OA 
HETATM   41  C   UNL     1      -9.970  11.090  64.255  1.00  0.00    -0.317 C  
HETATM   42  O   UNL     1      -5.721   9.004  63.217  1.00  0.00    -0.075 OA 
HETATM   43  O   UNL     1      -7.466   7.976  62.350  1.00  0.00    -0.098 OA 
HETATM   44  O   UNL     1     -10.506  12.207  63.497  1.00  0.00    -0.419 OA 
HETATM   45  H   UNL     1     -10.221  10.161  61.868  1.00  0.00     0.000 HD 
HETATM   46  C   UNL     1      -9.461  11.588  65.631  1.00  0.00    -0.222 C  
HETATM   47  H   UNL     1     -11.144  12.615  64.071  1.00  0.00     0.000 HD 
BRANCH  46  48
HETATM   48  O   UNL     1     -10.550  11.834  66.561  1.00  0.00    -0.235 OA 
BRANCH  48  49
HETATM   49  C   UNL     1     -10.409  13.076  67.286  1.00  0.00    -0.238 C  
HETATM   50  O   UNL     1     -11.331  13.160  68.378  1.00  0.00    -0.251 OA 
HETATM   51  C   UNL     1     -10.982  14.272  69.232  1.00  0.00    -0.241 C  
HETATM   52  C   UNL     1     -11.718  14.155  70.567  1.00  0.00    -0.216 C  
HETATM   53  C   UNL     1     -11.333  15.556  68.482  1.00  0.00    -0.351 C  
HETATM   54  O   UNL     1     -11.012  16.762  69.189  1.00  0.00    -0.301 OA 
HETATM   55  C   UNL     1     -10.552  15.618  67.159  1.00  0.00    -0.308 C  
HETATM   56  O   UNL     1     -12.500  13.053  70.635  1.00  0.00    -0.331 OA 
HETATM   57  O   UNL     1     -11.594  14.931  71.503  1.00  0.00    -0.346 OA 
HETATM   58  O   UNL     1     -11.101  16.645  66.317  1.00  0.00     0.041 OA 
HETATM   59  C   UNL     1     -10.443  14.304  66.358  1.00  0.00    -0.282 C  
HETATM   60  H   UNL     1     -11.231  17.560  68.723  1.00  0.00     0.000 HD 
HETATM   61  H   UNL     1     -10.618  16.683  65.500  1.00  0.00     0.000 HD 
HETATM   62  O   UNL     1      -9.170  14.315  65.644  1.00  0.00    -0.493 OA 
HETATM   63  H   UNL     1      -9.191  15.073  65.071  1.00  0.00     0.000 HD 
ENDBRANCH  48  49
ENDBRANCH  46  48
ENDBRANCH  34  35
ENDBRANCH  25  34
TORSDOF 4
ENDMDL
MODEL        6
REMARK 921   NORMALIZED FREE ENERGY PREDICTED BY IDOCK:   -7.71 KCAL/MOL
REMARK 922        TOTAL FREE ENERGY PREDICTED BY IDOCK:  -10.41 KCAL/MOL
REMARK 923 INTER-LIGAND FREE ENERGY PREDICTED BY IDOCK:   -8.67 KCAL/MOL
REMARK 924 INTRA-LIGAND FREE ENERGY PREDICTED BY IDOCK:   -1.74 KCAL/MOL
REMARK 927      BINDING AFFINITY PREDICTED BY RF-SCORE:    0.00 PKD
ROOT
HETATM    1  C   UNL     1      -8.440   3.138  67.867  1.00  0.00    -0.104 C  
HETATM    2  C   UNL     1      -8.721   3.753  66.421  1.00  0.00    -0.118 C  
HETATM    3  C   UNL     1      -8.096   3.091  65.169  1.00  0.00    -0.086 C  
HETATM    4  C   UNL     1      -6.652   2.658  65.489  1.00  0.00    -0.032 C  
HETATM    5  C   UNL     1      -8.980   1.949  64.633  1.00  0.00    -0.118 C  
HETATM    6  C   UNL     1      -8.024   4.045  63.950  1.00  0.00    -0.088 C  
HETATM    7  O   UNL     1      -7.018   4.241  63.270  1.00  0.00    -0.042 OA 
HETATM    8  O   UNL     1      -9.183   4.628  63.611  1.00  0.00    -0.126 OA 
HETATM    9  C   UNL     1      -6.362   2.125  66.918  1.00  0.00    -0.027 C  
HETATM   10  C   UNL     1      -6.925   3.005  68.087  1.00  0.00    -0.049 C  
HETATM   11  C   UNL     1      -6.121   4.322  68.061  1.00  0.00    -0.031 C  
HETATM   12  C   UNL     1      -6.778   2.425  69.531  1.00  0.00    -0.033 C  
HETATM   13  C   UNL     1      -7.158   3.475  70.696  1.00  0.00    -0.034 C  
HETATM   14  C   UNL     1      -8.605   4.118  70.597  1.00  0.00    -0.108 C  
HETATM   15  C   UNL     1      -9.107   3.915  69.040  1.00  0.00    -0.198 C  
HETATM   16  C   UNL     1      -9.509   3.051  71.317  1.00  0.00    -0.220 C  
HETATM   17  C   UNL     1     -10.062   4.740  68.649  1.00  0.00    -0.114 C  
HETATM   18  C   UNL     1      -9.418   5.948  69.170  1.00  0.00    -0.128 C  
HETATM   19  C   UNL     1     -10.094   6.481  70.347  1.00  0.00    -0.213 C  
HETATM   20  O   UNL     1      -8.312   6.332  68.790  1.00  0.00    -0.118 OA 
HETATM   21  C   UNL     1     -10.384   7.995  69.898  1.00  0.00    -0.221 C  
HETATM   22  C   UNL     1     -11.653   8.446  70.656  1.00  0.00    -0.205 C  
HETATM   23  C   UNL     1     -10.745   8.007  68.361  1.00  0.00    -0.070 C  
HETATM   24  C   UNL     1     -10.687   9.265  67.512  1.00  0.00    -0.272 C  
HETATM   25  C   UNL     1      -9.484  10.191  67.800  1.00  0.00    -0.144 C  
HETATM   26  C   UNL     1      -9.413  10.432  69.386  1.00  0.00    -0.204 C  
HETATM   27  C   UNL     1      -8.027   7.042  71.648  1.00  0.00    -0.099 C  
HETATM   28  C   UNL     1      -9.175   8.949  70.103  1.00  0.00    -0.195 C  
HETATM   29  C   UNL     1     -10.757  11.192  69.725  1.00  0.00    -0.069 C  
HETATM   30  C   UNL     1      -8.359  11.520  69.665  1.00  0.00     0.991 C  
HETATM   31  C   UNL     1      -9.764   5.598  72.719  1.00  0.00    -0.171 C  
HETATM   32  C   UNL     1      -9.052   5.816  71.343  1.00  0.00    -0.150 C  
HETATM   33  C   UNL     1      -8.596   8.610  71.517  1.00  0.00    -0.256 C  
ENDROOT
BRANCH  25  34
HETATM   34  O   UNL     1      -8.255  10.033  66.984  1.00  0.00    -0.116 OA 
BRANCH  34  35
HETATM   35  C   UNL     1      -7.799  11.072  66.061  1.00  0.00    -0.077 C  
HETATM   36  C   UNL     1      -9.147  10.774  63.460  1.00  0.00    -0.226 C  
HETATM   37  O   UNL     1      -7.308  10.466  64.886  1.00  0.00    -0.134 OA 
HETATM   38  C   UNL     1      -7.671   8.720  63.147  1.00  0.00    -0.123 C  
HETATM   39  C   UNL     1      -8.275   9.759  64.146  1.00  0.00    -0.158 C  
HETATM   40  O   UNL     1     -10.210  10.093  62.777  1.00  0.00    -0.518 OA 
HETATM   41  C   UNL     1      -9.730  11.761  64.467  1.00  0.00    -0.142 C  
HETATM   42  O   UNL     1      -6.501   8.509  62.893  1.00  0.00    -0.090 OA 
HETATM   43  O   UNL     1      -8.600   7.928  62.562  1.00  0.00    -0.064 OA 
HETATM   44  O   UNL     1     -10.136  12.913  63.681  1.00  0.00    -0.676 OA 
HETATM   45  H   UNL     1     -10.761  10.735  62.344  1.00  0.00     0.000 HD 
HETATM   46  C   UNL     1      -8.802  12.217  65.622  1.00  0.00     0.361 C  
HETATM   47  H   UNL     1     -10.499  13.528  64.308  1.00  0.00     0.000 HD 
BRANCH  46  48
HETATM   48  O   UNL     1      -9.544  12.831  66.709  1.00  0.00    -0.230 OA 
BRANCH  48  49
HETATM   49  C   UNL     1      -9.333  14.257  66.806  1.00  0.00    -0.276 C  
HETATM   50  O   UNL     1      -9.947  14.959  65.719  1.00  0.00    -0.305 OA 
HETATM   51  C   UNL     1      -9.951  16.378  65.990  1.00  0.00    -0.345 C  
HETATM   52  C   UNL     1     -10.907  17.089  65.031  1.00  0.00    -0.006 C  
HETATM   53  C   UNL     1      -8.513  16.875  65.855  1.00  0.00     0.010 C  
HETATM   54  O   UNL     1      -8.342  18.273  66.129  1.00  0.00    -0.441 OA 
HETATM   55  C   UNL     1      -7.607  16.133  66.852  1.00  0.00    -0.240 C  
HETATM   56  O   UNL     1     -11.519  16.234  64.179  1.00  0.00    -0.821 OA 
HETATM   57  O   UNL     1     -11.146  18.287  65.044  1.00  0.00    -0.614 OA 
HETATM   58  O   UNL     1      -6.229  16.363  66.522  1.00  0.00    -0.261 OA 
HETATM   59  C   UNL     1      -7.850  14.618  67.011  1.00  0.00    -0.021 C  
HETATM   60  H   UNL     1      -7.447  18.582  66.045  1.00  0.00     0.000 HD 
HETATM   61  H   UNL     1      -5.670  15.904  67.138  1.00  0.00     0.000 HD 
HETATM   62  O   UNL     1      -7.523  14.249  68.384  1.00  0.00    -0.105 OA 
HETATM   63  H   UNL     1      -6.608  14.472  68.510  1.00  0.00     0.000 HD 
ENDBRANCH  48  49
ENDBRANCH  46  48
ENDBRANCH  34  35
ENDBRANCH  25  34
TORSDOF 4
ENDMDL
MODEL        7
REMARK 921   NORMALIZED FREE ENERGY PREDICTED BY IDOCK:   -6.96 KCAL/MOL
REMARK 922        TOTAL FREE ENERGY PREDICTED BY IDOCK:   -9.48 KCAL/MOL
REMARK 923 INTER-LIGAND FREE ENERGY PREDICTED BY IDOCK:   -7.98 KCAL/MOL
REMARK 924 INTRA-LIGAND FREE ENERGY PREDICTED BY IDOCK:   -1.50 KCAL/MOL
REMARK 927      BINDING AFFINITY PREDICTED BY RF-SCORE:    0.00 PKD
ROOT
HETATM    1  C   UNL     1      -7.227   3.027  68.476  1.00  0.00    -0.049 C  
HETATM    2  C   UNL     1      -7.093   4.121  69.631  1.00  0.00    -0.046 C  
HETATM    3  C   UNL     1      -7.565   3.786  71.067  1.00  0.00    -0.047 C  
HETATM    4  C   UNL     1      -8.880   2.983  70.996  1.00  0.00    -0.144 C  
HETATM    5  C   UNL     1      -6.456   3.087  71.878  1.00  0.00    -0.015 C  
HETATM    6  C   UNL     1      -7.848   5.046  71.923  1.00  0.00    -0.109 C  
HETATM    7  O   UNL     1      -8.875   5.239  72.570  1.00  0.00    -0.126 OA 
HETATM    8  O   UNL     1      -6.845   5.934  71.982  1.00  0.00    -0.071 OA 
HETATM    9  C   UNL     1      -9.040   1.969  69.832  1.00  0.00    -0.162 C  
HETATM   10  C   UNL     1      -8.676   2.519  68.410  1.00  0.00    -0.130 C  
HETATM   11  C   UNL     1      -9.747   3.577  68.070  1.00  0.00    -0.083 C  
HETATM   12  C   UNL     1      -8.687   1.486  67.237  1.00  0.00    -0.123 C  
HETATM   13  C   UNL     1      -8.538   2.158  65.777  1.00  0.00    -0.111 C  
HETATM   14  C   UNL     1      -7.266   3.082  65.572  1.00  0.00    -0.070 C  
HETATM   15  C   UNL     1      -6.738   3.502  67.076  1.00  0.00    -0.049 C  
HETATM   16  C   UNL     1      -6.149   2.050  65.169  1.00  0.00    -0.018 C  
HETATM   17  C   UNL     1      -5.987   4.588  67.122  1.00  0.00    -0.023 C  
HETATM   18  C   UNL     1      -6.875   5.402  66.288  1.00  0.00    -0.059 C  
HETATM   19  C   UNL     1      -6.326   5.653  64.962  1.00  0.00    -0.041 C  
HETATM   20  O   UNL     1      -8.040   5.651  66.599  1.00  0.00    -0.104 OA 
HETATM   21  C   UNL     1      -6.373   7.256  64.887  1.00  0.00    -0.037 C  
HETATM   22  C   UNL     1      -5.228   7.689  63.943  1.00  0.00    -0.033 C  
HETATM   23  C   UNL     1      -6.030   7.839  66.314  1.00  0.00    -0.038 C  
HETATM   24  C   UNL     1      -6.364   9.263  66.723  1.00  0.00    -0.066 C  
HETATM   25  C   UNL     1      -7.737   9.777  66.235  1.00  0.00    -0.103 C  
HETATM   26  C   UNL     1      -7.852   9.471  64.663  1.00  0.00    -0.122 C  
HETATM   27  C   UNL     1      -8.459   5.322  63.689  1.00  0.00    -0.091 C  
HETATM   28  C   UNL     1      -7.759   7.821  64.471  1.00  0.00    -0.122 C  
HETATM   29  C   UNL     1      -6.702  10.341  64.013  1.00  0.00    -0.062 C  
HETATM   30  C   UNL     1      -9.115  10.167  64.124  1.00  0.00    -0.287 C  
HETATM   31  C   UNL     1      -6.445   4.001  63.018  1.00  0.00    -0.022 C  
HETATM   32  C   UNL     1      -7.193   4.501  64.299  1.00  0.00    -0.058 C  
HETATM   33  C   UNL     1      -8.244   6.929  63.278  1.00  0.00     0.083 C  
ENDROOT
BRANCH  25  34
HETATM   34  O   UNL     1      -8.906   9.640  67.138  1.00  0.00    -0.131 OA 
BRANCH  34  35
HETATM   35  C   UNL     1      -9.289  10.697  68.076  1.00  0.00    -0.147 C  
HETATM   36  C   UNL     1      -6.928  11.622  69.573  1.00  0.00    -0.002 C  
HETATM   37  O   UNL     1      -8.881  10.335  69.376  1.00  0.00    -0.172 OA 
HETATM   38  C   UNL     1      -7.063   9.386  70.788  1.00  0.00    -0.114 C  
HETATM   39  C   UNL     1      -7.487  10.226  69.542  1.00  0.00    -0.142 C  
HETATM   40  O   UNL     1      -5.496  11.552  69.637  1.00  0.00    -0.056 OA 
HETATM   41  C   UNL     1      -7.351  12.406  68.334  1.00  0.00    -0.113 C  
HETATM   42  O   UNL     1      -7.772   8.892  71.643  1.00  0.00    -0.260 OA 
HETATM   43  O   UNL     1      -5.732   9.143  70.851  1.00  0.00    -0.034 OA 
HETATM   44  O   UNL     1      -7.169  13.803  68.686  1.00  0.00    -0.100 OA 
HETATM   45  H   UNL     1      -5.143  12.434  69.657  1.00  0.00     0.000 HD 
HETATM   46  C   UNL     1      -8.795  12.180  67.818  1.00  0.00    -0.172 C  
HETATM   47  H   UNL     1      -7.432  14.292  67.915  1.00  0.00     0.000 HD 
BRANCH  46  48
HETATM   48  O   UNL     1      -8.970  12.657  66.457  1.00  0.00    -0.199 OA 
BRANCH  48  49
HETATM   49  C   UNL     1      -9.552  13.978  66.388  1.00  0.00    -0.283 C  
HETATM   50  O   UNL     1      -8.575  14.999  66.621  1.00  0.00    -0.258 OA 
HETATM   51  C   UNL     1      -9.125  16.291  66.280  1.00  0.00    -0.331 C  
HETATM   52  C   UNL     1      -8.002  17.324  66.178  1.00  0.00    -0.257 C  
HETATM   53  C   UNL     1     -10.154  16.651  67.351  1.00  0.00    -0.274 C  
HETATM   54  O   UNL     1     -10.820  17.903  67.135  1.00  0.00    -0.284 OA 
HETATM   55  C   UNL     1     -11.259  15.582  67.393  1.00  0.00    -0.248 C  
HETATM   56  O   UNL     1      -6.781  16.791  66.418  1.00  0.00    -0.194 OA 
HETATM   57  O   UNL     1      -8.158  18.496  65.869  1.00  0.00    -0.492 OA 
HETATM   58  O   UNL     1     -12.045  15.742  68.584  1.00  0.00    -0.533 OA 
HETATM   59  C   UNL     1     -10.805  14.113  67.273  1.00  0.00    -0.285 C  
HETATM   60  H   UNL     1     -11.460  18.126  67.801  1.00  0.00     0.000 HD 
HETATM   61  H   UNL     1     -12.728  15.082  68.610  1.00  0.00     0.000 HD 
HETATM   62  O   UNL     1     -11.863  13.367  66.601  1.00  0.00    -0.356 OA 
HETATM   63  H   UNL     1     -12.637  13.450  67.146  1.00  0.00     0.000 HD 
ENDBRANCH  48  49
ENDBRANCH  46  48
ENDBRANCH  34  35
ENDBRANCH  25  34
TORSDOF 4
ENDMDL
MODEL        8
REMARK 921   NORMALIZED FREE ENERGY PREDICTED BY IDOCK:   -6.48 KCAL/MOL
REMARK 922        TOTAL FREE ENERGY PREDICTED BY IDOCK:   -8.90 KCAL/MOL
REMARK 923 INTER-LIGAND FREE ENERGY PREDICTED BY IDOCK:   -9.46 KCAL/MOL
REMARK 924 INTRA-LIGAND FREE ENERGY PREDICTED BY IDOCK:    0.56 KCAL/MOL
REMARK 927      BINDING AFFINITY PREDICTED BY RF-SCORE:    0.00 PKD
ROOT
HETATM    1  C   UNL     1      -7.687   4.816  70.741  1.00  0.00    -0.069 C  
HETATM    2  C   UNL     1      -7.295   6.245  71.336  1.00  0.00    -0.085 C  
HETATM    3  C   UNL     1      -7.653   6.593  72.802  1.00  0.00    -0.096 C  
HETATM    4  C   UNL     1      -9.059   6.048  73.125  1.00  0.00    -0.130 C  
HETATM    5  C   UNL     1      -6.563   6.113  73.779  1.00  0.00    -0.075 C  
HETATM    6  C   UNL     1      -7.684   8.118  73.074  1.00  0.00    -0.148 C  
HETATM    7  O   UNL     1      -8.605   8.714  73.628  1.00  0.00    -0.319 OA 
HETATM    8  O   UNL     1      -6.576   8.784  72.718  1.00  0.00    -0.244 OA 
HETATM    9  C   UNL     1      -9.467   4.691  72.491  1.00  0.00    -0.169 C  
HETATM   10  C   UNL     1      -9.187   4.561  70.954  1.00  0.00    -0.201 C  
HETATM   11  C   UNL     1     -10.145   5.549  70.255  1.00  0.00    -0.305 C  
HETATM   12  C   UNL     1      -9.450   3.160  70.312  1.00  0.00    -0.224 C  
HETATM   13  C   UNL     1      -9.371   3.158  68.700  1.00  0.00    -0.236 C  
HETATM   14  C   UNL     1      -8.021   3.709  68.077  1.00  0.00    -0.076 C  
HETATM   15  C   UNL     1      -7.290   4.607  69.250  1.00  0.00    -0.052 C  
HETATM   16  C   UNL     1      -7.091   2.439  68.087  1.00  0.00    -0.048 C  
HETATM   17  C   UNL     1      -6.407   5.486  68.812  1.00  0.00    -0.038 C  
HETATM   18  C   UNL     1      -7.268   6.027  67.756  1.00  0.00    -0.076 C  
HETATM   19  C   UNL     1      -6.833   5.635  66.422  1.00  0.00    -0.059 C  
HETATM   20  O   UNL     1      -8.353   6.560  67.987  1.00  0.00    -0.115 OA 
HETATM   21  C   UNL     1      -6.685   7.060  65.696  1.00  0.00    -0.052 C  
HETATM   22  C   UNL     1      -5.600   6.891  64.608  1.00  0.00    -0.032 C  
HETATM   23  C   UNL     1      -6.124   8.104  66.739  1.00  0.00    -0.053 C  
HETATM   24  C   UNL     1      -6.231   9.605  66.539  1.00  0.00    -0.064 C  
HETATM   25  C   UNL     1      -7.572  10.090  65.944  1.00  0.00    -0.114 C  
HETATM   26  C   UNL     1      -7.888   9.202  64.644  1.00  0.00    -0.118 C  
HETATM   27  C   UNL     1      -9.112   5.164  65.492  1.00  0.00    -0.157 C  
HETATM   28  C   UNL     1      -8.025   7.621  65.145  1.00  0.00    -0.130 C  
HETATM   29  C   UNL     1      -6.712   9.545  63.644  1.00  0.00    -0.104 C  
HETATM   30  C   UNL     1      -9.102   9.814  63.921  1.00  0.00    -0.275 C  
HETATM   31  C   UNL     1      -7.362   3.385  65.338  1.00  0.00    -0.075 C  
HETATM   32  C   UNL     1      -7.904   4.467  66.330  1.00  0.00    -0.098 C  
HETATM   33  C   UNL     1      -8.740   6.416  64.447  1.00  0.00     0.396 C  
ENDROOT
BRANCH  25  34
HETATM   34  O   UNL     1      -8.648  10.514  66.873  1.00  0.00    -0.124 OA 
BRANCH  34  35
HETATM   35  C   UNL     1     -10.061  10.467  66.495  1.00  0.00    -0.225 C  
HETATM   36  C   UNL     1     -11.710  11.690  68.606  1.00  0.00    -0.325 C  
HETATM   37  O   UNL     1     -10.793   9.825  67.515  1.00  0.00    -0.283 OA 
HETATM   38  C   UNL     1     -11.175   9.603  69.966  1.00  0.00    -0.231 C  
HETATM   39  C   UNL     1     -10.796  10.505  68.749  1.00  0.00    -0.231 C  
HETATM   40  O   UNL     1     -11.661  12.468  69.811  1.00  0.00    -0.406 OA 
HETATM   41  C   UNL     1     -11.301  12.554  67.417  1.00  0.00    -0.313 C  
HETATM   42  O   UNL     1     -11.525   8.438  69.964  1.00  0.00    -0.090 OA 
HETATM   43  O   UNL     1     -11.015  10.214  71.164  1.00  0.00    -0.245 OA 
HETATM   44  O   UNL     1     -12.473  13.352  67.103  1.00  0.00    -0.217 OA 
HETATM   45  H   UNL     1     -12.238  13.217  69.720  1.00  0.00     0.000 HD 
HETATM   46  C   UNL     1     -10.816  11.814  66.145  1.00  0.00    -0.291 C  
HETATM   47  H   UNL     1     -12.218  13.890  66.363  1.00  0.00     0.000 HD 
BRANCH  46  48
HETATM   48  O   UNL     1     -10.104  12.697  65.236  1.00  0.00    -0.284 OA 
BRANCH  48  49
HETATM   49  C   UNL     1      -9.455  13.800  65.908  1.00  0.00    -0.040 C  
HETATM   50  O   UNL     1      -8.883  13.396  67.157  1.00  0.00    -0.209 OA 
HETATM   51  C   UNL     1      -8.022  14.440  67.663  1.00  0.00    -0.179 C  
HETATM   52  C   UNL     1      -7.139  13.889  68.785  1.00  0.00    -0.109 C  
HETATM   53  C   UNL     1      -8.915  15.586  68.133  1.00  0.00    -0.179 C  
HETATM   54  O   UNL     1      -8.202  16.724  68.637  1.00  0.00    -0.230 OA 
HETATM   55  C   UNL     1      -9.764  16.102  66.960  1.00  0.00    -0.230 C  
HETATM   56  O   UNL     1      -7.364  12.576  69.026  1.00  0.00    -0.065 OA 
HETATM   57  O   UNL     1      -6.285  14.529  69.379  1.00  0.00    -0.102 OA 
HETATM   58  O   UNL     1     -10.813  16.950  67.453  1.00  0.00    -0.278 OA 
HETATM   59  C   UNL     1     -10.367  15.036  66.022  1.00  0.00    -0.312 C  
HETATM   60  H   UNL     1      -8.758  17.437  68.930  1.00  0.00     0.000 HD 
HETATM   61  H   UNL     1     -11.337  17.269  66.728  1.00  0.00     0.000 HD 
HETATM   62  O   UNL     1     -10.451  15.608  64.683  1.00  0.00    -0.624 OA 
HETATM   63  H   UNL     1     -11.014  16.371  64.752  1.00  0.00     0.000 HD 
ENDBRANCH  48  49
ENDBRANCH  46  48
ENDBRANCH  34  35
ENDBRANCH  25  34
TORSDOF 4
ENDMDL
MODEL        9
REMARK 921   NORMALIZED FREE ENERGY PREDICTED BY IDOCK:   -5.91 KCAL/MOL
REMARK 922        TOTAL FREE ENERGY PREDICTED BY IDOCK:   -8.20 KCAL/MOL
REMARK 923 INTER-LIGAND FREE ENERGY PREDICTED BY IDOCK:   -7.15 KCAL/MOL
REMARK 924 INTRA-LIGAND FREE ENERGY PREDICTED BY IDOCK:   -1.05 KCAL/MOL
REMARK 927      BINDING AFFINITY PREDICTED BY RF-SCORE:    0.00 PKD
ROOT
HETATM    1  C   UNL     1     -11.880  14.461  68.269  1.00  0.00    -0.361 C  
HETATM    2  C   UNL     1     -12.201  13.852  69.709  1.00  0.00    -0.388 C  
HETATM    3  C   UNL     1     -12.476  14.801  70.902  1.00  0.00    -0.396 C  
HETATM    4  C   UNL     1     -11.506  15.998  70.834  1.00  0.00    -0.451 C  
HETATM    5  C   UNL     1     -13.960  15.211  70.967  1.00  0.00    -0.383 C  
HETATM    6  C   UNL     1     -12.266  14.124  72.279  1.00  0.00     0.059 C  
HETATM    7  O   UNL     1     -11.592  14.590  73.195  1.00  0.00     0.197 OA 
HETATM    8  O   UNL     1     -12.938  12.978  72.460  1.00  0.00    -0.270 OA 
HETATM    9  C   UNL     1     -11.139  16.546  69.429  1.00  0.00    -0.253 C  
HETATM   10  C   UNL     1     -10.720  15.462  68.377  1.00  0.00    -0.256 C  
HETATM   11  C   UNL     1      -9.374  14.886  68.864  1.00  0.00    -0.197 C  
HETATM   12  C   UNL     1     -10.483  15.962  66.915  1.00  0.00    -0.309 C  
HETATM   13  C   UNL     1      -9.830  14.850  65.945  1.00  0.00    -0.362 C  
HETATM   14  C   UNL     1     -10.616  13.477  65.846  1.00  0.00    -0.284 C  
HETATM   15  C   UNL     1     -11.598  13.397  67.167  1.00  0.00    -0.399 C  
HETATM   16  C   UNL     1     -11.684  13.768  64.728  1.00  0.00    -0.399 C  
HETATM   17  C   UNL     1     -11.995  12.181  67.496  1.00  0.00    -0.175 C  
HETATM   18  C   UNL     1     -10.663  11.576  67.404  1.00  0.00    -0.232 C  
HETATM   19  C   UNL     1     -10.522  10.703  66.246  1.00  0.00    -0.268 C  
HETATM   20  O   UNL     1      -9.715  11.940  68.099  1.00  0.00    -0.183 OA 
HETATM   21  C   UNL     1     -10.040   9.332  66.928  1.00  0.00    -0.324 C  
HETATM   22  C   UNL     1     -10.532   8.186  66.013  1.00  0.00     1.071 C  
HETATM   23  C   UNL     1     -10.787   9.163  68.308  1.00  0.00    -0.104 C  
HETATM   24  C   UNL     1     -10.303   8.219  69.396  1.00  0.00    -0.223 C  
HETATM   25  C   UNL     1      -8.771   8.182  69.592  1.00  0.00    -0.142 C  
HETATM   26  C   UNL     1      -8.091   7.973  68.152  1.00  0.00    -0.129 C  
HETATM   27  C   UNL     1      -8.215  11.436  65.599  1.00  0.00     0.230 C  
HETATM   28  C   UNL     1      -8.513   9.279  67.211  1.00  0.00    -0.125 C  
HETATM   29  C   UNL     1      -8.598   6.550  67.685  1.00  0.00    -0.116 C  
HETATM   30  C   UNL     1      -6.586   7.718  68.359  1.00  0.00    -0.054 C  
HETATM   31  C   UNL     1     -10.027  11.521  63.879  1.00  0.00    -0.360 C  
HETATM   32  C   UNL     1      -9.783  11.821  65.395  1.00  0.00    -0.242 C  
HETATM   33  C   UNL     1      -7.819   9.844  65.927  1.00  0.00    -0.116 C  
ENDROOT
BRANCH  25  34
HETATM   34  O   UNL     1      -8.166   9.071  70.614  1.00  0.00    -0.144 OA 
BRANCH  34  35
HETATM   35  C   UNL     1      -6.745   8.999  70.960  1.00  0.00    -0.087 C  
HETATM   36  C   UNL     1      -5.658  11.710  71.329  1.00  0.00     0.133 C  
HETATM   37  O   UNL     1      -6.005   9.776  70.045  1.00  0.00    -0.040 OA 
HETATM   38  C   UNL     1      -5.857  11.926  68.797  1.00  0.00    -0.050 C  
HETATM   39  C   UNL     1      -6.292  11.155  70.083  1.00  0.00    -0.137 C  
HETATM   40  O   UNL     1      -6.016  13.095  71.458  1.00  0.00    -0.546 OA 
HETATM   41  C   UNL     1      -6.118  10.942  72.564  1.00  0.00     2.142 C  
HETATM   42  O   UNL     1      -5.255  11.503  67.829  1.00  0.00    -0.044 OA 
HETATM   43  O   UNL     1      -6.283  13.211  68.766  1.00  0.00    -0.073 OA 
HETATM   44  O   UNL     1      -5.129  11.236  73.586  1.00  0.00    -0.338 OA 
HETATM   45  H   UNL     1      -5.615  13.446  72.245  1.00  0.00     0.000 HD 
HETATM   46  C   UNL     1      -6.279   9.408  72.417  1.00  0.00     0.287 C  
HETATM   47  H   UNL     1      -5.414  10.757  74.355  1.00  0.00     0.000 HD 
BRANCH  46  48
HETATM   48  O   UNL     1      -7.067   8.835  73.496  1.00  0.00    -0.347 OA 
BRANCH  48  49
HETATM   49  C   UNL     1      -7.814   7.666  73.094  1.00  0.00    -0.111 C  
HETATM   50  O   UNL     1      -9.221   7.842  73.293  1.00  0.00    -0.232 OA 
HETATM   51  C   UNL     1      -9.947   6.779  72.637  1.00  0.00    -0.171 C  
HETATM   52  C   UNL     1     -11.428   7.147  72.533  1.00  0.00    -0.258 C  
HETATM   53  C   UNL     1      -9.718   5.501  73.442  1.00  0.00    -0.151 C  
HETATM   54  O   UNL     1     -10.353   4.336  72.896  1.00  0.00    -0.163 OA 
HETATM   55  C   UNL     1      -8.215   5.180  73.498  1.00  0.00    -0.110 C  
HETATM   56  O   UNL     1     -11.701   8.363  73.062  1.00  0.00    -0.215 OA 
HETATM   57  O   UNL     1     -12.282   6.458  71.994  1.00  0.00    -0.341 OA 
HETATM   58  O   UNL     1      -7.968   4.178  74.496  1.00  0.00    -0.085 OA 
HETATM   59  C   UNL     1      -7.262   6.373  73.723  1.00  0.00    -0.082 C  
HETATM   60  H   UNL     1     -10.210   3.541  73.397  1.00  0.00     0.000 HD 
HETATM   61  H   UNL     1      -7.039   3.980  74.530  1.00  0.00     0.000 HD 
HETATM   62  O   UNL     1      -6.009   6.085  73.035  1.00  0.00    -0.043 OA 
HETATM   63  H   UNL     1      -5.668   5.286  73.422  1.00  0.00     0.000 HD 
ENDBRANCH  48  49
ENDBRANCH  46  48
ENDBRANCH  34  35
ENDBRANCH  25  34
TORSDOF 4
ENDMDL
MODEL       10
REMARK 921   NORMALIZED FREE ENERGY PREDICTED BY IDOCK:   -5.74 KCAL/MOL
REMARK 922        TOTAL FREE ENERGY PREDICTED BY IDOCK:   -7.98 KCAL/MOL
REMARK 923 INTER-LIGAND FREE ENERGY PREDICTED BY IDOCK:   -6.66 KCAL/MOL
REMARK 924 INTRA-LIGAND FREE ENERGY PREDICTED BY IDOCK:   -1.32 KCAL/MOL
REMARK 927      BINDING AFFINITY PREDICTED BY RF-SCORE:    0.00 PKD
ROOT
HETATM    1  C   UNL     1      -7.777   2.683  69.173  1.00  0.00    -0.048 C  
HETATM    2  C   UNL     1      -8.045   3.309  67.728  1.00  0.00    -0.082 C  
HETATM    3  C   UNL     1      -7.109   2.949  66.548  1.00  0.00    -0.054 C  
HETATM    4  C   UNL     1      -5.651   2.910  67.048  1.00  0.00    -0.021 C  
HETATM    5  C   UNL     1      -7.558   1.652  65.847  1.00  0.00    -0.065 C  
HETATM    6  C   UNL     1      -7.166   3.979  65.392  1.00  0.00    -0.068 C  
HETATM    7  O   UNL     1      -6.184   4.501  64.868  1.00  0.00    -0.031 OA 
HETATM    8  O   UNL     1      -8.393   4.242  64.921  1.00  0.00    -0.104 OA 
HETATM    9  C   UNL     1      -5.397   2.367  68.480  1.00  0.00    -0.013 C  
HETATM   10  C   UNL     1      -6.326   2.959  69.595  1.00  0.00    -0.029 C  
HETATM   11  C   UNL     1      -5.935   4.446  69.736  1.00  0.00    -0.018 C  
HETATM   12  C   UNL     1      -6.196   2.330  71.020  1.00  0.00    -0.019 C  
HETATM   13  C   UNL     1      -6.999   3.137  72.163  1.00  0.00    -0.030 C  
HETATM   14  C   UNL     1      -8.546   3.358  71.891  1.00  0.00    -0.104 C  
HETATM   15  C   UNL     1      -8.777   3.148  70.273  1.00  0.00    -0.127 C  
HETATM   16  C   UNL     1      -9.187   2.027  72.433  1.00  0.00    -0.121 C  
HETATM   17  C   UNL     1      -9.873   3.702  69.788  1.00  0.00    -0.008 C  
HETATM   18  C   UNL     1      -9.670   4.997  70.444  1.00  0.00    -0.209 C  
HETATM   19  C   UNL     1     -10.607   5.225  71.536  1.00  0.00    -0.254 C  
HETATM   20  O   UNL     1      -8.682   5.702  70.238  1.00  0.00    -0.127 OA 
HETATM   21  C   UNL     1     -11.262   6.630  71.115  1.00  0.00    -0.340 C  
HETATM   22  C   UNL     1     -12.689   6.648  71.708  1.00  0.00    -0.280 C  
HETATM   23  C   UNL     1     -11.422   6.663  69.545  1.00  0.00    -0.323 C  
HETATM   24  C   UNL     1     -11.624   7.951  68.766  1.00  0.00     1.175 C  
HETATM   25  C   UNL     1     -10.781   9.149  69.257  1.00  0.00    -0.183 C  
HETATM   26  C   UNL     1     -10.974   9.273  70.847  1.00  0.00    -0.368 C  
HETATM   27  C   UNL     1      -8.961   6.234  73.135  1.00  0.00    -0.130 C  
HETATM   28  C   UNL     1     -10.411   7.863  71.526  1.00  0.00    -0.243 C  
HETATM   29  C   UNL     1     -12.511   9.600  71.027  1.00  0.00    -0.382 C  
HETATM   30  C   UNL     1     -10.318  10.586  71.315  1.00  0.00     2.120 C  
HETATM   31  C   UNL     1     -10.329   4.283  73.892  1.00  0.00    -0.260 C  
HETATM   32  C   UNL     1      -9.548   4.799  72.639  1.00  0.00    -0.167 C  
HETATM   33  C   UNL     1      -9.935   7.586  72.992  1.00  0.00    -0.321 C  
ENDROOT
BRANCH  25  34
HETATM   34  O   UNL     1      -9.469   9.404  68.614  1.00  0.00    -0.144 OA 
BRANCH  34  35
HETATM   35  C   UNL     1      -9.140  10.696  68.009  1.00  0.00    -0.147 C  
HETATM   36  C   UNL     1      -9.544  10.578  65.095  1.00  0.00    -0.260 C  
HETATM   37  O   UNL     1      -8.174  10.504  67.000  1.00  0.00    -0.122 OA 
HETATM   38  C   UNL     1      -7.454   9.121  65.058  1.00  0.00    -0.105 C  
HETATM   39  C   UNL     1      -8.614   9.724  65.912  1.00  0.00    -0.137 C  
HETATM   40  O   UNL     1     -10.095   9.786  64.032  1.00  0.00    -0.385 OA 
HETATM   41  C   UNL     1     -10.671  11.138  65.959  1.00  0.00    -0.211 C  
HETATM   42  O   UNL     1      -6.256   9.298  65.177  1.00  0.00    -0.066 OA 
HETATM   43  O   UNL     1      -7.874   8.240  64.119  1.00  0.00    -0.131 OA 
HETATM   44  O   UNL     1     -11.197  12.268  65.215  1.00  0.00    -0.309 OA 
HETATM   45  H   UNL     1     -10.683  10.325  63.517  1.00  0.00     0.000 HD 
HETATM   46  C   UNL     1     -10.299  11.584  67.396  1.00  0.00    -0.207 C  
HETATM   47  H   UNL     1     -11.898  12.617  65.752  1.00  0.00     0.000 HD 
BRANCH  46  48
HETATM   48  O   UNL     1     -11.471  11.733  68.242  1.00  0.00    -0.257 OA 
BRANCH  48  49
HETATM   49  C   UNL     1     -11.700  13.097  68.660  1.00  0.00    -0.326 C  
HETATM   50  O   UNL     1     -10.715  13.988  68.123  1.00  0.00    -0.237 OA 
HETATM   51  C   UNL     1     -11.126  15.357  68.333  1.00  0.00    -0.301 C  
HETATM   52  C   UNL     1     -10.284  16.292  67.462  1.00  0.00    -0.270 C  
HETATM   53  C   UNL     1     -10.979  15.659  69.823  1.00  0.00    -0.304 C  
HETATM   54  O   UNL     1     -11.383  16.982  70.202  1.00  0.00    -0.266 OA 
HETATM   55  C   UNL     1     -11.858  14.696  70.639  1.00  0.00    -0.305 C  
HETATM   56  O   UNL     1      -9.378  15.626  66.708  1.00  0.00    -0.220 OA 
HETATM   57  O   UNL     1     -10.427  17.504  67.399  1.00  0.00    -0.341 OA 
HETATM   58  O   UNL     1     -11.493  14.762  72.027  1.00  0.00    -0.440 OA 
HETATM   59  C   UNL     1     -11.875  13.222  70.185  1.00  0.00    -0.263 C  
HETATM   60  H   UNL     1     -11.292  17.169  71.129  1.00  0.00     0.000 HD 
HETATM   61  H   UNL     1     -12.036  14.168  72.531  1.00  0.00     0.000 HD 
HETATM   62  O   UNL     1     -13.189  12.669  70.494  1.00  0.00     0.330 OA 
HETATM   63  H   UNL     1     -13.297  12.746  71.435  1.00  0.00     0.000 HD 
ENDBRANCH  48  49
ENDBRANCH  46  48
ENDBRANCH  34  35
ENDBRANCH  25  34
TORSDOF 4
ENDMDL
MODEL       11
REMARK 921   NORMALIZED FREE ENERGY PREDICTED BY IDOCK:   -5.50 KCAL/MOL
REMARK 922        TOTAL FREE ENERGY PREDICTED BY IDOCK:   -7.68 KCAL/MOL
REMARK 923 INTER-LIGAND FREE ENERGY PREDICTED BY IDOCK:  -10.46 KCAL/MOL
REMARK 924 INTRA-LIGAND FREE ENERGY PREDICTED BY IDOCK:    2.78 KCAL/MOL
REMARK 927      BINDING AFFINITY PREDICTED BY RF-SCORE:    0.00 PKD
ROOT
HETATM    1  C   UNL     1     -11.885  14.804  68.875  1.00  0.00    -0.331 C  
HETATM    2  C   UNL     1     -12.461  14.062  70.167  1.00  0.00    -0.380 C  
HETATM    3  C   UNL     1     -12.934  14.894  71.384  1.00  0.00    -0.427 C  
HETATM    4  C   UNL     1     -11.957  16.064  71.612  1.00  0.00    -0.569 C  
HETATM    5  C   UNL     1     -14.402  15.334  71.231  1.00  0.00    -0.488 C  
HETATM    6  C   UNL     1     -12.976  14.075  72.699  1.00  0.00    -0.387 C  
HETATM    7  O   UNL     1     -12.471  14.429  73.762  1.00  0.00    -0.359 OA 
HETATM    8  O   UNL     1     -13.679  12.936  72.640  1.00  0.00    -0.573 OA 
HETATM    9  C   UNL     1     -11.342  16.741  70.357  1.00  0.00     0.282 C  
HETATM   10  C   UNL     1     -10.753  15.757  69.287  1.00  0.00    -0.246 C  
HETATM   11  C   UNL     1      -9.520  15.099  69.940  1.00  0.00     0.047 C  
HETATM   12  C   UNL     1     -10.258  16.395  67.949  1.00  0.00    -0.268 C  
HETATM   13  C   UNL     1      -9.453  15.370  66.998  1.00  0.00    -0.232 C  
HETATM   14  C   UNL     1     -10.222  14.034  66.621  1.00  0.00    -0.275 C  
HETATM   15  C   UNL     1     -11.422  13.849  67.735  1.00  0.00    -0.354 C  
HETATM   16  C   UNL     1     -11.074  14.466  65.371  1.00  0.00    -0.331 C  
HETATM   17  C   UNL     1     -11.882  12.617  67.862  1.00  0.00    -0.388 C  
HETATM   18  C   UNL     1     -10.560  11.988  67.942  1.00  0.00    -0.202 C  
HETATM   19  C   UNL     1     -10.225  11.233  66.741  1.00  0.00    -0.263 C  
HETATM   20  O   UNL     1      -9.746  12.255  68.825  1.00  0.00    -0.112 OA 
HETATM   21  C   UNL     1      -9.883   9.787  67.351  1.00  0.00    -0.219 C  
HETATM   22  C   UNL     1     -10.215   8.753  66.251  1.00  0.00    -0.157 C  
HETATM   23  C   UNL     1     -10.864   9.501  68.555  1.00  0.00    -0.175 C  
HETATM   24  C   UNL     1     -10.588   8.440  69.606  1.00  0.00    -0.219 C  
HETATM   25  C   UNL     1      -9.115   8.342  70.062  1.00  0.00    -0.150 C  
HETATM   26  C   UNL     1      -8.193   8.261  68.750  1.00  0.00    -0.117 C  
HETATM   27  C   UNL     1      -7.833  11.965  66.588  1.00  0.00    -0.006 C  
HETATM   28  C   UNL     1      -8.431   9.665  67.890  1.00  0.00    -0.122 C  
HETATM   29  C   UNL     1      -8.622   6.906  68.056  1.00  0.00    -0.123 C  
HETATM   30  C   UNL     1      -6.751   7.945  69.188  1.00  0.00    -0.048 C  
HETATM   31  C   UNL     1      -9.312  12.271  64.595  1.00  0.00     0.365 C  
HETATM   32  C   UNL     1      -9.337  12.410  66.154  1.00  0.00    -0.155 C  
HETATM   33  C   UNL     1      -7.516  10.338  66.812  1.00  0.00    -0.107 C  
ENDROOT
BRANCH  25  34
HETATM   34  O   UNL     1      -8.691   9.107  71.261  1.00  0.00    -0.270 OA 
BRANCH  34  35
HETATM   35  C   UNL     1      -8.860   8.580  72.616  1.00  0.00    -0.155 C  
HETATM   36  C   UNL     1     -10.958   6.515  72.642  1.00  0.00    -0.255 C  
HETATM   37  O   UNL     1     -10.210   8.711  73.000  1.00  0.00     0.018 OA 
HETATM   38  C   UNL     1     -12.592   8.444  72.323  1.00  0.00    -0.349 C  
HETATM   39  C   UNL     1     -11.113   7.953  72.229  1.00  0.00    -0.318 C  
HETATM   40  O   UNL     1     -11.789   5.696  71.805  1.00  0.00    -0.022 OA 
HETATM   41  C   UNL     1      -9.505   6.066  72.523  1.00  0.00    -0.147 C  
HETATM   42  O   UNL     1     -13.051   9.332  73.017  1.00  0.00    -0.189 OA 
HETATM   43  O   UNL     1     -13.426   7.823  71.456  1.00  0.00    -0.351 OA 
HETATM   44  O   UNL     1      -9.401   4.883  73.358  1.00  0.00    -0.126 OA 
HETATM   45  H   UNL     1     -11.691   4.787  72.066  1.00  0.00     0.000 HD 
HETATM   46  C   UNL     1      -8.418   7.092  72.931  1.00  0.00    -0.114 C  
HETATM   47  H   UNL     1      -8.496   4.603  73.284  1.00  0.00     0.000 HD 
BRANCH  46  48
HETATM   48  O   UNL     1      -7.104   6.724  72.432  1.00  0.00    -0.070 OA 
BRANCH  48  49
HETATM   49  C   UNL     1      -7.082   5.429  71.792  1.00  0.00    -0.076 C  
HETATM   50  O   UNL     1      -8.334   5.126  71.165  1.00  0.00    -0.116 OA 
HETATM   51  C   UNL     1      -8.190   3.966  70.317  1.00  0.00    -0.057 C  
HETATM   52  C   UNL     1      -9.395   3.853  69.381  1.00  0.00    -0.176 C  
HETATM   53  C   UNL     1      -8.041   2.747  71.225  1.00  0.00    -0.057 C  
HETATM   54  O   UNL     1      -7.854   1.507  70.528  1.00  0.00    -0.039 OA 
HETATM   55  C   UNL     1      -6.808   2.916  72.129  1.00  0.00    -0.023 C  
HETATM   56  O   UNL     1     -10.288   4.854  69.560  1.00  0.00    -0.224 OA 
HETATM   57  O   UNL     1      -9.536   2.992  68.525  1.00  0.00    -0.188 OA 
HETATM   58  O   UNL     1      -6.839   1.942  73.183  1.00  0.00    -0.021 OA 
HETATM   59  C   UNL     1      -6.582   4.318  72.733  1.00  0.00    -0.045 C  
HETATM   60  H   UNL     1      -7.761   0.750  71.093  1.00  0.00     0.000 HD 
HETATM   61  H   UNL     1      -6.077   2.047  73.741  1.00  0.00     0.000 HD 
HETATM   62  O   UNL     1      -5.145   4.520  72.880  1.00  0.00    -0.003 OA 
HETATM   63  H   UNL     1      -4.836   3.834  73.461  1.00  0.00     0.000 HD 
ENDBRANCH  48  49
ENDBRANCH  46  48
ENDBRANCH  34  35
ENDBRANCH  25  34
TORSDOF 4
ENDMDL
MODEL       12
REMARK 921   NORMALIZED FREE ENERGY PREDICTED BY IDOCK:   -4.33 KCAL/MOL
REMARK 922        TOTAL FREE ENERGY PREDICTED BY IDOCK:   -6.24 KCAL/MOL
REMARK 923 INTER-LIGAND FREE ENERGY PREDICTED BY IDOCK:   -6.44 KCAL/MOL
REMARK 924 INTRA-LIGAND FREE ENERGY PREDICTED BY IDOCK:    0.20 KCAL/MOL
REMARK 927      BINDING AFFINITY PREDICTED BY RF-SCORE:    0.00 PKD
ROOT
HETATM    1  C   UNL     1      -7.437   4.691  66.932  1.00  0.00    -0.086 C  
HETATM    2  C   UNL     1      -7.832   5.390  65.552  1.00  0.00    -0.098 C  
HETATM    3  C   UNL     1      -7.008   5.092  64.275  1.00  0.00    -0.049 C  
HETATM    4  C   UNL     1      -5.511   5.028  64.639  1.00  0.00    -0.013 C  
HETATM    5  C   UNL     1      -7.523   3.833  63.552  1.00  0.00    -0.058 C  
HETATM    6  C   UNL     1      -7.164   6.180  63.184  1.00  0.00    -0.056 C  
HETATM    7  O   UNL     1      -6.231   6.729  62.601  1.00  0.00    -0.038 OA 
HETATM    8  O   UNL     1      -8.427   6.467  62.839  1.00  0.00     0.010 OA 
HETATM    9  C   UNL     1      -5.131   4.411  66.012  1.00  0.00    -0.009 C  
HETATM   10  C   UNL     1      -5.953   4.945  67.236  1.00  0.00    -0.027 C  
HETATM   11  C   UNL     1      -5.545   6.422  67.418  1.00  0.00    -0.009 C  
HETATM   12  C   UNL     1      -5.698   4.243  68.609  1.00  0.00    -0.021 C  
HETATM   13  C   UNL     1      -6.391   4.989  69.860  1.00  0.00    -0.030 C  
HETATM   14  C   UNL     1      -7.955   5.223  69.740  1.00  0.00    -0.080 C  
HETATM   15  C   UNL     1      -8.332   5.097  68.141  1.00  0.00    -0.097 C  
HETATM   16  C   UNL     1      -8.550   3.866  70.269  1.00  0.00    -0.108 C  
HETATM   17  C   UNL     1      -9.465   5.675  67.786  1.00  0.00    -0.121 C  
HETATM   18  C   UNL     1      -9.198   6.935  68.486  1.00  0.00    -0.129 C  
HETATM   19  C   UNL     1     -10.032   7.105  69.669  1.00  0.00    -0.176 C  
HETATM   20  O   UNL     1      -8.230   7.650  68.229  1.00  0.00    -0.122 OA 
HETATM   21  C   UNL     1     -10.716   8.529  69.382  1.00  0.00    -0.166 C  
HETATM   22  C   UNL     1     -12.084   8.516  70.102  1.00  0.00     0.542 C  
HETATM   23  C   UNL     1     -11.017   8.644  67.836  1.00  0.00     0.078 C  
HETATM   24  C   UNL     1     -11.283   9.970  67.146  1.00  0.00     0.122 C  
HETATM   25  C   UNL     1     -10.394  11.142  67.621  1.00  0.00    -0.192 C  
HETATM   26  C   UNL     1     -10.443  11.183  69.225  1.00  0.00    -0.183 C  
HETATM   27  C   UNL     1      -8.245   8.031  71.163  1.00  0.00    -0.111 C  
HETATM   28  C   UNL     1      -9.827   9.740  69.778  1.00  0.00    -0.262 C  
HETATM   29  C   UNL     1     -11.956  11.499  69.560  1.00  0.00    -0.402 C  
HETATM   30  C   UNL     1      -9.742  12.470  69.699  1.00  0.00     1.625 C  
HETATM   31  C   UNL     1      -9.547   6.043  71.939  1.00  0.00    -0.166 C  
HETATM   32  C   UNL     1      -8.880   6.623  70.648  1.00  0.00    -0.148 C  
HETATM   33  C   UNL     1      -9.222   9.388  71.178  1.00  0.00    -0.100 C  
ENDROOT
BRANCH  25  34
HETATM   34  O   UNL     1      -9.144  11.431  66.876  1.00  0.00    -0.166 OA 
BRANCH  34  35
HETATM   35  C   UNL     1      -8.966  12.664  66.109  1.00  0.00     0.114 C  
HETATM   36  C   UNL     1     -11.564  13.996  65.723  1.00  0.00    -0.339 C  
HETATM   37  O   UNL     1      -9.806  12.631  64.976  1.00  0.00    -0.190 OA 
HETATM   38  C   UNL     1     -12.074  12.105  64.093  1.00  0.00    -0.409 C  
HETATM   39  C   UNL     1     -11.183  12.613  65.271  1.00  0.00    -0.300 C  
HETATM   40  O   UNL     1     -12.941  13.992  66.131  1.00  0.00    -0.459 OA 
HETATM   41  C   UNL     1     -10.683  14.452  66.882  1.00  0.00    -0.292 C  
HETATM   42  O   UNL     1     -11.735  11.800  62.965  1.00  0.00    -0.192 OA 
HETATM   43  O   UNL     1     -13.373  11.929  64.433  1.00  0.00    -0.524 OA 
HETATM   44  O   UNL     1     -10.812  15.898  66.913  1.00  0.00    -0.314 OA 
HETATM   45  H   UNL     1     -13.181  14.866  66.417  1.00  0.00     0.000 HD 
HETATM   46  C   UNL     1      -9.185  14.061  66.822  1.00  0.00    -0.265 C  
HETATM   47  H   UNL     1     -10.264  16.183  67.635  1.00  0.00     0.000 HD 
BRANCH  46  48
HETATM   48  O   UNL     1      -8.532  14.199  68.113  1.00  0.00    -0.156 OA 
BRANCH  48  49
HETATM   49  C   UNL     1      -7.807  15.441  68.253  1.00  0.00    -0.123 C  
HETATM   50  O   UNL     1      -8.684  16.573  68.221  1.00  0.00    -0.196 OA 
HETATM   51  C   UNL     1      -7.968  17.760  68.631  1.00  0.00    -0.276 C  
HETATM   52  C   UNL     1      -8.960  18.881  68.947  1.00  0.00    -0.230 C  
HETATM   53  C   UNL     1      -7.007  18.130  67.503  1.00  0.00    -0.198 C  
HETATM   54  O   UNL     1      -6.192  19.280  67.774  1.00  0.00    -0.208 OA 
HETATM   55  C   UNL     1      -6.032  16.970  67.245  1.00  0.00    -0.154 C  
HETATM   56  O   UNL     1     -10.247  18.500  68.780  1.00  0.00    -0.379 OA 
HETATM   57  O   UNL     1      -8.650  19.991  69.353  1.00  0.00     0.124 OA 
HETATM   58  O   UNL     1      -5.344  17.180  66.002  1.00  0.00    -0.333 OA 
HETATM   59  C   UNL     1      -6.630  15.547  67.264  1.00  0.00    -0.054 C  
HETATM   60  H   UNL     1      -5.595  19.510  67.072  1.00  0.00     0.000 HD 
HETATM   61  H   UNL     1      -4.742  16.462  65.843  1.00  0.00     0.000 HD 
HETATM   62  O   UNL     1      -5.603  14.632  67.749  1.00  0.00    -0.249 OA 
HETATM   63  H   UNL     1      -4.877  14.698  67.140  1.00  0.00     0.000 HD 
ENDBRANCH  48  49
ENDBRANCH  46  48
ENDBRANCH  34  35
ENDBRANCH  25  34
TORSDOF 4
ENDMDL
MODEL       13
REMARK 921   NORMALIZED FREE ENERGY PREDICTED BY IDOCK:   -3.63 KCAL/MOL
REMARK 922        TOTAL FREE ENERGY PREDICTED BY IDOCK:   -5.38 KCAL/MOL
REMARK 923 INTER-LIGAND FREE ENERGY PREDICTED BY IDOCK:   -6.22 KCAL/MOL
REMARK 924 INTRA-LIGAND FREE ENERGY PREDICTED BY IDOCK:    0.83 KCAL/MOL
REMARK 927      BINDING AFFINITY PREDICTED BY RF-SCORE:    0.00 PKD
ROOT
HETATM    1  C   UNL     1     -11.980  14.320  68.164  1.00  0.00    -0.343 C  
HETATM    2  C   UNL     1     -12.263  13.768  69.635  1.00  0.00    -0.359 C  
HETATM    3  C   UNL     1     -12.517  14.763  70.794  1.00  0.00    -0.402 C  
HETATM    4  C   UNL     1     -11.557  15.962  70.656  1.00  0.00    -0.426 C  
HETATM    5  C   UNL     1     -14.002  15.165  70.878  1.00  0.00    -0.256 C  
HETATM    6  C   UNL     1     -12.270  14.142  72.192  1.00  0.00     0.014 C  
HETATM    7  O   UNL     1     -11.578  14.649  73.073  1.00  0.00     0.028 OA 
HETATM    8  O   UNL     1     -12.929  13.000  72.435  1.00  0.00    -0.304 OA 
HETATM    9  C   UNL     1     -11.227  16.455  69.221  1.00  0.00    -0.272 C  
HETATM   10  C   UNL     1     -10.825  15.332  68.204  1.00  0.00    -0.273 C  
HETATM   11  C   UNL     1      -9.464  14.784  68.682  1.00  0.00    -0.213 C  
HETATM   12  C   UNL     1     -10.626  15.774  66.718  1.00  0.00    -0.309 C  
HETATM   13  C   UNL     1      -9.988  14.628  65.778  1.00  0.00    -0.365 C  
HETATM   14  C   UNL     1     -10.767  13.247  65.753  1.00  0.00    -0.286 C  
HETATM   15  C   UNL     1     -11.717  13.214  67.099  1.00  0.00    -0.430 C  
HETATM   16  C   UNL     1     -11.863  13.487  64.650  1.00  0.00    -0.428 C  
HETATM   17  C   UNL     1     -12.097  12.010  67.486  1.00  0.00     0.077 C  
HETATM   18  C   UNL     1     -10.763  11.410  67.387  1.00  0.00    -0.232 C  
HETATM   19  C   UNL     1     -10.644  10.492  66.261  1.00  0.00    -0.203 C  
HETATM   20  O   UNL     1      -9.802  11.808  68.044  1.00  0.00    -0.173 OA 
HETATM   21  C   UNL     1     -10.136   9.152  66.986  1.00  0.00    -0.316 C  
HETATM   22  C   UNL     1     -10.641   7.968  66.130  1.00  0.00     1.072 C  
HETATM   23  C   UNL     1     -10.849   9.034  68.390  1.00  0.00    -0.062 C  
HETATM   24  C   UNL     1     -10.333   8.138  69.502  1.00  0.00    -0.222 C  
HETATM   25  C   UNL     1      -8.797   8.118  69.663  1.00  0.00    -0.143 C  
HETATM   26  C   UNL     1      -8.149   7.857  68.218  1.00  0.00    -0.123 C  
HETATM   27  C   UNL     1      -8.357  11.213  65.531  1.00  0.00     0.052 C  
HETATM   28  C   UNL     1      -8.603   9.120  67.235  1.00  0.00    -0.118 C  
HETATM   29  C   UNL     1      -8.657   6.413  67.820  1.00  0.00    -0.116 C  
HETATM   30  C   UNL     1      -6.638   7.619  68.398  1.00  0.00    -0.054 C  
HETATM   31  C   UNL     1     -10.210  11.217  63.852  1.00  0.00    -0.420 C  
HETATM   32  C   UNL     1      -9.933  11.579  65.349  1.00  0.00    -0.288 C  
HETATM   33  C   UNL     1      -7.943   9.638  65.913  1.00  0.00    -0.112 C  
ENDROOT
BRANCH  25  34
HETATM   34  O   UNL     1      -8.174   9.051  70.634  1.00  0.00    -0.144 OA 
BRANCH  34  35
HETATM   35  C   UNL     1      -6.749   8.991  70.962  1.00  0.00    -0.087 C  
HETATM   36  C   UNL     1      -5.693  11.708  71.379  1.00  0.00     0.379 C  
HETATM   37  O   UNL     1      -6.029   9.798  70.056  1.00  0.00    -0.040 OA 
HETATM   38  C   UNL     1      -5.923  11.976  68.855  1.00  0.00    -0.060 C  
HETATM   39  C   UNL     1      -6.334  11.171  70.129  1.00  0.00    -0.137 C  
HETATM   40  O   UNL     1      -6.066  13.084  71.542  1.00  0.00    -0.470 OA 
HETATM   41  C   UNL     1      -6.128  10.906  72.602  1.00  0.00     2.266 C  
HETATM   42  O   UNL     1      -5.327  11.582  67.871  1.00  0.00    -0.043 OA 
HETATM   43  O   UNL     1      -6.366  13.256  68.857  1.00  0.00    -0.084 OA 
HETATM   44  O   UNL     1      -5.130  11.190  73.618  1.00  0.00    -0.335 OA 
HETATM   45  H   UNL     1      -5.661  13.423  72.332  1.00  0.00     0.000 HD 
HETATM   46  C   UNL     1      -6.271   9.374  72.423  1.00  0.00     0.287 C  
HETATM   47  H   UNL     1      -5.401  10.691  74.380  1.00  0.00     0.000 HD 
BRANCH  46  48
HETATM   48  O   UNL     1      -7.038   8.767  73.497  1.00  0.00    -0.347 OA 
BRANCH  48  49
HETATM   49  C   UNL     1      -7.530   7.448  73.170  1.00  0.00    -0.074 C  
HETATM   50  O   UNL     1      -6.876   6.911  72.014  1.00  0.00    -0.058 OA 
HETATM   51  C   UNL     1      -7.190   5.507  71.880  1.00  0.00    -0.087 C  
HETATM   52  C   UNL     1      -6.230   4.852  70.885  1.00  0.00    -0.019 C  
HETATM   53  C   UNL     1      -8.649   5.402  71.439  1.00  0.00    -0.130 C  
HETATM   54  O   UNL     1      -9.128   4.058  71.293  1.00  0.00    -0.105 OA 
HETATM   55  C   UNL     1      -9.560   6.066  72.485  1.00  0.00    -0.153 C  
HETATM   56  O   UNL     1      -5.326   5.724  70.384  1.00  0.00    -0.008 OA 
HETATM   57  O   UNL     1      -6.229   3.665  70.596  1.00  0.00    -0.018 OA 
HETATM   58  O   UNL     1     -10.876   6.247  71.940  1.00  0.00    -0.225 OA 
HETATM   59  C   UNL     1      -9.067   7.400  73.084  1.00  0.00    -0.161 C  
HETATM   60  H   UNL     1     -10.035   3.993  71.019  1.00  0.00     0.000 HD 
HETATM   61  H   UNL     1     -11.439   6.658  72.586  1.00  0.00     0.000 HD 
HETATM   62  O   UNL     1      -9.556   7.487  74.456  1.00  0.00    -0.358 OA 
HETATM   63  H   UNL     1     -10.505   7.457  74.403  1.00  0.00     0.000 HD 
ENDBRANCH  48  49
ENDBRANCH  46  48
ENDBRANCH  34  35
ENDBRANCH  25  34
TORSDOF 4
ENDMDL
MODEL       14
REMARK 921   NORMALIZED FREE ENERGY PREDICTED BY IDOCK:   -3.26 KCAL/MOL
REMARK 922        TOTAL FREE ENERGY PREDICTED BY IDOCK:   -4.92 KCAL/MOL
REMARK 923 INTER-LIGAND FREE ENERGY PREDICTED BY IDOCK:   -6.82 KCAL/MOL
REMARK 924 INTRA-LIGAND FREE ENERGY PREDICTED BY IDOCK:    1.90 KCAL/MOL
REMARK 927      BINDING AFFINITY PREDICTED BY RF-SCORE:    0.00 PKD
ROOT
HETATM    1  C   UNL     1      -8.039   2.644  66.735  1.00  0.00    -0.081 C  
HETATM    2  C   UNL     1      -8.109   3.579  65.443  1.00  0.00    -0.097 C  
HETATM    3  C   UNL     1      -7.331   3.184  64.164  1.00  0.00    -0.066 C  
HETATM    4  C   UNL     1      -5.953   2.619  64.561  1.00  0.00    -0.018 C  
HETATM    5  C   UNL     1      -8.156   2.234  63.273  1.00  0.00    -0.073 C  
HETATM    6  C   UNL     1      -7.076   4.380  63.214  1.00  0.00    -0.044 C  
HETATM    7  O   UNL     1      -5.984   4.674  62.733  1.00  0.00    -0.016 OA 
HETATM    8  O   UNL     1      -8.167   5.081  62.871  1.00  0.00    -0.089 OA 
HETATM    9  C   UNL     1      -5.871   1.767  65.856  1.00  0.00    -0.021 C  
HETATM   10  C   UNL     1      -6.572   2.391  67.112  1.00  0.00    -0.039 C  
HETATM   11  C   UNL     1      -5.747   3.639  67.491  1.00  0.00    -0.022 C  
HETATM   12  C   UNL     1      -6.635   1.497  68.393  1.00  0.00    -0.029 C  
HETATM   13  C   UNL     1      -7.150   2.278  69.707  1.00  0.00    -0.033 C  
HETATM   14  C   UNL     1      -8.558   2.997  69.571  1.00  0.00    -0.114 C  
HETATM   15  C   UNL     1      -8.847   3.171  67.958  1.00  0.00    -0.158 C  
HETATM   16  C   UNL     1      -9.571   1.842  69.907  1.00  0.00    -0.065 C  
HETATM   17  C   UNL     1      -9.724   4.108  67.646  1.00  0.00    -0.176 C  
HETATM   18  C   UNL     1      -9.134   5.137  68.507  1.00  0.00    -0.112 C  
HETATM   19  C   UNL     1      -9.954   5.427  69.676  1.00  0.00    -0.297 C  
HETATM   20  O   UNL     1      -7.980   5.541  68.370  1.00  0.00    -0.094 OA 
HETATM   21  C   UNL     1     -10.152   7.015  69.551  1.00  0.00    -0.179 C  
HETATM   22  C   UNL     1     -11.504   7.347  70.222  1.00  0.00    -0.206 C  
HETATM   23  C   UNL     1     -10.300   7.387  68.023  1.00  0.00    -0.247 C  
HETATM   24  C   UNL     1     -10.103   8.798  67.498  1.00  0.00    -0.281 C  
HETATM   25  C   UNL     1      -8.934   9.577  68.142  1.00  0.00    -0.123 C  
HETATM   26  C   UNL     1      -9.075   9.454  69.737  1.00  0.00    -0.204 C  
HETATM   27  C   UNL     1      -8.074   5.581  71.327  1.00  0.00    -0.113 C  
HETATM   28  C   UNL     1      -8.965   7.839  70.121  1.00  0.00    -0.146 C  
HETATM   29  C   UNL     1     -10.439  10.184  70.064  1.00  0.00    -0.325 C  
HETATM   30  C   UNL     1      -8.049  10.399  70.389  1.00  0.00     0.723 C  
HETATM   31  C   UNL     1      -9.968   4.022  71.808  1.00  0.00    -0.240 C  
HETATM   32  C   UNL     1      -9.071   4.505  70.621  1.00  0.00    -0.175 C  
HETATM   33  C   UNL     1      -8.591   7.164  71.484  1.00  0.00    -0.115 C  
ENDROOT
BRANCH  25  34
HETATM   34  O   UNL     1      -7.608   9.544  67.477  1.00  0.00    -0.094 OA 
BRANCH  34  35
HETATM   35  C   UNL     1      -7.043  10.722  66.816  1.00  0.00    -0.127 C  
HETATM   36  C   UNL     1      -9.056  11.953  65.055  1.00  0.00     0.310 C  
HETATM   37  O   UNL     1      -7.185  10.584  65.420  1.00  0.00    -0.138 OA 
HETATM   38  C   UNL     1      -8.689   9.934  63.544  1.00  0.00    -0.214 C  
HETATM   39  C   UNL     1      -8.519  10.551  64.969  1.00  0.00    -0.163 C  
HETATM   40  O   UNL     1     -10.447  11.944  64.700  1.00  0.00    -0.267 OA 
HETATM   41  C   UNL     1      -8.886  12.517  66.463  1.00  0.00    -0.087 C  
HETATM   42  O   UNL     1      -7.825   9.556  62.776  1.00  0.00    -0.114 OA 
HETATM   43  O   UNL     1      -9.981   9.751  63.184  1.00  0.00     0.449 OA 
HETATM   44  O   UNL     1      -8.990  13.957  66.312  1.00  0.00    -0.470 OA 
HETATM   45  H   UNL     1     -10.786  12.830  64.755  1.00  0.00     0.000 HD 
HETATM   46  C   UNL     1      -7.575  12.162  67.208  1.00  0.00    -0.156 C  
HETATM   47  H   UNL     1      -8.884  14.309  67.188  1.00  0.00     0.000 HD 
BRANCH  46  48
HETATM   48  O   UNL     1      -7.673  12.411  68.636  1.00  0.00    -0.118 OA 
BRANCH  48  49
HETATM   49  C   UNL     1      -8.192  13.723  68.949  1.00  0.00     0.089 C  
HETATM   50  O   UNL     1      -9.558  13.863  68.543  1.00  0.00    -0.213 OA 
HETATM   51  C   UNL     1     -10.117  15.069  69.108  1.00  0.00    -0.245 C  
HETATM   52  C   UNL     1     -11.642  15.043  68.987  1.00  0.00    -0.319 C  
HETATM   53  C   UNL     1      -9.494  16.254  68.372  1.00  0.00    -0.216 C  
HETATM   54  O   UNL     1      -9.926  17.538  68.844  1.00  0.00    -0.317 OA 
HETATM   55  C   UNL     1      -7.966  16.230  68.543  1.00  0.00    -0.184 C  
HETATM   56  O   UNL     1     -12.097  13.912  68.399  1.00  0.00    -0.365 OA 
HETATM   57  O   UNL     1     -12.390  15.911  69.410  1.00  0.00    -0.209 OA 
HETATM   58  O   UNL     1      -7.358  17.140  67.613  1.00  0.00    -0.159 OA 
HETATM   59  C   UNL     1      -7.280  14.852  68.434  1.00  0.00    -0.116 C  
HETATM   60  H   UNL     1      -9.538  18.274  68.386  1.00  0.00     0.000 HD 
HETATM   61  H   UNL     1      -6.414  17.125  67.719  1.00  0.00     0.000 HD 
HETATM   62  O   UNL     1      -6.108  14.862  69.304  1.00  0.00    -0.100 OA 
HETATM   63  H   UNL     1      -5.545  15.559  68.987  1.00  0.00     0.000 HD 
ENDBRANCH  48  49
ENDBRANCH  46  48
ENDBRANCH  34  35
ENDBRANCH  25  34
TORSDOF 4
ENDMDL
MODEL       15
REMARK 921   NORMALIZED FREE ENERGY PREDICTED BY IDOCK:   -3.20 KCAL/MOL
REMARK 922        TOTAL FREE ENERGY PREDICTED BY IDOCK:   -4.85 KCAL/MOL
REMARK 923 INTER-LIGAND FREE ENERGY PREDICTED BY IDOCK:   -3.67 KCAL/MOL
REMARK 924 INTRA-LIGAND FREE ENERGY PREDICTED BY IDOCK:   -1.18 KCAL/MOL
REMARK 927      BINDING AFFINITY PREDICTED BY RF-SCORE:    0.00 PKD
ROOT
HETATM    1  C   UNL     1      -7.709   3.032  69.129  1.00  0.00    -0.048 C  
HETATM    2  C   UNL     1      -7.442   4.155  70.232  1.00  0.00    -0.045 C  
HETATM    3  C   UNL     1      -7.898   3.923  71.694  1.00  0.00    -0.062 C  
HETATM    4  C   UNL     1      -9.280   3.240  71.693  1.00  0.00    -0.185 C  
HETATM    5  C   UNL     1      -6.831   3.161  72.503  1.00  0.00    -0.030 C  
HETATM    6  C   UNL     1      -8.040   5.237  72.501  1.00  0.00    -0.103 C  
HETATM    7  O   UNL     1      -9.026   5.548  73.167  1.00  0.00    -0.123 OA 
HETATM    8  O   UNL     1      -6.961   6.032  72.495  1.00  0.00    -0.076 OA 
HETATM    9  C   UNL     1      -9.566   2.197  70.579  1.00  0.00    -0.125 C  
HETATM   10  C   UNL     1      -9.198   2.655  69.125  1.00  0.00    -0.209 C  
HETATM   11  C   UNL     1     -10.181   3.790  68.769  1.00  0.00     0.722 C  
HETATM   12  C   UNL     1      -9.337   1.580  67.999  1.00  0.00    -0.213 C  
HETATM   13  C   UNL     1      -9.175   2.175  66.508  1.00  0.00    -0.002 C  
HETATM   14  C   UNL     1      -7.832   2.972  66.228  1.00  0.00    -0.078 C  
HETATM   15  C   UNL     1      -7.223   3.404  67.698  1.00  0.00    -0.058 C  
HETATM   16  C   UNL     1      -6.825   1.829  65.840  1.00  0.00    -0.035 C  
HETATM   17  C   UNL     1      -6.377   4.418  67.676  1.00  0.00    -0.037 C  
HETATM   18  C   UNL     1      -7.215   5.275  66.832  1.00  0.00    -0.078 C  
HETATM   19  C   UNL     1      -6.687   5.421  65.482  1.00  0.00    -0.041 C  
HETATM   20  O   UNL     1      -8.343   5.640  67.164  1.00  0.00    -0.105 OA 
HETATM   21  C   UNL     1      -6.594   7.017  65.340  1.00  0.00    -0.047 C  
HETATM   22  C   UNL     1      -5.445   7.307  64.347  1.00  0.00    -0.033 C  
HETATM   23  C   UNL     1      -6.156   7.625  66.730  1.00  0.00    -0.048 C  
HETATM   24  C   UNL     1      -6.349   9.088  67.085  1.00  0.00    -0.060 C  
HETATM   25  C   UNL     1      -7.686   9.703  66.614  1.00  0.00    -0.098 C  
HETATM   26  C   UNL     1      -7.876   9.345  65.060  1.00  0.00    -0.115 C  
HETATM   27  C   UNL     1      -8.880   5.233  64.283  1.00  0.00     0.034 C  
HETATM   28  C   UNL     1      -7.937   7.687  64.937  1.00  0.00    -0.135 C  
HETATM   29  C   UNL     1      -6.675  10.081  64.342  1.00  0.00    -0.128 C  
HETATM   30  C   UNL     1      -9.089  10.131  64.526  1.00  0.00    -0.280 C  
HETATM   31  C   UNL     1      -7.013   3.709  63.615  1.00  0.00    -0.045 C  
HETATM   32  C   UNL     1      -7.674   4.326  64.893  1.00  0.00    -0.078 C  
HETATM   33  C   UNL     1      -8.536   6.796  63.797  1.00  0.00     0.321 C  
ENDROOT
BRANCH  25  34
HETATM   34  O   UNL     1      -8.834   9.710  67.554  1.00  0.00    -0.125 OA 
BRANCH  34  35
HETATM   35  C   UNL     1      -9.086  10.830  68.461  1.00  0.00    -0.170 C  
HETATM   36  C   UNL     1      -6.657  11.445  70.006  1.00  0.00    -0.031 C  
HETATM   37  O   UNL     1      -8.767  10.442  69.778  1.00  0.00    -0.114 OA 
HETATM   38  C   UNL     1      -7.136   9.277  71.257  1.00  0.00     0.008 C  
HETATM   39  C   UNL     1      -7.406  10.141  69.984  1.00  0.00    -0.165 C  
HETATM   40  O   UNL     1      -5.250  11.174  70.111  1.00  0.00    -0.052 OA 
HETATM   41  C   UNL     1      -6.933  12.254  68.742  1.00  0.00    -0.098 C  
HETATM   42  O   UNL     1      -7.929   8.906  72.101  1.00  0.00    -0.364 OA 
HETATM   43  O   UNL     1      -5.855   8.850  71.360  1.00  0.00    -0.043 OA 
HETATM   44  O   UNL     1      -6.564  13.618  69.075  1.00  0.00    -0.099 OA 
HETATM   45  H   UNL     1      -4.777  11.998  70.125  1.00  0.00     0.000 HD 
HETATM   46  C   UNL     1      -8.381  12.222  68.191  1.00  0.00    -0.174 C  
HETATM   47  H   UNL     1      -6.736  14.123  68.288  1.00  0.00     0.000 HD 
BRANCH  46  48
HETATM   48  O   UNL     1      -8.453  12.690  66.817  1.00  0.00    -0.154 OA 
BRANCH  48  49
HETATM   49  C   UNL     1      -9.626  13.491  66.551  1.00  0.00    -0.277 C  
HETATM   50  O   UNL     1     -10.577  13.410  67.619  1.00  0.00    -0.239 OA 
HETATM   51  C   UNL     1     -11.596  14.419  67.447  1.00  0.00    -0.375 C  
HETATM   52  C   UNL     1     -12.393  14.580  68.742  1.00  0.00    -0.029 C  
HETATM   53  C   UNL     1     -12.472  13.993  66.271  1.00  0.00    -0.400 C  
HETATM   54  O   UNL     1     -13.521  14.917  65.948  1.00  0.00     0.267 OA 
HETATM   55  C   UNL     1     -11.616  13.862  65.001  1.00  0.00    -0.345 C  
HETATM   56  O   UNL     1     -11.956  13.760  69.727  1.00  0.00    -0.305 OA 
HETATM   57  O   UNL     1     -13.296  15.386  68.910  1.00  0.00     1.612 OA 
HETATM   58  O   UNL     1     -12.356  13.172  63.983  1.00  0.00    -0.544 OA 
HETATM   59  C   UNL     1     -10.232  13.200  65.165  1.00  0.00    -0.284 C  
HETATM   60  H   UNL     1     -14.066  14.652  65.217  1.00  0.00     0.000 HD 
HETATM   61  H   UNL     1     -11.827  13.091  63.198  1.00  0.00     0.000 HD 
HETATM   62  O   UNL     1      -9.327  13.796  64.188  1.00  0.00     0.472 OA 
HETATM   63  H   UNL     1      -9.701  13.617  63.333  1.00  0.00     0.000 HD 
ENDBRANCH  48  49
ENDBRANCH  46  48
ENDBRANCH  34  35
ENDBRANCH  25  34
TORSDOF 4
ENDMDL
MODEL       16
REMARK 921   NORMALIZED FREE ENERGY PREDICTED BY IDOCK:   -2.92 KCAL/MOL
REMARK 922        TOTAL FREE ENERGY PREDICTED BY IDOCK:   -4.50 KCAL/MOL
REMARK 923 INTER-LIGAND FREE ENERGY PREDICTED BY IDOCK:   -3.98 KCAL/MOL
REMARK 924 INTRA-LIGAND FREE ENERGY PREDICTED BY IDOCK:   -0.52 KCAL/MOL
REMARK 927      BINDING AFFINITY PREDICTED BY RF-SCORE:    0.00 PKD
ROOT
HETATM    1  C   UNL     1     -12.030  14.097  67.398  1.00  0.00    -0.439 C  
HETATM    2  C   UNL     1     -11.947  13.752  68.955  1.00  0.00    -0.394 C  
HETATM    3  C   UNL     1     -12.137  14.876  70.003  1.00  0.00    -0.387 C  
HETATM    4  C   UNL     1     -11.420  16.152  69.517  1.00  0.00    -0.292 C  
HETATM    5  C   UNL     1     -13.626  15.091  70.336  1.00  0.00     0.177 C  
HETATM    6  C   UNL     1     -11.542  14.521  71.388  1.00  0.00    -0.048 C  
HETATM    7  O   UNL     1     -10.789  15.246  72.036  1.00  0.00    -0.136 OA 
HETATM    8  O   UNL     1     -11.957  13.356  71.907  1.00  0.00     0.487 OA 
HETATM    9  C   UNL     1     -11.441  16.451  67.993  1.00  0.00    -0.059 C  
HETATM   10  C   UNL     1     -11.061  15.243  67.069  1.00  0.00    -0.305 C  
HETATM   11  C   UNL     1      -9.566  14.957  67.325  1.00  0.00    -0.216 C  
HETATM   12  C   UNL     1     -11.211  15.466  65.529  1.00  0.00    -0.234 C  
HETATM   13  C   UNL     1     -10.585  14.279  64.635  1.00  0.00    -0.364 C  
HETATM   14  C   UNL     1     -11.127  12.822  64.949  1.00  0.00    -0.324 C  
HETATM   15  C   UNL     1     -11.796  12.880  66.454  1.00  0.00    -0.478 C  
HETATM   16  C   UNL     1     -12.431  12.742  64.073  1.00  0.00    -0.445 C  
HETATM   17  C   UNL     1     -11.904  11.713  67.063  1.00  0.00    -0.038 C  
HETATM   18  C   UNL     1     -10.534  11.282  66.772  1.00  0.00    -0.248 C  
HETATM   19  C   UNL     1     -10.480  10.221  65.774  1.00  0.00    -0.159 C  
HETATM   20  O   UNL     1      -9.543  11.900  67.160  1.00  0.00    -0.183 OA 
HETATM   21  C   UNL     1      -9.643   9.090  66.546  1.00  0.00    -0.286 C  
HETATM   22  C   UNL     1     -10.104   7.730  65.972  1.00  0.00     0.434 C  
HETATM   23  C   UNL     1     -10.058   9.104  68.069  1.00  0.00    -0.238 C  
HETATM   24  C   UNL     1      -9.212   8.469  69.159  1.00  0.00    -0.150 C  
HETATM   25  C   UNL     1      -7.688   8.673  69.003  1.00  0.00    -0.095 C  
HETATM   26  C   UNL     1      -7.285   8.272  67.502  1.00  0.00    -0.088 C  
HETATM   27  C   UNL     1      -8.510  11.107  64.504  1.00  0.00     0.312 C  
HETATM   28  C   UNL     1      -8.105   9.296  66.478  1.00  0.00    -0.104 C  
HETATM   29  C   UNL     1      -7.623   6.730  67.407  1.00  0.00    -0.105 C  
HETATM   30  C   UNL     1      -5.748   8.263  67.398  1.00  0.00    -0.039 C  
HETATM   31  C   UNL     1     -10.616  10.607  63.254  1.00  0.00     0.294 C  
HETATM   32  C   UNL     1     -10.129  11.233  64.602  1.00  0.00    -0.343 C  
HETATM   33  C   UNL     1      -7.789   9.679  64.993  1.00  0.00    -0.118 C  
ENDROOT
BRANCH  25  34
HETATM   34  O   UNL     1      -7.052   9.820  69.697  1.00  0.00    -0.064 OA 
BRANCH  34  35
HETATM   35  C   UNL     1      -7.433  10.212  71.054  1.00  0.00     1.020 C  
HETATM   36  C   UNL     1      -6.606   8.138  72.973  1.00  0.00    -0.090 C  
HETATM   37  O   UNL     1      -8.217   9.191  71.630  1.00  0.00    -0.343 OA 
HETATM   38  C   UNL     1      -8.494   6.742  71.984  1.00  0.00    -0.112 C  
HETATM   39  C   UNL     1      -7.543   7.968  71.809  1.00  0.00    -0.086 C  
HETATM   40  O   UNL     1      -5.824   6.943  73.123  1.00  0.00    -0.048 OA 
HETATM   41  C   UNL     1      -5.683   9.335  72.760  1.00  0.00     0.027 C  
HETATM   42  O   UNL     1      -9.709   6.732  72.052  1.00  0.00    -0.155 OA 
HETATM   43  O   UNL     1      -7.849   5.551  71.987  1.00  0.00    -0.103 OA 
HETATM   44  O   UNL     1      -5.185   9.672  74.082  1.00  0.00    -0.149 OA 
HETATM   45  H   UNL     1      -5.232   7.051  73.859  1.00  0.00     0.000 HD 
HETATM   46  C   UNL     1      -6.303  10.591  72.098  1.00  0.00     1.760 C  
HETATM   47  H   UNL     1      -4.611  10.417  73.950  1.00  0.00     0.000 HD 
BRANCH  46  48
HETATM   48  O   UNL     1      -5.289  11.503  71.600  1.00  0.00    -0.340 OA 
BRANCH  48  49
HETATM   49  C   UNL     1      -5.838  12.735  71.081  1.00  0.00     0.225 C  
HETATM   50  O   UNL     1      -5.463  12.949  69.716  1.00  0.00    -0.082 OA 
HETATM   51  C   UNL     1      -6.241  14.031  69.157  1.00  0.00    -0.103 C  
HETATM   52  C   UNL     1      -6.114  14.029  67.632  1.00  0.00    -0.063 C  
HETATM   53  C   UNL     1      -5.738  15.330  69.782  1.00  0.00    -0.119 C  
HETATM   54  O   UNL     1      -6.438  16.505  69.350  1.00  0.00    -0.189 OA 
HETATM   55  C   UNL     1      -5.904  15.274  71.310  1.00  0.00     0.296 C  
HETATM   56  O   UNL     1      -5.326  13.027  67.177  1.00  0.00    -0.344 OA 
HETATM   57  O   UNL     1      -6.689  14.804  66.883  1.00  0.00     0.010 OA 
HETATM   58  O   UNL     1      -5.160  16.339  71.920  1.00  0.00    -0.264 OA 
HETATM   59  C   UNL     1      -5.544  13.939  71.995  1.00  0.00    -0.166 C  
HETATM   60  H   UNL     1      -6.125  17.313  69.739  1.00  0.00     0.000 HD 
HETATM   61  H   UNL     1      -5.263  16.304  72.864  1.00  0.00     0.000 HD 
HETATM   62  O   UNL     1      -6.402  13.786  73.165  1.00  0.00     0.115 OA 
HETATM   63  H   UNL     1      -6.220  14.529  73.729  1.00  0.00     0.000 HD 
ENDBRANCH  48  49
ENDBRANCH  46  48
ENDBRANCH  34  35
ENDBRANCH  25  34
TORSDOF 4
ENDMDL
MODEL       17
REMARK 921   NORMALIZED FREE ENERGY PREDICTED BY IDOCK:   -2.84 KCAL/MOL
REMARK 922        TOTAL FREE ENERGY PREDICTED BY IDOCK:   -4.41 KCAL/MOL
REMARK 923 INTER-LIGAND FREE ENERGY PREDICTED BY IDOCK:   -6.75 KCAL/MOL
REMARK 924 INTRA-LIGAND FREE ENERGY PREDICTED BY IDOCK:    2.34 KCAL/MOL
REMARK 927      BINDING AFFINITY PREDICTED BY RF-SCORE:    0.00 PKD
ROOT
HETATM    1  C   UNL     1     -12.027  15.781  69.457  1.00  0.00    -0.326 C  
HETATM    2  C   UNL     1     -12.575  14.718  70.514  1.00  0.00    -0.416 C  
HETATM    3  C   UNL     1     -12.947  15.179  71.945  1.00  0.00    -0.443 C  
HETATM    4  C   UNL     1     -11.905  16.202  72.439  1.00  0.00    -0.637 C  
HETATM    5  C   UNL     1     -14.399  15.692  72.013  1.00  0.00    -0.486 C  
HETATM    6  C   UNL     1     -12.966  14.018  72.971  1.00  0.00    -0.230 C  
HETATM    7  O   UNL     1     -12.393  14.033  74.059  1.00  0.00     0.321 OA 
HETATM    8  O   UNL     1     -13.726  12.967  72.632  1.00  0.00    -0.573 OA 
HETATM    9  C   UNL     1     -11.319  17.191  71.395  1.00  0.00     1.096 C  
HETATM   10  C   UNL     1     -10.832  16.538  70.055  1.00  0.00    -0.258 C  
HETATM   11  C   UNL     1      -9.601  15.679  70.417  1.00  0.00     0.647 C  
HETATM   12  C   UNL     1     -10.371  17.518  68.928  1.00  0.00    -0.338 C  
HETATM   13  C   UNL     1      -9.664  16.784  67.677  1.00  0.00    -0.251 C  
HETATM   14  C   UNL     1     -10.514  15.640  66.981  1.00  0.00    -0.303 C  
HETATM   15  C   UNL     1     -11.667  15.181  68.065  1.00  0.00    -0.304 C  
HETATM   16  C   UNL     1     -11.403  16.441  65.960  1.00  0.00     0.504 C  
HETATM   17  C   UNL     1     -12.179  13.980  67.862  1.00  0.00    -0.188 C  
HETATM   18  C   UNL     1     -10.887  13.312  67.680  1.00  0.00    -0.258 C  
HETATM   19  C   UNL     1     -10.647  12.925  66.295  1.00  0.00    -0.281 C  
HETATM   20  O   UNL     1     -10.019  13.287  68.552  1.00  0.00    -0.234 OA 
HETATM   21  C   UNL     1     -10.347  11.354  66.444  1.00  0.00    -0.284 C  
HETATM   22  C   UNL     1     -10.782  10.693  65.117  1.00  0.00    -0.088 C  
HETATM   23  C   UNL     1     -11.281  10.765  67.573  1.00  0.00    -0.346 C  
HETATM   24  C   UNL     1     -11.006   9.438  68.258  1.00  0.00    -0.085 C  
HETATM   25  C   UNL     1      -9.519   9.164  68.578  1.00  0.00    -0.146 C  
HETATM   26  C   UNL     1      -8.667   9.435  67.244  1.00  0.00    -0.133 C  
HETATM   27  C   UNL     1      -8.233  13.592  66.213  1.00  0.00     1.062 C  
HETATM   28  C   UNL     1      -8.878  11.035  66.837  1.00  0.00    -0.150 C  
HETATM   29  C   UNL     1      -9.195   8.353  66.219  1.00  0.00    -0.263 C  
HETATM   30  C   UNL     1      -7.222   8.960  67.486  1.00  0.00    -0.080 C  
HETATM   31  C   UNL     1      -9.790  14.507  64.484  1.00  0.00     0.896 C  
HETATM   32  C   UNL     1      -9.733  14.192  66.016  1.00  0.00    -0.297 C  
HETATM   33  C   UNL     1      -7.984  11.960  65.944  1.00  0.00     0.625 C  
ENDROOT
BRANCH  25  34
HETATM   34  O   UNL     1      -9.002   9.537  69.917  1.00  0.00    -0.177 OA 
BRANCH  34  35
HETATM   35  C   UNL     1      -9.031   8.606  71.046  1.00  0.00    -0.196 C  
HETATM   36  C   UNL     1     -11.485   6.983  70.952  1.00  0.00    -0.308 C  
HETATM   37  O   UNL     1     -10.228   8.790  71.768  1.00  0.00    -0.281 OA 
HETATM   38  C   UNL     1     -12.694   9.117  71.643  1.00  0.00    -0.358 C  
HETATM   39  C   UNL     1     -11.398   8.481  71.047  1.00  0.00    -0.271 C  
HETATM   40  O   UNL     1     -12.612   6.630  70.134  1.00  0.00    -0.404 OA 
HETATM   41  C   UNL     1     -10.209   6.399  70.353  1.00  0.00    -0.192 C  
HETATM   42  O   UNL     1     -12.816   9.768  72.663  1.00  0.00    -0.163 OA 
HETATM   43  O   UNL     1     -13.786   8.960  70.858  1.00  0.00    -0.016 OA 
HETATM   44  O   UNL     1     -10.214   4.999  70.736  1.00  0.00    -0.232 OA 
HETATM   45  H   UNL     1     -12.666   5.683  70.075  1.00  0.00     0.000 HD 
HETATM   46  C   UNL     1      -8.871   7.054  70.777  1.00  0.00    -0.149 C  
HETATM   47  H   UNL     1      -9.419   4.635  70.363  1.00  0.00     0.000 HD 
BRANCH  46  48
HETATM   48  O   UNL     1      -7.781   6.696  69.885  1.00  0.00    -0.104 OA 
BRANCH  48  49
HETATM   49  C   UNL     1      -8.068   5.534  69.075  1.00  0.00    -0.095 C  
HETATM   50  O   UNL     1      -9.288   5.690  68.340  1.00  0.00    -0.116 OA 
HETATM   51  C   UNL     1      -9.401   4.644  67.350  1.00  0.00    -0.143 C  
HETATM   52  C   UNL     1     -10.492   5.001  66.339  1.00  0.00    -0.300 C  
HETATM   53  C   UNL     1      -9.694   3.339  68.089  1.00  0.00     0.045 C  
HETATM   54  O   UNL     1      -9.802   2.189  67.239  1.00  0.00    -0.334 OA 
HETATM   55  C   UNL     1      -8.557   3.032  69.077  1.00  0.00    -0.073 C  
HETATM   56  O   UNL     1     -11.075   6.193  66.602  1.00  0.00    -0.284 OA 
HETATM   57  O   UNL     1     -10.789   4.324  65.365  1.00  0.00    -0.196 OA 
HETATM   58  O   UNL     1      -8.966   1.996  69.983  1.00  0.00    -0.070 OA 
HETATM   59  C   UNL     1      -7.999   4.225  69.882  1.00  0.00    -0.056 C  
HETATM   60  H   UNL     1      -9.985   1.378  67.699  1.00  0.00     0.000 HD 
HETATM   61  H   UNL     1      -8.263   1.806  70.594  1.00  0.00     0.000 HD 
HETATM   62  O   UNL     1      -6.585   3.975  70.138  1.00  0.00    -0.031 OA 
HETATM   63  H   UNL     1      -6.542   3.166  70.636  1.00  0.00     0.000 HD 
ENDBRANCH  48  49
ENDBRANCH  46  48
ENDBRANCH  34  35
ENDBRANCH  25  34
TORSDOF 4
ENDMDL
MODEL       18
REMARK 921   NORMALIZED FREE ENERGY PREDICTED BY IDOCK:   -2.70 KCAL/MOL
REMARK 922        TOTAL FREE ENERGY PREDICTED BY IDOCK:   -4.24 KCAL/MOL
REMARK 923 INTER-LIGAND FREE ENERGY PREDICTED BY IDOCK:   -4.42 KCAL/MOL
REMARK 924 INTRA-LIGAND FREE ENERGY PREDICTED BY IDOCK:    0.18 KCAL/MOL
REMARK 927      BINDING AFFINITY PREDICTED BY RF-SCORE:    0.00 PKD
ROOT
HETATM    1  C   UNL     1      -9.826  10.507  70.154  1.00  0.00     0.320 C  
HETATM    2  C   UNL     1      -8.470  10.889  69.402  1.00  0.00     0.075 C  
HETATM    3  C   UNL     1      -8.416  12.149  68.504  1.00  0.00    -0.083 C  
HETATM    4  C   UNL     1      -9.730  12.261  67.705  1.00  0.00    -0.194 C  
HETATM    5  C   UNL     1      -8.081  13.411  69.322  1.00  0.00     0.572 C  
HETATM    6  C   UNL     1      -7.259  12.113  67.475  1.00  0.00    -0.133 C  
HETATM    7  O   UNL     1      -7.383  12.332  66.271  1.00  0.00     0.478 OA 
HETATM    8  O   UNL     1      -6.043  11.884  67.990  1.00  0.00    -0.050 OA 
HETATM    9  C   UNL     1     -11.041  11.824  68.412  1.00  0.00    -0.286 C  
HETATM   10  C   UNL     1     -10.978  10.437  69.140  1.00  0.00    -0.285 C  
HETATM   11  C   UNL     1     -10.836   9.374  68.030  1.00  0.00    -0.197 C  
HETATM   12  C   UNL     1     -12.230  10.032  69.983  1.00  0.00    -0.039 C  
HETATM   13  C   UNL     1     -12.198   8.506  70.505  1.00  0.00     0.222 C  
HETATM   14  C   UNL     1     -10.918   8.094  71.346  1.00  0.00    -0.282 C  
HETATM   15  C   UNL     1      -9.749   9.204  71.002  1.00  0.00    -0.359 C  
HETATM   16  C   UNL     1     -11.301   8.545  72.804  1.00  0.00    -0.091 C  
HETATM   17  C   UNL     1      -8.512   8.806  71.245  1.00  0.00    -0.238 C  
HETATM   18  C   UNL     1      -8.656   7.507  70.582  1.00  0.00    -0.137 C  
HETATM   19  C   UNL     1      -8.693   6.397  71.526  1.00  0.00    -0.134 C  
HETATM   20  O   UNL     1      -8.936   7.394  69.389  1.00  0.00    -0.140 OA 
HETATM   21  C   UNL     1      -7.509   5.462  70.976  1.00  0.00    -0.088 C  
HETATM   22  C   UNL     1      -6.957   4.686  72.193  1.00  0.00    -0.060 C  
HETATM   23  C   UNL     1      -6.337   6.383  70.455  1.00  0.00    -0.036 C  
HETATM   24  C   UNL     1      -5.252   5.883  69.519  1.00  0.00    -0.004 C  
HETATM   25  C   UNL     1      -5.740   4.932  68.403  1.00  0.00    -0.017 C  
HETATM   26  C   UNL     1      -6.638   3.788  69.083  1.00  0.00    -0.040 C  
HETATM   27  C   UNL     1     -10.520   5.107  70.395  1.00  0.00    -0.287 C  
HETATM   28  C   UNL     1      -7.938   4.539  69.801  1.00  0.00    -0.061 C  
HETATM   29  C   UNL     1      -5.634   3.017  70.031  1.00  0.00    -0.017 C  
HETATM   30  C   UNL     1      -6.950   2.718  68.020  1.00  0.00    -0.048 C  
HETATM   31  C   UNL     1     -10.774   5.674  72.817  1.00  0.00    -0.283 C  
HETATM   32  C   UNL     1     -10.277   6.302  71.472  1.00  0.00    -0.233 C  
HETATM   33  C   UNL     1      -9.329   3.947  70.207  1.00  0.00    -0.238 C  
ENDROOT
BRANCH  25  34
HETATM   34  O   UNL     1      -6.092   5.510  67.082  1.00  0.00    -0.027 OA 
BRANCH  34  35
HETATM   35  C   UNL     1      -5.228   5.350  65.912  1.00  0.00    -0.012 C  
HETATM   36  C   UNL     1      -6.862   4.863  63.511  1.00  0.00    -0.042 C  
HETATM   37  O   UNL     1      -5.518   4.120  65.286  1.00  0.00    -0.012 OA 
HETATM   38  C   UNL     1      -7.295   2.559  64.508  1.00  0.00    -0.062 C  
HETATM   39  C   UNL     1      -6.821   4.025  64.759  1.00  0.00    -0.049 C  
HETATM   40  O   UNL     1      -8.204   4.875  63.000  1.00  0.00    -0.087 OA 
HETATM   41  C   UNL     1      -6.406   6.291  63.798  1.00  0.00    -0.029 C  
HETATM   42  O   UNL     1      -6.666   1.527  64.644  1.00  0.00    -0.025 OA 
HETATM   43  O   UNL     1      -8.601   2.463  64.163  1.00  0.00    -0.085 OA 
HETATM   44  O   UNL     1      -6.046   6.843  62.504  1.00  0.00    -0.039 OA 
HETATM   45  H   UNL     1      -8.230   5.405  62.211  1.00  0.00     0.000 HD 
HETATM   46  C   UNL     1      -5.228   6.467  64.788  1.00  0.00    -0.021 C  
HETATM   47  H   UNL     1      -5.762   7.732  62.682  1.00  0.00     0.000 HD 
BRANCH  46  48
HETATM   48  O   UNL     1      -5.125   7.830  65.279  1.00  0.00    -0.028 OA 
BRANCH  48  49
HETATM   49  C   UNL     1      -6.407   8.485  65.410  1.00  0.00    -0.055 C  
HETATM   50  O   UNL     1      -7.487   7.546  65.375  1.00  0.00    -0.075 OA 
HETATM   51  C   UNL     1      -8.715   8.194  65.776  1.00  0.00    -0.154 C  
HETATM   52  C   UNL     1      -9.781   7.142  66.088  1.00  0.00     0.110 C  
HETATM   53  C   UNL     1      -9.132   9.130  64.644  1.00  0.00    -0.051 C  
HETATM   54  O   UNL     1     -10.327   9.879  64.906  1.00  0.00    -0.241 OA 
HETATM   55  C   UNL     1      -8.027  10.168  64.389  1.00  0.00    -0.153 C  
HETATM   56  O   UNL     1      -9.327   5.877  65.926  1.00  0.00    -0.140 OA 
HETATM   57  O   UNL     1     -10.909   7.389  66.487  1.00  0.00    -0.033 OA 
HETATM   58  O   UNL     1      -8.268  10.841  63.144  1.00  0.00    -0.308 OA 
HETATM   59  C   UNL     1      -6.573   9.651  64.419  1.00  0.00    -0.107 C  
HETATM   60  H   UNL     1     -10.587  10.462  64.201  1.00  0.00     0.000 HD 
HETATM   61  H   UNL     1      -7.585  11.482  62.987  1.00  0.00     0.000 HD 
HETATM   62  O   UNL     1      -5.720  10.729  64.906  1.00  0.00    -0.295 OA 
HETATM   63  H   UNL     1      -5.823  11.449  64.295  1.00  0.00     0.000 HD 
ENDBRANCH  48  49
ENDBRANCH  46  48
ENDBRANCH  34  35
ENDBRANCH  25  34
TORSDOF 4
ENDMDL
MODEL       19
REMARK 921   NORMALIZED FREE ENERGY PREDICTED BY IDOCK:   -2.29 KCAL/MOL
REMARK 922        TOTAL FREE ENERGY PREDICTED BY IDOCK:   -3.73 KCAL/MOL
REMARK 923 INTER-LIGAND FREE ENERGY PREDICTED BY IDOCK:   -4.83 KCAL/MOL
REMARK 924 INTRA-LIGAND FREE ENERGY PREDICTED BY IDOCK:    1.10 KCAL/MOL
REMARK 927      BINDING AFFINITY PREDICTED BY RF-SCORE:    0.00 PKD
ROOT
HETATM    1  C   UNL     1      -7.883  11.119  65.696  1.00  0.00     0.156 C  
HETATM    2  C   UNL     1      -9.119  11.513  66.626  1.00  0.00    -0.193 C  
HETATM    3  C   UNL     1      -9.284  12.976  67.106  1.00  0.00    -0.226 C  
HETATM    4  C   UNL     1      -7.902  13.550  67.477  1.00  0.00    -0.184 C  
HETATM    5  C   UNL     1     -10.051  13.825  66.074  1.00  0.00    -0.320 C  
HETATM    6  C   UNL     1     -10.182  13.105  68.363  1.00  0.00    -0.247 C  
HETATM    7  O   UNL     1      -9.881  13.728  69.379  1.00  0.00     0.264 OA 
HETATM    8  O   UNL     1     -11.389  12.531  68.264  1.00  0.00    -0.243 OA 
HETATM    9  C   UNL     1      -6.688  13.112  66.615  1.00  0.00     1.559 C  
HETATM   10  C   UNL     1      -6.572  11.569  66.357  1.00  0.00     0.042 C  
HETATM   11  C   UNL     1      -6.250  10.928  67.724  1.00  0.00    -0.051 C  
HETATM   12  C   UNL     1      -5.447  11.107  65.376  1.00  0.00     0.132 C  
HETATM   13  C   UNL     1      -5.230   9.509  65.340  1.00  0.00    -0.040 C  
HETATM   14  C   UNL     1      -6.520   8.647  65.009  1.00  0.00    -0.061 C  
HETATM   15  C   UNL     1      -7.823   9.612  65.307  1.00  0.00    -0.115 C  
HETATM   16  C   UNL     1      -6.538   8.641  63.436  1.00  0.00    -0.089 C  
HETATM   17  C   UNL     1      -8.958   8.969  65.512  1.00  0.00    -0.252 C  
HETATM   18  C   UNL     1      -8.397   8.004  66.461  1.00  0.00    -0.121 C  
HETATM   19  C   UNL     1      -8.290   6.663  65.899  1.00  0.00    -0.137 C  
HETATM   20  O   UNL     1      -7.874   8.339  67.523  1.00  0.00    -0.103 OA 
HETATM   21  C   UNL     1      -9.100   5.793  66.978  1.00  0.00    -0.114 C  
HETATM   22  C   UNL     1      -9.685   4.580  66.219  1.00  0.00    -0.216 C  
HETATM   23  C   UNL     1     -10.328   6.641  67.494  1.00  0.00    -0.262 C  
HETATM   24  C   UNL     1     -11.069   6.318  68.779  1.00  0.00    -0.424 C  
HETATM   25  C   UNL     1     -10.171   5.880  69.958  1.00  0.00    -0.224 C  
HETATM   26  C   UNL     1      -9.184   4.729  69.429  1.00  0.00    -0.169 C  
HETATM   27  C   UNL     1      -6.034   6.123  66.848  1.00  0.00    -0.021 C  
HETATM   28  C   UNL     1      -8.254   5.391  68.218  1.00  0.00    -0.095 C  
HETATM   29  C   UNL     1     -10.149   3.541  69.032  1.00  0.00     0.620 C  
HETATM   30  C   UNL     1      -8.437   4.136  70.638  1.00  0.00    -0.095 C  
HETATM   31  C   UNL     1      -6.389   5.884  64.384  1.00  0.00    -0.030 C  
HETATM   32  C   UNL     1      -6.747   6.839  65.572  1.00  0.00    -0.051 C  
HETATM   33  C   UNL     1      -6.869   4.921  67.658  1.00  0.00    -0.060 C  
ENDROOT
BRANCH  25  34
HETATM   34  O   UNL     1      -9.713   6.912  70.921  1.00  0.00    -0.178 OA 
BRANCH  34  35
HETATM   35  C   UNL     1     -10.413   7.161  72.181  1.00  0.00    -0.206 C  
HETATM   36  C   UNL     1     -13.236   7.811  71.655  1.00  0.00    -0.343 C  
HETATM   37  O   UNL     1     -11.023   8.432  72.130  1.00  0.00    -0.293 OA 
HETATM   38  C   UNL     1     -12.360  10.035  70.773  1.00  0.00    -0.303 C  
HETATM   39  C   UNL     1     -12.030   8.557  71.154  1.00  0.00    -0.272 C  
HETATM   40  O   UNL     1     -14.252   7.829  70.641  1.00  0.00    -0.324 OA 
HETATM   41  C   UNL     1     -12.880   6.369  72.003  1.00  0.00     0.059 C  
HETATM   42  O   UNL     1     -11.912  11.058  71.255  1.00  0.00    -0.241 OA 
HETATM   43  O   UNL     1     -13.203  10.148  69.720  1.00  0.00     0.207 OA 
HETATM   44  O   UNL     1     -13.944   5.914  72.880  1.00  0.00    -0.208 OA 
HETATM   45  H   UNL     1     -15.014   7.358  70.958  1.00  0.00     0.000 HD 
HETATM   46  C   UNL     1     -11.507   6.129  72.679  1.00  0.00    -0.237 C  
HETATM   47  H   UNL     1     -13.723   5.016  73.097  1.00  0.00     0.000 HD 
BRANCH  46  48
HETATM   48  O   UNL     1     -11.105   4.734  72.620  1.00  0.00    -0.188 OA 
BRANCH  48  49
HETATM   49  C   UNL     1      -9.892   4.460  73.357  1.00  0.00    -0.129 C  
HETATM   50  O   UNL     1      -8.853   5.391  73.033  1.00  0.00    -0.121 OA 
HETATM   51  C   UNL     1      -7.764   5.258  73.973  1.00  0.00    -0.097 C  
HETATM   52  C   UNL     1      -6.831   6.466  73.862  1.00  0.00    -0.081 C  
HETATM   53  C   UNL     1      -7.052   3.941  73.669  1.00  0.00    -0.059 C  
HETATM   54  O   UNL     1      -5.956   3.645  74.546  1.00  0.00    -0.014 OA 
HETATM   55  C   UNL     1      -8.038   2.770  73.810  1.00  0.00    -0.067 C  
HETATM   56  O   UNL     1      -7.246   7.360  72.934  1.00  0.00    -0.071 OA 
HETATM   57  O   UNL     1      -5.843   6.650  74.557  1.00  0.00    -0.065 OA 
HETATM   58  O   UNL     1      -7.471   1.584  73.232  1.00  0.00    -0.027 OA 
HETATM   59  C   UNL     1      -9.456   2.988  73.242  1.00  0.00    -0.093 C  
HETATM   60  H   UNL     1      -5.514   2.826  74.357  1.00  0.00     0.000 HD 
HETATM   61  H   UNL     1      -8.080   0.860  73.319  1.00  0.00     0.000 HD 
HETATM   62  O   UNL     1     -10.391   2.218  74.055  1.00  0.00    -0.107 OA 
HETATM   63  H   UNL     1     -10.122   1.309  73.984  1.00  0.00     0.000 HD 
ENDBRANCH  48  49
ENDBRANCH  46  48
ENDBRANCH  34  35
ENDBRANCH  25  34
TORSDOF 4
ENDMDL
MODEL       20
REMARK 921   NORMALIZED FREE ENERGY PREDICTED BY IDOCK:   -2.25 KCAL/MOL
REMARK 922        TOTAL FREE ENERGY PREDICTED BY IDOCK:   -3.68 KCAL/MOL
REMARK 923 INTER-LIGAND FREE ENERGY PREDICTED BY IDOCK:   -0.37 KCAL/MOL
REMARK 924 INTRA-LIGAND FREE ENERGY PREDICTED BY IDOCK:   -3.30 KCAL/MOL
REMARK 927      BINDING AFFINITY PREDICTED BY RF-SCORE:    0.00 PKD
ROOT
HETATM    1  C   UNL     1     -12.357  11.795  68.579  1.00  0.00     0.356 C  
HETATM    2  C   UNL     1     -12.177  10.435  69.395  1.00  0.00     0.004 C  
HETATM    3  C   UNL     1     -12.541  10.386  70.900  1.00  0.00    -0.478 C  
HETATM    4  C   UNL     1     -12.077  11.691  71.578  1.00  0.00     0.363 C  
HETATM    5  C   UNL     1     -14.036  10.078  71.109  1.00  0.00     0.471 C  
HETATM    6  C   UNL     1     -11.860   9.216  71.652  1.00  0.00    -0.372 C  
HETATM    7  O   UNL     1     -11.234   9.328  72.704  1.00  0.00     0.409 OA 
HETATM    8  O   UNL     1     -12.046   8.003  71.112  1.00  0.00    -0.300 OA 
HETATM    9  C   UNL     1     -12.187  13.005  70.758  1.00  0.00    -0.359 C  
HETATM   10  C   UNL     1     -11.619  12.933  69.299  1.00  0.00    -0.368 C  
HETATM   11  C   UNL     1     -10.091  12.763  69.440  1.00  0.00     0.688 C  
HETATM   12  C   UNL     1     -11.843  14.191  68.399  1.00  0.00    -0.388 C  
HETATM   13  C   UNL     1     -11.034  14.145  67.003  1.00  0.00    -0.303 C  
HETATM   14  C   UNL     1     -11.299  12.870  66.097  1.00  0.00    -0.356 C  
HETATM   15  C   UNL     1     -11.931  11.711  67.083  1.00  0.00     0.108 C  
HETATM   16  C   UNL     1     -12.588  13.278  65.293  1.00  0.00    -0.528 C  
HETATM   17  C   UNL     1     -11.813  10.473  66.638  1.00  0.00     1.838 C  
HETATM   18  C   UNL     1     -10.395  10.591  66.287  1.00  0.00    -0.212 C  
HETATM   19  C   UNL     1     -10.175  10.626  64.847  1.00  0.00    -0.395 C  
HETATM   20  O   UNL     1      -9.522  10.855  67.113  1.00  0.00    -0.159 OA 
HETATM   21  C   UNL     1      -9.130   9.423  64.648  1.00  0.00    -0.228 C  
HETATM   22  C   UNL     1      -9.353   8.876  63.219  1.00  0.00     1.005 C  
HETATM   23  C   UNL     1      -9.506   8.257  65.644  1.00  0.00     0.076 C  
HETATM   24  C   UNL     1      -8.533   7.153  66.021  1.00  0.00    -0.148 C  
HETATM   25  C   UNL     1      -7.075   7.615  66.241  1.00  0.00    -0.070 C  
HETATM   26  C   UNL     1      -6.642   8.506  64.977  1.00  0.00    -0.064 C  
HETATM   27  C   UNL     1      -8.427  12.421  64.855  1.00  0.00     2.113 C  
HETATM   28  C   UNL     1      -7.656   9.824  64.929  1.00  0.00    -0.128 C  
HETATM   29  C   UNL     1      -6.700   7.504  63.756  1.00  0.00    -0.053 C  
HETATM   30  C   UNL     1      -5.131   8.790  65.079  1.00  0.00    -0.038 C  
HETATM   31  C   UNL     1     -10.438  12.713  63.400  1.00  0.00    -0.108 C  
HETATM   32  C   UNL     1     -10.040  12.207  64.826  1.00  0.00    -0.276 C  
HETATM   33  C   UNL     1      -7.450  11.213  64.236  1.00  0.00     0.981 C  
ENDROOT
BRANCH  25  34
HETATM   34  O   UNL     1      -6.639   7.957  67.617  1.00  0.00    -0.057 OA 
BRANCH  34  35
HETATM   35  C   UNL     1      -7.361   8.931  68.439  1.00  0.00    -0.082 C  
HETATM   36  C   UNL     1      -7.351   8.077  71.256  1.00  0.00    -0.067 C  
HETATM   37  O   UNL     1      -8.379   8.269  69.155  1.00  0.00    -0.120 OA 
HETATM   38  C   UNL     1      -8.996   6.277  70.516  1.00  0.00    -0.151 C  
HETATM   39  C   UNL     1      -7.916   7.319  70.086  1.00  0.00    -0.112 C  
HETATM   40  O   UNL     1      -6.774   7.144  72.183  1.00  0.00    -0.056 OA 
HETATM   41  C   UNL     1      -6.290   9.074  70.800  1.00  0.00    -0.055 C  
HETATM   42  O   UNL     1     -10.171   6.234  70.205  1.00  0.00    -0.177 OA 
HETATM   43  O   UNL     1      -8.506   5.271  71.278  1.00  0.00    -0.120 OA 
HETATM   44  O   UNL     1      -6.171  10.029  71.887  1.00  0.00    -0.281 OA 
HETATM   45  H   UNL     1      -6.417   7.623  72.922  1.00  0.00     0.000 HD 
HETATM   46  C   UNL     1      -6.556   9.823  69.470  1.00  0.00    -0.051 C  
HETATM   47  H   UNL     1      -5.510  10.650  71.603  1.00  0.00     0.000 HD 
BRANCH  46  48
HETATM   48  O   UNL     1      -5.353  10.440  68.939  1.00  0.00    -0.042 OA 
BRANCH  48  49
HETATM   49  C   UNL     1      -5.372  11.883  69.016  1.00  0.00    -0.050 C  
HETATM   50  O   UNL     1      -5.679  12.339  70.338  1.00  0.00    -0.148 OA 
HETATM   51  C   UNL     1      -5.425  13.758  70.439  1.00  0.00    -0.127 C  
HETATM   52  C   UNL     1      -5.400  14.179  71.909  1.00  0.00    -0.209 C  
HETATM   53  C   UNL     1      -6.513  14.478  69.644  1.00  0.00    -0.148 C  
HETATM   54  O   UNL     1      -6.381  15.906  69.619  1.00  0.00    -0.168 OA 
HETATM   55  C   UNL     1      -6.477  14.022  68.176  1.00  0.00    -0.126 C  
HETATM   56  O   UNL     1      -5.608  13.139  72.751  1.00  0.00    -0.323 OA 
HETATM   57  O   UNL     1      -5.171  15.311  72.307  1.00  0.00    -0.077 OA 
HETATM   58  O   UNL     1      -7.672  14.448  67.504  1.00  0.00    -0.165 OA 
HETATM   59  C   UNL     1      -6.258  12.515  67.926  1.00  0.00    -0.100 C  
HETATM   60  H   UNL     1      -7.057  16.354  69.125  1.00  0.00     0.000 HD 
HETATM   61  H   UNL     1      -7.649  14.166  66.597  1.00  0.00     0.000 HD 
HETATM   62  O   UNL     1      -5.531  12.367  66.670  1.00  0.00    -0.445 OA 
HETATM   63  H   UNL     1      -6.077  12.758  65.997  1.00  0.00     0.000 HD 
ENDBRANCH  48  49
ENDBRANCH  46  48
ENDBRANCH  34  35
ENDBRANCH  25  34
TORSDOF 4
ENDMDL
MODEL       21
REMARK 921   NORMALIZED FREE ENERGY PREDICTED BY IDOCK:   -1.59 KCAL/MOL
REMARK 922        TOTAL FREE ENERGY PREDICTED BY IDOCK:   -2.86 KCAL/MOL
REMARK 923 INTER-LIGAND FREE ENERGY PREDICTED BY IDOCK:   -2.98 KCAL/MOL
REMARK 924 INTRA-LIGAND FREE ENERGY PREDICTED BY IDOCK:    0.12 KCAL/MOL
REMARK 927      BINDING AFFINITY PREDICTED BY RF-SCORE:    0.00 PKD
ROOT
HETATM    1  C   UNL     1     -10.241  14.082  66.391  1.00  0.00    -0.293 C  
HETATM    2  C   UNL     1     -10.778  13.186  65.184  1.00  0.00    -0.329 C  
HETATM    3  C   UNL     1     -12.130  13.531  64.512  1.00  0.00    -0.460 C  
HETATM    4  C   UNL     1     -13.145  13.948  65.595  1.00  0.00    -0.205 C  
HETATM    5  C   UNL     1     -11.955  14.575  63.393  1.00  0.00     0.820 C  
HETATM    6  C   UNL     1     -12.750  12.336  63.746  1.00  0.00    -0.405 C  
HETATM    7  O   UNL     1     -13.909  11.947  63.871  1.00  0.00     0.043 OA 
HETATM    8  O   UNL     1     -11.944  11.754  62.846  1.00  0.00    -0.068 OA 
HETATM    9  C   UNL     1     -12.610  14.760  66.806  1.00  0.00     0.544 C  
HETATM   10  C   UNL     1     -11.319  14.182  67.481  1.00  0.00    -0.343 C  
HETATM   11  C   UNL     1     -11.737  12.850  68.140  1.00  0.00    -0.395 C  
HETATM   12  C   UNL     1     -10.671  15.049  68.608  1.00  0.00    -0.244 C  
HETATM   13  C   UNL     1      -9.496  14.294  69.417  1.00  0.00     0.331 C  
HETATM   14  C   UNL     1      -8.312  13.720  68.532  1.00  0.00    -0.120 C  
HETATM   15  C   UNL     1      -8.883  13.610  66.990  1.00  0.00    -0.233 C  
HETATM   16  C   UNL     1      -7.358  14.962  68.382  1.00  0.00    -0.114 C  
HETATM   17  C   UNL     1      -8.226  12.771  66.210  1.00  0.00     0.669 C  
HETATM   18  C   UNL     1      -8.211  11.671  67.177  1.00  0.00    -0.165 C  
HETATM   19  C   UNL     1      -6.887  11.438  67.741  1.00  0.00    -0.075 C  
HETATM   20  O   UNL     1      -9.238  11.158  67.622  1.00  0.00    -0.148 OA 
HETATM   21  C   UNL     1      -6.667   9.880  67.423  1.00  0.00    -0.074 C  
HETATM   22  C   UNL     1      -5.142   9.669  67.284  1.00  0.00    -0.035 C  
HETATM   23  C   UNL     1      -7.300   9.557  66.012  1.00  0.00    -0.097 C  
HETATM   24  C   UNL     1      -7.635   8.145  65.565  1.00  0.00    -0.087 C  
HETATM   25  C   UNL     1      -8.245   7.242  66.661  1.00  0.00    -0.118 C  
HETATM   26  C   UNL     1      -7.312   7.344  67.964  1.00  0.00    -0.096 C  
HETATM   27  C   UNL     1      -7.631  11.064  70.105  1.00  0.00     0.840 C  
HETATM   28  C   UNL     1      -7.326   8.931  68.461  1.00  0.00    -0.081 C  
HETATM   29  C   UNL     1      -5.925   6.744  67.497  1.00  0.00    -0.024 C  
HETATM   30  C   UNL     1      -7.783   6.288  68.982  1.00  0.00    -0.100 C  
HETATM   31  C   UNL     1      -5.880  12.792  69.658  1.00  0.00    -0.113 C  
HETATM   32  C   UNL     1      -7.222  12.248  69.065  1.00  0.00    -0.023 C  
HETATM   33  C   UNL     1      -6.993   9.536  69.866  1.00  0.00    -0.078 C  
ENDROOT
BRANCH  25  34
HETATM   34  O   UNL     1      -9.722   7.158  66.770  1.00  0.00    -0.177 OA 
BRANCH  34  35
HETATM   35  C   UNL     1     -10.447   5.910  66.532  1.00  0.00    -0.190 C  
HETATM   36  C   UNL     1      -8.750   3.608  67.231  1.00  0.00    -0.115 C  
HETATM   37  O   UNL     1      -9.689   5.089  65.671  1.00  0.00    -0.160 OA 
HETATM   38  C   UNL     1      -7.434   4.184  65.126  1.00  0.00    -0.073 C  
HETATM   39  C   UNL     1      -8.456   4.666  66.204  1.00  0.00    -0.114 C  
HETATM   40  O   UNL     1      -7.524   3.223  67.871  1.00  0.00    -0.054 OA 
HETATM   41  C   UNL     1      -9.739   4.119  68.274  1.00  0.00    -0.082 C  
HETATM   42  O   UNL     1      -7.599   4.069  63.926  1.00  0.00    -0.071 OA 
HETATM   43  O   UNL     1      -6.198   3.938  65.622  1.00  0.00    -0.030 OA 
HETATM   44  O   UNL     1     -10.287   2.927  68.896  1.00  0.00     1.069 OA 
HETATM   45  H   UNL     1      -7.710   2.554  68.520  1.00  0.00     0.000 HD 
HETATM   46  C   UNL     1     -10.892   5.022  67.766  1.00  0.00     0.495 C  
HETATM   47  H   UNL     1     -10.903   3.246  69.546  1.00  0.00     0.000 HD 
BRANCH  46  48
HETATM   48  O   UNL     1     -11.532   5.751  68.847  1.00  0.00     0.065 OA 
BRANCH  48  49
HETATM   49  C   UNL     1     -10.593   6.272  69.815  1.00  0.00    -0.264 C  
HETATM   50  O   UNL     1     -10.476   5.413  70.954  1.00  0.00    -0.239 OA 
HETATM   51  C   UNL     1      -9.347   5.817  71.760  1.00  0.00    -0.148 C  
HETATM   52  C   UNL     1      -8.999   4.712  72.759  1.00  0.00    -0.119 C  
HETATM   53  C   UNL     1      -9.718   7.129  72.448  1.00  0.00    -0.149 C  
HETATM   54  O   UNL     1      -8.679   7.684  73.266  1.00  0.00    -0.151 OA 
HETATM   55  C   UNL     1     -10.044   8.199  71.391  1.00  0.00    -0.198 C  
HETATM   56  O   UNL     1      -9.810   3.634  72.647  1.00  0.00    -0.137 OA 
HETATM   57  O   UNL     1      -8.066   4.753  73.548  1.00  0.00    -0.104 OA 
HETATM   58  O   UNL     1     -10.685   9.321  72.017  1.00  0.00    -0.295 OA 
HETATM   59  C   UNL     1     -10.880   7.740  70.179  1.00  0.00    -0.244 C  
HETATM   60  H   UNL     1      -8.910   8.500  73.693  1.00  0.00     0.000 HD 
HETATM   61  H   UNL     1     -10.886   9.981  71.364  1.00  0.00     0.000 HD 
HETATM   62  O   UNL     1     -10.477   8.536  69.025  1.00  0.00    -0.219 OA 
HETATM   63  H   UNL     1     -10.654   9.442  69.250  1.00  0.00     0.000 HD 
ENDBRANCH  48  49
ENDBRANCH  46  48
ENDBRANCH  34  35
ENDBRANCH  25  34
TORSDOF 4
ENDMDL
MODEL       22
REMARK 921   NORMALIZED FREE ENERGY PREDICTED BY IDOCK:   -0.67 KCAL/MOL
REMARK 922        TOTAL FREE ENERGY PREDICTED BY IDOCK:   -1.72 KCAL/MOL
REMARK 923 INTER-LIGAND FREE ENERGY PREDICTED BY IDOCK:   -4.44 KCAL/MOL
REMARK 924 INTRA-LIGAND FREE ENERGY PREDICTED BY IDOCK:    2.71 KCAL/MOL
REMARK 927      BINDING AFFINITY PREDICTED BY RF-SCORE:    0.00 PKD
ROOT
HETATM    1  C   UNL     1      -9.058   3.690  68.695  1.00  0.00    -0.199 C  
HETATM    2  C   UNL     1      -9.517   4.046  67.208  1.00  0.00    -0.229 C  
HETATM    3  C   UNL     1      -9.015   3.188  66.021  1.00  0.00    -0.146 C  
HETATM    4  C   UNL     1      -7.531   2.832  66.243  1.00  0.00    -0.075 C  
HETATM    5  C   UNL     1      -9.917   1.960  65.790  1.00  0.00     0.939 C  
HETATM    6  C   UNL     1      -9.108   3.920  64.660  1.00  0.00    -0.137 C  
HETATM    7  O   UNL     1      -8.190   4.009  63.846  1.00  0.00    -0.089 OA 
HETATM    8  O   UNL     1     -10.314   4.423  64.363  1.00  0.00    -0.070 OA 
HETATM    9  C   UNL     1      -7.068   2.554  67.698  1.00  0.00    -0.048 C  
HETATM   10  C   UNL     1      -7.525   3.614  68.760  1.00  0.00    -0.053 C  
HETATM   11  C   UNL     1      -6.770   4.916  68.421  1.00  0.00    -0.050 C  
HETATM   12  C   UNL     1      -7.201   3.291  70.254  1.00  0.00    -0.041 C  
HETATM   13  C   UNL     1      -7.482   4.519  71.261  1.00  0.00    -0.067 C  
HETATM   14  C   UNL     1      -8.950   5.119  71.222  1.00  0.00    -0.161 C  
HETATM   15  C   UNL     1      -9.616   4.647  69.790  1.00  0.00    -0.258 C  
HETATM   16  C   UNL     1      -9.735   4.180  72.210  1.00  0.00    -0.214 C  
HETATM   17  C   UNL     1     -10.633   5.382  69.378  1.00  0.00    -0.295 C  
HETATM   18  C   UNL     1      -9.973   6.669  69.611  1.00  0.00    -0.175 C  
HETATM   19  C   UNL     1     -10.530   7.387  70.750  1.00  0.00    -0.221 C  
HETATM   20  O   UNL     1      -8.929   6.996  69.048  1.00  0.00    -0.134 OA 
HETATM   21  C   UNL     1     -10.915   8.799  70.090  1.00  0.00    -0.236 C  
HETATM   22  C   UNL     1     -12.106   9.357  70.902  1.00  0.00    -0.327 C  
HETATM   23  C   UNL     1     -11.445   8.544  68.624  1.00  0.00     0.977 C  
HETATM   24  C   UNL     1     -11.520   9.639  67.575  1.00  0.00     0.846 C  
HETATM   25  C   UNL     1     -10.322  10.616  67.564  1.00  0.00    -0.214 C  
HETATM   26  C   UNL     1     -10.083  11.124  69.068  1.00  0.00    -0.173 C  
HETATM   27  C   UNL     1      -8.350   8.186  71.694  1.00  0.00    -0.165 C  
HETATM   28  C   UNL     1      -9.721   9.788  69.991  1.00  0.00    -0.292 C  
HETATM   29  C   UNL     1     -11.405  11.915  69.426  1.00  0.00    -0.327 C  
HETATM   30  C   UNL     1      -9.039  12.256  69.038  1.00  0.00     0.421 C  
HETATM   31  C   UNL     1      -9.913   6.926  73.184  1.00  0.00    -0.227 C  
HETATM   32  C   UNL     1      -9.365   6.914  71.718  1.00  0.00    -0.147 C  
HETATM   33  C   UNL     1      -8.979   9.702  71.367  1.00  0.00     0.791 C  
ENDROOT
BRANCH  25  34
HETATM   34  O   UNL     1      -9.187  10.335  66.651  1.00  0.00    -0.152 OA 
BRANCH  34  35
HETATM   35  C   UNL     1      -8.705  11.325  65.687  1.00  0.00    -0.076 C  
HETATM   36  C   UNL     1     -10.396  13.733  65.781  1.00  0.00    -0.307 C  
HETATM   37  O   UNL     1      -9.761  11.686  64.825  1.00  0.00    -0.238 OA 
HETATM   38  C   UNL     1     -12.167  12.300  64.640  1.00  0.00    -0.377 C  
HETATM   39  C   UNL     1     -10.839  12.332  65.460  1.00  0.00    -0.282 C  
HETATM   40  O   UNL     1     -11.433  14.393  66.524  1.00  0.00    -0.341 OA 
HETATM   41  C   UNL     1      -9.105  13.724  66.595  1.00  0.00    -0.179 C  
HETATM   42  O   UNL     1     -12.354  11.858  63.522  1.00  0.00    -0.540 OA 
HETATM   43  O   UNL     1     -13.237  12.771  65.322  1.00  0.00    -0.574 OA 
HETATM   44  O   UNL     1      -8.547  15.055  66.439  1.00  0.00    -0.438 OA 
HETATM   45  H   UNL     1     -11.153  15.278  66.726  1.00  0.00     0.000 HD 
HETATM   46  C   UNL     1      -8.042  12.663  66.214  1.00  0.00     0.726 C  
HETATM   47  H   UNL     1      -7.743  15.050  66.946  1.00  0.00     0.000 HD 
BRANCH  46  48
HETATM   48  O   UNL     1      -7.048  12.485  67.259  1.00  0.00    -0.148 OA 
BRANCH  48  49
HETATM   49  C   UNL     1      -6.337  11.231  67.158  1.00  0.00    -0.096 C  
HETATM   50  O   UNL     1      -6.683  10.520  65.964  1.00  0.00    -0.115 OA 
HETATM   51  C   UNL     1      -5.766   9.421  65.764  1.00  0.00    -0.053 C  
HETATM   52  C   UNL     1      -5.895   8.890  64.335  1.00  0.00    -0.065 C  
HETATM   53  C   UNL     1      -6.085   8.358  66.813  1.00  0.00    -0.054 C  
HETATM   54  O   UNL     1      -5.231   7.206  66.768  1.00  0.00    -0.020 OA 
HETATM   55  C   UNL     1      -5.924   8.951  68.223  1.00  0.00    -0.042 C  
HETATM   56  O   UNL     1      -6.814   9.568  63.609  1.00  0.00    -0.097 OA 
HETATM   57  O   UNL     1      -5.221   7.986  63.863  1.00  0.00    -0.040 OA 
HETATM   58  O   UNL     1      -6.514   8.071  69.192  1.00  0.00    -0.035 OA 
HETATM   59  C   UNL     1      -6.462  10.382  68.437  1.00  0.00    -0.055 C  
HETATM   60  H   UNL     1      -5.430   6.546  67.421  1.00  0.00     0.000 HD 
HETATM   61  H   UNL     1      -6.415   8.437  70.062  1.00  0.00     0.000 HD 
HETATM   62  O   UNL     1      -5.630  11.031  69.444  1.00  0.00    -0.041 OA 
HETATM   63  H   UNL     1      -5.707  10.507  70.233  1.00  0.00     0.000 HD 
ENDBRANCH  48  49
ENDBRANCH  46  48
ENDBRANCH  34  35
ENDBRANCH  25  34
TORSDOF 4
ENDMDL
MODEL       23
REMARK 921   NORMALIZED FREE ENERGY PREDICTED BY IDOCK:    0.00 KCAL/MOL
REMARK 922        TOTAL FREE ENERGY PREDICTED BY IDOCK:   -0.90 KCAL/MOL
REMARK 923 INTER-LIGAND FREE ENERGY PREDICTED BY IDOCK:    0.27 KCAL/MOL
REMARK 924 INTRA-LIGAND FREE ENERGY PREDICTED BY IDOCK:   -1.17 KCAL/MOL
REMARK 927      BINDING AFFINITY PREDICTED BY RF-SCORE:    0.00 PKD
ROOT
HETATM    1  C   UNL     1      -9.144  11.144  67.060  1.00  0.00    -0.158 C  
HETATM    2  C   UNL     1      -7.758  10.379  66.847  1.00  0.00    -0.111 C  
HETATM    3  C   UNL     1      -7.159  10.254  65.425  1.00  0.00    -0.139 C  
HETATM    4  C   UNL     1      -8.291   9.968  64.419  1.00  0.00    -0.169 C  
HETATM    5  C   UNL     1      -6.304  11.483  65.062  1.00  0.00     1.792 C  
HETATM    6  C   UNL     1      -6.135   9.098  65.297  1.00  0.00    -0.063 C  
HETATM    7  O   UNL     1      -6.152   8.240  64.417  1.00  0.00    -0.063 OA 
HETATM    8  O   UNL     1      -5.142   9.112  66.197  1.00  0.00    -0.035 OA 
HETATM    9  C   UNL     1      -9.661  10.657  64.664  1.00  0.00    -0.334 C  
HETATM   10  C   UNL     1     -10.211  10.550  66.128  1.00  0.00    -0.299 C  
HETATM   11  C   UNL     1     -10.550   9.061  66.353  1.00  0.00     0.043 C  
HETATM   12  C   UNL     1     -11.514  11.353  66.446  1.00  0.00    -0.058 C  
HETATM   13  C   UNL     1     -12.152  11.012  67.888  1.00  0.00     0.356 C  
HETATM   14  C   UNL     1     -11.181  11.190  69.129  1.00  0.00    -0.328 C  
HETATM   15  C   UNL     1      -9.645  11.175  68.534  1.00  0.00    -0.193 C  
HETATM   16  C   UNL     1     -11.328  12.719  69.468  1.00  0.00    -0.223 C  
HETATM   17  C   UNL     1      -8.707  10.874  69.415  1.00  0.00     0.107 C  
HETATM   18  C   UNL     1      -9.405   9.707  69.961  1.00  0.00    -0.241 C  
HETATM   19  C   UNL     1      -9.924   9.942  71.303  1.00  0.00     0.621 C  
HETATM   20  O   UNL     1      -9.707   8.729  69.278  1.00  0.00    -0.167 OA 
HETATM   21  C   UNL     1      -9.270   8.727  72.123  1.00  0.00    -0.248 C  
HETATM   22  C   UNL     1      -9.112   9.212  73.582  1.00  0.00     2.468 C  
HETATM   23  C   UNL     1      -7.813   8.470  71.570  1.00  0.00    -0.158 C  
HETATM   24  C   UNL     1      -7.057   7.176  71.815  1.00  0.00    -0.068 C  
HETATM   25  C   UNL     1      -7.913   5.893  71.724  1.00  0.00    -0.111 C  
HETATM   26  C   UNL     1      -9.221   6.104  72.631  1.00  0.00    -0.140 C  
HETATM   27  C   UNL     1     -12.132   8.805  70.972  1.00  0.00    -0.262 C  
HETATM   28  C   UNL     1     -10.060   7.395  72.000  1.00  0.00    -0.212 C  
HETATM   29  C   UNL     1      -8.655   6.257  74.100  1.00  0.00    -0.126 C  
HETATM   30  C   UNL     1      -9.970   4.761  72.723  1.00  0.00    -0.207 C  
HETATM   31  C   UNL     1     -12.110  11.160  71.808  1.00  0.00     0.460 C  
HETATM   32  C   UNL     1     -11.390  10.238  70.769  1.00  0.00    -0.421 C  
HETATM   33  C   UNL     1     -11.570   7.775  72.164  1.00  0.00    -0.367 C  
ENDROOT
BRANCH  25  34
HETATM   34  O   UNL     1      -7.977   5.174  70.428  1.00  0.00    -0.082 OA 
BRANCH  34  35
HETATM   35  C   UNL     1      -7.240   3.931  70.194  1.00  0.00    -0.042 C  
HETATM   36  C   UNL     1      -9.109   1.764  69.502  1.00  0.00    -0.098 C  
HETATM   37  O   UNL     1      -7.756   2.921  71.032  1.00  0.00    -0.039 OA 
HETATM   38  C   UNL     1      -9.799   1.837  71.954  1.00  0.00    -0.138 C  
HETATM   39  C   UNL     1      -9.095   2.572  70.770  1.00  0.00    -0.117 C  
HETATM   40  O   UNL     1     -10.470   1.476  69.145  1.00  0.00     0.816 OA 
HETATM   41  C   UNL     1      -8.426   2.519  68.366  1.00  0.00    -0.069 C  
HETATM   42  O   UNL     1      -9.321   1.479  73.013  1.00  0.00    -0.065 OA 
HETATM   43  O   UNL     1     -11.128   1.654  71.765  1.00  0.00     0.561 OA 
HETATM   44  O   UNL     1      -8.090   1.506  67.382  1.00  0.00    -0.063 OA 
HETATM   45  H   UNL     1     -10.478   0.965  68.344  1.00  0.00     0.000 HD 
HETATM   46  C   UNL     1      -7.162   3.339  68.727  1.00  0.00    -0.049 C  
HETATM   47  H   UNL     1      -7.665   1.976  66.674  1.00  0.00     0.000 HD 
BRANCH  46  48
HETATM   48  O   UNL     1      -6.821   4.302  67.694  1.00  0.00    -0.050 OA 
BRANCH  48  49
HETATM   49  C   UNL     1      -7.816   4.392  66.650  1.00  0.00    -0.098 C  
HETATM   50  O   UNL     1      -7.513   3.521  65.555  1.00  0.00    -0.074 OA 
HETATM   51  C   UNL     1      -8.651   3.434  64.668  1.00  0.00    -0.101 C  
HETATM   52  C   UNL     1      -8.478   2.251  63.713  1.00  0.00    -0.085 C  
HETATM   53  C   UNL     1      -8.763   4.767  63.931  1.00  0.00    -0.132 C  
HETATM   54  O   UNL     1      -9.874   4.854  63.028  1.00  0.00    -0.346 OA 
HETATM   55  C   UNL     1      -8.948   5.910  64.943  1.00  0.00     0.218 C  
HETATM   56  O   UNL     1      -7.326   1.574  63.928  1.00  0.00    -0.048 OA 
HETATM   57  O   UNL     1      -9.296   1.907  62.874  1.00  0.00    -0.090 OA 
HETATM   58  O   UNL     1      -8.742   7.174  64.294  1.00  0.00    -0.273 OA 
HETATM   59  C   UNL     1      -8.087   5.846  66.222  1.00  0.00    -0.104 C  
HETATM   60  H   UNL     1      -9.944   5.683  62.570  1.00  0.00     0.000 HD 
HETATM   61  H   UNL     1      -8.856   7.880  64.919  1.00  0.00     0.000 HD 
HETATM   62  O   UNL     1      -8.846   6.458  67.308  1.00  0.00    -0.110 OA 
HETATM   63  H   UNL     1      -9.014   7.355  67.044  1.00  0.00     0.000 HD 
ENDBRANCH  48  49
ENDBRANCH  46  48
ENDBRANCH  34  35
ENDBRANCH  25  34
TORSDOF 4
ENDMDL
MODEL       24
REMARK 921   NORMALIZED FREE ENERGY PREDICTED BY IDOCK:    0.13 KCAL/MOL
REMARK 922        TOTAL FREE ENERGY PREDICTED BY IDOCK:   -0.74 KCAL/MOL
REMARK 923 INTER-LIGAND FREE ENERGY PREDICTED BY IDOCK:   -1.19 KCAL/MOL
REMARK 924 INTRA-LIGAND FREE ENERGY PREDICTED BY IDOCK:    0.45 KCAL/MOL
REMARK 927      BINDING AFFINITY PREDICTED BY RF-SCORE:    0.00 PKD
ROOT
HETATM    1  C   UNL     1      -8.492   5.298  68.511  1.00  0.00    -0.092 C  
HETATM    2  C   UNL     1      -8.557   5.840  67.010  1.00  0.00    -0.110 C  
HETATM    3  C   UNL     1      -7.531   5.336  65.965  1.00  0.00    -0.082 C  
HETATM    4  C   UNL     1      -6.142   5.231  66.625  1.00  0.00    -0.030 C  
HETATM    5  C   UNL     1      -8.000   4.029  65.298  1.00  0.00    -0.097 C  
HETATM    6  C   UNL     1      -7.386   6.286  64.750  1.00  0.00    -0.075 C  
HETATM    7  O   UNL     1      -6.317   6.702  64.307  1.00  0.00    -0.036 OA 
HETATM    8  O   UNL     1      -8.532   6.601  64.130  1.00  0.00     0.076 OA 
HETATM    9  C   UNL     1      -6.083   4.770  68.107  1.00  0.00    -0.031 C  
HETATM   10  C   UNL     1      -7.078   5.501  69.074  1.00  0.00    -0.068 C  
HETATM   11  C   UNL     1      -6.592   6.963  69.168  1.00  0.00    -0.048 C  
HETATM   12  C   UNL     1      -7.148   4.963  70.540  1.00  0.00    -0.052 C  
HETATM   13  C   UNL     1      -8.004   5.900  71.536  1.00  0.00    -0.113 C  
HETATM   14  C   UNL     1      -9.492   6.208  71.081  1.00  0.00    -0.182 C  
HETATM   15  C   UNL     1      -9.565   5.904  69.463  1.00  0.00    -0.174 C  
HETATM   16  C   UNL     1     -10.286   4.966  71.628  1.00  0.00    -0.241 C  
HETATM   17  C   UNL     1     -10.558   6.499  68.826  1.00  0.00    -0.282 C  
HETATM   18  C   UNL     1     -10.327   7.819  69.421  1.00  0.00    -0.219 C  
HETATM   19  C   UNL     1     -11.355   8.185  70.387  1.00  0.00    -0.181 C  
HETATM   20  O   UNL     1      -9.273   8.438  69.284  1.00  0.00    -0.153 OA 
HETATM   21  C   UNL     1     -11.853   9.600  69.812  1.00  0.00     0.141 C  
HETATM   22  C   UNL     1     -13.330   9.757  70.240  1.00  0.00     0.446 C  
HETATM   23  C   UNL     1     -11.842   9.536  68.234  1.00  0.00     1.527 C  
HETATM   24  C   UNL     1     -11.861  10.779  67.361  1.00  0.00     0.621 C  
HETATM   25  C   UNL     1     -10.986  11.947  67.870  1.00  0.00    -0.222 C  
HETATM   26  C   UNL     1     -11.338  12.192  69.417  1.00  0.00    -0.311 C  
HETATM   27  C   UNL     1      -9.817   9.185  72.094  1.00  0.00     0.157 C  
HETATM   28  C   UNL     1     -10.959  10.796  70.239  1.00  0.00    -0.160 C  
HETATM   29  C   UNL     1     -12.856  12.636  69.406  1.00  0.00     1.048 C  
HETATM   30  C   UNL     1     -10.637  13.485  69.875  1.00  0.00     0.736 C  
HETATM   31  C   UNL     1     -11.402   7.390  72.812  1.00  0.00    -0.356 C  
HETATM   32  C   UNL     1     -10.455   7.763  71.624  1.00  0.00    -0.241 C  
HETATM   33  C   UNL     1     -10.664  10.588  71.763  1.00  0.00     2.934 C  
ENDROOT
BRANCH  25  34
HETATM   34  O   UNL     1      -9.597  12.066  67.362  1.00  0.00    -0.173 OA 
BRANCH  34  35
HETATM   35  C   UNL     1      -9.243  12.990  66.284  1.00  0.00    -0.065 C  
HETATM   36  C   UNL     1     -11.681  13.988  64.968  1.00  0.00    -0.364 C  
HETATM   37  O   UNL     1      -9.831  12.547  65.081  1.00  0.00    -0.219 OA 
HETATM   38  C   UNL     1     -11.876  11.646  63.983  1.00  0.00    -0.212 C  
HETATM   39  C   UNL     1     -11.239  12.555  65.082  1.00  0.00    -0.304 C  
HETATM   40  O   UNL     1     -13.112  14.046  65.069  1.00  0.00    -0.742 OA 
HETATM   41  C   UNL     1     -11.051  14.841  66.064  1.00  0.00    -0.330 C  
HETATM   42  O   UNL     1     -11.316  11.009  63.111  1.00  0.00     0.160 OA 
HETATM   43  O   UNL     1     -13.220  11.523  64.093  1.00  0.00    -0.111 OA 
HETATM   44  O   UNL     1     -11.157  16.210  65.591  1.00  0.00    -0.173 OA 
HETATM   45  H   UNL     1     -13.390  14.952  64.997  1.00  0.00     0.000 HD 
HETATM   46  C   UNL     1      -9.580  14.530  66.439  1.00  0.00    -0.303 C  
HETATM   47  H   UNL     1     -10.765  16.742  66.274  1.00  0.00     0.000 HD 
BRANCH  46  48
HETATM   48  O   UNL     1      -9.205  15.113  67.716  1.00  0.00    -0.179 OA 
BRANCH  48  49
HETATM   49  C   UNL     1      -9.046  16.549  67.659  1.00  0.00    -0.199 C  
HETATM   50  O   UNL     1      -7.677  16.936  67.822  1.00  0.00    -0.168 OA 
HETATM   51  C   UNL     1      -7.520  18.334  67.492  1.00  0.00    -0.214 C  
HETATM   52  C   UNL     1      -6.037  18.663  67.312  1.00  0.00    -0.169 C  
HETATM   53  C   UNL     1      -8.166  19.147  68.613  1.00  0.00    -0.369 C  
HETATM   54  O   UNL     1      -8.122  20.567  68.415  1.00  0.00     0.095 OA 
HETATM   55  C   UNL     1      -9.654  18.780  68.733  1.00  0.00    -0.364 C  
HETATM   56  O   UNL     1      -5.239  17.584  67.492  1.00  0.00    -0.113 OA 
HETATM   57  O   UNL     1      -5.598  19.758  66.994  1.00  0.00    -0.174 OA 
HETATM   58  O   UNL     1     -10.185  19.296  69.963  1.00  0.00    -0.203 OA 
HETATM   59  C   UNL     1     -10.009  17.283  68.610  1.00  0.00    -0.327 C  
HETATM   60  H   UNL     1      -8.524  21.072  69.112  1.00  0.00     0.000 HD 
HETATM   61  H   UNL     1     -11.105  19.069  70.037  1.00  0.00     0.000 HD 
HETATM   62  O   UNL     1     -11.335  17.181  68.010  1.00  0.00    -0.103 OA 
HETATM   63  H   UNL     1     -11.930  17.635  68.596  1.00  0.00     0.000 HD 
ENDBRANCH  48  49
ENDBRANCH  46  48
ENDBRANCH  34  35
ENDBRANCH  25  34
TORSDOF 4
ENDMDL
MODEL       25
REMARK 921   NORMALIZED FREE ENERGY PREDICTED BY IDOCK:    0.22 KCAL/MOL
REMARK 922        TOTAL FREE ENERGY PREDICTED BY IDOCK:   -0.62 KCAL/MOL
REMARK 923 INTER-LIGAND FREE ENERGY PREDICTED BY IDOCK:   -0.10 KCAL/MOL
REMARK 924 INTRA-LIGAND FREE ENERGY PREDICTED BY IDOCK:   -0.52 KCAL/MOL
REMARK 927      BINDING AFFINITY PREDICTED BY RF-SCORE:    0.00 PKD
ROOT
HETATM    1  C   UNL     1     -10.121  12.318  69.024  1.00  0.00     0.117 C  
HETATM    2  C   UNL     1      -8.529  12.245  68.943  1.00  0.00     0.234 C  
HETATM    3  C   UNL     1      -7.774  13.068  67.870  1.00  0.00    -0.145 C  
HETATM    4  C   UNL     1      -8.558  13.014  66.543  1.00  0.00     0.131 C  
HETATM    5  C   UNL     1      -7.482  14.500  68.358  1.00  0.00    -0.116 C  
HETATM    6  C   UNL     1      -6.352  12.528  67.579  1.00  0.00    -0.154 C  
HETATM    7  O   UNL     1      -5.905  12.295  66.458  1.00  0.00    -0.152 OA 
HETATM    8  O   UNL     1      -5.566  12.377  68.655  1.00  0.00    -0.053 OA 
HETATM    9  C   UNL     1     -10.108  13.015  66.624  1.00  0.00    -0.251 C  
HETATM   10  C   UNL     1     -10.725  12.000  67.648  1.00  0.00    -0.252 C  
HETATM   11  C   UNL     1     -10.428  10.592  67.090  1.00  0.00    -0.302 C  
HETATM   12  C   UNL     1     -12.272  12.074  67.861  1.00  0.00     0.280 C  
HETATM   13  C   UNL     1     -12.867  10.858  68.737  1.00  0.00     1.737 C  
HETATM   14  C   UNL     1     -12.210  10.655  70.167  1.00  0.00    -0.398 C  
HETATM   15  C   UNL     1     -10.753  11.424  70.131  1.00  0.00     0.578 C  
HETATM   16  C   UNL     1     -13.025  11.653  71.068  1.00  0.00    -0.227 C  
HETATM   17  C   UNL     1      -9.884  11.016  71.038  1.00  0.00     4.320 C  
HETATM   18  C   UNL     1     -10.082   9.587  70.781  1.00  0.00    -0.282 C  
HETATM   19  C   UNL     1     -10.801   8.918  71.859  1.00  0.00    -0.433 C  
HETATM   20  O   UNL     1      -9.864   9.068  69.687  1.00  0.00    -0.169 OA 
HETATM   21  C   UNL     1      -9.794   7.725  72.231  1.00  0.00    -0.248 C  
HETATM   22  C   UNL     1     -10.023   7.403  73.725  1.00  0.00    -0.333 C  
HETATM   23  C   UNL     1      -8.312   8.255  72.103  1.00  0.00    -0.232 C  
HETATM   24  C   UNL     1      -7.114   7.328  71.985  1.00  0.00    -0.067 C  
HETATM   25  C   UNL     1      -7.334   6.089  71.089  1.00  0.00    -0.084 C  
HETATM   26  C   UNL     1      -8.703   5.384  71.544  1.00  0.00    -0.139 C  
HETATM   27  C   UNL     1     -12.271   7.503  70.403  1.00  0.00     0.145 C  
HETATM   28  C   UNL     1      -9.929   6.483  71.307  1.00  0.00    -0.200 C  
HETATM   29  C   UNL     1      -8.425   4.918  73.029  1.00  0.00    -0.107 C  
HETATM   30  C   UNL     1      -8.821   4.035  70.810  1.00  0.00    -0.134 C  
HETATM   31  C   UNL     1     -13.339   8.955  72.136  1.00  0.00    -0.489 C  
HETATM   32  C   UNL     1     -12.184   8.980  71.081  1.00  0.00    -0.331 C  
HETATM   33  C   UNL     1     -11.467   6.237  71.142  1.00  0.00    -0.362 C  
ENDROOT
BRANCH  25  34
HETATM   34  O   UNL     1      -6.940   6.169  69.661  1.00  0.00    -0.065 OA 
BRANCH  34  35
HETATM   35  C   UNL     1      -5.714   5.546  69.159  1.00  0.00    -0.012 C  
HETATM   36  C   UNL     1      -6.371   3.505  67.142  1.00  0.00    -0.036 C  
HETATM   37  O   UNL     1      -5.801   4.149  69.326  1.00  0.00    -0.020 OA 
HETATM   38  C   UNL     1      -7.228   2.120  69.102  1.00  0.00    -0.043 C  
HETATM   39  C   UNL     1      -6.823   3.534  68.576  1.00  0.00    -0.046 C  
HETATM   40  O   UNL     1      -7.430   2.977  66.328  1.00  0.00    -0.073 OA 
HETATM   41  C   UNL     1      -5.998   4.903  66.659  1.00  0.00    -0.027 C  
HETATM   42  O   UNL     1      -6.732   1.481  70.010  1.00  0.00    -0.028 OA 
HETATM   43  O   UNL     1      -8.319   1.605  68.486  1.00  0.00    -0.055 OA 
HETATM   44  O   UNL     1      -5.167   4.693  65.487  1.00  0.00    -0.008 OA 
HETATM   45  H   UNL     1      -7.145   2.959  65.422  1.00  0.00     0.000 HD 
HETATM   46  C   UNL     1      -5.259   5.820  67.667  1.00  0.00    -0.004 C  
HETATM   47  H   UNL     1      -4.934   5.564  65.186  1.00  0.00     0.000 HD 
BRANCH  46  48
HETATM   48  O   UNL     1      -5.291   7.215  67.262  1.00  0.00    -0.016 OA 
BRANCH  48  49
HETATM   49  C   UNL     1      -6.385   7.522  66.369  1.00  0.00    -0.045 C  
HETATM   50  O   UNL     1      -6.248   6.847  65.113  1.00  0.00    -0.035 OA 
HETATM   51  C   UNL     1      -7.476   6.958  64.359  1.00  0.00    -0.100 C  
HETATM   52  C   UNL     1      -7.469   5.957  63.203  1.00  0.00    -0.068 C  
HETATM   53  C   UNL     1      -7.592   8.404  63.879  1.00  0.00    -0.135 C  
HETATM   54  O   UNL     1      -8.786   8.687  63.137  1.00  0.00    -0.432 OA 
HETATM   55  C   UNL     1      -7.606   9.356  65.086  1.00  0.00    -0.108 C  
HETATM   56  O   UNL     1      -6.340   5.211  63.167  1.00  0.00    -0.024 OA 
HETATM   57  O   UNL     1      -8.390   5.794  62.416  1.00  0.00    -0.103 OA 
HETATM   58  O   UNL     1      -7.401  10.707  64.643  1.00  0.00    -0.347 OA 
HETATM   59  C   UNL     1      -6.620   9.038  66.229  1.00  0.00    -0.066 C  
HETATM   60  H   UNL     1      -8.858   9.586  62.838  1.00  0.00     0.000 HD 
HETATM   61  H   UNL     1      -7.409  11.295  65.389  1.00  0.00     0.000 HD 
HETATM   62  O   UNL     1      -7.224   9.476  67.482  1.00  0.00    -0.088 OA 
HETATM   63  H   UNL     1      -7.370  10.411  67.396  1.00  0.00     0.000 HD 
ENDBRANCH  48  49
ENDBRANCH  46  48
ENDBRANCH  34  35
ENDBRANCH  25  34
TORSDOF 4
ENDMDL
MODEL       26
REMARK 921   NORMALIZED FREE ENERGY PREDICTED BY IDOCK:    0.93 KCAL/MOL
REMARK 922        TOTAL FREE ENERGY PREDICTED BY IDOCK:    0.24 KCAL/MOL
REMARK 923 INTER-LIGAND FREE ENERGY PREDICTED BY IDOCK:   -0.07 KCAL/MOL
REMARK 924 INTRA-LIGAND FREE ENERGY PREDICTED BY IDOCK:    0.31 KCAL/MOL
REMARK 927      BINDING AFFINITY PREDICTED BY RF-SCORE:    0.00 PKD
ROOT
HETATM    1  C   UNL     1      -8.992  11.116  65.886  1.00  0.00    -0.210 C  
HETATM    2  C   UNL     1      -7.648  10.362  65.470  1.00  0.00    -0.144 C  
HETATM    3  C   UNL     1      -7.296  10.184  63.973  1.00  0.00    -0.110 C  
HETATM    4  C   UNL     1      -8.577   9.841  63.186  1.00  0.00    -0.198 C  
HETATM    5  C   UNL     1      -6.541  11.409  63.421  1.00  0.00     1.613 C  
HETATM    6  C   UNL     1      -6.286   9.038  63.718  1.00  0.00    -0.087 C  
HETATM    7  O   UNL     1      -6.434   8.143  62.888  1.00  0.00    -0.084 OA 
HETATM    8  O   UNL     1      -5.154   9.103  64.434  1.00  0.00    -0.048 OA 
HETATM    9  C   UNL     1      -9.899  10.521  63.634  1.00  0.00    -0.354 C  
HETATM   10  C   UNL     1     -10.190  10.469  65.174  1.00  0.00    -0.358 C  
HETATM   11  C   UNL     1     -10.455   8.986  65.512  1.00  0.00     1.398 C  
HETATM   12  C   UNL     1     -11.436  11.267  65.678  1.00  0.00     0.156 C  
HETATM   13  C   UNL     1     -11.813  10.980  67.220  1.00  0.00     0.403 C  
HETATM   14  C   UNL     1     -10.649  11.223  68.269  1.00  0.00    -0.228 C  
HETATM   15  C   UNL     1      -9.235  11.203  67.421  1.00  0.00    -0.157 C  
HETATM   16  C   UNL     1     -10.766  12.763  68.567  1.00  0.00    -0.275 C  
HETATM   17  C   UNL     1      -8.156  10.953  68.140  1.00  0.00    -0.119 C  
HETATM   18  C   UNL     1      -8.727   9.801  68.844  1.00  0.00    -0.136 C  
HETATM   19  C   UNL     1      -9.015  10.086  70.244  1.00  0.00     0.051 C  
HETATM   20  O   UNL     1      -9.121   8.791  68.262  1.00  0.00    -0.140 OA 
HETATM   21  C   UNL     1      -8.206   8.915  70.988  1.00  0.00    -0.217 C  
HETATM   22  C   UNL     1      -7.812   9.464  72.378  1.00  0.00     1.278 C  
HETATM   23  C   UNL     1      -6.859   8.655  70.205  1.00  0.00    -0.040 C  
HETATM   24  C   UNL     1      -6.046   7.382  70.368  1.00  0.00    -0.031 C  
HETATM   25  C   UNL     1      -6.879   6.085  70.476  1.00  0.00    -0.054 C  
HETATM   26  C   UNL     1      -8.018   6.317  71.584  1.00  0.00    -0.102 C  
HETATM   27  C   UNL     1     -11.223   8.906  70.340  1.00  0.00    -0.259 C  
HETATM   28  C   UNL     1      -8.978   7.569  71.055  1.00  0.00    -0.147 C  
HETATM   29  C   UNL     1      -7.213   6.540  72.927  1.00  0.00    -0.082 C  
HETATM   30  C   UNL     1      -8.713   4.970  71.855  1.00  0.00    -0.136 C  
HETATM   31  C   UNL     1     -11.108  11.295  71.066  1.00  0.00     1.564 C  
HETATM   32  C   UNL     1     -10.555  10.339  69.957  1.00  0.00    -0.321 C  
HETATM   33  C   UNL     1     -10.445   7.935  71.458  1.00  0.00    -0.251 C  
ENDROOT
BRANCH  25  34
HETATM   34  O   UNL     1      -7.148   5.311  69.239  1.00  0.00    -0.054 OA 
BRANCH  34  35
HETATM   35  C   UNL     1      -6.432   4.072  68.929  1.00  0.00    -0.040 C  
HETATM   36  C   UNL     1      -8.329   1.829  68.744  1.00  0.00    -0.052 C  
HETATM   37  O   UNL     1      -6.737   3.103  69.907  1.00  0.00    -0.033 OA 
HETATM   38  C   UNL     1      -8.520   2.032  71.277  1.00  0.00    -0.057 C  
HETATM   39  C   UNL     1      -8.090   2.711  69.938  1.00  0.00    -0.041 C  
HETATM   40  O   UNL     1      -9.724   1.492  68.683  1.00  0.00    -0.160 OA 
HETATM   41  C   UNL     1      -7.911   2.530  67.455  1.00  0.00    -0.069 C  
HETATM   42  O   UNL     1      -7.829   1.748  72.236  1.00  0.00    -0.043 OA 
HETATM   43  O   UNL     1      -9.853   1.811  71.368  1.00  0.00    -0.141 OA 
HETATM   44  O   UNL     1      -7.745   1.468  66.479  1.00  0.00    -0.063 OA 
HETATM   45  H   UNL     1      -9.875   0.935  67.928  1.00  0.00     0.000 HD 
HETATM   46  C   UNL     1      -6.628   3.396  67.511  1.00  0.00    -0.038 C  
HETATM   47  H   UNL     1      -7.484   1.904  65.676  1.00  0.00     0.000 HD 
BRANCH  46  48
HETATM   48  O   UNL     1      -6.530   4.303  66.380  1.00  0.00    -0.036 OA 
BRANCH  48  49
HETATM   49  C   UNL     1      -7.818   4.679  65.841  1.00  0.00    -0.095 C  
HETATM   50  O   UNL     1      -8.785   4.889  66.876  1.00  0.00    -0.109 OA 
HETATM   51  C   UNL     1      -9.964   5.517  66.326  1.00  0.00    -0.140 C  
HETATM   52  C   UNL     1     -10.836   6.067  67.456  1.00  0.00    -0.302 C  
HETATM   53  C   UNL     1     -10.692   4.472  65.483  1.00  0.00    -0.130 C  
HETATM   54  O   UNL     1     -11.878   4.955  64.835  1.00  0.00    -0.569 OA 
HETATM   55  C   UNL     1      -9.769   3.971  64.360  1.00  0.00    -0.174 C  
HETATM   56  O   UNL     1     -10.301   5.847  68.680  1.00  0.00    -0.174 OA 
HETATM   57  O   UNL     1     -11.879   6.684  67.296  1.00  0.00     0.596 OA 
HETATM   58  O   UNL     1     -10.322   2.785  63.768  1.00  0.00    -0.171 OA 
HETATM   59  C   UNL     1      -8.295   3.714  64.740  1.00  0.00    -0.096 C  
HETATM   60  H   UNL     1     -12.330   4.305  64.311  1.00  0.00     0.000 HD 
HETATM   61  H   UNL     1      -9.751   2.475  63.074  1.00  0.00     0.000 HD 
HETATM   62  O   UNL     1      -7.472   3.989  63.567  1.00  0.00    -0.050 OA 
HETATM   63  H   UNL     1      -7.767   3.394  62.888  1.00  0.00     0.000 HD 
ENDBRANCH  48  49
ENDBRANCH  46  48
ENDBRANCH  34  35
ENDBRANCH  25  34
TORSDOF 4
ENDMDL
MODEL       27
REMARK 921   NORMALIZED FREE ENERGY PREDICTED BY IDOCK:    1.52 KCAL/MOL
REMARK 922        TOTAL FREE ENERGY PREDICTED BY IDOCK:    0.98 KCAL/MOL
REMARK 923 INTER-LIGAND FREE ENERGY PREDICTED BY IDOCK:   -2.38 KCAL/MOL
REMARK 924 INTRA-LIGAND FREE ENERGY PREDICTED BY IDOCK:    3.35 KCAL/MOL
REMARK 927      BINDING AFFINITY PREDICTED BY RF-SCORE:    0.00 PKD
ROOT
HETATM    1  C   UNL     1      -9.141   6.094  69.112  1.00  0.00    -0.128 C  
HETATM    2  C   UNL     1      -9.090   6.864  70.511  1.00  0.00    -0.156 C  
HETATM    3  C   UNL     1      -9.976   6.384  71.686  1.00  0.00    -0.195 C  
HETATM    4  C   UNL     1     -11.363   5.980  71.146  1.00  0.00    -0.300 C  
HETATM    5  C   UNL     1      -9.283   5.275  72.500  1.00  0.00    -0.147 C  
HETATM    6  C   UNL     1     -10.207   7.477  72.758  1.00  0.00    -0.255 C  
HETATM    7  O   UNL     1     -11.305   7.798  73.209  1.00  0.00    -0.321 OA 
HETATM    8  O   UNL     1      -9.094   8.044  73.246  1.00  0.00    -0.247 OA 
HETATM    9  C   UNL     1     -11.420   5.294  69.754  1.00  0.00     1.814 C  
HETATM   10  C   UNL     1     -10.595   6.003  68.625  1.00  0.00    -0.327 C  
HETATM   11  C   UNL     1     -11.302   7.349  68.355  1.00  0.00     0.463 C  
HETATM   12  C   UNL     1     -10.512   5.264  67.251  1.00  0.00    -0.236 C  
HETATM   13  C   UNL     1      -9.857   6.150  66.073  1.00  0.00     0.087 C  
HETATM   14  C   UNL     1      -8.413   6.735  66.374  1.00  0.00    -0.126 C  
HETATM   15  C   UNL     1      -8.219   6.696  68.011  1.00  0.00    -0.117 C  
HETATM   16  C   UNL     1      -7.466   5.550  65.959  1.00  0.00    -0.082 C  
HETATM   17  C   UNL     1      -7.300   7.517  68.484  1.00  0.00    -0.099 C  
HETATM   18  C   UNL     1      -7.756   8.683  67.723  1.00  0.00    -0.102 C  
HETATM   19  C   UNL     1      -6.843   9.042  66.645  1.00  0.00    -0.080 C  
HETATM   20  O   UNL     1      -8.885   9.158  67.842  1.00  0.00    -0.128 OA 
HETATM   21  C   UNL     1      -6.540  10.584  66.974  1.00  0.00    -0.077 C  
HETATM   22  C   UNL     1      -5.126  10.884  66.426  1.00  0.00    -0.090 C  
HETATM   23  C   UNL     1      -6.467  10.762  68.542  1.00  0.00    -0.054 C  
HETATM   24  C   UNL     1      -6.597  12.113  69.223  1.00  0.00    -0.104 C  
HETATM   25  C   UNL     1      -7.662  13.052  68.612  1.00  0.00    -0.069 C  
HETATM   26  C   UNL     1      -7.425  13.105  67.025  1.00  0.00     0.170 C  
HETATM   27  C   UNL     1      -8.594   9.536  64.922  1.00  0.00    -0.191 C  
HETATM   28  C   UNL     1      -7.625  11.560  66.442  1.00  0.00     0.027 C  
HETATM   29  C   UNL     1      -5.994  13.759  66.868  1.00  0.00     1.543 C  
HETATM   30  C   UNL     1      -8.336  14.198  66.435  1.00  0.00     0.599 C  
HETATM   31  C   UNL     1      -6.789   7.899  64.363  1.00  0.00    -0.063 C  
HETATM   32  C   UNL     1      -7.725   8.310  65.547  1.00  0.00    -0.101 C  
HETATM   33  C   UNL     1      -7.956  11.081  64.988  1.00  0.00     0.304 C  
ENDROOT
BRANCH  25  34
HETATM   34  O   UNL     1      -9.028  13.046  69.193  1.00  0.00     0.406 OA 
BRANCH  34  35
HETATM   35  C   UNL     1     -10.226  13.076  68.354  1.00  0.00    -0.245 C  
HETATM   36  C   UNL     1     -12.466  14.281  69.837  1.00  0.00    -0.264 C  
HETATM   37  O   UNL     1     -11.280  12.424  69.026  1.00  0.00    -0.248 OA 
HETATM   38  C   UNL     1     -12.485  12.118  71.184  1.00  0.00    -0.234 C  
HETATM   39  C   UNL     1     -11.688  13.052  70.220  1.00  0.00    -0.114 C  
HETATM   40  O   UNL     1     -12.813  15.005  71.027  1.00  0.00    -0.332 OA 
HETATM   41  C   UNL     1     -11.651  15.175  68.907  1.00  0.00    -0.341 C  
HETATM   42  O   UNL     1     -12.844  10.970  71.000  1.00  0.00    -0.359 OA 
HETATM   43  O   UNL     1     -12.729  12.670  72.396  1.00  0.00    -0.014 OA 
HETATM   44  O   UNL     1     -12.624  16.035  68.257  1.00  0.00     0.213 OA 
HETATM   45  H   UNL     1     -13.304  15.781  70.785  1.00  0.00     0.000 HD 
HETATM   46  C   UNL     1     -10.780  14.468  67.839  1.00  0.00    -0.245 C  
HETATM   47  H   UNL     1     -12.116  16.592  67.678  1.00  0.00     0.000 HD 
BRANCH  46  48
HETATM   48  O   UNL     1      -9.776  15.357  67.277  1.00  0.00    -0.211 OA 
BRANCH  48  49
HETATM   49  C   UNL     1      -9.431  16.451  68.156  1.00  0.00    -0.213 C  
HETATM   50  O   UNL     1      -9.920  17.703  67.659  1.00  0.00    -0.299 OA 
HETATM   51  C   UNL     1      -9.797  18.717  68.681  1.00  0.00    -0.392 C  
HETATM   52  C   UNL     1     -10.631  19.942  68.300  1.00  0.00    -0.156 C  
HETATM   53  C   UNL     1      -8.312  19.045  68.827  1.00  0.00    -0.329 C  
HETATM   54  O   UNL     1      -8.018  20.022  69.836  1.00  0.00     0.290 OA 
HETATM   55  C   UNL     1      -7.534  17.779  69.221  1.00  0.00     0.021 C  
HETATM   56  O   UNL     1     -11.282  19.783  67.125  1.00  0.00    -0.272 OA 
HETATM   57  O   UNL     1     -10.752  20.945  68.988  1.00  0.00     0.372 OA 
HETATM   58  O   UNL     1      -6.125  18.003  69.057  1.00  0.00    -0.205 OA 
HETATM   59  C   UNL     1      -7.931  16.472  68.505  1.00  0.00    -0.216 C  
HETATM   60  H   UNL     1      -7.095  20.226  69.927  1.00  0.00     0.000 HD 
HETATM   61  H   UNL     1      -5.644  17.221  69.301  1.00  0.00     0.000 HD 
HETATM   62  O   UNL     1      -7.710  15.365  69.429  1.00  0.00    -0.203 OA 
HETATM   63  H   UNL     1      -6.785  15.378  69.645  1.00  0.00     0.000 HD 
ENDBRANCH  48  49
ENDBRANCH  46  48
ENDBRANCH  34  35
ENDBRANCH  25  34
TORSDOF 4
ENDMDL
MODEL       28
REMARK 921   NORMALIZED FREE ENERGY PREDICTED BY IDOCK:    2.24 KCAL/MOL
REMARK 922        TOTAL FREE ENERGY PREDICTED BY IDOCK:    1.87 KCAL/MOL
REMARK 923 INTER-LIGAND FREE ENERGY PREDICTED BY IDOCK:    1.23 KCAL/MOL
REMARK 924 INTRA-LIGAND FREE ENERGY PREDICTED BY IDOCK:    0.64 KCAL/MOL
REMARK 927      BINDING AFFINITY PREDICTED BY RF-SCORE:    0.00 PKD
ROOT
HETATM    1  C   UNL     1     -12.044  15.889  69.337  1.00  0.00    -0.183 C  
HETATM    2  C   UNL     1     -12.514  14.773  70.378  1.00  0.00    -0.405 C  
HETATM    3  C   UNL     1     -12.738  15.152  71.863  1.00  0.00    -0.414 C  
HETATM    4  C   UNL     1     -11.629  16.124  72.313  1.00  0.00    -0.435 C  
HETATM    5  C   UNL     1     -14.164  15.687  72.100  1.00  0.00    -0.529 C  
HETATM    6  C   UNL     1     -12.687  13.931  72.815  1.00  0.00    -0.132 C  
HETATM    7  O   UNL     1     -12.013  13.869  73.841  1.00  0.00     0.668 OA 
HETATM    8  O   UNL     1     -13.501  12.917  72.489  1.00  0.00    -0.540 OA 
HETATM    9  C   UNL     1     -11.122  17.164  71.279  1.00  0.00     1.140 C  
HETATM   10  C   UNL     1     -10.780  16.586  69.862  1.00  0.00    -0.269 C  
HETATM   11  C   UNL     1      -9.541  15.684  70.052  1.00  0.00     0.056 C  
HETATM   12  C   UNL     1     -10.405  17.624  68.755  1.00  0.00    -0.348 C  
HETATM   13  C   UNL     1      -9.838  16.956  67.401  1.00  0.00    -0.261 C  
HETATM   14  C   UNL     1     -10.777  15.872  66.723  1.00  0.00    -0.281 C  
HETATM   15  C   UNL     1     -11.833  15.368  67.885  1.00  0.00    -0.090 C  
HETATM   16  C   UNL     1     -11.740  16.750  65.842  1.00  0.00     1.594 C  
HETATM   17  C   UNL     1     -12.390  14.192  67.661  1.00  0.00    -0.073 C  
HETATM   18  C   UNL     1     -11.138  13.513  67.315  1.00  0.00    -0.286 C  
HETATM   19  C   UNL     1     -11.040  13.207  65.894  1.00  0.00    -0.298 C  
HETATM   20  O   UNL     1     -10.192  13.419  68.097  1.00  0.00    -0.232 OA 
HETATM   21  C   UNL     1     -10.765  11.625  65.920  1.00  0.00    -0.328 C  
HETATM   22  C   UNL     1     -11.340  11.054  64.604  1.00  0.00     0.231 C  
HETATM   23  C   UNL     1     -11.601  10.985  67.096  1.00  0.00     0.053 C  
HETATM   24  C   UNL     1     -11.295   9.614  67.672  1.00  0.00     0.371 C  
HETATM   25  C   UNL     1      -9.791   9.294  67.830  1.00  0.00    -0.167 C  
HETATM   26  C   UNL     1      -9.063   9.630  66.439  1.00  0.00    -0.191 C  
HETATM   27  C   UNL     1      -8.629  13.833  65.620  1.00  0.00     1.812 C  
HETATM   28  C   UNL     1      -9.273  11.255  66.150  1.00  0.00    -0.222 C  
HETATM   29  C   UNL     1      -9.712   8.622  65.408  1.00  0.00     0.364 C  
HETATM   30  C   UNL     1      -7.614   9.115  66.512  1.00  0.00    -0.093 C  
HETATM   31  C   UNL     1     -10.321  14.881  64.106  1.00  0.00     1.401 C  
HETATM   32  C   UNL     1     -10.126  14.472  65.604  1.00  0.00    -0.384 C  
HETATM   33  C   UNL     1      -8.447  12.217  65.231  1.00  0.00     1.198 C  
ENDROOT
BRANCH  25  34
HETATM   34  O   UNL     1      -9.140   9.574  69.134  1.00  0.00    -0.140 OA 
BRANCH  34  35
HETATM   35  C   UNL     1      -7.860   8.970  69.507  1.00  0.00    -0.094 C  
HETATM   36  C   UNL     1      -6.123  10.983  70.771  1.00  0.00     0.045 C  
HETATM   37  O   UNL     1      -6.810   9.709  68.923  1.00  0.00    -0.053 OA 
HETATM   38  C   UNL     1      -5.892  11.971  68.434  1.00  0.00    -0.049 C  
HETATM   39  C   UNL     1      -6.703  11.035  69.385  1.00  0.00    -0.112 C  
HETATM   40  O   UNL     1      -6.094  12.311  71.317  1.00  0.00    -0.447 OA 
HETATM   41  C   UNL     1      -6.950  10.072  71.674  1.00  0.00     1.212 C  
HETATM   42  O   UNL     1      -5.301  11.681  67.411  1.00  0.00    -0.058 OA 
HETATM   43  O   UNL     1      -5.933  13.276  68.793  1.00  0.00    -0.070 OA 
HETATM   44  O   UNL     1      -6.074   9.737  72.782  1.00  0.00    -0.190 OA 
HETATM   45  H   UNL     1      -5.728  12.277  72.193  1.00  0.00     0.000 HD 
HETATM   46  C   UNL     1      -7.511   8.775  71.039  1.00  0.00    -0.096 C  
HETATM   47  H   UNL     1      -6.588   9.169  73.345  1.00  0.00     0.000 HD 
BRANCH  46  48
HETATM   48  O   UNL     1      -8.572   8.188  71.840  1.00  0.00    -0.124 OA 
BRANCH  48  49
HETATM   49  C   UNL     1      -8.593   6.744  71.785  1.00  0.00    -0.121 C  
HETATM   50  O   UNL     1      -9.273   6.182  72.912  1.00  0.00    -0.136 OA 
HETATM   51  C   UNL     1      -9.510   4.774  72.690  1.00  0.00    -0.134 C  
HETATM   52  C   UNL     1     -10.535   4.253  73.699  1.00  0.00    -0.204 C  
HETATM   53  C   UNL     1      -8.166   4.058  72.801  1.00  0.00    -0.095 C  
HETATM   54  O   UNL     1      -8.227   2.643  72.570  1.00  0.00    -0.058 OA 
HETATM   55  C   UNL     1      -7.188   4.617  71.754  1.00  0.00    -0.064 C  
HETATM   56  O   UNL     1     -10.975   5.218  74.539  1.00  0.00    -0.156 OA 
HETATM   57  O   UNL     1     -10.961   3.108  73.733  1.00  0.00    -0.203 OA 
HETATM   58  O   UNL     1      -5.853   4.180  72.053  1.00  0.00    -0.011 OA 
HETATM   59  C   UNL     1      -7.193   6.146  71.552  1.00  0.00    -0.087 C  
HETATM   60  H   UNL     1      -7.391   2.198  72.639  1.00  0.00     0.000 HD 
HETATM   61  H   UNL     1      -5.249   4.526  71.406  1.00  0.00     0.000 HD 
HETATM   62  O   UNL     1      -6.858   6.419  70.158  1.00  0.00    -0.054 OA 
HETATM   63  H   UNL     1      -5.994   6.049  70.014  1.00  0.00     0.000 HD 
ENDBRANCH  48  49
ENDBRANCH  46  48
ENDBRANCH  34  35
ENDBRANCH  25  34
TORSDOF 4
ENDMDL
MODEL       29
REMARK 921   NORMALIZED FREE ENERGY PREDICTED BY IDOCK:    2.48 KCAL/MOL
REMARK 922        TOTAL FREE ENERGY PREDICTED BY IDOCK:    2.16 KCAL/MOL
REMARK 923 INTER-LIGAND FREE ENERGY PREDICTED BY IDOCK:    3.81 KCAL/MOL
REMARK 924 INTRA-LIGAND FREE ENERGY PREDICTED BY IDOCK:   -1.65 KCAL/MOL
REMARK 927      BINDING AFFINITY PREDICTED BY RF-SCORE:    0.00 PKD
ROOT
HETATM    1  C   UNL     1     -10.266  15.682  69.578  1.00  0.00    -0.277 C  
HETATM    2  C   UNL     1      -8.828  15.487  68.913  1.00  0.00    -0.217 C  
HETATM    3  C   UNL     1      -8.219  16.619  68.050  1.00  0.00    -0.185 C  
HETATM    4  C   UNL     1      -9.326  17.248  67.180  1.00  0.00    -0.245 C  
HETATM    5  C   UNL     1      -7.457  17.641  68.915  1.00  0.00    -0.227 C  
HETATM    6  C   UNL     1      -7.113  16.121  67.087  1.00  0.00    -0.218 C  
HETATM    7  O   UNL     1      -7.065  16.371  65.884  1.00  0.00     0.349 OA 
HETATM    8  O   UNL     1      -6.124  15.423  67.664  1.00  0.00    -0.149 OA 
HETATM    9  C   UNL     1     -10.743  17.374  67.802  1.00  0.00    -0.332 C  
HETATM   10  C   UNL     1     -11.285  16.079  68.499  1.00  0.00    -0.374 C  
HETATM   11  C   UNL     1     -11.513  15.047  67.374  1.00  0.00    -0.326 C  
HETATM   12  C   UNL     1     -12.644  16.211  69.260  1.00  0.00     0.891 C  
HETATM   13  C   UNL     1     -13.258  14.801  69.747  1.00  0.00     0.650 C  
HETATM   14  C   UNL     1     -12.304  13.911  70.649  1.00  0.00    -0.451 C  
HETATM   15  C   UNL     1     -10.769  14.457  70.398  1.00  0.00     0.384 C  
HETATM   16  C   UNL     1     -12.563  14.479  72.093  1.00  0.00    -0.391 C  
HETATM   17  C   UNL     1      -9.813  13.598  70.701  1.00  0.00     4.197 C  
HETATM   18  C   UNL     1     -10.424  12.465  70.000  1.00  0.00     1.592 C  
HETATM   19  C   UNL     1     -10.961  11.464  70.913  1.00  0.00     1.810 C  
HETATM   20  O   UNL     1     -10.652  12.473  68.790  1.00  0.00    -0.224 OA 
HETATM   21  C   UNL     1     -10.219  10.132  70.408  1.00  0.00    -0.116 C  
HETATM   22  C   UNL     1     -10.100   9.200  71.636  1.00  0.00    -0.346 C  
HETATM   23  C   UNL     1      -8.747  10.505  69.976  1.00  0.00     0.442 C  
HETATM   24  C   UNL     1      -7.897   9.610  69.091  1.00  0.00    -0.090 C  
HETATM   25  C   UNL     1      -8.657   8.934  67.927  1.00  0.00    -0.126 C  
HETATM   26  C   UNL     1      -9.977   8.248  68.529  1.00  0.00    -0.206 C  
HETATM   27  C   UNL     1     -13.078  11.014  69.651  1.00  0.00     0.728 C  
HETATM   28  C   UNL     1     -10.908   9.458  69.190  1.00  0.00    -0.176 C  
HETATM   29  C   UNL     1      -9.426   7.139  69.512  1.00  0.00    -0.151 C  
HETATM   30  C   UNL     1     -10.626   7.392  67.424  1.00  0.00    -0.371 C  
HETATM   31  C   UNL     1     -13.231  11.637  72.067  1.00  0.00    -0.443 C  
HETATM   32  C   UNL     1     -12.443  12.012  70.768  1.00  0.00    -0.372 C  
HETATM   33  C   UNL     1     -12.443   9.474  69.503  1.00  0.00     1.265 C  
ENDROOT
BRANCH  25  34
HETATM   34  O   UNL     1      -8.666   9.604  66.603  1.00  0.00    -0.132 OA 
BRANCH  34  35
HETATM   35  C   UNL     1      -8.751   8.848  65.353  1.00  0.00    -0.191 C  
HETATM   36  C   UNL     1      -8.280  10.634  63.060  1.00  0.00    -0.101 C  
HETATM   37  O   UNL     1      -9.703   9.455  64.508  1.00  0.00     0.050 OA 
HETATM   38  C   UNL     1     -10.584  11.591  63.577  1.00  0.00    -0.423 C  
HETATM   39  C   UNL     1      -9.367  10.758  64.091  1.00  0.00    -0.252 C  
HETATM   40  O   UNL     1      -7.838  11.947  62.685  1.00  0.00    -0.056 OA 
HETATM   41  C   UNL     1      -7.103   9.828  63.602  1.00  0.00    -0.116 C  
HETATM   42  O   UNL     1     -11.738  11.233  63.433  1.00  0.00    -0.144 OA 
HETATM   43  O   UNL     1     -10.290  12.890  63.337  1.00  0.00    -0.227 OA 
HETATM   44  O   UNL     1      -6.370   9.387  62.429  1.00  0.00    -0.097 OA 
HETATM   45  H   UNL     1      -7.151  11.868  62.033  1.00  0.00     0.000 HD 
HETATM   46  C   UNL     1      -7.440   8.609  64.498  1.00  0.00    -0.107 C  
HETATM   47  H   UNL     1      -5.637   8.885  62.766  1.00  0.00     0.000 HD 
BRANCH  46  48
HETATM   48  O   UNL     1      -6.288   8.155  65.257  1.00  0.00    -0.045 OA 
BRANCH  48  49
HETATM   49  C   UNL     1      -6.293   6.730  65.499  1.00  0.00    -0.042 C  
HETATM   50  O   UNL     1      -7.004   6.022  64.477  1.00  0.00    -0.049 OA 
HETATM   51  C   UNL     1      -6.759   4.603  64.601  1.00  0.00    -0.044 C  
HETATM   52  C   UNL     1      -7.205   3.885  63.326  1.00  0.00    -0.050 C  
HETATM   53  C   UNL     1      -7.508   4.114  65.839  1.00  0.00    -0.081 C  
HETATM   54  O   UNL     1      -7.337   2.718  66.121  1.00  0.00    -0.065 OA 
HETATM   55  C   UNL     1      -7.005   4.864  67.084  1.00  0.00    -0.064 C  
HETATM   56  O   UNL     1      -7.705   4.734  62.398  1.00  0.00    -0.053 OA 
HETATM   57  O   UNL     1      -7.089   2.685  63.125  1.00  0.00    -0.035 OA 
HETATM   58  O   UNL     1      -7.904   4.642  68.182  1.00  0.00    -0.080 OA 
HETATM   59  C   UNL     1      -6.756   6.379  66.925  1.00  0.00    -0.060 C  
HETATM   60  H   UNL     1      -7.803   2.414  66.892  1.00  0.00     0.000 HD 
HETATM   61  H   UNL     1      -7.593   5.106  68.951  1.00  0.00     0.000 HD 
HETATM   62  O   UNL     1      -5.663   6.753  67.815  1.00  0.00    -0.017 OA 
HETATM   63  H   UNL     1      -5.949   6.536  68.695  1.00  0.00     0.000 HD 
ENDBRANCH  48  49
ENDBRANCH  46  48
ENDBRANCH  34  35
ENDBRANCH  25  34
TORSDOF 4
ENDMDL
MODEL       30
REMARK 921   NORMALIZED FREE ENERGY PREDICTED BY IDOCK:    2.68 KCAL/MOL
REMARK 922        TOTAL FREE ENERGY PREDICTED BY IDOCK:    2.40 KCAL/MOL
REMARK 923 INTER-LIGAND FREE ENERGY PREDICTED BY IDOCK:    3.89 KCAL/MOL
REMARK 924 INTRA-LIGAND FREE ENERGY PREDICTED BY IDOCK:   -1.49 KCAL/MOL
REMARK 927      BINDING AFFINITY PREDICTED BY RF-SCORE:    0.00 PKD
ROOT
HETATM    1  C   UNL     1     -10.267  15.681  69.576  1.00  0.00    -0.277 C  
HETATM    2  C   UNL     1      -8.830  15.486  68.906  1.00  0.00    -0.217 C  
HETATM    3  C   UNL     1      -8.224  16.619  68.041  1.00  0.00    -0.185 C  
HETATM    4  C   UNL     1      -9.334  17.248  67.176  1.00  0.00    -0.245 C  
HETATM    5  C   UNL     1      -7.459  17.640  68.905  1.00  0.00    -0.227 C  
HETATM    6  C   UNL     1      -7.121  16.120  67.075  1.00  0.00    -0.213 C  
HETATM    7  O   UNL     1      -7.077  16.370  65.872  1.00  0.00     0.349 OA 
HETATM    8  O   UNL     1      -6.131  15.422  67.648  1.00  0.00    -0.149 OA 
HETATM    9  C   UNL     1     -10.749  17.374  67.802  1.00  0.00    -0.332 C  
HETATM   10  C   UNL     1     -11.289  16.079  68.500  1.00  0.00    -0.382 C  
HETATM   11  C   UNL     1     -11.521  15.048  67.376  1.00  0.00    -0.326 C  
HETATM   12  C   UNL     1     -12.646  16.211  69.266  1.00  0.00     0.891 C  
HETATM   13  C   UNL     1     -13.258  14.801  69.754  1.00  0.00     0.650 C  
HETATM   14  C   UNL     1     -12.301  13.911  70.653  1.00  0.00    -0.451 C  
HETATM   15  C   UNL     1     -10.768  14.457  70.397  1.00  0.00     0.384 C  
HETATM   16  C   UNL     1     -12.556  14.478  72.098  1.00  0.00    -0.391 C  
HETATM   17  C   UNL     1      -9.811  13.597  70.697  1.00  0.00     4.197 C  
HETATM   18  C   UNL     1     -10.424  12.464  69.997  1.00  0.00     1.592 C  
HETATM   19  C   UNL     1     -10.958  11.463  70.912  1.00  0.00     1.810 C  
HETATM   20  O   UNL     1     -10.656  12.472  68.789  1.00  0.00    -0.224 OA 
HETATM   21  C   UNL     1     -10.218  10.131  70.405  1.00  0.00    -0.116 C  
HETATM   22  C   UNL     1     -10.095   9.199  71.632  1.00  0.00    -0.346 C  
HETATM   23  C   UNL     1      -8.747  10.504  69.968  1.00  0.00     0.442 C  
HETATM   24  C   UNL     1      -7.901   9.609  69.080  1.00  0.00    -0.090 C  
HETATM   25  C   UNL     1      -8.664   8.934  67.918  1.00  0.00    -0.129 C  
HETATM   26  C   UNL     1      -9.983   8.247  68.524  1.00  0.00    -0.206 C  
HETATM   27  C   UNL     1     -13.080  11.014  69.657  1.00  0.00     0.728 C  
HETATM   28  C   UNL     1     -10.911   9.457  69.189  1.00  0.00    -0.114 C  
HETATM   29  C   UNL     1      -9.428   7.139  69.506  1.00  0.00    -0.151 C  
HETATM   30  C   UNL     1     -10.635   7.392  67.422  1.00  0.00    -0.371 C  
HETATM   31  C   UNL     1     -13.225  11.637  72.073  1.00  0.00    -0.443 C  
HETATM   32  C   UNL     1     -12.441  12.012  70.772  1.00  0.00    -0.372 C  
HETATM   33  C   UNL     1     -12.445   9.474  69.506  1.00  0.00     1.265 C  
ENDROOT
BRANCH  25  34
HETATM   34  O   UNL     1      -8.677   9.604  66.595  1.00  0.00    -0.132 OA 
BRANCH  34  35
HETATM   35  C   UNL     1      -8.826   8.853  65.347  1.00  0.00    -0.193 C  
HETATM   36  C   UNL     1      -8.337  10.617  63.042  1.00  0.00    -0.129 C  
HETATM   37  O   UNL     1      -9.772   9.501  64.526  1.00  0.00    -0.064 OA 
HETATM   38  C   UNL     1     -10.584  11.672  63.616  1.00  0.00    -0.433 C  
HETATM   39  C   UNL     1      -9.391  10.788  64.100  1.00  0.00    -0.252 C  
HETATM   40  O   UNL     1      -7.848  11.911  62.655  1.00  0.00    -0.056 OA 
HETATM   41  C   UNL     1      -7.182   9.762  63.555  1.00  0.00    -0.117 C  
HETATM   42  O   UNL     1     -11.755  11.363  63.501  1.00  0.00    -0.297 OA 
HETATM   43  O   UNL     1     -10.241  12.958  63.368  1.00  0.00    -0.215 OA 
HETATM   44  O   UNL     1      -6.498   9.291  62.364  1.00  0.00    -0.095 OA 
HETATM   45  H   UNL     1      -7.182  11.803  61.986  1.00  0.00     0.000 HD 
HETATM   46  C   UNL     1      -7.548   8.559  64.460  1.00  0.00    -0.115 C  
HETATM   47  H   UNL     1      -5.779   8.758  62.684  1.00  0.00     0.000 HD 
BRANCH  46  48
HETATM   48  O   UNL     1      -6.397   8.055  65.191  1.00  0.00    -0.045 OA 
BRANCH  48  49
HETATM   49  C   UNL     1      -6.577   6.703  65.670  1.00  0.00    -0.050 C  
HETATM   50  O   UNL     1      -5.932   6.499  66.932  1.00  0.00    -0.023 OA 
HETATM   51  C   UNL     1      -6.354   5.240  67.502  1.00  0.00    -0.040 C  
HETATM   52  C   UNL     1      -5.966   5.181  68.980  1.00  0.00    -0.021 C  
HETATM   53  C   UNL     1      -5.708   4.124  66.683  1.00  0.00    -0.022 C  
HETATM   54  O   UNL     1      -6.059   2.799  67.106  1.00  0.00    -0.023 OA 
HETATM   55  C   UNL     1      -6.147   4.232  65.214  1.00  0.00    -0.023 C  
HETATM   56  O   UNL     1      -5.339   6.305  69.398  1.00  0.00    -0.011 OA 
HETATM   57  O   UNL     1      -6.225   4.254  69.733  1.00  0.00    -0.025 OA 
HETATM   58  O   UNL     1      -5.315   3.397  64.394  1.00  0.00    -0.009 OA 
HETATM   59  C   UNL     1      -6.201   5.651  64.610  1.00  0.00    -0.025 C  
HETATM   60  H   UNL     1      -5.657   2.106  66.597  1.00  0.00     0.000 HD 
HETATM   61  H   UNL     1      -5.586   3.463  63.486  1.00  0.00     0.000 HD 
HETATM   62  O   UNL     1      -7.263   5.677  63.611  1.00  0.00    -0.049 OA 
HETATM   63  H   UNL     1      -7.031   5.027  62.957  1.00  0.00     0.000 HD 
ENDBRANCH  48  49
ENDBRANCH  46  48
ENDBRANCH  34  35
ENDBRANCH  25  34
TORSDOF 4
ENDMDL
MODEL       31
REMARK 921   NORMALIZED FREE ENERGY PREDICTED BY IDOCK:    2.69 KCAL/MOL
REMARK 922        TOTAL FREE ENERGY PREDICTED BY IDOCK:    2.42 KCAL/MOL
REMARK 923 INTER-LIGAND FREE ENERGY PREDICTED BY IDOCK:    3.04 KCAL/MOL
REMARK 924 INTRA-LIGAND FREE ENERGY PREDICTED BY IDOCK:   -0.62 KCAL/MOL
REMARK 927      BINDING AFFINITY PREDICTED BY RF-SCORE:    0.00 PKD
ROOT
HETATM    1  C   UNL     1     -10.684  12.494  69.536  1.00  0.00     0.248 C  
HETATM    2  C   UNL     1      -9.150  12.336  69.123  1.00  0.00     0.611 C  
HETATM    3  C   UNL     1      -8.531  13.298  68.079  1.00  0.00    -0.170 C  
HETATM    4  C   UNL     1      -9.550  13.546  66.949  1.00  0.00    -0.258 C  
HETATM    5  C   UNL     1      -8.011  14.589  68.739  1.00  0.00    -0.142 C  
HETATM    6  C   UNL     1      -7.249  12.732  67.418  1.00  0.00    -0.132 C  
HETATM    7  O   UNL     1      -7.044  12.689  66.207  1.00  0.00     0.842 OA 
HETATM    8  O   UNL     1      -6.295  12.331  68.271  1.00  0.00    -0.050 OA 
HETATM    9  C   UNL     1     -11.050  13.630  67.340  1.00  0.00    -0.299 C  
HETATM   10  C   UNL     1     -11.563  12.481  68.276  1.00  0.00    -0.376 C  
HETATM   11  C   UNL     1     -11.517  11.188  67.434  1.00  0.00    -0.261 C  
HETATM   12  C   UNL     1     -13.027  12.613  68.806  1.00  0.00     2.117 C  
HETATM   13  C   UNL     1     -13.567  11.293  69.560  1.00  0.00     3.115 C  
HETATM   14  C   UNL     1     -12.678  10.781  70.770  1.00  0.00    -0.451 C  
HETATM   15  C   UNL     1     -11.184  11.448  70.575  1.00  0.00     0.401 C  
HETATM   16  C   UNL     1     -13.206  11.640  71.977  1.00  0.00    -0.443 C  
HETATM   17  C   UNL     1     -10.205  10.821  71.203  1.00  0.00     2.908 C  
HETATM   18  C   UNL     1     -10.590   9.482  70.748  1.00  0.00    -0.317 C  
HETATM   19  C   UNL     1     -11.158   8.669  71.816  1.00  0.00    -0.396 C  
HETATM   20  O   UNL     1     -10.633   9.168  69.559  1.00  0.00    -0.218 OA 
HETATM   21  C   UNL     1     -10.223   7.365  71.765  1.00  0.00    -0.212 C  
HETATM   22  C   UNL     1     -10.200   6.780  73.196  1.00  0.00    -0.253 C  
HETATM   23  C   UNL     1      -8.746   7.814  71.434  1.00  0.00    -0.142 C  
HETATM   24  C   UNL     1      -7.690   6.852  70.918  1.00  0.00    -0.092 C  
HETATM   25  C   UNL     1      -8.195   5.821  69.884  1.00  0.00    -0.115 C  
HETATM   26  C   UNL     1      -9.519   5.132  70.476  1.00  0.00    -0.229 C  
HETATM   27  C   UNL     1     -13.007   7.652  70.464  1.00  0.00     0.486 C  
HETATM   28  C   UNL     1     -10.652   6.331  70.686  1.00  0.00    -0.301 C  
HETATM   29  C   UNL     1      -9.016   4.376  71.772  1.00  0.00    -0.157 C  
HETATM   30  C   UNL     1      -9.906   3.957  69.559  1.00  0.00    -0.080 C  
HETATM   31  C   UNL     1     -13.583   8.814  72.601  1.00  0.00    -0.349 C  
HETATM   32  C   UNL     1     -12.648   8.965  71.356  1.00  0.00    -0.351 C  
HETATM   33  C   UNL     1     -12.210   6.220  70.795  1.00  0.00     0.146 C  
ENDROOT
BRANCH  25  34
HETATM   34  O   UNL     1      -8.069   6.145  68.441  1.00  0.00    -0.106 OA 
BRANCH  34  35
HETATM   35  C   UNL     1      -7.016   5.566  67.607  1.00  0.00    -0.066 C  
HETATM   36  C   UNL     1      -7.164   2.627  67.688  1.00  0.00    -0.053 C  
HETATM   37  O   UNL     1      -6.247   4.673  68.382  1.00  0.00    -0.030 OA 
HETATM   38  C   UNL     1      -6.275   2.839  70.066  1.00  0.00    -0.024 C  
HETATM   39  C   UNL     1      -6.956   3.552  68.855  1.00  0.00    -0.046 C  
HETATM   40  O   UNL     1      -7.973   1.518  68.107  1.00  0.00    -0.056 OA 
HETATM   41  C   UNL     1      -7.843   3.353  66.530  1.00  0.00    -0.081 C  
HETATM   42  O   UNL     1      -5.204   3.090  70.586  1.00  0.00    -0.004 OA 
HETATM   43  O   UNL     1      -7.038   1.869  70.624  1.00  0.00    -0.032 OA 
HETATM   44  O   UNL     1      -7.569   2.542  65.358  1.00  0.00    -0.073 OA 
HETATM   45  H   UNL     1      -8.105   0.934  67.370  1.00  0.00     0.000 HD 
HETATM   46  C   UNL     1      -7.409   4.817  66.268  1.00  0.00    -0.078 C  
HETATM   47  H   UNL     1      -7.992   2.994  64.637  1.00  0.00     0.000 HD 
BRANCH  46  48
HETATM   48  O   UNL     1      -8.357   5.525  65.425  1.00  0.00    -0.129 OA 
BRANCH  48  49
HETATM   49  C   UNL     1      -7.774   6.660  64.745  1.00  0.00    -0.111 C  
HETATM   50  O   UNL     1      -7.411   7.698  65.663  1.00  0.00    -0.074 OA 
HETATM   51  C   UNL     1      -6.597   8.685  64.992  1.00  0.00    -0.068 C  
HETATM   52  C   UNL     1      -5.914   9.585  66.024  1.00  0.00    -0.062 C  
HETATM   53  C   UNL     1      -7.506   9.466  64.046  1.00  0.00    -0.113 C  
HETATM   54  O   UNL     1      -6.834  10.471  63.274  1.00  0.00    -0.299 OA 
HETATM   55  C   UNL     1      -8.150   8.508  63.029  1.00  0.00    -0.174 C  
HETATM   56  O   UNL     1      -6.222   9.244  67.296  1.00  0.00    -0.056 OA 
HETATM   57  O   UNL     1      -5.135  10.487  65.755  1.00  0.00    -0.052 OA 
HETATM   58  O   UNL     1      -9.227   9.171  62.350  1.00  0.00    -0.513 OA 
HETATM   59  C   UNL     1      -8.645   7.153  63.575  1.00  0.00     0.522 C  
HETATM   60  H   UNL     1      -7.400  10.957  62.686  1.00  0.00     0.000 HD 
HETATM   61  H   UNL     1      -9.624   8.579  61.722  1.00  0.00     0.000 HD 
HETATM   62  O   UNL     1      -8.506   6.161  62.514  1.00  0.00    -0.258 OA 
HETATM   63  H   UNL     1      -9.043   6.465  61.791  1.00  0.00     0.000 HD 
ENDBRANCH  48  49
ENDBRANCH  46  48
ENDBRANCH  34  35
ENDBRANCH  25  34
TORSDOF 4
ENDMDL
MODEL       32
REMARK 921   NORMALIZED FREE ENERGY PREDICTED BY IDOCK:    2.91 KCAL/MOL
REMARK 922        TOTAL FREE ENERGY PREDICTED BY IDOCK:    2.70 KCAL/MOL
REMARK 923 INTER-LIGAND FREE ENERGY PREDICTED BY IDOCK:    2.07 KCAL/MOL
REMARK 924 INTRA-LIGAND FREE ENERGY PREDICTED BY IDOCK:    0.63 KCAL/MOL
REMARK 927      BINDING AFFINITY PREDICTED BY RF-SCORE:    0.00 PKD
ROOT
HETATM    1  C   UNL     1      -9.799  16.737  67.355  1.00  0.00    -0.252 C  
HETATM    2  C   UNL     1      -8.729  16.486  68.514  1.00  0.00    -0.228 C  
HETATM    3  C   UNL     1      -7.600  17.518  68.755  1.00  0.00    -0.258 C  
HETATM    4  C   UNL     1      -7.074  18.024  67.396  1.00  0.00    -0.204 C  
HETATM    5  C   UNL     1      -8.058  18.646  69.700  1.00  0.00     0.634 C  
HETATM    6  C   UNL     1      -6.389  16.927  69.519  1.00  0.00    -0.233 C  
HETATM    7  O   UNL     1      -5.216  17.034  69.166  1.00  0.00    -0.129 OA 
HETATM    8  O   UNL     1      -6.686  16.316  70.675  1.00  0.00     0.738 OA 
HETATM    9  C   UNL     1      -8.104  18.202  66.248  1.00  0.00    -0.254 C  
HETATM   10  C   UNL     1      -9.073  16.989  66.026  1.00  0.00    -0.172 C  
HETATM   11  C   UNL     1      -8.199  15.829  65.503  1.00  0.00     2.127 C  
HETATM   12  C   UNL     1     -10.214  17.190  64.977  1.00  0.00     0.721 C  
HETATM   13  C   UNL     1     -11.021  15.838  64.625  1.00  0.00    -0.333 C  
HETATM   14  C   UNL     1     -11.655  15.074  65.862  1.00  0.00    -0.165 C  
HETATM   15  C   UNL     1     -10.863  15.610  67.205  1.00  0.00    -0.298 C  
HETATM   16  C   UNL     1     -13.035  15.804  66.050  1.00  0.00     2.905 C  
HETATM   17  C   UNL     1     -10.930  14.806  68.251  1.00  0.00    -0.264 C  
HETATM   18  C   UNL     1     -10.589  13.590  67.508  1.00  0.00    -0.244 C  
HETATM   19  C   UNL     1     -11.728  12.695  67.345  1.00  0.00    -0.432 C  
HETATM   20  O   UNL     1      -9.526  13.452  66.905  1.00  0.00    -0.237 OA 
HETATM   21  C   UNL     1     -11.155  11.324  67.954  1.00  0.00    -0.325 C  
HETATM   22  C   UNL     1     -12.370  10.545  68.508  1.00  0.00     0.955 C  
HETATM   23  C   UNL     1     -10.233  11.666  69.189  1.00  0.00     0.007 C  
HETATM   24  C   UNL     1      -9.221  10.686  69.756  1.00  0.00     0.242 C  
HETATM   25  C   UNL     1      -8.445   9.867  68.700  1.00  0.00    -0.114 C  
HETATM   26  C   UNL     1      -9.511   9.236  67.679  1.00  0.00    -0.156 C  
HETATM   27  C   UNL     1     -11.275  12.069  64.961  1.00  0.00    -0.374 C  
HETATM   28  C   UNL     1     -10.305  10.501  66.947  1.00  0.00    -0.293 C  
HETATM   29  C   UNL     1     -10.375   8.259  68.573  1.00  0.00    -0.230 C  
HETATM   30  C   UNL     1      -8.774   8.247  66.757  1.00  0.00    -0.143 C  
HETATM   31  C   UNL     1     -13.530  12.970  65.557  1.00  0.00     1.523 C  
HETATM   32  C   UNL     1     -12.014  13.201  65.867  1.00  0.00    -0.479 C  
HETATM   33  C   UNL     1     -11.094  10.532  65.595  1.00  0.00     0.369 C  
ENDROOT
BRANCH  25  34
HETATM   34  O   UNL     1      -7.131  10.376  68.233  1.00  0.00    -0.076 OA 
BRANCH  34  35
HETATM   35  C   UNL     1      -5.891   9.630  68.447  1.00  0.00    -0.040 C  
HETATM   36  C   UNL     1      -6.468   6.750  68.654  1.00  0.00    -0.040 C  
HETATM   37  O   UNL     1      -6.015   8.845  69.612  1.00  0.00    -0.035 OA 
HETATM   38  C   UNL     1      -7.467   7.310  70.930  1.00  0.00    -0.075 C  
HETATM   39  C   UNL     1      -7.003   7.843  69.538  1.00  0.00    -0.054 C  
HETATM   40  O   UNL     1      -7.487   5.756  68.471  1.00  0.00    -0.081 OA 
HETATM   41  C   UNL     1      -6.038   7.305  67.299  1.00  0.00    -0.042 C  
HETATM   42  O   UNL     1      -7.039   7.600  72.032  1.00  0.00    -0.061 OA 
HETATM   43  O   UNL     1      -8.529   6.473  70.864  1.00  0.00    -0.131 OA 
HETATM   44  O   UNL     1      -5.144   6.305  66.744  1.00  0.00    -0.005 OA 
HETATM   45  H   UNL     1      -7.149   5.065  67.912  1.00  0.00     0.000 HD 
HETATM   46  C   UNL     1      -5.342   8.689  67.296  1.00  0.00    -0.037 C  
HETATM   47  H   UNL     1      -4.876   6.650  65.900  1.00  0.00     0.000 HD 
BRANCH  46  48
HETATM   48  O   UNL     1      -5.322   9.288  65.972  1.00  0.00    -0.039 OA 
BRANCH  48  49
HETATM   49  C   UNL     1      -6.563   9.114  65.252  1.00  0.00    -0.069 C  
HETATM   50  O   UNL     1      -6.504   7.996  64.358  1.00  0.00    -0.059 OA 
HETATM   51  C   UNL     1      -7.828   7.691  63.866  1.00  0.00    -0.122 C  
HETATM   52  C   UNL     1      -7.834   6.307  63.214  1.00  0.00    -0.099 C  
HETATM   53  C   UNL     1      -8.222   8.798  62.889  1.00  0.00    -0.190 C  
HETATM   54  O   UNL     1      -9.536   8.656  62.333  1.00  0.00    -0.116 OA 
HETATM   55  C   UNL     1      -8.208  10.157  63.607  1.00  0.00    -0.166 C  
HETATM   56  O   UNL     1      -6.624   5.704  63.262  1.00  0.00    -0.031 OA 
HETATM   57  O   UNL     1      -8.821   5.764  62.741  1.00  0.00     0.060 OA 
HETATM   58  O   UNL     1      -8.269  11.218  62.641  1.00  0.00    -0.456 OA 
HETATM   59  C   UNL     1      -7.037  10.415  64.577  1.00  0.00    -0.007 C  
HETATM   60  H   UNL     1      -9.781   9.344  61.726  1.00  0.00     0.000 HD 
HETATM   61  H   UNL     1      -8.260  12.058  63.085  1.00  0.00     0.000 HD 
HETATM   62  O   UNL     1      -7.519  11.280  65.649  1.00  0.00    -0.361 OA 
HETATM   63  H   UNL     1      -7.812  12.083  65.233  1.00  0.00     0.000 HD 
ENDBRANCH  48  49
ENDBRANCH  46  48
ENDBRANCH  34  35
ENDBRANCH  25  34
TORSDOF 4
ENDMDL
MODEL       33
REMARK 921   NORMALIZED FREE ENERGY PREDICTED BY IDOCK:    3.05 KCAL/MOL
REMARK 922        TOTAL FREE ENERGY PREDICTED BY IDOCK:    2.87 KCAL/MOL
REMARK 923 INTER-LIGAND FREE ENERGY PREDICTED BY IDOCK:    5.14 KCAL/MOL
REMARK 924 INTRA-LIGAND FREE ENERGY PREDICTED BY IDOCK:   -2.28 KCAL/MOL
REMARK 927      BINDING AFFINITY PREDICTED BY RF-SCORE:    0.00 PKD
ROOT
HETATM    1  C   UNL     1     -11.539  12.943  67.997  1.00  0.00    -0.385 C  
HETATM    2  C   UNL     1     -12.060  12.087  69.240  1.00  0.00    -0.249 C  
HETATM    3  C   UNL     1     -12.508  12.807  70.536  1.00  0.00    -0.280 C  
HETATM    4  C   UNL     1     -11.545  13.975  70.829  1.00  0.00    -0.064 C  
HETATM    5  C   UNL     1     -13.988  13.228  70.465  1.00  0.00     2.167 C  
HETATM    6  C   UNL     1     -12.492  11.883  71.780  1.00  0.00     0.112 C  
HETATM    7  O   UNL     1     -11.959  12.159  72.852  1.00  0.00     3.478 OA 
HETATM    8  O   UNL     1     -13.177  10.738  71.650  1.00  0.00    -0.413 OA 
HETATM    9  C   UNL     1     -10.984  14.764  69.615  1.00  0.00    -0.285 C  
HETATM   10  C   UNL     1     -10.413  13.883  68.451  1.00  0.00    -0.250 C  
HETATM   11  C   UNL     1      -9.147  13.199  69.009  1.00  0.00     0.465 C  
HETATM   12  C   UNL     1      -9.973  14.638  67.155  1.00  0.00    -0.240 C  
HETATM   13  C   UNL     1      -9.181  13.710  66.098  1.00  0.00    -0.009 C  
HETATM   14  C   UNL     1      -9.937  12.395  65.637  1.00  0.00    -0.261 C  
HETATM   15  C   UNL     1     -11.097  12.094  66.768  1.00  0.00    -0.349 C  
HETATM   16  C   UNL     1     -10.837  12.909  64.453  1.00  0.00    -0.404 C  
HETATM   17  C   UNL     1     -11.530  10.846  66.808  1.00  0.00     0.202 C  
HETATM   18  C   UNL     1     -10.196  10.241  66.795  1.00  0.00    -0.228 C  
HETATM   19  C   UNL     1      -9.886   9.593  65.527  1.00  0.00    -0.352 C  
HETATM   20  O   UNL     1      -9.358  10.452  67.672  1.00  0.00    -0.147 OA 
HETATM   21  C   UNL     1      -9.498   8.110  66.005  1.00  0.00    -0.158 C  
HETATM   22  C   UNL     1      -9.847   7.163  64.834  1.00  0.00     2.672 C  
HETATM   23  C   UNL     1     -10.434   7.706  67.211  1.00  0.00    -0.396 C  
HETATM   24  C   UNL     1     -10.105   6.569  68.162  1.00  0.00    -0.170 C  
HETATM   25  C   UNL     1      -8.616   6.464  68.563  1.00  0.00    -0.122 C  
HETATM   26  C   UNL     1      -7.736   6.510  67.220  1.00  0.00    -0.101 C  
HETATM   27  C   UNL     1      -7.514  10.385  65.360  1.00  0.00    -0.127 C  
HETATM   28  C   UNL     1      -8.027   7.974  66.486  1.00  0.00    -0.102 C  
HETATM   29  C   UNL     1      -8.163   5.208  66.432  1.00  0.00    -0.108 C  
HETATM   30  C   UNL     1      -6.275   6.190  67.586  1.00  0.00    -0.029 C  
HETATM   31  C   UNL     1      -9.062  10.822  63.446  1.00  0.00    -0.244 C  
HETATM   32  C   UNL     1      -9.039  10.833  65.010  1.00  0.00    -0.226 C  
HETATM   33  C   UNL     1      -7.160   8.752  65.440  1.00  0.00    -0.083 C  
ENDROOT
BRANCH  25  34
HETATM   34  O   UNL     1      -8.168   7.138  69.807  1.00  0.00    -0.127 OA 
BRANCH  34  35
HETATM   35  C   UNL     1      -8.570   8.506  70.136  1.00  0.00    -0.132 C  
HETATM   36  C   UNL     1      -8.722   8.838  73.057  1.00  0.00     0.337 C  
HETATM   37  O   UNL     1      -9.713   8.468  70.961  1.00  0.00    -0.171 OA 
HETATM   38  C   UNL     1     -10.819   7.397  72.919  1.00  0.00    -0.354 C  
HETATM   39  C   UNL     1      -9.505   7.866  72.218  1.00  0.00    -0.189 C  
HETATM   40  O   UNL     1      -8.401   8.220  74.313  1.00  0.00    -0.299 OA 
HETATM   41  C   UNL     1      -7.440   9.262  72.347  1.00  0.00     0.856 C  
HETATM   42  O   UNL     1     -11.968   7.550  72.550  1.00  0.00    -0.260 OA 
HETATM   43  O   UNL     1     -10.606   6.673  74.043  1.00  0.00    -0.323 OA 
HETATM   44  O   UNL     1      -7.033  10.495  72.998  1.00  0.00     3.012 OA 
HETATM   45  H   UNL     1      -7.906   8.835  74.842  1.00  0.00     0.000 HD 
HETATM   46  C   UNL     1      -7.524   9.481  70.816  1.00  0.00    -0.076 C  
HETATM   47  H   UNL     1      -6.235  10.759  72.556  1.00  0.00     0.000 HD 
BRANCH  46  48
HETATM   48  O   UNL     1      -6.211   9.502  70.193  1.00  0.00    -0.049 OA 
BRANCH  48  49
HETATM   49  C   UNL     1      -5.756  10.836  69.873  1.00  0.00    -0.063 C  
HETATM   50  O   UNL     1      -6.170  11.788  70.859  1.00  0.00    -0.245 OA 
HETATM   51  C   UNL     1      -5.478  13.040  70.655  1.00  0.00    -0.169 C  
HETATM   52  C   UNL     1      -5.633  13.928  71.890  1.00  0.00    -0.189 C  
HETATM   53  C   UNL     1      -6.055  13.684  69.396  1.00  0.00    -0.104 C  
HETATM   54  O   UNL     1      -5.443  14.931  69.035  1.00  0.00    -0.092 OA 
HETATM   55  C   UNL     1      -5.856  12.749  68.191  1.00  0.00    -0.083 C  
HETATM   56  O   UNL     1      -6.360  13.338  72.867  1.00  0.00     1.236 OA 
HETATM   57  O   UNL     1      -5.126  15.032  72.024  1.00  0.00    -0.173 OA 
HETATM   58  O   UNL     1      -6.659  13.199  67.089  1.00  0.00    -0.431 OA 
HETATM   59  C   UNL     1      -6.113  11.247  68.433  1.00  0.00    -0.045 C  
HETATM   60  H   UNL     1      -5.802  15.332  68.253  1.00  0.00     0.000 HD 
HETATM   61  H   UNL     1      -6.536  12.621  66.345  1.00  0.00     0.000 HD 
HETATM   62  O   UNL     1      -5.225  10.491  67.558  1.00  0.00    -0.040 OA 
HETATM   63  H   UNL     1      -5.445  10.745  66.669  1.00  0.00     0.000 HD 
ENDBRANCH  48  49
ENDBRANCH  46  48
ENDBRANCH  34  35
ENDBRANCH  25  34
TORSDOF 4
ENDMDL
MODEL       34
REMARK 921   NORMALIZED FREE ENERGY PREDICTED BY IDOCK:    3.40 KCAL/MOL
REMARK 922        TOTAL FREE ENERGY PREDICTED BY IDOCK:    3.29 KCAL/MOL
REMARK 923 INTER-LIGAND FREE ENERGY PREDICTED BY IDOCK:    3.97 KCAL/MOL
REMARK 924 INTRA-LIGAND FREE ENERGY PREDICTED BY IDOCK:   -0.68 KCAL/MOL
REMARK 927      BINDING AFFINITY PREDICTED BY RF-SCORE:    0.00 PKD
ROOT
HETATM    1  C   UNL     1     -12.150  16.106  69.710  1.00  0.00     0.019 C  
HETATM    2  C   UNL     1     -12.681  14.847  70.536  1.00  0.00    -0.399 C  
HETATM    3  C   UNL     1     -12.939  14.978  72.057  1.00  0.00    -0.427 C  
HETATM    4  C   UNL     1     -11.818  15.824  72.693  1.00  0.00    -0.596 C  
HETATM    5  C   UNL     1     -14.356  15.510  72.346  1.00  0.00    -0.475 C  
HETATM    6  C   UNL     1     -12.949  13.613  72.790  1.00  0.00    -0.176 C  
HETATM    7  O   UNL     1     -12.308  13.358  73.808  1.00  0.00     1.789 OA 
HETATM    8  O   UNL     1     -13.780  12.695  72.277  1.00  0.00    -0.507 OA 
HETATM    9  C   UNL     1     -11.252  17.007  71.861  1.00  0.00     0.962 C  
HETATM   10  C   UNL     1     -10.883  16.665  70.376  1.00  0.00     0.021 C  
HETATM   11  C   UNL     1      -9.676  15.705  70.442  1.00  0.00     0.522 C  
HETATM   12  C   UNL     1     -10.448  17.862  69.471  1.00  0.00     0.365 C  
HETATM   13  C   UNL     1      -9.859  17.413  68.037  1.00  0.00    -0.288 C  
HETATM   14  C   UNL     1     -10.807  16.489  67.163  1.00  0.00    -0.142 C  
HETATM   15  C   UNL     1     -11.910  15.831  68.197  1.00  0.00    -0.054 C  
HETATM   16  C   UNL     1     -11.719  17.533  66.420  1.00  0.00     2.285 C  
HETATM   17  C   UNL     1     -12.492  14.728  67.763  1.00  0.00     0.417 C  
HETATM   18  C   UNL     1     -11.249  14.077  67.339  1.00  0.00    -0.311 C  
HETATM   19  C   UNL     1     -11.118  14.011  65.889  1.00  0.00    -0.301 C  
HETATM   20  O   UNL     1     -10.330  13.822  68.117  1.00  0.00    -0.238 OA 
HETATM   21  C   UNL     1     -10.886  12.440  65.655  1.00  0.00    -0.312 C  
HETATM   22  C   UNL     1     -11.437  12.117  64.247  1.00  0.00    -0.437 C  
HETATM   23  C   UNL     1     -11.774  11.638  66.685  1.00  0.00    -0.066 C  
HETATM   24  C   UNL     1     -11.523  10.180  67.028  1.00  0.00     0.724 C  
HETATM   25  C   UNL     1     -10.034   9.790  67.167  1.00  0.00    -0.198 C  
HETATM   26  C   UNL     1      -9.256  10.333  65.871  1.00  0.00    -0.205 C  
HETATM   27  C   UNL     1      -8.683  14.598  65.785  1.00  0.00     1.028 C  
HETATM   28  C   UNL     1      -9.413  11.989  65.856  1.00  0.00    -0.207 C  
HETATM   29  C   UNL     1      -9.901   9.534  64.668  1.00  0.00     0.268 C  
HETATM   30  C   UNL     1      -7.824   9.766  65.892  1.00  0.00    -0.108 C  
HETATM   31  C   UNL     1     -10.300  15.938  64.428  1.00  0.00     1.153 C  
HETATM   32  C   UNL     1     -10.161  15.277  65.840  1.00  0.00    -0.353 C  
HETATM   33  C   UNL     1      -8.533  13.064  65.133  1.00  0.00     2.829 C  
ENDROOT
BRANCH  25  34
HETATM   34  O   UNL     1      -9.414   9.827  68.515  1.00  0.00    -0.142 OA 
BRANCH  34  35
HETATM   35  C   UNL     1      -8.097   9.245  68.778  1.00  0.00    -0.104 C  
HETATM   36  C   UNL     1      -6.437  11.149  70.291  1.00  0.00    -0.035 C  
HETATM   37  O   UNL     1      -7.100  10.114  68.291  1.00  0.00    -0.074 OA 
HETATM   38  C   UNL     1      -6.308  12.469  68.115  1.00  0.00    -0.076 C  
HETATM   39  C   UNL     1      -7.050  11.366  68.935  1.00  0.00    -0.109 C  
HETATM   40  O   UNL     1      -6.463  12.385  71.020  1.00  0.00    -0.213 OA 
HETATM   41  C   UNL     1      -7.196  10.076  71.067  1.00  0.00     0.532 C  
HETATM   42  O   UNL     1      -5.727  12.358  67.053  1.00  0.00    -0.286 OA 
HETATM   43  O   UNL     1      -6.408  13.706  68.657  1.00  0.00    -0.080 OA 
HETATM   44  O   UNL     1      -6.279   9.634  72.103  1.00  0.00    -0.294 OA 
HETATM   45  H   UNL     1      -6.076  12.248  71.877  1.00  0.00     0.000 HD 
HETATM   46  C   UNL     1      -7.704   8.854  70.262  1.00  0.00    -0.090 C  
HETATM   47  H   UNL     1      -6.751   8.967  72.586  1.00  0.00     0.000 HD 
BRANCH  46  48
HETATM   48  O   UNL     1      -8.716   8.104  70.987  1.00  0.00    -0.127 OA 
BRANCH  48  49
HETATM   49  C   UNL     1      -8.657   6.682  70.735  1.00  0.00    -0.135 C  
HETATM   50  O   UNL     1      -9.574   6.288  69.708  1.00  0.00    -0.150 OA 
HETATM   51  C   UNL     1      -9.299   4.929  69.299  1.00  0.00    -0.128 C  
HETATM   52  C   UNL     1     -10.014   4.627  67.982  1.00  0.00    -0.066 C  
HETATM   53  C   UNL     1      -9.748   4.008  70.432  1.00  0.00    -0.193 C  
HETATM   54  O   UNL     1      -9.509   2.614  70.191  1.00  0.00    -0.136 OA 
HETATM   55  C   UNL     1      -8.984   4.353  71.721  1.00  0.00    -0.124 C  
HETATM   56  O   UNL     1     -10.715   5.688  67.515  1.00  0.00    -0.243 OA 
HETATM   57  O   UNL     1      -9.938   3.571  67.373  1.00  0.00     0.016 OA 
HETATM   58  O   UNL     1      -9.612   3.717  72.844  1.00  0.00    -0.119 OA 
HETATM   59  C   UNL     1      -8.787   5.853  72.027  1.00  0.00    -0.137 C  
HETATM   60  H   UNL     1      -9.788   2.041  70.895  1.00  0.00     0.000 HD 
HETATM   61  H   UNL     1      -9.140   3.930  73.641  1.00  0.00     0.000 HD 
HETATM   62  O   UNL     1      -7.525   6.006  72.741  1.00  0.00    -0.092 OA 
HETATM   63  H   UNL     1      -7.605   5.494  73.538  1.00  0.00     0.000 HD 
ENDBRANCH  48  49
ENDBRANCH  46  48
ENDBRANCH  34  35
ENDBRANCH  25  34
TORSDOF 4
ENDMDL
MODEL       35
REMARK 921   NORMALIZED FREE ENERGY PREDICTED BY IDOCK:    4.33 KCAL/MOL
REMARK 922        TOTAL FREE ENERGY PREDICTED BY IDOCK:    4.44 KCAL/MOL
REMARK 923 INTER-LIGAND FREE ENERGY PREDICTED BY IDOCK:   -0.42 KCAL/MOL
REMARK 924 INTRA-LIGAND FREE ENERGY PREDICTED BY IDOCK:    4.86 KCAL/MOL
REMARK 927      BINDING AFFINITY PREDICTED BY RF-SCORE:    0.00 PKD
ROOT
HETATM    1  C   UNL     1      -8.488   6.313  66.997  1.00  0.00    -0.108 C  
HETATM    2  C   UNL     1      -8.305   7.277  65.737  1.00  0.00    -0.140 C  
HETATM    3  C   UNL     1      -7.167   7.010  64.722  1.00  0.00    -0.072 C  
HETATM    4  C   UNL     1      -5.896   6.585  65.483  1.00  0.00    -0.026 C  
HETATM    5  C   UNL     1      -7.603   6.007  63.636  1.00  0.00    -0.080 C  
HETATM    6  C   UNL     1      -6.798   8.257  63.882  1.00  0.00    -0.075 C  
HETATM    7  O   UNL     1      -5.655   8.682  63.721  1.00  0.00    -0.064 OA 
HETATM    8  O   UNL     1      -7.824   8.847  63.252  1.00  0.00    -0.128 OA 
HETATM    9  C   UNL     1      -6.077   5.704  66.749  1.00  0.00    -0.029 C  
HETATM   10  C   UNL     1      -7.161   6.207  67.764  1.00  0.00    -0.083 C  
HETATM   11  C   UNL     1      -6.618   7.524  68.358  1.00  0.00    -0.050 C  
HETATM   12  C   UNL     1      -7.472   5.271  68.976  1.00  0.00    -0.070 C  
HETATM   13  C   UNL     1      -8.413   5.948  70.098  1.00  0.00    -0.126 C  
HETATM   14  C   UNL     1      -9.801   6.515  69.580  1.00  0.00    -0.167 C  
HETATM   15  C   UNL     1      -9.654   6.710  67.950  1.00  0.00    -0.121 C  
HETATM   16  C   UNL     1     -10.730   5.247  69.621  1.00  0.00    -0.155 C  
HETATM   17  C   UNL     1     -10.511   7.557  67.409  1.00  0.00    -0.367 C  
HETATM   18  C   UNL     1     -10.300   8.614  68.401  1.00  0.00    -0.201 C  
HETATM   19  C   UNL     1     -11.437   8.775  69.299  1.00  0.00     0.520 C  
HETATM   20  O   UNL     1      -9.206   9.145  68.589  1.00  0.00    -0.136 OA 
HETATM   21  C   UNL     1     -11.770  10.336  69.126  1.00  0.00    -0.108 C  
HETATM   22  C   UNL     1     -13.283  10.498  69.398  1.00  0.00     1.584 C  
HETATM   23  C   UNL     1     -11.535  10.740  67.618  1.00  0.00    -0.234 C  
HETATM   24  C   UNL     1     -11.361  12.181  67.169  1.00  0.00    -0.393 C  
HETATM   25  C   UNL     1     -10.509  13.059  68.113  1.00  0.00    -0.245 C  
HETATM   26  C   UNL     1     -11.068  12.870  69.606  1.00  0.00     0.028 C  
HETATM   27  C   UNL     1     -10.112   9.078  71.404  1.00  0.00    -0.399 C  
HETATM   28  C   UNL     1     -10.886  11.264  70.004  1.00  0.00     0.124 C  
HETATM   29  C   UNL     1     -12.542  13.437  69.545  1.00  0.00     0.181 C  
HETATM   30  C   UNL     1     -10.374  13.898  70.519  1.00  0.00     2.016 C  
HETATM   31  C   UNL     1     -11.877   7.308  71.341  1.00  0.00    -0.338 C  
HETATM   32  C   UNL     1     -10.749   7.924  70.449  1.00  0.00    -0.233 C  
HETATM   33  C   UNL     1     -10.827  10.590  71.416  1.00  0.00     1.381 C  
ENDROOT
BRANCH  25  34
HETATM   34  O   UNL     1      -9.057  13.192  67.840  1.00  0.00    -0.189 OA 
BRANCH  34  35
HETATM   35  C   UNL     1      -8.547  14.004  66.734  1.00  0.00    -0.055 C  
HETATM   36  C   UNL     1     -10.624  15.881  65.820  1.00  0.00    -0.355 C  
HETATM   37  O   UNL     1      -9.414  13.879  65.628  1.00  0.00    -0.099 OA 
HETATM   38  C   UNL     1     -11.776  13.829  64.842  1.00  0.00    -0.363 C  
HETATM   39  C   UNL     1     -10.712  14.380  65.844  1.00  0.00    -0.306 C  
HETATM   40  O   UNL     1     -11.912  16.430  66.139  1.00  0.00     1.260 OA 
HETATM   41  C   UNL     1      -9.587  16.382  66.821  1.00  0.00    -0.248 C  
HETATM   42  O   UNL     1     -11.606  13.097  63.886  1.00  0.00    -0.407 OA 
HETATM   43  O   UNL     1     -13.047  14.179  65.154  1.00  0.00    -0.757 OA 
HETATM   44  O   UNL     1      -9.262  17.730  66.390  1.00  0.00    -0.296 OA 
HETATM   45  H   UNL     1     -11.856  17.379  66.124  1.00  0.00     0.000 HD 
HETATM   46  C   UNL     1      -8.287  15.550  66.962  1.00  0.00    -0.232 C  
HETATM   47  H   UNL     1      -8.616  18.043  67.012  1.00  0.00     0.000 HD 
BRANCH  46  48
HETATM   48  O   UNL     1      -7.558  15.876  68.175  1.00  0.00    -0.127 OA 
BRANCH  48  49
HETATM   49  C   UNL     1      -6.703  14.804  68.629  1.00  0.00    -0.088 C  
HETATM   50  O   UNL     1      -6.969  13.582  67.932  1.00  0.00    -0.108 OA 
HETATM   51  C   UNL     1      -5.930  12.619  68.213  1.00  0.00    -0.068 C  
HETATM   52  C   UNL     1      -6.004  11.465  67.212  1.00  0.00    -0.081 C  
HETATM   53  C   UNL     1      -6.112  12.152  69.656  1.00  0.00    -0.129 C  
HETATM   54  O   UNL     1      -5.128  11.210  70.103  1.00  0.00    -0.050 OA 
HETATM   55  C   UNL     1      -6.014  13.354  70.611  1.00  0.00    -0.105 C  
HETATM   56  O   UNL     1      -7.002  11.622  66.311  1.00  0.00     0.047 OA 
HETATM   57  O   UNL     1      -5.230  10.520  67.178  1.00  0.00    -0.040 OA 
HETATM   58  O   UNL     1      -6.488  12.981  71.914  1.00  0.00     0.840 OA 
HETATM   59  C   UNL     1      -6.717  14.652  70.162  1.00  0.00    -0.106 C  
HETATM   60  H   UNL     1      -5.242  10.920  71.000  1.00  0.00     0.000 HD 
HETATM   61  H   UNL     1      -6.427  13.724  72.503  1.00  0.00     0.000 HD 
HETATM   62  O   UNL     1      -5.962  15.782  70.693  1.00  0.00    -0.043 OA 
HETATM   63  H   UNL     1      -5.970  15.688  71.639  1.00  0.00     0.000 HD 
ENDBRANCH  48  49
ENDBRANCH  46  48
ENDBRANCH  34  35
ENDBRANCH  25  34
TORSDOF 4
ENDMDL
MODEL       36
REMARK 921   NORMALIZED FREE ENERGY PREDICTED BY IDOCK:    4.83 KCAL/MOL
REMARK 922        TOTAL FREE ENERGY PREDICTED BY IDOCK:    5.06 KCAL/MOL
REMARK 923 INTER-LIGAND FREE ENERGY PREDICTED BY IDOCK:    6.15 KCAL/MOL
REMARK 924 INTRA-LIGAND FREE ENERGY PREDICTED BY IDOCK:   -1.08 KCAL/MOL
REMARK 927      BINDING AFFINITY PREDICTED BY RF-SCORE:    0.00 PKD
ROOT
HETATM    1  C   UNL     1     -12.157  16.391  70.170  1.00  0.00     0.483 C  
HETATM    2  C   UNL     1     -12.797  15.054  70.763  1.00  0.00    -0.447 C  
HETATM    3  C   UNL     1     -13.039  14.927  72.287  1.00  0.00    -0.439 C  
HETATM    4  C   UNL     1     -11.846  15.543  73.045  1.00  0.00    -0.555 C  
HETATM    5  C   UNL     1     -14.403  15.519  72.693  1.00  0.00    -0.212 C  
HETATM    6  C   UNL     1     -13.169  13.458  72.761  1.00  0.00    -0.160 C  
HETATM    7  O   UNL     1     -12.551  12.968  73.704  1.00  0.00     2.400 OA 
HETATM    8  O   UNL     1     -14.079  12.724  72.105  1.00  0.00    -0.220 OA 
HETATM    9  C   UNL     1     -11.179  16.804  72.432  1.00  0.00     0.895 C  
HETATM   10  C   UNL     1     -10.845  16.707  70.903  1.00  0.00     0.461 C  
HETATM   11  C   UNL     1      -9.728  15.650  70.772  1.00  0.00     1.207 C  
HETATM   12  C   UNL     1     -10.307  18.007  70.222  1.00  0.00     1.398 C  
HETATM   13  C   UNL     1      -9.763  17.777  68.720  1.00  0.00    -0.314 C  
HETATM   14  C   UNL     1     -10.791  17.113  67.711  1.00  0.00    -0.270 C  
HETATM   15  C   UNL     1     -11.945  16.376  68.627  1.00  0.00     0.318 C  
HETATM   16  C   UNL     1     -11.608  18.350  67.185  1.00  0.00     1.424 C  
HETATM   17  C   UNL     1     -12.624  15.425  68.012  1.00  0.00     1.127 C  
HETATM   18  C   UNL     1     -11.445  14.757  67.455  1.00  0.00    -0.363 C  
HETATM   19  C   UNL     1     -11.322  14.944  66.015  1.00  0.00    -0.306 C  
HETATM   20  O   UNL     1     -10.550  14.286  68.157  1.00  0.00    -0.237 OA 
HETATM   21  C   UNL     1     -11.231  13.428  65.495  1.00  0.00    -0.303 C  
HETATM   22  C   UNL     1     -11.811  13.416  64.063  1.00  0.00    -0.498 C  
HETATM   23  C   UNL     1     -12.185  12.532  66.379  1.00  0.00    -0.100 C  
HETATM   24  C   UNL     1     -12.063  11.020  66.448  1.00  0.00     1.975 C  
HETATM   25  C   UNL     1     -10.614  10.484  66.487  1.00  0.00    -0.174 C  
HETATM   26  C   UNL     1      -9.794  11.183  65.298  1.00  0.00    -0.296 C  
HETATM   27  C   UNL     1      -8.845  15.327  65.974  1.00  0.00    -0.029 C  
HETATM   28  C   UNL     1      -9.803  12.822  65.585  1.00  0.00    -0.190 C  
HETATM   29  C   UNL     1     -10.509  10.675  63.982  1.00  0.00    -0.150 C  
HETATM   30  C   UNL     1      -8.417  10.501  65.190  1.00  0.00    -0.170 C  
HETATM   31  C   UNL     1     -10.339  17.027  64.913  1.00  0.00     0.685 C  
HETATM   32  C   UNL     1     -10.257  16.110  66.178  1.00  0.00    -0.351 C  
HETATM   33  C   UNL     1      -8.833  13.931  65.054  1.00  0.00     2.720 C  
ENDROOT
BRANCH  25  34
HETATM   34  O   UNL     1      -9.991  10.221  67.808  1.00  0.00    -0.165 OA 
BRANCH  34  35
HETATM   35  C   UNL     1      -9.666   8.866  68.256  1.00  0.00    -0.157 C  
HETATM   36  C   UNL     1      -6.903   8.772  69.268  1.00  0.00    -0.050 C  
HETATM   37  O   UNL     1      -8.506   8.422  67.589  1.00  0.00    -0.128 OA 
HETATM   38  C   UNL     1      -6.206   8.999  66.827  1.00  0.00    -0.062 C  
HETATM   39  C   UNL     1      -7.344   9.162  67.884  1.00  0.00    -0.084 C  
HETATM   40  O   UNL     1      -5.779   9.581  69.646  1.00  0.00    -0.033 OA 
HETATM   41  C   UNL     1      -8.035   8.959  70.274  1.00  0.00    -0.115 C  
HETATM   42  O   UNL     1      -6.180   8.276  65.849  1.00  0.00    -0.047 OA 
HETATM   43  O   UNL     1      -5.160   9.836  67.023  1.00  0.00    -0.040 OA 
HETATM   44  O   UNL     1      -7.668   8.142  71.417  1.00  0.00    -0.078 OA 
HETATM   45  H   UNL     1      -5.501   9.335  70.521  1.00  0.00     0.000 HD 
HETATM   46  C   UNL     1      -9.463   8.586  69.801  1.00  0.00    -0.166 C  
HETATM   47  H   UNL     1      -8.373   8.258  72.044  1.00  0.00     0.000 HD 
BRANCH  46  48
HETATM   48  O   UNL     1     -10.488   9.146  70.665  1.00  0.00    -0.209 OA 
BRANCH  48  49
HETATM   49  C   UNL     1     -11.011   8.192  71.617  1.00  0.00    -0.250 C  
HETATM   50  O   UNL     1     -10.332   6.934  71.534  1.00  0.00    -0.203 OA 
HETATM   51  C   UNL     1     -10.689   6.108  72.665  1.00  0.00    -0.229 C  
HETATM   52  C   UNL     1      -9.714   4.935  72.780  1.00  0.00    -0.144 C  
HETATM   53  C   UNL     1     -12.132   5.651  72.464  1.00  0.00     0.017 C  
HETATM   54  O   UNL     1     -12.651   4.841  73.529  1.00  0.00    -0.086 OA 
HETATM   55  C   UNL     1     -13.060   6.874  72.369  1.00  0.00     0.320 C  
HETATM   56  O   UNL     1      -8.761   4.954  71.819  1.00  0.00    -0.124 OA 
HETATM   57  O   UNL     1      -9.742   4.089  73.662  1.00  0.00    -0.108 OA 
HETATM   58  O   UNL     1     -14.347   6.471  71.875  1.00  0.00    -0.326 OA 
HETATM   59  C   UNL     1     -12.545   8.069  71.541  1.00  0.00    -0.312 C  
HETATM   60  H   UNL     1     -13.548   4.557  73.404  1.00  0.00     0.000 HD 
HETATM   61  H   UNL     1     -14.919   7.227  71.817  1.00  0.00     0.000 HD 
HETATM   62  O   UNL     1     -13.084   9.291  72.128  1.00  0.00    -0.386 OA 
HETATM   63  H   UNL     1     -14.030   9.215  72.082  1.00  0.00     0.000 HD 
ENDBRANCH  48  49
ENDBRANCH  46  48
ENDBRANCH  34  35
ENDBRANCH  25  34
TORSDOF 4
ENDMDL
MODEL       37
REMARK 921   NORMALIZED FREE ENERGY PREDICTED BY IDOCK:    6.18 KCAL/MOL
REMARK 922        TOTAL FREE ENERGY PREDICTED BY IDOCK:    6.73 KCAL/MOL
REMARK 923 INTER-LIGAND FREE ENERGY PREDICTED BY IDOCK:    6.69 KCAL/MOL
REMARK 924 INTRA-LIGAND FREE ENERGY PREDICTED BY IDOCK:    0.03 KCAL/MOL
REMARK 927      BINDING AFFINITY PREDICTED BY RF-SCORE:    0.00 PKD
ROOT
HETATM    1  C   UNL     1     -11.652  15.809  68.339  1.00  0.00    -0.343 C  
HETATM    2  C   UNL     1     -11.739  14.959  69.688  1.00  0.00    -0.356 C  
HETATM    3  C   UNL     1     -11.650  15.677  71.057  1.00  0.00    -0.434 C  
HETATM    4  C   UNL     1     -10.581  16.786  70.981  1.00  0.00     1.230 C  
HETATM    5  C   UNL     1     -13.031  16.179  71.522  1.00  0.00     0.264 C  
HETATM    6  C   UNL     1     -11.242  14.731  72.213  1.00  0.00     0.523 C  
HETATM    7  O   UNL     1     -10.344  14.957  73.022  1.00  0.00     2.361 OA 
HETATM    8  O   UNL     1     -11.992  13.626  72.340  1.00  0.00     0.621 OA 
HETATM    9  C   UNL     1     -10.449  17.566  69.646  1.00  0.00     0.237 C  
HETATM   10  C   UNL     1     -10.386  16.678  68.355  1.00  0.00    -0.299 C  
HETATM   11  C   UNL     1      -9.045  15.916  68.422  1.00  0.00    -0.189 C  
HETATM   12  C   UNL     1     -10.398  17.432  66.986  1.00  0.00    -0.318 C  
HETATM   13  C   UNL     1     -10.093  16.483  65.718  1.00  0.00    -0.328 C  
HETATM   14  C   UNL     1     -11.039  15.220  65.562  1.00  0.00    -0.330 C  
HETATM   15  C   UNL     1     -11.730  14.961  67.035  1.00  0.00    -0.274 C  
HETATM   16  C   UNL     1     -12.272  15.804  64.780  1.00  0.00     0.342 C  
HETATM   17  C   UNL     1     -12.191  13.738  67.229  1.00  0.00    -0.315 C  
HETATM   18  C   UNL     1     -10.987  13.061  66.739  1.00  0.00    -0.276 C  
HETATM   19  C   UNL     1     -11.191  12.422  65.445  1.00  0.00    -0.358 C  
HETATM   20  O   UNL     1      -9.880  13.210  67.256  1.00  0.00    -0.224 OA 
HETATM   21  C   UNL     1     -10.743  10.911  65.754  1.00  0.00    -0.179 C  
HETATM   22  C   UNL     1     -11.543  10.007  64.790  1.00  0.00     4.497 C  
HETATM   23  C   UNL     1     -11.205  10.536  67.217  1.00  0.00    -0.202 C  
HETATM   24  C   UNL     1     -10.621   9.365  67.988  1.00  0.00    -0.278 C  
HETATM   25  C   UNL     1      -9.097   9.172  67.827  1.00  0.00    -0.126 C  
HETATM   26  C   UNL     1      -8.757   9.195  66.258  1.00  0.00    -0.159 C  
HETATM   27  C   UNL     1      -8.996  13.087  64.435  1.00  0.00     2.302 C  
HETATM   28  C   UNL     1      -9.207  10.687  65.675  1.00  0.00    -0.227 C  
HETATM   29  C   UNL     1      -9.512   7.933  65.678  1.00  0.00     0.248 C  
HETATM   30  C   UNL     1      -7.282   8.790  66.074  1.00  0.00    -0.088 C  
HETATM   31  C   UNL     1     -11.100  13.643  63.205  1.00  0.00     1.186 C  
HETATM   32  C   UNL     1     -10.517  13.623  64.657  1.00  0.00    -0.442 C  
HETATM   33  C   UNL     1      -8.731  11.436  64.385  1.00  0.00     0.403 C  
ENDROOT
BRANCH  25  34
HETATM   34  O   UNL     1      -8.194   9.797  68.825  1.00  0.00    -0.101 OA 
BRANCH  34  35
HETATM   35  C   UNL     1      -6.776   9.444  68.915  1.00  0.00    -0.051 C  
HETATM   36  C   UNL     1      -5.682  10.317  71.505  1.00  0.00     0.118 C  
HETATM   37  O   UNL     1      -6.027  10.604  69.201  1.00  0.00    -0.041 OA 
HETATM   38  C   UNL     1      -5.862  12.680  70.567  1.00  0.00    -0.129 C  
HETATM   39  C   UNL     1      -6.309  11.188  70.452  1.00  0.00    -0.031 C  
HETATM   40  O   UNL     1      -6.035  10.823  72.802  1.00  0.00     0.661 OA 
HETATM   41  C   UNL     1      -6.152   8.872  71.370  1.00  0.00    -0.061 C  
HETATM   42  O   UNL     1      -5.256  13.352  69.755  1.00  0.00    -0.084 OA 
HETATM   43  O   UNL     1      -6.283  13.285  71.703  1.00  0.00     0.079 OA 
HETATM   44  O   UNL     1      -5.169   8.082  72.089  1.00  0.00    -0.035 OA 
HETATM   45  H   UNL     1      -5.638  10.273  73.467  1.00  0.00     0.000 HD 
HETATM   46  C   UNL     1      -6.318   8.320  69.932  1.00  0.00    -0.032 C  
HETATM   47  H   UNL     1      -5.461   7.182  72.005  1.00  0.00     0.000 HD 
BRANCH  46  48
HETATM   48  O   UNL     1      -7.115   7.105  69.902  1.00  0.00    -0.069 OA 
BRANCH  48  49
HETATM   49  C   UNL     1      -7.977   6.962  71.053  1.00  0.00    -0.102 C  
HETATM   50  O   UNL     1      -8.072   5.597  71.477  1.00  0.00    -0.114 OA 
HETATM   51  C   UNL     1      -8.710   5.529  72.772  1.00  0.00    -0.119 C  
HETATM   52  C   UNL     1      -8.494   4.144  73.385  1.00  0.00    -0.089 C  
HETATM   53  C   UNL     1     -10.189   5.855  72.574  1.00  0.00    -0.187 C  
HETATM   54  O   UNL     1     -10.961   5.862  73.783  1.00  0.00    -0.416 OA 
HETATM   55  C   UNL     1     -10.338   7.261  71.968  1.00  0.00    -0.192 C  
HETATM   56  O   UNL     1      -7.762   3.331  72.589  1.00  0.00    -0.059 OA 
HETATM   57  O   UNL     1      -8.886   3.803  74.491  1.00  0.00    -0.090 OA 
HETATM   58  O   UNL     1     -11.681   7.448  71.496  1.00  0.00    -0.264 OA 
HETATM   59  C   UNL     1      -9.344   7.639  70.849  1.00  0.00    -0.157 C  
HETATM   60  H   UNL     1     -11.880   6.064  73.660  1.00  0.00     0.000 HD 
HETATM   61  H   UNL     1     -11.772   8.316  71.121  1.00  0.00     0.000 HD 
HETATM   62  O   UNL     1      -9.106   9.077  70.925  1.00  0.00    -0.209 OA 
HETATM   63  H   UNL     1      -9.950   9.495  70.800  1.00  0.00     0.000 HD 
ENDBRANCH  48  49
ENDBRANCH  46  48
ENDBRANCH  34  35
ENDBRANCH  25  34
TORSDOF 4
ENDMDL
MODEL       38
REMARK 921   NORMALIZED FREE ENERGY PREDICTED BY IDOCK:    6.27 KCAL/MOL
REMARK 922        TOTAL FREE ENERGY PREDICTED BY IDOCK:    6.84 KCAL/MOL
REMARK 923 INTER-LIGAND FREE ENERGY PREDICTED BY IDOCK:    3.08 KCAL/MOL
REMARK 924 INTRA-LIGAND FREE ENERGY PREDICTED BY IDOCK:    3.76 KCAL/MOL
REMARK 927      BINDING AFFINITY PREDICTED BY RF-SCORE:    0.00 PKD
ROOT
HETATM    1  C   UNL     1      -8.089   8.587  72.175  1.00  0.00    -0.162 C  
HETATM    2  C   UNL     1      -9.556   8.092  71.785  1.00  0.00    -0.231 C  
HETATM    3  C   UNL     1     -10.154   6.841  72.475  1.00  0.00    -0.190 C  
HETATM    4  C   UNL     1      -9.057   5.768  72.624  1.00  0.00    -0.131 C  
HETATM    5  C   UNL     1     -10.848   7.205  73.801  1.00  0.00    -0.038 C  
HETATM    6  C   UNL     1     -11.311   6.199  71.669  1.00  0.00    -0.284 C  
HETATM    7  O   UNL     1     -11.393   5.004  71.389  1.00  0.00     0.279 OA 
HETATM    8  O   UNL     1     -12.303   7.033  71.328  1.00  0.00    -0.349 OA 
HETATM    9  C   UNL     1      -7.615   6.254  72.933  1.00  0.00    -0.096 C  
HETATM   10  C   UNL     1      -7.095   7.425  72.030  1.00  0.00    -0.063 C  
HETATM   11  C   UNL     1      -6.944   6.839  70.610  1.00  0.00    -0.063 C  
HETATM   12  C   UNL     1      -5.706   8.035  72.407  1.00  0.00    -0.038 C  
HETATM   13  C   UNL     1      -5.126   9.063  71.307  1.00  0.00    -0.031 C  
HETATM   14  C   UNL     1      -6.079  10.273  70.928  1.00  0.00    -0.027 C  
HETATM   15  C   UNL     1      -7.601   9.840  71.389  1.00  0.00     0.866 C  
HETATM   16  C   UNL     1      -5.748  11.336  72.040  1.00  0.00     0.938 C  
HETATM   17  C   UNL     1      -8.576  10.495  70.785  1.00  0.00     2.262 C  
HETATM   18  C   UNL     1      -8.031  10.330  69.434  1.00  0.00    -0.159 C  
HETATM   19  C   UNL     1      -7.499  11.572  68.889  1.00  0.00    -0.106 C  
HETATM   20  O   UNL     1      -7.846   9.228  68.919  1.00  0.00    -0.084 OA 
HETATM   21  C   UNL     1      -8.305  11.692  67.505  1.00  0.00    -0.151 C  
HETATM   22  C   UNL     1      -8.414  13.201  67.186  1.00  0.00    -0.173 C  
HETATM   23  C   UNL     1      -9.777  11.168  67.730  1.00  0.00    -0.183 C  
HETATM   24  C   UNL     1     -10.689  10.760  66.586  1.00  0.00    -0.268 C  
HETATM   25  C   UNL     1      -9.996   9.979  65.447  1.00  0.00    -0.294 C  
HETATM   26  C   UNL     1      -8.680  10.792  65.017  1.00  0.00    -0.160 C  
HETATM   27  C   UNL     1      -5.445  10.584  67.847  1.00  0.00    -0.040 C  
HETATM   28  C   UNL     1      -7.684  10.863  66.347  1.00  0.00    -0.154 C  
HETATM   29  C   UNL     1      -9.236  12.162  64.456  1.00  0.00     0.474 C  
HETATM   30  C   UNL     1      -8.103  10.144  63.745  1.00  0.00    -0.160 C  
HETATM   31  C   UNL     1      -5.184  12.505  69.425  1.00  0.00    -0.071 C  
HETATM   32  C   UNL     1      -6.004  11.183  69.253  1.00  0.00    -0.048 C  
HETATM   33  C   UNL     1      -6.140  11.113  66.421  1.00  0.00    -0.137 C  
ENDROOT
BRANCH  25  34
HETATM   34  O   UNL     1     -10.010   8.496  65.493  1.00  0.00     0.278 OA 
BRANCH  34  35
HETATM   35  C   UNL     1      -9.215   7.743  66.464  1.00  0.00    -0.184 C  
HETATM   36  C   UNL     1     -10.986   6.424  68.411  1.00  0.00    -0.309 C  
HETATM   37  O   UNL     1      -9.552   8.167  67.767  1.00  0.00    -0.146 OA 
HETATM   38  C   UNL     1     -11.386   8.761  69.343  1.00  0.00     0.322 C  
HETATM   39  C   UNL     1     -10.883   7.899  68.142  1.00  0.00     0.065 C  
HETATM   40  O   UNL     1     -12.354   6.094  68.697  1.00  0.00     1.430 OA 
HETATM   41  C   UNL     1     -10.500   5.615  67.212  1.00  0.00    -0.258 C  
HETATM   42  O   UNL     1     -10.760   9.559  70.015  1.00  0.00    -0.214 OA 
HETATM   43  O   UNL     1     -12.709   8.625  69.592  1.00  0.00     1.943 OA 
HETATM   44  O   UNL     1     -10.208   4.293  67.737  1.00  0.00     0.019 OA 
HETATM   45  H   UNL     1     -12.419   5.162  68.867  1.00  0.00     0.000 HD 
HETATM   46  C   UNL     1      -9.267   6.161  66.450  1.00  0.00    -0.152 C  
HETATM   47  H   UNL     1      -9.905   3.789  66.990  1.00  0.00     0.000 HD 
BRANCH  46  48
HETATM   48  O   UNL     1      -9.123   5.554  65.137  1.00  0.00    -0.092 OA 
BRANCH  48  49
HETATM   49  C   UNL     1      -8.311   4.359  65.150  1.00  0.00    -0.116 C  
HETATM   50  O   UNL     1      -7.350   4.382  66.210  1.00  0.00    -0.078 OA 
HETATM   51  C   UNL     1      -6.751   3.075  66.359  1.00  0.00    -0.047 C  
HETATM   52  C   UNL     1      -6.008   2.993  67.694  1.00  0.00    -0.027 C  
HETATM   53  C   UNL     1      -5.828   2.853  65.162  1.00  0.00    -0.018 C  
HETATM   54  O   UNL     1      -5.178   1.574  65.146  1.00  0.00    -0.004 OA 
HETATM   55  C   UNL     1      -6.637   2.936  63.857  1.00  0.00    -0.031 C  
HETATM   56  O   UNL     1      -6.094   4.138  68.409  1.00  0.00    -0.029 OA 
HETATM   57  O   UNL     1      -5.434   1.998  68.112  1.00  0.00    -0.016 OA 
HETATM   58  O   UNL     1      -5.744   3.039  62.737  1.00  0.00    -0.008 OA 
HETATM   59  C   UNL     1      -7.698   4.052  63.771  1.00  0.00    -0.082 C  
HETATM   60  H   UNL     1      -4.605   1.436  64.401  1.00  0.00     0.000 HD 
HETATM   61  H   UNL     1      -6.244   3.090  61.931  1.00  0.00     0.000 HD 
HETATM   62  O   UNL     1      -8.791   3.573  62.933  1.00  0.00    -0.092 OA 
HETATM   63  H   UNL     1      -8.413   3.383  62.082  1.00  0.00     0.000 HD 
ENDBRANCH  48  49
ENDBRANCH  46  48
ENDBRANCH  34  35
ENDBRANCH  25  34
TORSDOF 4
ENDMDL
MODEL       39
REMARK 921   NORMALIZED FREE ENERGY PREDICTED BY IDOCK:    6.53 KCAL/MOL
REMARK 922        TOTAL FREE ENERGY PREDICTED BY IDOCK:    7.16 KCAL/MOL
REMARK 923 INTER-LIGAND FREE ENERGY PREDICTED BY IDOCK:    4.15 KCAL/MOL
REMARK 924 INTRA-LIGAND FREE ENERGY PREDICTED BY IDOCK:    3.01 KCAL/MOL
REMARK 927      BINDING AFFINITY PREDICTED BY RF-SCORE:    0.00 PKD
ROOT
HETATM    1  C   UNL     1      -9.893   7.704  68.924  1.00  0.00    -0.164 C  
HETATM    2  C   UNL     1      -9.132   8.307  67.656  1.00  0.00    -0.139 C  
HETATM    3  C   UNL     1      -7.884   7.584  67.093  1.00  0.00    -0.117 C  
HETATM    4  C   UNL     1      -7.021   7.071  68.263  1.00  0.00    -0.080 C  
HETATM    5  C   UNL     1      -8.274   6.487  66.084  1.00  0.00    -0.123 C  
HETATM    6  C   UNL     1      -6.983   8.508  66.235  1.00  0.00    -0.077 C  
HETATM    7  O   UNL     1      -5.768   8.631  66.376  1.00  0.00    -0.045 OA 
HETATM    8  O   UNL     1      -7.609   9.153  65.240  1.00  0.00    -0.095 OA 
HETATM    9  C   UNL     1      -7.760   6.550  69.525  1.00  0.00    -0.100 C  
HETATM   10  C   UNL     1      -8.894   7.484  70.070  1.00  0.00    -0.144 C  
HETATM   11  C   UNL     1      -8.191   8.750  70.604  1.00  0.00    -0.159 C  
HETATM   12  C   UNL     1      -9.754   6.925  71.250  1.00  0.00    -0.175 C  
HETATM   13  C   UNL     1     -10.737   8.018  71.915  1.00  0.00    -0.311 C  
HETATM   14  C   UNL     1     -11.733   8.744  70.916  1.00  0.00    -0.299 C  
HETATM   15  C   UNL     1     -11.116   8.542  69.402  1.00  0.00     0.086 C  
HETATM   16  C   UNL     1     -12.948   7.747  70.852  1.00  0.00     0.055 C  
HETATM   17  C   UNL     1     -11.539   9.414  68.505  1.00  0.00     0.688 C  
HETATM   18  C   UNL     1     -11.318  10.592  69.348  1.00  0.00    -0.269 C  
HETATM   19  C   UNL     1     -12.563  11.187  69.818  1.00  0.00    -0.129 C  
HETATM   20  O   UNL     1     -10.210  10.902  69.786  1.00  0.00    -0.088 OA 
HETATM   21  C   UNL     1     -12.404  12.706  69.325  1.00  0.00     0.083 C  
HETATM   22  C   UNL     1     -13.833  13.247  69.089  1.00  0.00     6.300 C  
HETATM   23  C   UNL     1     -11.680  12.710  67.921  1.00  0.00    -0.412 C  
HETATM   24  C   UNL     1     -11.012  13.946  67.344  1.00  0.00    -0.299 C  
HETATM   25  C   UNL     1     -10.233  14.804  68.366  1.00  0.00    -0.224 C  
HETATM   26  C   UNL     1     -11.194  15.071  69.625  1.00  0.00    -0.296 C  
HETATM   27  C   UNL     1     -11.807  11.648  72.162  1.00  0.00     2.879 C  
HETATM   28  C   UNL     1     -11.564  13.590  70.288  1.00  0.00    -0.138 C  
HETATM   29  C   UNL     1     -12.390  15.916  69.028  1.00  0.00     0.208 C  
HETATM   30  C   UNL     1     -10.512  16.099  70.547  1.00  0.00     0.196 C  
HETATM   31  C   UNL     1     -13.904  10.332  71.815  1.00  0.00     0.008 C  
HETATM   32  C   UNL     1     -12.458  10.480  71.235  1.00  0.00    -0.524 C  
HETATM   33  C   UNL     1     -12.063  13.244  71.731  1.00  0.00     0.621 C  
ENDROOT
BRANCH  25  34
HETATM   34  O   UNL     1      -8.780  14.557  68.539  1.00  0.00    -0.169 OA 
BRANCH  34  35
HETATM   35  C   UNL     1      -7.810  14.877  67.491  1.00  0.00    -0.185 C  
HETATM   36  C   UNL     1      -8.790  17.125  65.861  1.00  0.00     0.027 C  
HETATM   37  O   UNL     1      -8.450  14.832  66.235  1.00  0.00     0.047 OA 
HETATM   38  C   UNL     1     -10.468  15.456  64.915  1.00  0.00    -0.292 C  
HETATM   39  C   UNL     1      -9.464  15.795  66.062  1.00  0.00    -0.357 C  
HETATM   40  O   UNL     1      -9.792  18.150  65.783  1.00  0.00    -0.527 OA 
HETATM   41  C   UNL     1      -7.829  17.428  67.007  1.00  0.00    -0.210 C  
HETATM   42  O   UNL     1     -10.436  14.524  64.134  1.00  0.00     0.148 OA 
HETATM   43  O   UNL     1     -11.532  16.292  64.861  1.00  0.00    -0.184 OA 
HETATM   44  O   UNL     1      -6.932  18.447  66.492  1.00  0.00    -0.195 OA 
HETATM   45  H   UNL     1      -9.366  18.990  65.656  1.00  0.00     0.000 HD 
HETATM   46  C   UNL     1      -7.007  16.241  67.567  1.00  0.00    -0.156 C  
HETATM   47  H   UNL     1      -6.333  18.636  67.205  1.00  0.00     0.000 HD 
BRANCH  46  48
HETATM   48  O   UNL     1      -6.430  16.540  68.866  1.00  0.00    -0.145 OA 
BRANCH  48  49
HETATM   49  C   UNL     1      -5.894  15.374  69.532  1.00  0.00    -0.118 C  
HETATM   50  O   UNL     1      -6.348  14.161  68.922  1.00  0.00    -0.082 OA 
HETATM   51  C   UNL     1      -5.589  13.042  69.432  1.00  0.00    -0.084 C  
HETATM   52  C   UNL     1      -5.807  11.817  68.542  1.00  0.00    -0.049 C  
HETATM   53  C   UNL     1      -6.035  12.803  70.874  1.00  0.00     0.192 C  
HETATM   54  O   UNL     1      -5.344  11.735  71.537  1.00  0.00    -0.337 OA 
HETATM   55  C   UNL     1      -5.778  14.063  71.716  1.00  0.00    -0.177 C  
HETATM   56  O   UNL     1      -6.636  12.070  67.502  1.00  0.00    -0.094 OA 
HETATM   57  O   UNL     1      -5.267  10.733  68.703  1.00  0.00    -0.041 OA 
HETATM   58  O   UNL     1      -6.468  13.960  72.971  1.00  0.00     0.196 OA 
HETATM   59  C   UNL     1      -6.116  15.416  71.056  1.00  0.00     0.364 C  
HETATM   60  H   UNL     1      -5.621  11.586  72.434  1.00  0.00     0.000 HD 
HETATM   61  H   UNL     1      -6.309  14.739  73.491  1.00  0.00     0.000 HD 
HETATM   62  O   UNL     1      -5.191  16.417  71.577  1.00  0.00    -0.140 OA 
HETATM   63  H   UNL     1      -5.328  16.443  72.517  1.00  0.00     0.000 HD 
ENDBRANCH  48  49
ENDBRANCH  46  48
ENDBRANCH  34  35
ENDBRANCH  25  34
TORSDOF 4
ENDMDL
MODEL       40
REMARK 921   NORMALIZED FREE ENERGY PREDICTED BY IDOCK:    6.87 KCAL/MOL
REMARK 922        TOTAL FREE ENERGY PREDICTED BY IDOCK:    7.58 KCAL/MOL
REMARK 923 INTER-LIGAND FREE ENERGY PREDICTED BY IDOCK:    7.21 KCAL/MOL
REMARK 924 INTRA-LIGAND FREE ENERGY PREDICTED BY IDOCK:    0.37 KCAL/MOL
REMARK 927      BINDING AFFINITY PREDICTED BY RF-SCORE:    0.00 PKD
ROOT
HETATM    1  C   UNL     1     -11.054  12.369  70.064  1.00  0.00     0.384 C  
HETATM    2  C   UNL     1      -9.495  12.295  69.725  1.00  0.00     2.151 C  
HETATM    3  C   UNL     1      -8.869  13.329  68.757  1.00  0.00     0.146 C  
HETATM    4  C   UNL     1      -9.840  13.585  67.588  1.00  0.00    -0.228 C  
HETATM    5  C   UNL     1      -8.440  14.610  69.498  1.00  0.00     0.181 C  
HETATM    6  C   UNL     1      -7.531  12.849  68.139  1.00  0.00    -0.126 C  
HETATM    7  O   UNL     1      -7.265  12.869  66.939  1.00  0.00     0.068 OA 
HETATM    8  O   UNL     1      -6.604  12.450  69.022  1.00  0.00    -0.089 OA 
HETATM    9  C   UNL     1     -11.360  13.588  67.904  1.00  0.00    -0.320 C  
HETATM   10  C   UNL     1     -11.867  12.376  68.761  1.00  0.00    -0.358 C  
HETATM   11  C   UNL     1     -11.722  11.126  67.868  1.00  0.00    -0.260 C  
HETATM   12  C   UNL     1     -13.360  12.421  69.220  1.00  0.00     3.160 C  
HETATM   13  C   UNL     1     -13.878  11.047  69.888  1.00  0.00     2.933 C  
HETATM   14  C   UNL     1     -13.028  10.518  71.119  1.00  0.00    -0.506 C  
HETATM   15  C   UNL     1     -11.557  11.256  71.030  1.00  0.00     0.387 C  
HETATM   16  C   UNL     1     -13.653  11.299  72.333  1.00  0.00     0.279 C  
HETATM   17  C   UNL     1     -10.584  10.643  71.680  1.00  0.00     3.312 C  
HETATM   18  C   UNL     1     -10.886   9.311  71.148  1.00  0.00    -0.337 C  
HETATM   19  C   UNL     1     -11.469   8.427  72.149  1.00  0.00    -0.442 C  
HETATM   20  O   UNL     1     -10.855   9.050  69.946  1.00  0.00    -0.228 OA 
HETATM   21  C   UNL     1     -10.475   7.167  72.089  1.00  0.00    -0.231 C  
HETATM   22  C   UNL     1     -10.497   6.520  73.493  1.00  0.00    -0.317 C  
HETATM   23  C   UNL     1      -9.005   7.693  71.855  1.00  0.00    -0.149 C  
HETATM   24  C   UNL     1      -7.883   6.802  71.353  1.00  0.00    -0.098 C  
HETATM   25  C   UNL     1      -8.290   5.799  70.250  1.00  0.00    -0.117 C  
HETATM   26  C   UNL     1      -9.609   5.027  70.743  1.00  0.00    -0.244 C  
HETATM   27  C   UNL     1     -13.202   7.396  70.660  1.00  0.00     0.299 C  
HETATM   28  C   UNL     1     -10.803   6.167  70.946  1.00  0.00    -0.342 C  
HETATM   29  C   UNL     1      -9.138   4.235  72.029  1.00  0.00    -0.158 C  
HETATM   30  C   UNL     1      -9.897   3.880  69.757  1.00  0.00    -0.118 C  
HETATM   31  C   UNL     1     -13.934   8.433  72.813  1.00  0.00    -0.016 C  
HETATM   32  C   UNL     1     -12.946   8.681  71.625  1.00  0.00    -0.377 C  
HETATM   33  C   UNL     1     -12.358   5.985  70.970  1.00  0.00     0.698 C  
ENDROOT
BRANCH  25  34
HETATM   34  O   UNL     1      -8.107   6.193  68.832  1.00  0.00    -0.106 OA 
BRANCH  34  35
HETATM   35  C   UNL     1      -6.918   5.810  68.068  1.00  0.00    -0.065 C  
HETATM   36  C   UNL     1      -6.809   2.883  67.770  1.00  0.00    -0.048 C  
HETATM   37  O   UNL     1      -6.164   4.883  68.817  1.00  0.00    -0.029 OA 
HETATM   38  C   UNL     1      -6.216   2.846  70.248  1.00  0.00    -0.024 C  
HETATM   39  C   UNL     1      -6.818   3.659  69.058  1.00  0.00    -0.045 C  
HETATM   40  O   UNL     1      -7.558   1.671  67.949  1.00  0.00    -0.053 OA 
HETATM   41  C   UNL     1      -7.417   3.703  66.636  1.00  0.00    -0.076 C  
HETATM   42  O   UNL     1      -5.237   3.105  70.922  1.00  0.00    -0.003 OA 
HETATM   43  O   UNL     1      -6.946   1.756  70.584  1.00  0.00    -0.032 OA 
HETATM   44  O   UNL     1      -6.941   3.077  65.415  1.00  0.00    -0.050 OA 
HETATM   45  H   UNL     1      -7.552   1.181  67.134  1.00  0.00     0.000 HD 
HETATM   46  C   UNL     1      -7.090   5.217  66.610  1.00  0.00    -0.069 C  
HETATM   47  H   UNL     1      -7.320   3.587  64.709  1.00  0.00     0.000 HD 
BRANCH  46  48
HETATM   48  O   UNL     1      -7.997   5.958  65.749  1.00  0.00    -0.103 OA 
BRANCH  48  49
HETATM   49  C   UNL     1      -7.606   7.337  65.565  1.00  0.00    -0.097 C  
HETATM   50  O   UNL     1      -6.601   7.472  64.554  1.00  0.00    -0.043 OA 
HETATM   51  C   UNL     1      -6.434   8.865  64.211  1.00  0.00    -0.071 C  
HETATM   52  C   UNL     1      -5.646   8.989  62.906  1.00  0.00    -0.077 C  
HETATM   53  C   UNL     1      -5.732   9.548  65.383  1.00  0.00    -0.058 C  
HETATM   54  O   UNL     1      -5.522  10.956  65.209  1.00  0.00    -0.220 OA 
HETATM   55  C   UNL     1      -6.580   9.399  66.658  1.00  0.00    -0.068 C  
HETATM   56  O   UNL     1      -5.306   7.786  62.387  1.00  0.00    -0.056 OA 
HETATM   57  O   UNL     1      -5.382  10.043  62.347  1.00  0.00    -0.086 OA 
HETATM   58  O   UNL     1      -5.797   9.756  67.807  1.00  0.00    -0.040 OA 
HETATM   59  C   UNL     1      -7.238   8.024  66.894  1.00  0.00    -0.082 C  
HETATM   60  H   UNL     1      -5.086  11.381  65.938  1.00  0.00     0.000 HD 
HETATM   61  H   UNL     1      -6.320   9.664  68.595  1.00  0.00     0.000 HD 
HETATM   62  O   UNL     1      -8.493   8.240  67.605  1.00  0.00    -0.128 OA 
HETATM   63  H   UNL     1      -8.266   8.664  68.425  1.00  0.00     0.000 HD 
ENDBRANCH  48  49
ENDBRANCH  46  48
ENDBRANCH  34  35
ENDBRANCH  25  34
TORSDOF 4
ENDMDL
MODEL       41
REMARK 921   NORMALIZED FREE ENERGY PREDICTED BY IDOCK:    6.99 KCAL/MOL
REMARK 922        TOTAL FREE ENERGY PREDICTED BY IDOCK:    7.72 KCAL/MOL
REMARK 923 INTER-LIGAND FREE ENERGY PREDICTED BY IDOCK:    7.36 KCAL/MOL
REMARK 924 INTRA-LIGAND FREE ENERGY PREDICTED BY IDOCK:    0.37 KCAL/MOL
REMARK 927      BINDING AFFINITY PREDICTED BY RF-SCORE:    0.00 PKD
ROOT
HETATM    1  C   UNL     1     -11.676  15.792  68.331  1.00  0.00    -0.279 C  
HETATM    2  C   UNL     1     -11.778  14.990  69.708  1.00  0.00    -0.341 C  
HETATM    3  C   UNL     1     -11.731  15.758  71.051  1.00  0.00    -0.462 C  
HETATM    4  C   UNL     1     -10.681  16.883  70.958  1.00  0.00     1.096 C  
HETATM    5  C   UNL     1     -13.130  16.251  71.469  1.00  0.00     0.873 C  
HETATM    6  C   UNL     1     -11.332  14.862  72.250  1.00  0.00     0.090 C  
HETATM    7  O   UNL     1     -10.456  15.134  73.069  1.00  0.00     1.746 OA 
HETATM    8  O   UNL     1     -12.065  13.749  72.401  1.00  0.00     0.268 OA 
HETATM    9  C   UNL     1     -10.533  17.617  69.598  1.00  0.00     0.333 C  
HETATM   10  C   UNL     1     -10.426  16.684  68.343  1.00  0.00    -0.323 C  
HETATM   11  C   UNL     1      -9.074  15.950  68.466  1.00  0.00    -0.200 C  
HETATM   12  C   UNL     1     -10.422  17.388  66.947  1.00  0.00    -0.279 C  
HETATM   13  C   UNL     1     -10.072  16.400  65.721  1.00  0.00    -0.352 C  
HETATM   14  C   UNL     1     -10.992  15.114  65.591  1.00  0.00    -0.359 C  
HETATM   15  C   UNL     1     -11.711  14.896  67.058  1.00  0.00    -0.274 C  
HETATM   16  C   UNL     1     -12.218  15.647  64.762  1.00  0.00     0.236 C  
HETATM   17  C   UNL     1     -12.153  13.673  67.287  1.00  0.00    -0.385 C  
HETATM   18  C   UNL     1     -10.927  13.001  66.847  1.00  0.00    -0.265 C  
HETATM   19  C   UNL     1     -11.092  12.312  65.573  1.00  0.00    -0.348 C  
HETATM   20  O   UNL     1      -9.835  13.189  67.381  1.00  0.00    -0.219 OA 
HETATM   21  C   UNL     1     -10.624  10.822  65.947  1.00  0.00    -0.216 C  
HETATM   22  C   UNL     1     -11.387   9.869  64.999  1.00  0.00     3.474 C  
HETATM   23  C   UNL     1     -11.111  10.491  67.412  1.00  0.00    -0.322 C  
HETATM   24  C   UNL     1     -10.524   9.360  68.237  1.00  0.00    -0.260 C  
HETATM   25  C   UNL     1      -8.993   9.189  68.116  1.00  0.00    -0.129 C  
HETATM   26  C   UNL     1      -8.620   9.162  66.555  1.00  0.00    -0.136 C  
HETATM   27  C   UNL     1      -8.887  12.981  64.586  1.00  0.00     2.397 C  
HETATM   28  C   UNL     1      -9.084  10.624  65.908  1.00  0.00    -0.201 C  
HETATM   29  C   UNL     1      -9.340   7.866  66.005  1.00  0.00    -0.129 C  
HETATM   30  C   UNL     1      -7.135   8.778  66.417  1.00  0.00    -0.083 C  
HETATM   31  C   UNL     1     -10.974  13.453  63.292  1.00  0.00     0.931 C  
HETATM   32  C   UNL     1     -10.422  13.496  64.756  1.00  0.00    -0.430 C  
HETATM   33  C   UNL     1      -8.592  11.334  64.602  1.00  0.00     0.330 C  
ENDROOT
BRANCH  25  34
HETATM   34  O   UNL     1      -8.124   9.866  69.109  1.00  0.00    -0.100 OA 
BRANCH  34  35
HETATM   35  C   UNL     1      -6.704   9.537  69.248  1.00  0.00    -0.049 C  
HETATM   36  C   UNL     1      -5.675  10.568  71.806  1.00  0.00     0.353 C  
HETATM   37  O   UNL     1      -5.975  10.721  69.483  1.00  0.00    -0.043 OA 
HETATM   38  C   UNL     1      -5.863  12.872  70.733  1.00  0.00    -0.068 C  
HETATM   39  C   UNL     1      -6.290  11.370  70.693  1.00  0.00     0.340 C  
HETATM   40  O   UNL     1      -6.061  11.142  73.065  1.00  0.00     1.545 OA 
HETATM   41  C   UNL     1      -6.125   9.112  71.743  1.00  0.00    -0.055 C  
HETATM   42  O   UNL     1      -5.248  13.506  69.897  1.00  0.00    -0.082 OA 
HETATM   43  O   UNL     1      -6.315  13.535  71.824  1.00  0.00     0.190 OA 
HETATM   44  O   UNL     1      -5.148   8.376  72.525  1.00  0.00    -0.035 OA 
HETATM   45  H   UNL     1      -5.672  10.635  73.768  1.00  0.00     0.000 HD 
HETATM   46  C   UNL     1      -6.255   8.477  70.335  1.00  0.00    -0.035 C  
HETATM   47  H   UNL     1      -5.428   7.469  72.486  1.00  0.00     0.000 HD 
BRANCH  46  48
HETATM   48  O   UNL     1      -7.036   7.253  70.357  1.00  0.00    -0.062 OA 
BRANCH  48  49
HETATM   49  C   UNL     1      -7.257   6.696  69.042  1.00  0.00    -0.091 C  
HETATM   50  O   UNL     1      -8.359   5.781  69.033  1.00  0.00    -0.100 OA 
HETATM   51  C   UNL     1      -8.718   5.459  67.671  1.00  0.00    -0.106 C  
HETATM   52  C   UNL     1     -10.091   4.787  67.640  1.00  0.00    -0.085 C  
HETATM   53  C   UNL     1      -7.617   4.564  67.104  1.00  0.00    -0.086 C  
HETATM   54  O   UNL     1      -7.812   4.181  65.735  1.00  0.00    -0.089 OA 
HETATM   55  C   UNL     1      -6.268   5.301  67.152  1.00  0.00    -0.031 C  
HETATM   56  O   UNL     1     -10.638   4.664  68.872  1.00  0.00     0.174 OA 
HETATM   57  O   UNL     1     -10.673   4.435  66.624  1.00  0.00     0.138 OA 
HETATM   58  O   UNL     1      -5.198   4.373  66.918  1.00  0.00    -0.011 OA 
HETATM   59  C   UNL     1      -5.970   6.116  68.428  1.00  0.00    -0.016 C  
HETATM   60  H   UNL     1      -7.127   3.625  65.383  1.00  0.00     0.000 HD 
HETATM   61  H   UNL     1      -4.365   4.828  66.948  1.00  0.00     0.000 HD 
HETATM   62  O   UNL     1      -5.144   7.257  68.052  1.00  0.00    -0.021 OA 
HETATM   63  H   UNL     1      -4.350   6.899  67.672  1.00  0.00     0.000 HD 
ENDBRANCH  48  49
ENDBRANCH  46  48
ENDBRANCH  34  35
ENDBRANCH  25  34
TORSDOF 4
ENDMDL
MODEL       42
REMARK 921   NORMALIZED FREE ENERGY PREDICTED BY IDOCK:    7.06 KCAL/MOL
REMARK 922        TOTAL FREE ENERGY PREDICTED BY IDOCK:    7.81 KCAL/MOL
REMARK 923 INTER-LIGAND FREE ENERGY PREDICTED BY IDOCK:   -0.72 KCAL/MOL
REMARK 924 INTRA-LIGAND FREE ENERGY PREDICTED BY IDOCK:    8.52 KCAL/MOL
REMARK 927      BINDING AFFINITY PREDICTED BY RF-SCORE:    0.00 PKD
ROOT
HETATM    1  C   UNL     1     -11.779  13.626  66.575  1.00  0.00    -0.414 C  
HETATM    2  C   UNL     1     -11.732  13.253  68.127  1.00  0.00    -0.397 C  
HETATM    3  C   UNL     1     -12.012  14.343  69.189  1.00  0.00    -0.357 C  
HETATM    4  C   UNL     1     -11.343  15.662  68.754  1.00  0.00    -0.351 C  
HETATM    5  C   UNL     1     -13.520  14.480  69.475  1.00  0.00     2.030 C  
HETATM    6  C   UNL     1     -11.448  13.988  70.588  1.00  0.00     0.062 C  
HETATM    7  O   UNL     1     -10.754  14.734  71.275  1.00  0.00     0.176 OA 
HETATM    8  O   UNL     1     -11.823  12.794  71.069  1.00  0.00     0.082 OA 
HETATM    9  C   UNL     1     -11.327  15.993  67.237  1.00  0.00     0.053 C  
HETATM   10  C   UNL     1     -10.857  14.824  66.303  1.00  0.00    -0.322 C  
HETATM   11  C   UNL     1      -9.360  14.606  66.605  1.00  0.00    -0.293 C  
HETATM   12  C   UNL     1     -10.966  15.074  64.764  1.00  0.00    -0.389 C  
HETATM   13  C   UNL     1     -10.252  13.937  63.868  1.00  0.00     1.451 C  
HETATM   14  C   UNL     1     -10.733  12.450  64.134  1.00  0.00    -0.414 C  
HETATM   15  C   UNL     1     -11.455  12.443  65.616  1.00  0.00    -0.412 C  
HETATM   16  C   UNL     1     -12.001  12.325  63.212  1.00  0.00    -0.499 C  
HETATM   17  C   UNL     1     -11.526  11.259  66.198  1.00  0.00     0.109 C  
HETATM   18  C   UNL     1     -10.127  10.901  65.946  1.00  0.00    -0.252 C  
HETATM   19  C   UNL     1      -9.988   9.866  64.929  1.00  0.00    -0.190 C  
HETATM   20  O   UNL     1      -9.181  11.557  66.381  1.00  0.00    -0.196 OA 
HETATM   21  C   UNL     1      -9.123   8.759  65.708  1.00  0.00    -0.267 C  
HETATM   22  C   UNL     1      -9.497   7.392  65.092  1.00  0.00     1.133 C  
HETATM   23  C   UNL     1      -9.590   8.721  67.216  1.00  0.00    -0.214 C  
HETATM   24  C   UNL     1      -8.752   8.104  68.321  1.00  0.00    -0.133 C  
HETATM   25  C   UNL     1      -7.235   8.385  68.223  1.00  0.00    -0.086 C  
HETATM   26  C   UNL     1      -6.762   8.036  66.729  1.00  0.00    -0.064 C  
HETATM   27  C   UNL     1      -8.021  10.872  63.747  1.00  0.00     0.315 C  
HETATM   28  C   UNL     1      -7.595   9.040  65.697  1.00  0.00    -0.086 C  
HETATM   29  C   UNL     1      -7.021   6.482  66.592  1.00  0.00    -0.067 C  
HETATM   30  C   UNL     1      -5.224   8.103  66.678  1.00  0.00    -0.028 C  
HETATM   31  C   UNL     1     -10.058  10.299  62.414  1.00  0.00     0.533 C  
HETATM   32  C   UNL     1      -9.648  10.919  63.791  1.00  0.00    -0.331 C  
HETATM   33  C   UNL     1      -7.249   9.470  64.232  1.00  0.00    -0.115 C  
ENDROOT
BRANCH  25  34
HETATM   34  O   UNL     1      -6.680   9.546  68.961  1.00  0.00    -0.049 OA 
BRANCH  34  35
HETATM   35  C   UNL     1      -7.291  10.045  70.193  1.00  0.00    -0.163 C  
HETATM   36  C   UNL     1      -8.748  12.546  69.656  1.00  0.00     2.020 C  
HETATM   37  O   UNL     1      -6.865  11.370  70.419  1.00  0.00    -0.051 OA 
HETATM   38  C   UNL     1      -6.446  13.611  69.415  1.00  0.00    -0.106 C  
HETATM   39  C   UNL     1      -7.282  12.292  69.438  1.00  0.00     0.213 C  
HETATM   40  O   UNL     1      -9.235  13.403  68.612  1.00  0.00    -0.353 OA 
HETATM   41  C   UNL     1      -9.534  11.238  69.658  1.00  0.00     0.776 C  
HETATM   42  O   UNL     1      -5.552  13.952  70.166  1.00  0.00    -0.104 OA 
HETATM   43  O   UNL     1      -6.737  14.419  68.369  1.00  0.00    -0.088 OA 
HETATM   44  O   UNL     1     -10.789  11.548  70.320  1.00  0.00    -0.269 OA 
HETATM   45  H   UNL     1     -10.161  13.563  68.750  1.00  0.00     0.000 HD 
HETATM   46  C   UNL     1      -8.867  10.020  70.344  1.00  0.00     0.256 C  
HETATM   47  H   UNL     1     -11.278  10.734  70.322  1.00  0.00     0.000 HD 
BRANCH  46  48
HETATM   48  O   UNL     1      -9.499   8.767  69.967  1.00  0.00    -0.161 OA 
BRANCH  48  49
HETATM   49  C   UNL     1     -10.063   8.054  71.091  1.00  0.00    -0.188 C  
HETATM   50  O   UNL     1      -9.590   6.704  71.154  1.00  0.00    -0.170 OA 
HETATM   51  C   UNL     1      -9.954   6.115  72.422  1.00  0.00    -0.169 C  
HETATM   52  C   UNL     1      -9.158   4.828  72.646  1.00  0.00    -0.127 C  
HETATM   53  C   UNL     1     -11.463   5.872  72.400  1.00  0.00    -0.306 C  
HETATM   54  O   UNL     1     -11.990   5.316  73.613  1.00  0.00    -0.193 OA 
HETATM   55  C   UNL     1     -12.203   7.203  72.185  1.00  0.00    -0.218 C  
HETATM   56  O   UNL     1      -8.310   4.557  71.627  1.00  0.00    -0.099 OA 
HETATM   57  O   UNL     1      -9.227   4.131  73.647  1.00  0.00    -0.101 OA 
HETATM   58  O   UNL     1     -13.577   6.948  71.855  1.00  0.00    -0.498 OA 
HETATM   59  C   UNL     1     -11.598   8.170  71.147  1.00  0.00    -0.279 C  
HETATM   60  H   UNL     1     -12.928   5.165  73.599  1.00  0.00     0.000 HD 
HETATM   61  H   UNL     1     -14.034   7.770  71.722  1.00  0.00     0.000 HD 
HETATM   62  O   UNL     1     -11.891   9.534  71.576  1.00  0.00    -0.354 OA 
HETATM   63  H   UNL     1     -12.838   9.606  71.611  1.00  0.00     0.000 HD 
ENDBRANCH  48  49
ENDBRANCH  46  48
ENDBRANCH  34  35
ENDBRANCH  25  34
TORSDOF 4
ENDMDL
MODEL       43
REMARK 921   NORMALIZED FREE ENERGY PREDICTED BY IDOCK:    7.60 KCAL/MOL
REMARK 922        TOTAL FREE ENERGY PREDICTED BY IDOCK:    8.48 KCAL/MOL
REMARK 923 INTER-LIGAND FREE ENERGY PREDICTED BY IDOCK:    8.49 KCAL/MOL
REMARK 924 INTRA-LIGAND FREE ENERGY PREDICTED BY IDOCK:   -0.02 KCAL/MOL
REMARK 927      BINDING AFFINITY PREDICTED BY RF-SCORE:    0.00 PKD
ROOT
HETATM    1  C   UNL     1     -12.019  16.305  70.201  1.00  0.00     0.110 C  
HETATM    2  C   UNL     1     -12.766  14.935  70.539  1.00  0.00    -0.399 C  
HETATM    3  C   UNL     1     -12.952  14.504  72.015  1.00  0.00    -0.417 C  
HETATM    4  C   UNL     1     -11.668  14.829  72.805  1.00  0.00    -0.115 C  
HETATM    5  C   UNL     1     -14.227  15.116  72.626  1.00  0.00    -0.300 C  
HETATM    6  C   UNL     1     -13.212  12.985  72.175  1.00  0.00    -0.457 C  
HETATM    7  O   UNL     1     -12.607  12.247  72.950  1.00  0.00     1.162 OA 
HETATM    8  O   UNL     1     -14.222  12.498  71.440  1.00  0.00     1.240 OA 
HETATM    9  C   UNL     1     -10.902  16.126  72.430  1.00  0.00     1.581 C  
HETATM   10  C   UNL     1     -10.649  16.333  70.896  1.00  0.00     0.550 C  
HETATM   11  C   UNL     1      -9.654  15.231  70.471  1.00  0.00     0.768 C  
HETATM   12  C   UNL     1     -10.010  17.694  70.471  1.00  0.00     2.239 C  
HETATM   13  C   UNL     1      -9.561  17.746  68.922  1.00  0.00    -0.223 C  
HETATM   14  C   UNL     1     -10.696  17.415  67.865  1.00  0.00    -0.351 C  
HETATM   15  C   UNL     1     -11.879  16.606  68.680  1.00  0.00     0.423 C  
HETATM   16  C   UNL     1     -11.403  18.806  67.668  1.00  0.00     0.456 C  
HETATM   17  C   UNL     1     -12.679  15.877  67.923  1.00  0.00     2.113 C  
HETATM   18  C   UNL     1     -11.602  15.240  67.161  1.00  0.00    -0.126 C  
HETATM   19  C   UNL     1     -11.525  15.724  65.788  1.00  0.00     0.222 C  
HETATM   20  O   UNL     1     -10.730  14.548  67.687  1.00  0.00    -0.250 OA 
HETATM   21  C   UNL     1     -11.615  14.354  64.955  1.00  0.00    -0.374 C  
HETATM   22  C   UNL     1     -12.257  14.706  63.593  1.00  0.00     0.307 C  
HETATM   23  C   UNL     1     -12.616  13.379  65.690  1.00  0.00    -0.496 C  
HETATM   24  C   UNL     1     -12.649  11.883  65.430  1.00  0.00     1.001 C  
HETATM   25  C   UNL     1     -11.263  11.221  65.259  1.00  0.00     0.003 C  
HETATM   26  C   UNL     1     -10.429  12.084  64.193  1.00  0.00    -0.393 C  
HETATM   27  C   UNL     1      -9.026  15.877  65.666  1.00  0.00     0.133 C  
HETATM   28  C   UNL     1     -10.255  13.615  64.820  1.00  0.00    -0.363 C  
HETATM   29  C   UNL     1     -11.251  11.941  62.849  1.00  0.00     0.181 C  
HETATM   30  C   UNL     1      -9.137  11.317  63.852  1.00  0.00    -0.002 C  
HETATM   31  C   UNL     1     -10.382  17.897  65.089  1.00  0.00     0.793 C  
HETATM   32  C   UNL     1     -10.339  16.724  66.124  1.00  0.00    -0.338 C  
HETATM   33  C   UNL     1      -9.200  14.718  64.472  1.00  0.00     3.446 C  
ENDROOT
BRANCH  25  34
HETATM   34  O   UNL     1     -10.612  10.622  66.450  1.00  0.00    -0.233 OA 
BRANCH  34  35
HETATM   35  C   UNL     1     -10.558   9.174  66.658  1.00  0.00    -0.087 C  
HETATM   36  C   UNL     1      -7.757   8.283  66.828  1.00  0.00    -0.094 C  
HETATM   37  O   UNL     1      -9.763   8.590  65.649  1.00  0.00    -0.040 OA 
HETATM   38  C   UNL     1      -7.661   8.738  64.323  1.00  0.00    -0.117 C  
HETATM   39  C   UNL     1      -8.411   8.985  65.670  1.00  0.00    -0.150 C  
HETATM   40  O   UNL     1      -6.400   8.739  66.946  1.00  0.00    -0.058 OA 
HETATM   41  C   UNL     1      -8.508   8.559  68.128  1.00  0.00    -0.134 C  
HETATM   42  O   UNL     1      -8.075   8.199  63.315  1.00  0.00    -0.157 OA 
HETATM   43  O   UNL     1      -6.416   9.269  64.291  1.00  0.00    -0.082 OA 
HETATM   44  O   UNL     1      -8.096   7.504  69.037  1.00  0.00    -0.122 OA 
HETATM   45  H   UNL     1      -5.987   8.296  67.678  1.00  0.00     0.000 HD 
HETATM   46  C   UNL     1     -10.055   8.607  68.048  1.00  0.00    -0.196 C  
HETATM   47  H   UNL     1      -8.564   7.675  69.846  1.00  0.00     0.000 HD 
BRANCH  46  48
HETATM   48  O   UNL     1     -10.643   9.238  69.217  1.00  0.00    -0.221 OA 
BRANCH  48  49
HETATM   49  C   UNL     1     -10.580   8.413  70.401  1.00  0.00    -0.223 C  
HETATM   50  O   UNL     1      -9.367   8.627  71.132  1.00  0.00    -0.176 OA 
HETATM   51  C   UNL     1      -9.458   7.999  72.430  1.00  0.00    -0.215 C  
HETATM   52  C   UNL     1      -8.342   8.518  73.339  1.00  0.00     0.014 C  
HETATM   53  C   UNL     1      -9.383   6.488  72.217  1.00  0.00    -0.137 C  
HETATM   54  O   UNL     1      -9.495   5.714  73.420  1.00  0.00    -0.138 OA 
HETATM   55  C   UNL     1     -10.536   6.030  71.308  1.00  0.00    -0.246 C  
HETATM   56  O   UNL     1      -7.555   9.431  72.725  1.00  0.00     0.336 OA 
HETATM   57  O   UNL     1      -8.188   8.195  74.507  1.00  0.00    -0.241 OA 
HETATM   58  O   UNL     1     -10.296   4.689  70.856  1.00  0.00    -0.177 OA 
HETATM   59  C   UNL     1     -10.860   6.929  70.097  1.00  0.00    -0.263 C  
HETATM   60  H   UNL     1      -9.448   4.775  73.287  1.00  0.00     0.000 HD 
HETATM   61  H   UNL     1     -11.008   4.406  70.294  1.00  0.00     0.000 HD 
HETATM   62  O   UNL     1     -12.291   6.829  69.830  1.00  0.00    -0.466 OA 
HETATM   63  H   UNL     1     -12.464   5.913  69.642  1.00  0.00     0.000 HD 
ENDBRANCH  48  49
ENDBRANCH  46  48
ENDBRANCH  34  35
ENDBRANCH  25  34
TORSDOF 4
ENDMDL
MODEL       44
REMARK 921   NORMALIZED FREE ENERGY PREDICTED BY IDOCK:    7.87 KCAL/MOL
REMARK 922        TOTAL FREE ENERGY PREDICTED BY IDOCK:    8.81 KCAL/MOL
REMARK 923 INTER-LIGAND FREE ENERGY PREDICTED BY IDOCK:    4.72 KCAL/MOL
REMARK 924 INTRA-LIGAND FREE ENERGY PREDICTED BY IDOCK:    4.09 KCAL/MOL
REMARK 927      BINDING AFFINITY PREDICTED BY RF-SCORE:    0.00 PKD
ROOT
HETATM    1  C   UNL     1      -8.565   9.505  70.974  1.00  0.00     0.128 C  
HETATM    2  C   UNL     1      -7.769   9.893  69.646  1.00  0.00    -0.149 C  
HETATM    3  C   UNL     1      -8.133  11.188  68.880  1.00  0.00    -0.115 C  
HETATM    4  C   UNL     1      -9.666  11.358  68.867  1.00  0.00    -0.105 C  
HETATM    5  C   UNL     1      -7.381  12.409  69.446  1.00  0.00     0.314 C  
HETATM    6  C   UNL     1      -7.665  11.174  67.404  1.00  0.00    -0.120 C  
HETATM    7  O   UNL     1      -8.377  11.446  66.439  1.00  0.00    -0.167 OA 
HETATM    8  O   UNL     1      -6.366  10.901  67.219  1.00  0.00    -0.061 OA 
HETATM    9  C   UNL     1     -10.448  10.916  70.133  1.00  0.00     0.307 C  
HETATM   10  C   UNL     1     -10.075   9.499  70.690  1.00  0.00    -0.353 C  
HETATM   11  C   UNL     1     -10.558   8.480  69.635  1.00  0.00    -0.221 C  
HETATM   12  C   UNL     1     -10.737   9.082  72.043  1.00  0.00    -0.333 C  
HETATM   13  C   UNL     1     -10.499   7.535  72.435  1.00  0.00    -0.291 C  
HETATM   14  C   UNL     1      -8.986   7.065  72.493  1.00  0.00    -0.144 C  
HETATM   15  C   UNL     1      -8.115   8.166  71.629  1.00  0.00    -0.150 C  
HETATM   16  C   UNL     1      -8.555   7.461  73.953  1.00  0.00    -0.245 C  
HETATM   17  C   UNL     1      -6.943   7.736  71.196  1.00  0.00    -0.049 C  
HETATM   18  C   UNL     1      -7.453   6.469  70.665  1.00  0.00    -0.080 C  
HETATM   19  C   UNL     1      -7.045   5.321  71.465  1.00  0.00    -0.067 C  
HETATM   20  O   UNL     1      -8.306   6.411  69.780  1.00  0.00    -0.123 OA 
HETATM   21  C   UNL     1      -6.343   4.388  70.363  1.00  0.00    -0.023 C  
HETATM   22  C   UNL     1      -5.277   3.551  71.106  1.00  0.00    -0.004 C  
HETATM   23  C   UNL     1      -5.567   5.308  69.341  1.00  0.00    -0.011 C  
HETATM   24  C   UNL     1      -5.130   4.827  67.969  1.00  0.00    -0.003 C  
HETATM   25  C   UNL     1      -6.154   3.933  67.234  1.00  0.00    -0.025 C  
HETATM   26  C   UNL     1      -6.621   2.779  68.248  1.00  0.00    -0.036 C  
HETATM   27  C   UNL     1      -9.240   4.113  71.393  1.00  0.00    -0.197 C  
HETATM   28  C   UNL     1      -7.344   3.523  69.548  1.00  0.00    -0.048 C  
HETATM   29  C   UNL     1      -5.304   1.951  68.528  1.00  0.00    -0.013 C  
HETATM   30  C   UNL     1      -7.471   1.760  67.465  1.00  0.00    -0.055 C  
HETATM   31  C   UNL     1      -8.202   4.583  73.618  1.00  0.00    -0.101 C  
HETATM   32  C   UNL     1      -8.437   5.258  72.226  1.00  0.00    -0.125 C  
HETATM   33  C   UNL     1      -8.355   2.940  70.592  1.00  0.00    -0.082 C  
ENDROOT
BRANCH  25  34
HETATM   34  O   UNL     1      -7.108   4.573  66.295  1.00  0.00    -0.071 OA 
BRANCH  34  35
HETATM   35  C   UNL     1      -8.113   3.799  65.565  1.00  0.00    -0.097 C  
HETATM   36  C   UNL     1     -10.790   4.936  66.024  1.00  0.00    -0.076 C  
HETATM   37  O   UNL     1      -9.106   3.362  66.466  1.00  0.00    -0.142 OA 
HETATM   38  C   UNL     1     -10.586   3.971  68.374  1.00  0.00     1.574 C  
HETATM   39  C   UNL     1      -9.848   4.398  67.066  1.00  0.00    -0.194 C  
HETATM   40  O   UNL     1     -11.493   6.064  66.567  1.00  0.00    -0.674 OA 
HETATM   41  C   UNL     1     -10.032   5.356  64.768  1.00  0.00     0.892 C  
HETATM   42  O   UNL     1     -10.650   2.867  68.880  1.00  0.00     2.022 OA 
HETATM   43  O   UNL     1     -11.158   5.005  69.036  1.00  0.00     0.551 OA 
HETATM   44  O   UNL     1     -11.033   5.402  63.717  1.00  0.00     1.881 OA 
HETATM   45  H   UNL     1     -12.088   6.404  65.909  1.00  0.00     0.000 HD 
HETATM   46  C   UNL     1      -8.851   4.456  64.327  1.00  0.00    -0.149 C  
HETATM   47  H   UNL     1     -10.562   5.664  62.934  1.00  0.00     0.000 HD 
BRANCH  46  48
HETATM   48  O   UNL     1      -7.978   5.126  63.378  1.00  0.00    -0.078 OA 
BRANCH  48  49
HETATM   49  C   UNL     1      -7.520   6.416  63.841  1.00  0.00    -0.081 C  
HETATM   50  O   UNL     1      -8.581   7.378  63.864  1.00  0.00     0.227 OA 
HETATM   51  C   UNL     1      -8.158   8.560  64.578  1.00  0.00    -0.158 C  
HETATM   52  C   UNL     1      -9.372   9.425  64.919  1.00  0.00    -0.150 C  
HETATM   53  C   UNL     1      -7.148   9.293  63.697  1.00  0.00    -0.094 C  
HETATM   54  O   UNL     1      -6.602  10.482  64.286  1.00  0.00    -0.327 OA 
HETATM   55  C   UNL     1      -5.949   8.376  63.403  1.00  0.00    -0.073 C  
HETATM   56  O   UNL     1     -10.535   8.883  64.487  1.00  0.00     2.995 OA 
HETATM   57  O   UNL     1      -9.329  10.469  65.553  1.00  0.00    -0.179 OA 
HETATM   58  O   UNL     1      -5.160   8.932  62.340  1.00  0.00    -0.069 OA 
HETATM   59  C   UNL     1      -6.269   6.900  63.085  1.00  0.00    -0.043 C  
HETATM   60  H   UNL     1      -5.974  10.938  63.737  1.00  0.00     0.000 HD 
HETATM   61  H   UNL     1      -4.419   8.365  62.158  1.00  0.00     0.000 HD 
HETATM   62  O   UNL     1      -5.159   6.084  63.564  1.00  0.00    -0.016 OA 
HETATM   63  H   UNL     1      -4.386   6.383  63.098  1.00  0.00     0.000 HD 
ENDBRANCH  48  49
ENDBRANCH  46  48
ENDBRANCH  34  35
ENDBRANCH  25  34
TORSDOF 4
ENDMDL
MODEL       45
REMARK 921   NORMALIZED FREE ENERGY PREDICTED BY IDOCK:    8.01 KCAL/MOL
REMARK 922        TOTAL FREE ENERGY PREDICTED BY IDOCK:    8.98 KCAL/MOL
REMARK 923 INTER-LIGAND FREE ENERGY PREDICTED BY IDOCK:    9.80 KCAL/MOL
REMARK 924 INTRA-LIGAND FREE ENERGY PREDICTED BY IDOCK:   -0.82 KCAL/MOL
REMARK 927      BINDING AFFINITY PREDICTED BY RF-SCORE:    0.00 PKD
ROOT
HETATM    1  C   UNL     1     -12.089  15.223  69.922  1.00  0.00    -0.375 C  
HETATM    2  C   UNL     1     -12.589  13.830  70.521  1.00  0.00    -0.361 C  
HETATM    3  C   UNL     1     -12.934  13.720  72.027  1.00  0.00    -0.437 C  
HETATM    4  C   UNL     1     -11.900  14.518  72.846  1.00  0.00     0.113 C  
HETATM    5  C   UNL     1     -14.393  14.132  72.303  1.00  0.00    -0.533 C  
HETATM    6  C   UNL     1     -12.903  12.263  72.551  1.00  0.00     0.769 C  
HETATM    7  O   UNL     1     -12.303  11.892  73.559  1.00  0.00     5.873 OA 
HETATM    8  O   UNL     1     -13.650  11.390  71.860  1.00  0.00    -0.251 OA 
HETATM    9  C   UNL     1     -11.361  15.838  72.232  1.00  0.00    -0.260 C  
HETATM   10  C   UNL     1     -10.895  15.739  70.738  1.00  0.00    -0.229 C  
HETATM   11  C   UNL     1      -9.639  14.842  70.737  1.00  0.00     1.517 C  
HETATM   12  C   UNL     1     -10.483  17.078  70.045  1.00  0.00     0.209 C  
HETATM   13  C   UNL     1      -9.794  16.878  68.600  1.00  0.00    -0.270 C  
HETATM   14  C   UNL     1     -10.638  16.048  67.545  1.00  0.00    -0.313 C  
HETATM   15  C   UNL     1     -11.753  15.188  68.402  1.00  0.00    -0.338 C  
HETATM   16  C   UNL     1     -11.569  17.143  66.906  1.00  0.00     1.284 C  
HETATM   17  C   UNL     1     -12.246  14.134  67.777  1.00  0.00    -0.208 C  
HETATM   18  C   UNL     1     -10.946  13.617  67.340  1.00  0.00    -0.276 C  
HETATM   19  C   UNL     1     -10.734  13.773  65.907  1.00  0.00    -0.285 C  
HETATM   20  O   UNL     1     -10.056  13.296  68.127  1.00  0.00    -0.228 OA 
HETATM   21  C   UNL     1     -10.398  12.268  65.461  1.00  0.00    -0.296 C  
HETATM   22  C   UNL     1     -10.854  12.131  63.990  1.00  0.00    -0.436 C  
HETATM   23  C   UNL     1     -11.291  11.278  66.307  1.00  0.00    -0.057 C  
HETATM   24  C   UNL     1     -10.973   9.800  66.449  1.00  0.00     0.280 C  
HETATM   25  C   UNL     1      -9.473   9.470  66.621  1.00  0.00    -0.170 C  
HETATM   26  C   UNL     1      -8.661  10.237  65.468  1.00  0.00    -0.173 C  
HETATM   27  C   UNL     1      -8.336  14.491  66.038  1.00  0.00     1.265 C  
HETATM   28  C   UNL     1      -8.914  11.867  65.684  1.00  0.00     0.107 C  
HETATM   29  C   UNL     1      -9.193   9.594  64.124  1.00  0.00    -0.218 C  
HETATM   30  C   UNL     1      -7.201   9.747  65.494  1.00  0.00    -0.108 C  
HETATM   31  C   UNL     1      -9.955  15.935  64.795  1.00  0.00     0.759 C  
HETATM   32  C   UNL     1      -9.853  15.079  66.101  1.00  0.00    -0.325 C  
HETATM   33  C   UNL     1      -8.062  13.081  65.181  1.00  0.00     4.246 C  
ENDROOT
BRANCH  25  34
HETATM   34  O   UNL     1      -8.929   9.337  67.995  1.00  0.00    -0.128 OA 
BRANCH  34  35
HETATM   35  C   UNL     1      -7.602   8.777  68.252  1.00  0.00    -0.096 C  
HETATM   36  C   UNL     1      -6.597   9.717  70.855  1.00  0.00    -0.072 C  
HETATM   37  O   UNL     1      -6.698   9.828  68.513  1.00  0.00    -0.052 OA 
HETATM   38  C   UNL     1      -6.307  11.975  69.711  1.00  0.00    -0.110 C  
HETATM   39  C   UNL     1      -6.983  10.568  69.677  1.00  0.00    -0.135 C  
HETATM   40  O   UNL     1      -6.968  10.396  72.065  1.00  0.00     1.230 OA 
HETATM   41  C   UNL     1      -7.287   8.357  70.795  1.00  0.00    -0.060 C  
HETATM   42  O   UNL     1      -5.532  12.462  68.910  1.00  0.00    -0.057 OA 
HETATM   43  O   UNL     1      -6.715  12.747  70.746  1.00  0.00     0.598 OA 
HETATM   44  O   UNL     1      -6.511   7.497  71.670  1.00  0.00    -0.039 OA 
HETATM   45  H   UNL     1      -6.725   9.858  72.809  1.00  0.00     0.000 HD 
HETATM   46  C   UNL     1      -7.422   7.699  69.399  1.00  0.00    -0.089 C  
HETATM   47  H   UNL     1      -6.940   6.650  71.633  1.00  0.00     0.000 HD 
BRANCH  46  48
HETATM   48  O   UNL     1      -8.403   6.628  69.392  1.00  0.00    -0.125 OA 
BRANCH  48  49
HETATM   49  C   UNL     1      -8.169   5.651  68.353  1.00  0.00    -0.103 C  
HETATM   50  O   UNL     1      -7.432   6.207  67.259  1.00  0.00    -0.079 OA 
HETATM   51  C   UNL     1      -6.987   5.151  66.379  1.00  0.00    -0.067 C  
HETATM   52  C   UNL     1      -5.914   5.683  65.427  1.00  0.00    -0.025 C  
HETATM   53  C   UNL     1      -8.214   4.621  65.638  1.00  0.00    -0.115 C  
HETATM   54  O   UNL     1      -7.941   3.535  64.741  1.00  0.00    -0.088 OA 
HETATM   55  C   UNL     1      -9.245   4.091  66.647  1.00  0.00    -0.163 C  
HETATM   56  O   UNL     1      -5.635   6.990  65.638  1.00  0.00    -0.029 OA 
HETATM   57  O   UNL     1      -5.325   5.011  64.594  1.00  0.00    -0.012 OA 
HETATM   58  O   UNL     1     -10.506   3.885  65.992  1.00  0.00    -0.376 OA 
HETATM   59  C   UNL     1      -9.462   4.933  67.922  1.00  0.00    -0.139 C  
HETATM   60  H   UNL     1      -8.704   3.207  64.281  1.00  0.00     0.000 HD 
HETATM   61  H   UNL     1     -11.144   3.558  66.616  1.00  0.00     0.000 HD 
HETATM   62  O   UNL     1      -9.810   4.025  69.009  1.00  0.00    -0.141 OA 
HETATM   63  H   UNL     1     -10.607   3.582  68.743  1.00  0.00     0.000 HD 
ENDBRANCH  48  49
ENDBRANCH  46  48
ENDBRANCH  34  35
ENDBRANCH  25  34
TORSDOF 4
ENDMDL
MODEL       46
REMARK 921   NORMALIZED FREE ENERGY PREDICTED BY IDOCK:    8.99 KCAL/MOL
REMARK 922        TOTAL FREE ENERGY PREDICTED BY IDOCK:   10.19 KCAL/MOL
REMARK 923 INTER-LIGAND FREE ENERGY PREDICTED BY IDOCK:    2.69 KCAL/MOL
REMARK 924 INTRA-LIGAND FREE ENERGY PREDICTED BY IDOCK:    7.50 KCAL/MOL
REMARK 927      BINDING AFFINITY PREDICTED BY RF-SCORE:    0.00 PKD
ROOT
HETATM    1  C   UNL     1     -10.003   6.106  70.165  1.00  0.00    -0.218 C  
HETATM    2  C   UNL     1      -9.927   7.534  70.874  1.00  0.00    -0.181 C  
HETATM    3  C   UNL     1     -10.953   7.902  71.974  1.00  0.00    -0.329 C  
HETATM    4  C   UNL     1     -12.346   7.382  71.567  1.00  0.00    -0.385 C  
HETATM    5  C   UNL     1     -10.492   7.414  73.362  1.00  0.00    -0.419 C  
HETATM    6  C   UNL     1     -11.084   9.430  72.195  1.00  0.00     0.273 C  
HETATM    7  O   UNL     1     -12.148  10.045  72.225  1.00  0.00     0.048 OA 
HETATM    8  O   UNL     1      -9.933  10.075  72.429  1.00  0.00     2.530 OA 
HETATM    9  C   UNL     1     -12.414   6.026  70.815  1.00  0.00     1.114 C  
HETATM   10  C   UNL     1     -11.418   5.876  69.613  1.00  0.00     0.044 C  
HETATM   11  C   UNL     1     -11.892   6.872  68.534  1.00  0.00     1.057 C  
HETATM   12  C   UNL     1     -11.358   4.473  68.926  1.00  0.00     4.459 C  
HETATM   13  C   UNL     1     -10.498   4.454  67.561  1.00  0.00     0.371 C  
HETATM   14  C   UNL     1      -9.006   4.977  67.681  1.00  0.00    -0.115 C  
HETATM   15  C   UNL     1      -8.929   5.876  69.060  1.00  0.00    -0.122 C  
HETATM   16  C   UNL     1      -8.225   3.694  68.147  1.00  0.00    -0.090 C  
HETATM   17  C   UNL     1      -7.928   6.736  69.112  1.00  0.00    -0.112 C  
HETATM   18  C   UNL     1      -8.150   7.281  67.769  1.00  0.00    -0.115 C  
HETATM   19  C   UNL     1      -7.123   6.869  66.821  1.00  0.00    -0.075 C  
HETATM   20  O   UNL     1      -9.199   7.833  67.437  1.00  0.00    -0.133 OA 
HETATM   21  C   UNL     1      -6.611   8.283  66.260  1.00  0.00    -0.050 C  
HETATM   22  C   UNL     1      -5.135   8.087  65.846  1.00  0.00    -0.025 C  
HETATM   23  C   UNL     1      -6.616   9.329  67.444  1.00  0.00    -0.064 C  
HETATM   24  C   UNL     1      -6.582  10.830  67.216  1.00  0.00    -0.075 C  
HETATM   25  C   UNL     1      -7.449  11.330  66.038  1.00  0.00     0.117 C  
HETATM   26  C   UNL     1      -7.102  10.434  64.752  1.00  0.00    -0.033 C  
HETATM   27  C   UNL     1      -8.660   6.424  64.892  1.00  0.00     0.082 C  
HETATM   28  C   UNL     1      -7.497   8.861  65.122  1.00  0.00    -0.097 C  
HETATM   29  C   UNL     1      -5.581  10.749  64.458  1.00  0.00    -0.002 C  
HETATM   30  C   UNL     1      -7.794  11.058  63.525  1.00  0.00     0.464 C  
HETATM   31  C   UNL     1      -7.093   4.616  65.619  1.00  0.00    -0.067 C  
HETATM   32  C   UNL     1      -8.032   5.716  66.216  1.00  0.00    -0.102 C  
HETATM   33  C   UNL     1      -7.800   7.660  64.164  1.00  0.00    -0.133 C  
ENDROOT
BRANCH  25  34
HETATM   34  O   UNL     1      -8.835  11.779  66.319  1.00  0.00    -0.195 OA 
BRANCH  34  35
HETATM   35  C   UNL     1      -9.151  12.659  67.445  1.00  0.00    -0.191 C  
HETATM   36  C   UNL     1      -6.671  13.526  68.775  1.00  0.00    -0.105 C  
HETATM   37  O   UNL     1      -8.561  12.142  68.617  1.00  0.00    -0.110 OA 
HETATM   38  C   UNL     1      -6.527  11.134  69.642  1.00  0.00    -0.128 C  
HETATM   39  C   UNL     1      -7.153  12.112  68.598  1.00  0.00    -0.103 C  
HETATM   40  O   UNL     1      -5.241  13.552  68.658  1.00  0.00    -0.071 OA 
HETATM   41  C   UNL     1      -7.292  14.449  67.730  1.00  0.00    -0.173 C  
HETATM   42  O   UNL     1      -7.093  10.470  70.489  1.00  0.00    -0.278 OA 
HETATM   43  O   UNL     1      -5.188  10.982  69.508  1.00  0.00    -0.041 OA 
HETATM   44  O   UNL     1      -7.142  15.789  68.268  1.00  0.00    -0.108 OA 
HETATM   45  H   UNL     1      -4.937  14.445  68.770  1.00  0.00     0.000 HD 
HETATM   46  C   UNL     1      -8.775  14.195  67.361  1.00  0.00    -0.210 C  
HETATM   47  H   UNL     1      -7.528  16.364  67.617  1.00  0.00     0.000 HD 
BRANCH  46  48
HETATM   48  O   UNL     1      -9.149  14.850  66.119  1.00  0.00    -0.266 OA 
BRANCH  48  49
HETATM   49  C   UNL     1      -9.249  16.287  66.242  1.00  0.00    -0.328 C  
HETATM   50  O   UNL     1      -7.969  16.918  66.123  1.00  0.00    -0.320 OA 
HETATM   51  C   UNL     1      -8.138  18.346  65.979  1.00  0.00    -0.084 C  
HETATM   52  C   UNL     1      -6.832  18.978  65.494  1.00  0.00    -0.239 C  
HETATM   53  C   UNL     1      -8.585  18.895  67.332  1.00  0.00    -0.274 C  
HETATM   54  O   UNL     1      -8.830  20.309  67.346  1.00  0.00    -0.336 OA 
HETATM   55  C   UNL     1      -9.906  18.231  67.755  1.00  0.00    -0.318 C  
HETATM   56  O   UNL     1      -5.849  18.066  65.309  1.00  0.00    -0.145 OA 
HETATM   57  O   UNL     1      -6.681  20.165  65.247  1.00  0.00    -0.281 OA 
HETATM   58  O   UNL     1     -10.165  18.502  69.141  1.00  0.00    -0.477 OA 
HETATM   59  C   UNL     1     -10.030  16.714  67.499  1.00  0.00    -0.264 C  
HETATM   60  H   UNL     1      -9.108  20.650  68.188  1.00  0.00     0.000 HD 
HETATM   61  H   UNL     1     -10.981  18.092  69.402  1.00  0.00     0.000 HD 
HETATM   62  O   UNL     1     -11.432  16.415  67.232  1.00  0.00     0.119 OA 
HETATM   63  H   UNL     1     -11.915  16.679  68.007  1.00  0.00     0.000 HD 
ENDBRANCH  48  49
ENDBRANCH  46  48
ENDBRANCH  34  35
ENDBRANCH  25  34
TORSDOF 4
ENDMDL
MODEL       47
REMARK 921   NORMALIZED FREE ENERGY PREDICTED BY IDOCK:    9.23 KCAL/MOL
REMARK 922        TOTAL FREE ENERGY PREDICTED BY IDOCK:   10.49 KCAL/MOL
REMARK 923 INTER-LIGAND FREE ENERGY PREDICTED BY IDOCK:   10.18 KCAL/MOL
REMARK 924 INTRA-LIGAND FREE ENERGY PREDICTED BY IDOCK:    0.30 KCAL/MOL
REMARK 927      BINDING AFFINITY PREDICTED BY RF-SCORE:    0.00 PKD
ROOT
HETATM    1  C   UNL     1     -11.065  15.719  70.043  1.00  0.00    -0.348 C  
HETATM    2  C   UNL     1     -12.185  14.632  70.379  1.00  0.00    -0.391 C  
HETATM    3  C   UNL     1     -12.891  14.654  71.756  1.00  0.00    -0.402 C  
HETATM    4  C   UNL     1     -11.856  14.972  72.854  1.00  0.00    -0.370 C  
HETATM    5  C   UNL     1     -14.103  15.606  71.754  1.00  0.00    -0.431 C  
HETATM    6  C   UNL     1     -13.544  13.299  72.127  1.00  0.00    -0.562 C  
HETATM    7  O   UNL     1     -13.387  12.714  73.196  1.00  0.00     0.388 OA 
HETATM    8  O   UNL     1     -14.381  12.798  71.208  1.00  0.00     1.558 OA 
HETATM    9  C   UNL     1     -10.725  15.977  72.505  1.00  0.00     2.064 C  
HETATM   10  C   UNL     1      -9.993  15.715  71.143  1.00  0.00     1.450 C  
HETATM   11  C   UNL     1      -9.213  14.395  71.321  1.00  0.00     4.661 C  
HETATM   12  C   UNL     1      -8.950  16.788  70.692  1.00  0.00     3.800 C  
HETATM   13  C   UNL     1      -8.070  16.343  69.416  1.00  0.00    -0.003 C  
HETATM   14  C   UNL     1      -8.892  15.922  68.126  1.00  0.00    -0.176 C  
HETATM   15  C   UNL     1     -10.419  15.566  68.634  1.00  0.00    -0.237 C  
HETATM   16  C   UNL     1      -9.154  17.302  67.417  1.00  0.00    -0.227 C  
HETATM   17  C   UNL     1     -11.115  14.797  67.816  1.00  0.00    -0.306 C  
HETATM   18  C   UNL     1     -10.048  13.812  67.618  1.00  0.00    -0.242 C  
HETATM   19  C   UNL     1      -9.460  13.884  66.286  1.00  0.00    -0.235 C  
HETATM   20  O   UNL     1      -9.561  13.160  68.541  1.00  0.00    -0.200 OA 
HETATM   21  C   UNL     1      -9.629  12.372  65.773  1.00  0.00    -0.164 C  
HETATM   22  C   UNL     1      -9.741  12.438  64.233  1.00  0.00    -0.009 C  
HETATM   23  C   UNL     1     -11.005  11.809  66.305  1.00  0.00    -0.346 C  
HETATM   24  C   UNL     1     -11.318  10.324  66.363  1.00  0.00     0.720 C  
HETATM   25  C   UNL     1     -10.145   9.427  66.817  1.00  0.00    -0.256 C  
HETATM   26  C   UNL     1      -8.854   9.820  65.948  1.00  0.00    -0.175 C  
HETATM   27  C   UNL     1      -7.074  13.596  66.998  1.00  0.00     0.513 C  
HETATM   28  C   UNL     1      -8.508  11.416  66.267  1.00  0.00    -0.138 C  
HETATM   29  C   UNL     1      -9.257   9.451  64.464  1.00  0.00    -0.155 C  
HETATM   30  C   UNL     1      -7.743   8.793  66.236  1.00  0.00    -0.098 C  
HETATM   31  C   UNL     1      -7.675  15.572  65.589  1.00  0.00     3.433 C  
HETATM   32  C   UNL     1      -8.219  14.734  66.794  1.00  0.00    -0.039 C  
HETATM   33  C   UNL     1      -7.165  12.199  66.082  1.00  0.00     1.032 C  
ENDROOT
BRANCH  25  34
HETATM   34  O   UNL     1     -10.034   9.079  68.255  1.00  0.00    -0.161 OA 
BRANCH  34  35
HETATM   35  C   UNL     1      -9.712  10.081  69.272  1.00  0.00    -0.215 C  
HETATM   36  C   UNL     1     -10.505   9.107  71.935  1.00  0.00    -0.210 C  
HETATM   37  O   UNL     1     -10.877  10.390  70.005  1.00  0.00    -0.275 OA 
HETATM   38  C   UNL     1     -12.899   9.500  71.154  1.00  0.00    -0.284 C  
HETATM   39  C   UNL     1     -11.403   9.314  70.747  1.00  0.00    -0.287 C  
HETATM   40  O   UNL     1     -10.950   7.951  72.662  1.00  0.00    -0.319 OA 
HETATM   41  C   UNL     1      -9.056   8.915  71.498  1.00  0.00    -0.229 C  
HETATM   42  O   UNL     1     -13.617  10.464  70.973  1.00  0.00    -0.173 OA 
HETATM   43  O   UNL     1     -13.448   8.398  71.718  1.00  0.00    -0.342 OA 
HETATM   44  O   UNL     1      -8.261   9.192  72.681  1.00  0.00    -0.124 OA 
HETATM   45  H   UNL     1     -10.383   7.821  73.413  1.00  0.00     0.000 HD 
HETATM   46  C   UNL     1      -8.558   9.784  70.316  1.00  0.00    -0.129 C  
HETATM   47  H   UNL     1      -7.358   9.073  72.409  1.00  0.00     0.000 HD 
BRANCH  46  48
HETATM   48  O   UNL     1      -7.327   9.270  69.740  1.00  0.00    -0.061 OA 
BRANCH  48  49
HETATM   49  C   UNL     1      -7.215   7.833  69.830  1.00  0.00    -0.067 C  
HETATM   50  O   UNL     1      -8.467   7.186  69.575  1.00  0.00    -0.131 OA 
HETATM   51  C   UNL     1      -8.261   5.766  69.407  1.00  0.00    -0.108 C  
HETATM   52  C   UNL     1      -9.507   5.130  68.786  1.00  0.00    -0.133 C  
HETATM   53  C   UNL     1      -7.930   5.183  70.779  1.00  0.00    -0.096 C  
HETATM   54  O   UNL     1      -7.664   3.773  70.775  1.00  0.00    -0.046 OA 
HETATM   55  C   UNL     1      -6.666   5.853  71.341  1.00  0.00    -0.058 C  
HETATM   56  O   UNL     1     -10.483   6.033  68.538  1.00  0.00    -0.184 OA 
HETATM   57  O   UNL     1      -9.614   3.948  68.493  1.00  0.00    -0.160 OA 
HETATM   58  O   UNL     1      -6.529   5.544  72.737  1.00  0.00    -0.060 OA 
HETATM   59  C   UNL     1      -6.545   7.378  71.140  1.00  0.00    -0.043 C  
HETATM   60  H   UNL     1      -7.458   3.411  71.629  1.00  0.00     0.000 HD 
HETATM   61  H   UNL     1      -5.748   5.958  73.083  1.00  0.00     0.000 HD 
HETATM   62  O   UNL     1      -5.129   7.706  71.012  1.00  0.00    -0.026 OA 
HETATM   63  H   UNL     1      -4.715   7.426  71.820  1.00  0.00     0.000 HD 
ENDBRANCH  48  49
ENDBRANCH  46  48
ENDBRANCH  34  35
ENDBRANCH  25  34
TORSDOF 4
ENDMDL
MODEL       48
REMARK 921   NORMALIZED FREE ENERGY PREDICTED BY IDOCK:    9.33 KCAL/MOL
REMARK 922        TOTAL FREE ENERGY PREDICTED BY IDOCK:   10.61 KCAL/MOL
REMARK 923 INTER-LIGAND FREE ENERGY PREDICTED BY IDOCK:    9.85 KCAL/MOL
REMARK 924 INTRA-LIGAND FREE ENERGY PREDICTED BY IDOCK:    0.76 KCAL/MOL
REMARK 927      BINDING AFFINITY PREDICTED BY RF-SCORE:    0.00 PKD
ROOT
HETATM    1  C   UNL     1      -9.994  13.551  68.716  1.00  0.00    -0.078 C  
HETATM    2  C   UNL     1      -8.597  12.902  68.295  1.00  0.00    -0.170 C  
HETATM    3  C   UNL     1      -7.811  13.481  67.094  1.00  0.00    -0.025 C  
HETATM    4  C   UNL     1      -8.798  13.842  65.965  1.00  0.00     0.545 C  
HETATM    5  C   UNL     1      -6.907  14.653  67.523  1.00  0.00    -0.174 C  
HETATM    6  C   UNL     1      -6.787  12.482  66.500  1.00  0.00     0.992 C  
HETATM    7  O   UNL     1      -6.689  12.204  65.306  1.00  0.00     2.337 OA 
HETATM    8  O   UNL     1      -5.925  11.955  67.381  1.00  0.00    -0.085 OA 
HETATM    9  C   UNL     1     -10.183  14.408  66.377  1.00  0.00    -0.294 C  
HETATM   10  C   UNL     1     -10.928  13.605  67.498  1.00  0.00    -0.282 C  
HETATM   11  C   UNL     1     -11.304  12.243  66.876  1.00  0.00    -0.392 C  
HETATM   12  C   UNL     1     -12.257  14.226  68.038  1.00  0.00    -0.168 C  
HETATM   13  C   UNL     1     -13.088  13.242  69.009  1.00  0.00     2.083 C  
HETATM   14  C   UNL     1     -12.294  12.682  70.262  1.00  0.00    -0.269 C  
HETATM   15  C   UNL     1     -10.690  12.857  69.924  1.00  0.00     0.812 C  
HETATM   16  C   UNL     1     -12.475  13.825  71.328  1.00  0.00    -0.428 C  
HETATM   17  C   UNL     1      -9.883  12.076  70.619  1.00  0.00     5.543 C  
HETATM   18  C   UNL     1     -10.657  10.851  70.396  1.00  0.00     0.599 C  
HETATM   19  C   UNL     1     -11.352  10.401  71.596  1.00  0.00     0.694 C  
HETATM   20  O   UNL     1     -10.870  10.391  69.275  1.00  0.00    -0.210 OA 
HETATM   21  C   UNL     1     -10.823   8.892  71.731  1.00  0.00    -0.436 C  
HETATM   22  C   UNL     1     -10.862   8.543  73.237  1.00  0.00     0.962 C  
HETATM   23  C   UNL     1      -9.306   8.845  71.294  1.00  0.00    -0.336 C  
HETATM   24  C   UNL     1      -8.599   7.557  70.914  1.00  0.00    -0.130 C  
HETATM   25  C   UNL     1      -9.443   6.573  70.073  1.00  0.00    -0.156 C  
HETATM   26  C   UNL     1     -10.861   6.386  70.803  1.00  0.00    -0.321 C  
HETATM   27  C   UNL     1     -13.502   9.768  70.474  1.00  0.00     0.189 C  
HETATM   28  C   UNL     1     -11.597   7.877  70.846  1.00  0.00    -0.286 C  
HETATM   29  C   UNL     1     -10.498   5.718  72.190  1.00  0.00    -0.258 C  
HETATM   30  C   UNL     1     -11.624   5.249  70.097  1.00  0.00     1.977 C  
HETATM   31  C   UNL     1     -13.579  11.348  72.410  1.00  0.00     0.264 C  
HETATM   32  C   UNL     1     -12.729  11.041  71.132  1.00  0.00    -0.521 C  
HETATM   33  C   UNL     1     -13.113   8.233  71.011  1.00  0.00     0.069 C  
ENDROOT
BRANCH  25  34
HETATM   34  O   UNL     1      -9.334   6.631  68.594  1.00  0.00    -0.131 OA 
BRANCH  34  35
HETATM   35  C   UNL     1      -8.149   6.147  67.885  1.00  0.00    -0.114 C  
HETATM   36  C   UNL     1      -8.323   3.233  67.500  1.00  0.00    -0.087 C  
HETATM   37  O   UNL     1      -7.538   5.127  68.643  1.00  0.00    -0.076 OA 
HETATM   38  C   UNL     1      -7.880   3.069  70.004  1.00  0.00    -0.043 C  
HETATM   39  C   UNL     1      -8.326   3.971  68.810  1.00  0.00    -0.078 C  
HETATM   40  O   UNL     1      -9.200   2.101  67.598  1.00  0.00    -0.160 OA 
HETATM   41  C   UNL     1      -8.777   4.141  66.361  1.00  0.00    -0.115 C  
HETATM   42  O   UNL     1      -6.920   3.208  70.738  1.00  0.00    -0.032 OA 
HETATM   43  O   UNL     1      -8.736   2.053  70.265  1.00  0.00    -0.054 OA 
HETATM   44  O   UNL     1      -8.298   3.501  65.149  1.00  0.00    -0.096 OA 
HETATM   45  H   UNL     1      -9.198   1.634  66.770  1.00  0.00     0.000 HD 
HETATM   46  C   UNL     1      -8.296   5.613  66.401  1.00  0.00    -0.112 C  
HETATM   47  H   UNL     1      -8.581   4.066  64.439  1.00  0.00     0.000 HD 
BRANCH  46  48
HETATM   48  O   UNL     1      -9.072   6.466  65.516  1.00  0.00    -0.027 OA 
BRANCH  48  49
HETATM   49  C   UNL     1      -8.368   7.666  65.124  1.00  0.00    -0.093 C  
HETATM   50  O   UNL     1      -9.262   8.659  64.610  1.00  0.00     0.154 OA 
HETATM   51  C   UNL     1      -8.573   9.923  64.485  1.00  0.00    -0.186 C  
HETATM   52  C   UNL     1      -9.586  11.052  64.290  1.00  0.00    -0.262 C  
HETATM   53  C   UNL     1      -7.599   9.803  63.314  1.00  0.00    -0.128 C  
HETATM   54  O   UNL     1      -6.807  10.976  63.080  1.00  0.00    -0.340 OA 
HETATM   55  C   UNL     1      -6.602   8.662  63.578  1.00  0.00    -0.088 C  
HETATM   56  O   UNL     1     -10.865  10.609  64.289  1.00  0.00    -0.098 OA 
HETATM   57  O   UNL     1      -9.301  12.236  64.191  1.00  0.00     0.168 OA 
HETATM   58  O   UNL     1      -5.897   8.342  62.369  1.00  0.00    -0.081 OA 
HETATM   59  C   UNL     1      -7.178   7.369  64.193  1.00  0.00    -0.080 C  
HETATM   60  H   UNL     1      -6.202  10.901  62.352  1.00  0.00     0.000 HD 
HETATM   61  H   UNL     1      -5.281   7.638  62.533  1.00  0.00     0.000 HD 
HETATM   62  O   UNL     1      -6.145   6.767  65.027  1.00  0.00    -0.034 OA 
HETATM   63  H   UNL     1      -5.410   6.584  64.453  1.00  0.00     0.000 HD 
ENDBRANCH  48  49
ENDBRANCH  46  48
ENDBRANCH  34  35
ENDBRANCH  25  34
TORSDOF 4
ENDMDL
MODEL       49
REMARK 921   NORMALIZED FREE ENERGY PREDICTED BY IDOCK:    9.36 KCAL/MOL
REMARK 922        TOTAL FREE ENERGY PREDICTED BY IDOCK:   10.65 KCAL/MOL
REMARK 923 INTER-LIGAND FREE ENERGY PREDICTED BY IDOCK:   10.39 KCAL/MOL
REMARK 924 INTRA-LIGAND FREE ENERGY PREDICTED BY IDOCK:    0.26 KCAL/MOL
REMARK 927      BINDING AFFINITY PREDICTED BY RF-SCORE:    0.00 PKD
ROOT
HETATM    1  C   UNL     1      -9.733  16.604  66.972  1.00  0.00    -0.253 C  
HETATM    2  C   UNL     1     -10.521  15.578  66.035  1.00  0.00    -0.335 C  
HETATM    3  C   UNL     1     -11.894  15.977  65.442  1.00  0.00     0.722 C  
HETATM    4  C   UNL     1     -12.709  16.736  66.508  1.00  0.00     5.249 C  
HETATM    5  C   UNL     1     -11.735  16.750  64.118  1.00  0.00     1.159 C  
HETATM    6  C   UNL     1     -12.743  14.757  65.004  1.00  0.00     0.047 C  
HETATM    7  O   UNL     1     -13.917  14.569  65.320  1.00  0.00     0.484 OA 
HETATM    8  O   UNL     1     -12.132  13.903  64.171  1.00  0.00    -0.449 OA 
HETATM    9  C   UNL     1     -11.934  17.681  67.466  1.00  0.00     2.315 C  
HETATM   10  C   UNL     1     -10.647  17.065  68.117  1.00  0.00    -0.369 C  
HETATM   11  C   UNL     1     -11.137  15.959  69.076  1.00  0.00    -0.294 C  
HETATM   12  C   UNL     1      -9.765  18.032  68.971  1.00  0.00    -0.208 C  
HETATM   13  C   UNL     1      -8.598  17.287  69.800  1.00  0.00     1.251 C  
HETATM   14  C   UNL     1      -7.611  16.390  68.942  1.00  0.00    -0.220 C  
HETATM   15  C   UNL     1      -8.378  16.068  67.520  1.00  0.00    -0.177 C  
HETATM   16  C   UNL     1      -6.541  17.431  68.446  1.00  0.00    -0.180 C  
HETATM   17  C   UNL     1      -7.929  15.009  66.871  1.00  0.00    -0.109 C  
HETATM   18  C   UNL     1      -7.926  14.125  68.039  1.00  0.00    -0.149 C  
HETATM   19  C   UNL     1      -6.580  13.819  68.507  1.00  0.00    -0.099 C  
HETATM   20  O   UNL     1      -8.944  13.860  68.679  1.00  0.00    -0.166 OA 
HETATM   21  C   UNL     1      -6.590  12.214  68.499  1.00  0.00    -0.063 C  
HETATM   22  C   UNL     1      -5.130  11.764  68.259  1.00  0.00    -0.043 C  
HETATM   23  C   UNL     1      -7.427  11.719  67.256  1.00  0.00    -0.151 C  
HETATM   24  C   UNL     1      -7.983  10.310  67.146  1.00  0.00    -0.114 C  
HETATM   25  C   UNL     1      -8.556   9.731  68.460  1.00  0.00    -0.120 C  
HETATM   26  C   UNL     1      -7.463   9.948  69.616  1.00  0.00    -0.122 C  
HETATM   27  C   UNL     1      -7.064  14.018  70.958  1.00  0.00     1.722 C  
HETATM   28  C   UNL     1      -7.224  11.587  69.771  1.00  0.00     0.268 C  
HETATM   29  C   UNL     1      -6.227   9.078  69.150  1.00  0.00    -0.042 C  
HETATM   30  C   UNL     1      -7.926   9.187  70.872  1.00  0.00    -0.192 C  
HETATM   31  C   UNL     1      -5.187  15.359  69.993  1.00  0.00    -0.106 C  
HETATM   32  C   UNL     1      -6.648  14.908  69.660  1.00  0.00    -0.162 C  
HETATM   33  C   UNL     1      -6.649  12.398  70.981  1.00  0.00     2.108 C  
ENDROOT
BRANCH  25  34
HETATM   34  O   UNL     1     -10.007   9.882  68.727  1.00  0.00    -0.162 OA 
BRANCH  34  35
HETATM   35  C   UNL     1     -11.006   9.018  68.095  1.00  0.00     0.076 C  
HETATM   36  C   UNL     1     -10.270   8.512  65.290  1.00  0.00     2.062 C  
HETATM   37  O   UNL     1     -11.498   9.651  66.935  1.00  0.00     0.460 OA 
HETATM   38  C   UNL     1     -10.933  10.938  64.879  1.00  0.00     0.032 C  
HETATM   39  C   UNL     1     -10.536   9.849  65.925  1.00  0.00    -0.002 C  
HETATM   40  O   UNL     1      -9.218   8.654  64.323  1.00  0.00    -0.246 OA 
HETATM   41  C   UNL     1      -9.871   7.479  66.339  1.00  0.00    -0.082 C  
HETATM   42  O   UNL     1     -11.973  11.564  64.797  1.00  0.00    -0.010 OA 
HETATM   43  O   UNL     1      -9.940  11.245  64.011  1.00  0.00    -0.258 OA 
HETATM   44  O   UNL     1     -10.098   6.190  65.711  1.00  0.00    -0.322 OA 
HETATM   45  H   UNL     1      -9.050   7.809  63.922  1.00  0.00     0.000 HD 
HETATM   46  C   UNL     1     -10.612   7.536  67.699  1.00  0.00    -0.233 C  
HETATM   47  H   UNL     1      -9.850   5.546  66.364  1.00  0.00     0.000 HD 
BRANCH  46  48
HETATM   48  O   UNL     1      -9.916   6.790  68.732  1.00  0.00    -0.141 OA 
BRANCH  48  49
HETATM   49  C   UNL     1     -10.804   6.231  69.726  1.00  0.00    -0.336 C  
HETATM   50  O   UNL     1     -11.414   7.251  70.525  1.00  0.00    -0.288 OA 
HETATM   51  C   UNL     1     -12.485   6.685  71.311  1.00  0.00    -0.228 C  
HETATM   52  C   UNL     1     -13.361   7.802  71.880  1.00  0.00    -0.266 C  
HETATM   53  C   UNL     1     -11.850   5.828  72.405  1.00  0.00    -0.168 C  
HETATM   54  O   UNL     1     -12.792   5.163  73.258  1.00  0.00    -0.037 OA 
HETATM   55  C   UNL     1     -10.995   4.719  71.769  1.00  0.00     0.219 C  
HETATM   56  O   UNL     1     -12.938   9.034  71.510  1.00  0.00    -0.325 OA 
HETATM   57  O   UNL     1     -14.365   7.627  72.555  1.00  0.00    -0.021 OA 
HETATM   58  O   UNL     1     -10.159   4.115  72.769  1.00  0.00    -0.148 OA 
HETATM   59  C   UNL     1     -10.133   5.121  70.555  1.00  0.00    -0.256 C  
HETATM   60  H   UNL     1     -12.396   4.630  73.938  1.00  0.00     0.000 HD 
HETATM   61  H   UNL     1      -9.631   3.430  72.376  1.00  0.00     0.000 HD 
HETATM   62  O   UNL     1     -10.023   3.962  69.675  1.00  0.00    -0.129 OA 
HETATM   63  H   UNL     1      -9.609   3.276  70.187  1.00  0.00     0.000 HD 
ENDBRANCH  48  49
ENDBRANCH  46  48
ENDBRANCH  34  35
ENDBRANCH  25  34
TORSDOF 4
ENDMDL
MODEL       50
REMARK 921   NORMALIZED FREE ENERGY PREDICTED BY IDOCK:    9.74 KCAL/MOL
REMARK 922        TOTAL FREE ENERGY PREDICTED BY IDOCK:   11.12 KCAL/MOL
REMARK 923 INTER-LIGAND FREE ENERGY PREDICTED BY IDOCK:    0.30 KCAL/MOL
REMARK 924 INTRA-LIGAND FREE ENERGY PREDICTED BY IDOCK:   10.82 KCAL/MOL
REMARK 927      BINDING AFFINITY PREDICTED BY RF-SCORE:    0.00 PKD
ROOT
HETATM    1  C   UNL     1     -12.194  13.587  66.791  1.00  0.00    -0.392 C  
HETATM    2  C   UNL     1     -11.964  13.190  68.320  1.00  0.00    -0.328 C  
HETATM    3  C   UNL     1     -12.238  14.230  69.434  1.00  0.00    -0.319 C  
HETATM    4  C   UNL     1     -11.736  15.613  68.974  1.00  0.00    -0.408 C  
HETATM    5  C   UNL     1     -13.718  14.221  69.865  1.00  0.00     2.008 C  
HETATM    6  C   UNL     1     -11.512  13.902  70.763  1.00  0.00     0.258 C  
HETATM    7  O   UNL     1     -10.824  14.696  71.402  1.00  0.00     0.282 OA 
HETATM    8  O   UNL     1     -11.729  12.670  71.244  1.00  0.00     0.690 OA 
HETATM    9  C   UNL     1     -11.896  15.972  67.472  1.00  0.00     0.479 C  
HETATM   10  C   UNL     1     -11.415  14.870  66.466  1.00  0.00    -0.286 C  
HETATM   11  C   UNL     1      -9.882  14.786  66.620  1.00  0.00    -0.270 C  
HETATM   12  C   UNL     1     -11.694  15.137  64.952  1.00  0.00    -0.290 C  
HETATM   13  C   UNL     1     -10.970  14.089  63.962  1.00  0.00     0.189 C  
HETATM   14  C   UNL     1     -11.286  12.558  64.231  1.00  0.00    -0.417 C  
HETATM   15  C   UNL     1     -11.858  12.457  65.773  1.00  0.00    -0.467 C  
HETATM   16  C   UNL     1     -12.621  12.334  63.429  1.00  0.00    -0.545 C  
HETATM   17  C   UNL     1     -11.765  11.261  66.326  1.00  0.00     0.475 C  
HETATM   18  C   UNL     1     -10.371  11.039  65.934  1.00  0.00    -0.257 C  
HETATM   19  C   UNL     1     -10.237  10.040  64.881  1.00  0.00    -0.037 C  
HETATM   20  O   UNL     1      -9.451  11.771  66.296  1.00  0.00    -0.214 OA 
HETATM   21  C   UNL     1      -9.205   9.004  65.543  1.00  0.00    -0.262 C  
HETATM   22  C   UNL     1      -9.511   7.620  64.928  1.00  0.00     1.476 C  
HETATM   23  C   UNL     1      -9.519   8.894  67.087  1.00  0.00    -0.202 C  
HETATM   24  C   UNL     1      -8.525   8.337  68.091  1.00  0.00    -0.132 C  
HETATM   25  C   UNL     1      -7.056   8.759  67.858  1.00  0.00    -0.079 C  
HETATM   26  C   UNL     1      -6.700   8.484  66.317  1.00  0.00    -0.069 C  
HETATM   27  C   UNL     1      -8.493  11.247  63.546  1.00  0.00     0.360 C  
HETATM   28  C   UNL     1      -7.717   9.426  65.396  1.00  0.00    -0.103 C  
HETATM   29  C   UNL     1      -6.829   6.915  66.162  1.00  0.00    -0.064 C  
HETATM   30  C   UNL     1      -5.187   8.694  66.123  1.00  0.00    -0.030 C  
HETATM   31  C   UNL     1     -10.588  10.512  62.396  1.00  0.00     1.291 C  
HETATM   32  C   UNL     1     -10.105  11.141  63.745  1.00  0.00    -0.416 C  
HETATM   33  C   UNL     1      -7.554   9.914  63.917  1.00  0.00    -0.141 C  
ENDROOT
BRANCH  25  34
HETATM   34  O   UNL     1      -6.540   9.953  68.572  1.00  0.00    -0.054 OA 
BRANCH  34  35
HETATM   35  C   UNL     1      -7.192  10.481  69.771  1.00  0.00    -0.149 C  
HETATM   36  C   UNL     1      -8.465  13.067  69.172  1.00  0.00     0.639 C  
HETATM   37  O   UNL     1      -6.702  11.778  70.032  1.00  0.00    -0.024 OA 
HETATM   38  C   UNL     1      -6.093  13.994  69.075  1.00  0.00    -0.088 C  
HETATM   39  C   UNL     1      -7.006  12.728  69.038  1.00  0.00    -0.059 C  
HETATM   40  O   UNL     1      -8.838  13.957  68.108  1.00  0.00    -0.171 OA 
HETATM   41  C   UNL     1      -9.325  11.808  69.117  1.00  0.00     0.368 C  
HETATM   42  O   UNL     1      -5.226  14.278  69.879  1.00  0.00    -0.092 OA 
HETATM   43  O   UNL     1      -6.275  14.824  68.020  1.00  0.00    -0.128 OA 
HETATM   44  O   UNL     1     -10.596  12.189  69.707  1.00  0.00    -0.252 OA 
HETATM   45  H   UNL     1      -9.760  14.172  68.193  1.00  0.00     0.000 HD 
HETATM   46  C   UNL     1      -8.773  10.549  69.830  1.00  0.00     0.166 C  
HETATM   47  H   UNL     1     -11.132  11.405  69.673  1.00  0.00     0.000 HD 
BRANCH  46  48
HETATM   48  O   UNL     1      -9.454   9.337  69.405  1.00  0.00    -0.158 OA 
BRANCH  48  49
HETATM   49  C   UNL     1     -10.016   8.587  70.505  1.00  0.00    -0.188 C  
HETATM   50  O   UNL     1     -11.162   9.241  71.062  1.00  0.00    -0.268 OA 
HETATM   51  C   UNL     1     -11.849   8.345  71.963  1.00  0.00    -0.353 C  
HETATM   52  C   UNL     1     -13.244   8.890  72.276  1.00  0.00    -0.447 C  
HETATM   53  C   UNL     1     -10.985   8.199  73.215  1.00  0.00     0.275 C  
HETATM   54  O   UNL     1     -11.520   7.307  74.202  1.00  0.00     0.508 OA 
HETATM   55  C   UNL     1      -9.606   7.637  72.835  1.00  0.00    -0.218 C  
HETATM   56  O   UNL     1     -13.502  10.056  71.638  1.00  0.00    -0.359 OA 
HETATM   57  O   UNL     1     -14.070   8.330  72.981  1.00  0.00     0.054 OA 
HETATM   58  O   UNL     1      -8.698   7.789  73.937  1.00  0.00    -0.224 OA 
HETATM   59  C   UNL     1      -8.957   8.203  71.555  1.00  0.00    -0.158 C  
HETATM   60  H   UNL     1     -10.982   7.216  74.980  1.00  0.00     0.000 HD 
HETATM   61  H   UNL     1      -7.845   7.442  73.702  1.00  0.00     0.000 HD 
HETATM   62  O   UNL     1      -8.148   7.149  70.954  1.00  0.00    -0.108 OA 
HETATM   63  H   UNL     1      -7.494   6.911  71.602  1.00  0.00     0.000 HD 
ENDBRANCH  48  49
ENDBRANCH  46  48
ENDBRANCH  34  35
ENDBRANCH  25  34
TORSDOF 4
ENDMDL
MODEL       51
REMARK 921   NORMALIZED FREE ENERGY PREDICTED BY IDOCK:    9.86 KCAL/MOL
REMARK 922        TOTAL FREE ENERGY PREDICTED BY IDOCK:   11.27 KCAL/MOL
REMARK 923 INTER-LIGAND FREE ENERGY PREDICTED BY IDOCK:    7.42 KCAL/MOL
REMARK 924 INTRA-LIGAND FREE ENERGY PREDICTED BY IDOCK:    3.85 KCAL/MOL
REMARK 927      BINDING AFFINITY PREDICTED BY RF-SCORE:    0.00 PKD
ROOT
HETATM    1  C   UNL     1      -9.904  15.836  67.353  1.00  0.00    -0.233 C  
HETATM    2  C   UNL     1     -10.737  14.874  66.388  1.00  0.00    -0.316 C  
HETATM    3  C   UNL     1     -12.156  15.287  65.926  1.00  0.00     0.425 C  
HETATM    4  C   UNL     1     -12.907  15.934  67.107  1.00  0.00     3.163 C  
HETATM    5  C   UNL     1     -12.104  16.172  64.666  1.00  0.00     0.478 C  
HETATM    6  C   UNL     1     -13.011  14.088  65.446  1.00  0.00    -0.310 C  
HETATM    7  O   UNL     1     -14.155  13.846  65.824  1.00  0.00     1.039 OA 
HETATM    8  O   UNL     1     -12.444  13.323  64.503  1.00  0.00    -0.539 OA 
HETATM    9  C   UNL     1     -12.084  16.814  68.086  1.00  0.00     1.213 C  
HETATM   10  C   UNL     1     -10.744  16.177  68.593  1.00  0.00    -0.295 C  
HETATM   11  C   UNL     1     -11.145  14.983  69.486  1.00  0.00    -0.292 C  
HETATM   12  C   UNL     1      -9.822  17.090  69.464  1.00  0.00     0.084 C  
HETATM   13  C   UNL     1      -8.586  16.307  70.145  1.00  0.00     1.451 C  
HETATM   14  C   UNL     1      -7.645  15.509  69.148  1.00  0.00    -0.204 C  
HETATM   15  C   UNL     1      -8.504  15.289  67.760  1.00  0.00    -0.158 C  
HETATM   16  C   UNL     1      -6.632  16.614  68.670  1.00  0.00    -0.159 C  
HETATM   17  C   UNL     1      -8.083  14.299  66.993  1.00  0.00    -0.068 C  
HETATM   18  C   UNL     1      -7.981  13.321  68.079  1.00  0.00    -0.152 C  
HETATM   19  C   UNL     1      -6.600  13.009  68.425  1.00  0.00    -0.090 C  
HETATM   20  O   UNL     1      -8.946  12.978  68.761  1.00  0.00    -0.002 OA 
HETATM   21  C   UNL     1      -6.581  11.410  68.281  1.00  0.00    -0.058 C  
HETATM   22  C   UNL     1      -5.134  11.018  67.904  1.00  0.00    -0.039 C  
HETATM   23  C   UNL     1      -7.495  11.001  67.060  1.00  0.00    -0.127 C  
HETATM   24  C   UNL     1      -8.031   9.594  66.869  1.00  0.00    -0.105 C  
HETATM   25  C   UNL     1      -8.499   8.893  68.164  1.00  0.00    -0.129 C  
HETATM   26  C   UNL     1      -7.332   9.038  69.257  1.00  0.00    -0.070 C  
HETATM   27  C   UNL     1      -6.915  12.990  70.912  1.00  0.00     2.669 C  
HETATM   28  C   UNL     1      -7.113  10.664  69.536  1.00  0.00    -0.127 C  
HETATM   29  C   UNL     1      -6.116   8.241  68.635  1.00  0.00    -0.045 C  
HETATM   30  C   UNL     1      -7.692   8.163  70.472  1.00  0.00    -0.085 C  
HETATM   31  C   UNL     1      -5.135  14.452  69.939  1.00  0.00    -0.092 C  
HETATM   32  C   UNL     1      -6.607  13.995  69.669  1.00  0.00    -0.099 C  
HETATM   33  C   UNL     1      -6.469  11.384  70.768  1.00  0.00     0.745 C  
ENDROOT
BRANCH  25  34
HETATM   34  O   UNL     1      -9.931   8.985  68.543  1.00  0.00    -0.165 OA 
BRANCH  34  35
HETATM   35  C   UNL     1     -10.971   8.245  67.827  1.00  0.00     0.162 C  
HETATM   36  C   UNL     1      -9.779   6.721  65.608  1.00  0.00     0.694 C  
HETATM   37  O   UNL     1     -10.925   8.584  66.459  1.00  0.00     0.226 OA 
HETATM   38  C   UNL     1      -9.480   8.982  64.471  1.00  0.00     0.555 C  
HETATM   39  C   UNL     1      -9.735   8.211  65.805  1.00  0.00     0.302 C  
HETATM   40  O   UNL     1      -8.536   6.288  65.035  1.00  0.00    -0.299 OA 
HETATM   41  C   UNL     1     -10.015   6.002  66.933  1.00  0.00    -0.169 C  
HETATM   42  O   UNL     1     -10.200   9.789  63.914  1.00  0.00     0.630 OA 
HETATM   43  O   UNL     1      -8.260   8.745  63.932  1.00  0.00    -0.159 OA 
HETATM   44  O   UNL     1     -10.495   4.681  66.570  1.00  0.00    -0.267 OA 
HETATM   45  H   UNL     1      -8.564   5.346  64.910  1.00  0.00     0.000 HD 
HETATM   46  C   UNL     1     -11.005   6.664  67.924  1.00  0.00    -0.257 C  
HETATM   47  H   UNL     1     -10.642   4.233  67.395  1.00  0.00     0.000 HD 
BRANCH  46  48
HETATM   48  O   UNL     1     -10.872   6.130  69.269  1.00  0.00    -0.277 OA 
BRANCH  48  49
HETATM   49  C   UNL     1      -9.549   5.619  69.548  1.00  0.00    -0.147 C  
HETATM   50  O   UNL     1      -9.177   4.582  68.634  1.00  0.00    -0.114 OA 
HETATM   51  C   UNL     1      -7.768   4.290  68.769  1.00  0.00    -0.066 C  
HETATM   52  C   UNL     1      -7.292   3.462  67.574  1.00  0.00    -0.059 C  
HETATM   53  C   UNL     1      -7.574   3.562  70.097  1.00  0.00    -0.044 C  
HETATM   54  O   UNL     1      -6.211   3.230  70.397  1.00  0.00    -0.022 OA 
HETATM   55  C   UNL     1      -8.059   4.450  71.255  1.00  0.00    -0.082 C  
HETATM   56  O   UNL     1      -8.282   3.213  66.686  1.00  0.00    -0.087 OA 
HETATM   57  O   UNL     1      -6.140   3.097  67.393  1.00  0.00    -0.026 OA 
HETATM   58  O   UNL     1      -8.171   3.668  72.455  1.00  0.00    -0.081 OA 
HETATM   59  C   UNL     1      -9.372   5.227  71.027  1.00  0.00    -0.150 C  
HETATM   60  H   UNL     1      -6.091   2.777  71.223  1.00  0.00     0.000 HD 
HETATM   61  H   UNL     1      -8.471   4.217  73.170  1.00  0.00     0.000 HD 
HETATM   62  O   UNL     1      -9.294   6.477  71.776  1.00  0.00    -0.150 OA 
HETATM   63  H   UNL     1      -9.184   6.235  72.689  1.00  0.00     0.000 HD 
ENDBRANCH  48  49
ENDBRANCH  46  48
ENDBRANCH  34  35
ENDBRANCH  25  34
TORSDOF 4
ENDMDL
MODEL       52
REMARK 921   NORMALIZED FREE ENERGY PREDICTED BY IDOCK:   11.49 KCAL/MOL
REMARK 922        TOTAL FREE ENERGY PREDICTED BY IDOCK:   13.28 KCAL/MOL
REMARK 923 INTER-LIGAND FREE ENERGY PREDICTED BY IDOCK:   11.60 KCAL/MOL
REMARK 924 INTRA-LIGAND FREE ENERGY PREDICTED BY IDOCK:    1.68 KCAL/MOL
REMARK 927      BINDING AFFINITY PREDICTED BY RF-SCORE:    0.00 PKD
ROOT
HETATM    1  C   UNL     1     -12.035  14.997  69.714  1.00  0.00    -0.366 C  
HETATM    2  C   UNL     1     -12.596  13.617  70.289  1.00  0.00    -0.253 C  
HETATM    3  C   UNL     1     -12.962  13.501  71.789  1.00  0.00    -0.439 C  
HETATM    4  C   UNL     1     -11.906  14.246  72.630  1.00  0.00     0.459 C  
HETATM    5  C   UNL     1     -14.407  13.966  72.056  1.00  0.00    -0.477 C  
HETATM    6  C   UNL     1     -12.994  12.037  72.294  1.00  0.00     0.061 C  
HETATM    7  O   UNL     1     -12.421  11.629  73.303  1.00  0.00     4.103 OA 
HETATM    8  O   UNL     1     -13.768  11.204  71.584  1.00  0.00     0.030 OA 
HETATM    9  C   UNL     1     -11.309  15.552  72.040  1.00  0.00    -0.445 C  
HETATM   10  C   UNL     1     -10.830  15.455  70.550  1.00  0.00    -0.327 C  
HETATM   11  C   UNL     1      -9.611  14.509  70.551  1.00  0.00     1.715 C  
HETATM   12  C   UNL     1     -10.358  16.785  69.880  1.00  0.00     0.039 C  
HETATM   13  C   UNL     1      -9.661  16.577  68.440  1.00  0.00    -0.236 C  
HETATM   14  C   UNL     1     -10.526  15.795  67.364  1.00  0.00    -0.297 C  
HETATM   15  C   UNL     1     -11.683  14.969  68.198  1.00  0.00    -0.335 C  
HETATM   16  C   UNL     1     -11.405  16.935  66.731  1.00  0.00     0.666 C  
HETATM   17  C   UNL     1     -12.210  13.943  67.554  1.00  0.00    -0.266 C  
HETATM   18  C   UNL     1     -10.927  13.381  67.124  1.00  0.00    -0.280 C  
HETATM   19  C   UNL     1     -10.693  13.548  65.695  1.00  0.00    -0.284 C  
HETATM   20  O   UNL     1     -10.059  13.015  67.916  1.00  0.00    -0.222 OA 
HETATM   21  C   UNL     1     -10.412  12.037  65.232  1.00  0.00    -0.323 C  
HETATM   22  C   UNL     1     -10.856  11.937  63.754  1.00  0.00    -0.481 C  
HETATM   23  C   UNL     1     -11.353  11.072  66.055  1.00  0.00     0.197 C  
HETATM   24  C   UNL     1     -11.094   9.581  66.180  1.00  0.00     1.117 C  
HETATM   25  C   UNL     1      -9.611   9.189  66.363  1.00  0.00    -0.245 C  
HETATM   26  C   UNL     1      -8.756   9.939  65.230  1.00  0.00    -0.181 C  
HETATM   27  C   UNL     1      -8.270  14.169  65.861  1.00  0.00     2.129 C  
HETATM   28  C   UNL     1      -8.947  11.575  65.465  1.00  0.00    -0.037 C  
HETATM   29  C   UNL     1      -9.298   9.335  63.872  1.00  0.00     0.319 C  
HETATM   30  C   UNL     1      -7.317   9.391  65.264  1.00  0.00    -0.096 C  
HETATM   31  C   UNL     1      -9.817  15.692  64.621  1.00  0.00     1.162 C  
HETATM   32  C   UNL     1      -9.763  14.815  65.916  1.00  0.00    -0.355 C  
HETATM   33  C   UNL     1      -8.042  12.760  64.988  1.00  0.00     3.945 C  
ENDROOT
BRANCH  25  34
HETATM   34  O   UNL     1      -9.088   9.016  67.741  1.00  0.00    -0.134 OA 
BRANCH  34  35
HETATM   35  C   UNL     1      -7.686   8.686  68.002  1.00  0.00    -0.102 C  
HETATM   36  C   UNL     1      -6.687  10.260  70.282  1.00  0.00    -0.142 C  
HETATM   37  O   UNL     1      -6.919   9.869  67.979  1.00  0.00    -0.075 OA 
HETATM   38  C   UNL     1      -6.758  12.250  68.692  1.00  0.00    -0.083 C  
HETATM   39  C   UNL     1      -7.241  10.795  68.990  1.00  0.00    -0.096 C  
HETATM   40  O   UNL     1      -7.084  11.126  71.356  1.00  0.00     1.573 OA 
HETATM   41  C   UNL     1      -7.191   8.844  70.546  1.00  0.00    -0.071 C  
HETATM   42  O   UNL     1      -6.097  12.649  67.752  1.00  0.00    -0.095 OA 
HETATM   43  O   UNL     1      -7.213  13.165  69.580  1.00  0.00     0.148 OA 
HETATM   44  O   UNL     1      -6.264   8.284  71.513  1.00  0.00    -0.036 OA 
HETATM   45  H   UNL     1      -6.734  10.787  72.172  1.00  0.00     0.000 HD 
HETATM   46  C   UNL     1      -7.307   7.900  69.324  1.00  0.00    -0.082 C  
HETATM   47  H   UNL     1      -6.577   7.402  71.678  1.00  0.00     0.000 HD 
BRANCH  46  48
HETATM   48  O   UNL     1      -8.135   6.740  69.605  1.00  0.00    -0.122 OA 
BRANCH  48  49
HETATM   49  C   UNL     1      -9.106   6.975  70.649  1.00  0.00    -0.158 C  
HETATM   50  O   UNL     1     -10.145   7.861  70.216  1.00  0.00    -0.192 OA 
HETATM   51  C   UNL     1     -11.225   7.857  71.175  1.00  0.00    -0.261 C  
HETATM   52  C   UNL     1     -12.470   8.500  70.561  1.00  0.00     0.405 C  
HETATM   53  C   UNL     1     -10.739   8.599  72.419  1.00  0.00    -0.240 C  
HETATM   54  O   UNL     1     -11.694   8.654  73.488  1.00  0.00     0.710 OA 
HETATM   55  C   UNL     1      -9.497   7.897  72.994  1.00  0.00    -0.271 C  
HETATM   56  O   UNL     1     -12.270   8.903  69.284  1.00  0.00     1.451 OA 
HETATM   57  O   UNL     1     -13.550   8.606  71.122  1.00  0.00    -0.183 OA 
HETATM   58  O   UNL     1      -8.859   8.749  73.958  1.00  0.00    -0.132 OA 
HETATM   59  C   UNL     1      -8.450   7.401  71.975  1.00  0.00    -0.106 C  
HETATM   60  H   UNL     1     -11.391   9.115  74.261  1.00  0.00     0.000 HD 
HETATM   61  H   UNL     1      -8.092   8.315  74.313  1.00  0.00     0.000 HD 
HETATM   62  O   UNL     1      -7.818   6.206  72.523  1.00  0.00    -0.102 OA 
HETATM   63  H   UNL     1      -7.413   6.468  73.342  1.00  0.00     0.000 HD 
ENDBRANCH  48  49
ENDBRANCH  46  48
ENDBRANCH  34  35
ENDBRANCH  25  34
TORSDOF 4
ENDMDL
MODEL       53
REMARK 921   NORMALIZED FREE ENERGY PREDICTED BY IDOCK:   12.42 KCAL/MOL
REMARK 922        TOTAL FREE ENERGY PREDICTED BY IDOCK:   14.43 KCAL/MOL
REMARK 923 INTER-LIGAND FREE ENERGY PREDICTED BY IDOCK:    3.18 KCAL/MOL
REMARK 924 INTRA-LIGAND FREE ENERGY PREDICTED BY IDOCK:   11.25 KCAL/MOL
REMARK 927      BINDING AFFINITY PREDICTED BY RF-SCORE:    0.00 PKD
ROOT
HETATM    1  C   UNL     1     -12.179  13.977  66.845  1.00  0.00    -0.415 C  
HETATM    2  C   UNL     1     -11.760  13.618  68.343  1.00  0.00    -0.393 C  
HETATM    3  C   UNL     1     -11.926  14.675  69.462  1.00  0.00    -0.361 C  
HETATM    4  C   UNL     1     -11.516  16.059  68.921  1.00  0.00    -0.362 C  
HETATM    5  C   UNL     1     -13.343  14.642  70.065  1.00  0.00     0.556 C  
HETATM    6  C   UNL     1     -11.040  14.391  70.701  1.00  0.00     0.197 C  
HETATM    7  O   UNL     1     -10.301  15.214  71.239  1.00  0.00     0.254 OA 
HETATM    8  O   UNL     1     -11.168  13.165  71.227  1.00  0.00     1.868 OA 
HETATM    9  C   UNL     1     -11.861  16.383  67.442  1.00  0.00     0.829 C  
HETATM   10  C   UNL     1     -11.476  15.271  66.406  1.00  0.00    -0.087 C  
HETATM   11  C   UNL     1      -9.933  15.224  66.378  1.00  0.00    -0.291 C  
HETATM   12  C   UNL     1     -11.938  15.499  64.931  1.00  0.00     0.066 C  
HETATM   13  C   UNL     1     -11.311  14.447  63.881  1.00  0.00     0.358 C  
HETATM   14  C   UNL     1     -11.555  12.915  64.214  1.00  0.00    -0.434 C  
HETATM   15  C   UNL     1     -11.938  12.834  65.815  1.00  0.00    -0.502 C  
HETATM   16  C   UNL     1     -12.970  12.645  63.581  1.00  0.00    -0.020 C  
HETATM   17  C   UNL     1     -11.751  11.652  66.375  1.00  0.00    -0.008 C  
HETATM   18  C   UNL     1     -10.408  11.453  65.824  1.00  0.00    -0.255 C  
HETATM   19  C   UNL     1     -10.376  10.435  64.781  1.00  0.00    -0.221 C  
HETATM   20  O   UNL     1      -9.470  12.213  66.060  1.00  0.00    -0.239 OA 
HETATM   21  C   UNL     1      -9.247   9.437  65.335  1.00  0.00    -0.305 C  
HETATM   22  C   UNL     1      -9.590   8.033  64.786  1.00  0.00     1.755 C  
HETATM   23  C   UNL     1      -9.373   9.353  66.907  1.00  0.00    -0.188 C  
HETATM   24  C   UNL     1      -8.254   8.839  67.796  1.00  0.00    -0.111 C  
HETATM   25  C   UNL     1      -6.835   9.288  67.382  1.00  0.00    -0.077 C  
HETATM   26  C   UNL     1      -6.656   8.989  65.815  1.00  0.00    -0.064 C  
HETATM   27  C   UNL     1      -8.832  11.652  63.226  1.00  0.00     0.257 C  
HETATM   28  C   UNL     1      -7.797   9.888  65.005  1.00  0.00    -0.131 C  
HETATM   29  C   UNL     1      -6.765   7.415  65.705  1.00  0.00    -0.052 C  
HETATM   30  C   UNL     1      -5.182   9.228  65.439  1.00  0.00    -0.036 C  
HETATM   31  C   UNL     1     -11.029  10.847  62.347  1.00  0.00     1.612 C  
HETATM   32  C   UNL     1     -10.405  11.515  63.617  1.00  0.00    -0.467 C  
HETATM   33  C   UNL     1      -7.822  10.348  63.508  1.00  0.00    -0.082 C  
ENDROOT
BRANCH  25  34
HETATM   34  O   UNL     1      -6.267  10.508  68.007  1.00  0.00    -0.054 OA 
BRANCH  34  35
HETATM   35  C   UNL     1      -6.368  10.760  69.446  1.00  0.00    -0.068 C  
HETATM   36  C   UNL     1      -9.122  11.532  70.144  1.00  0.00     2.830 C  
HETATM   37  O   UNL     1      -6.886  12.055  69.654  1.00  0.00    -0.049 OA 
HETATM   38  C   UNL     1      -8.595  13.736  68.979  1.00  0.00     0.265 C  
HETATM   39  C   UNL     1      -8.202  12.239  69.187  1.00  0.00     0.485 C  
HETATM   40  O   UNL     1     -10.466  11.610  69.645  1.00  0.00    -0.427 OA 
HETATM   41  C   UNL     1      -8.717  10.071  70.310  1.00  0.00     0.119 C  
HETATM   42  O   UNL     1      -7.942  14.731  69.232  1.00  0.00    -0.157 OA 
HETATM   43  O   UNL     1      -9.794  13.903  68.373  1.00  0.00    -0.222 OA 
HETATM   44  O   UNL     1      -9.339   9.641  71.550  1.00  0.00    -0.243 OA 
HETATM   45  H   UNL     1     -11.047  11.163  70.250  1.00  0.00     0.000 HD 
HETATM   46  C   UNL     1      -7.199   9.763  70.353  1.00  0.00    -0.142 C  
HETATM   47  H   UNL     1      -9.087   8.731  71.654  1.00  0.00     0.000 HD 
BRANCH  46  48
HETATM   48  O   UNL     1      -6.920   8.354  70.129  1.00  0.00    -0.042 OA 
BRANCH  48  49
HETATM   49  C   UNL     1      -7.996   7.488  70.555  1.00  0.00    -0.098 C  
HETATM   50  O   UNL     1      -8.087   7.419  71.982  1.00  0.00    -0.092 OA 
HETATM   51  C   UNL     1      -9.323   6.774  72.364  1.00  0.00    -0.137 C  
HETATM   52  C   UNL     1      -9.598   7.015  73.849  1.00  0.00    -0.263 C  
HETATM   53  C   UNL     1      -9.189   5.289  72.029  1.00  0.00    -0.137 C  
HETATM   54  O   UNL     1     -10.357   4.509  72.321  1.00  0.00    -0.189 OA 
HETATM   55  C   UNL     1      -8.927   5.115  70.524  1.00  0.00    -0.134 C  
HETATM   56  O   UNL     1      -8.642   7.770  74.439  1.00  0.00    -0.226 OA 
HETATM   57  O   UNL     1     -10.589   6.623  74.448  1.00  0.00    -0.208 OA 
HETATM   58  O   UNL     1      -8.496   3.771  70.257  1.00  0.00    -0.059 OA 
HETATM   59  C   UNL     1      -7.940   6.107  69.875  1.00  0.00    -0.114 C  
HETATM   60  H   UNL     1     -10.274   3.586  72.113  1.00  0.00     0.000 HD 
HETATM   61  H   UNL     1      -8.334   3.664  69.327  1.00  0.00     0.000 HD 
HETATM   62  O   UNL     1      -8.353   6.315  68.491  1.00  0.00    -0.114 OA 
HETATM   63  H   UNL     1      -8.319   5.463  68.071  1.00  0.00     0.000 HD 
ENDBRANCH  48  49
ENDBRANCH  46  48
ENDBRANCH  34  35
ENDBRANCH  25  34
TORSDOF 4
ENDMDL
MODEL       54
REMARK 921   NORMALIZED FREE ENERGY PREDICTED BY IDOCK:   12.68 KCAL/MOL
REMARK 922        TOTAL FREE ENERGY PREDICTED BY IDOCK:   14.75 KCAL/MOL
REMARK 923 INTER-LIGAND FREE ENERGY PREDICTED BY IDOCK:   12.16 KCAL/MOL
REMARK 924 INTRA-LIGAND FREE ENERGY PREDICTED BY IDOCK:    2.59 KCAL/MOL
REMARK 927      BINDING AFFINITY PREDICTED BY RF-SCORE:    0.00 PKD
ROOT
HETATM    1  C   UNL     1      -9.830  16.676  66.918  1.00  0.00    -0.267 C  
HETATM    2  C   UNL     1     -10.609  15.689  65.935  1.00  0.00    -0.354 C  
HETATM    3  C   UNL     1     -11.996  16.093  65.378  1.00  0.00     1.068 C  
HETATM    4  C   UNL     1     -12.812  16.777  66.493  1.00  0.00     5.860 C  
HETATM    5  C   UNL     1     -11.865  16.940  64.097  1.00  0.00     1.793 C  
HETATM    6  C   UNL     1     -12.827  14.883  64.883  1.00  0.00     0.328 C  
HETATM    7  O   UNL     1     -13.994  14.656  65.200  1.00  0.00     0.710 OA 
HETATM    8  O   UNL     1     -12.209  14.088  63.999  1.00  0.00    -0.578 OA 
HETATM    9  C   UNL     1     -12.044  17.683  67.492  1.00  0.00     2.766 C  
HETATM   10  C   UNL     1     -10.740  17.057  68.096  1.00  0.00    -0.374 C  
HETATM   11  C   UNL     1     -11.199  15.892  68.998  1.00  0.00    -0.327 C  
HETATM   12  C   UNL     1      -9.865  17.993  68.993  1.00  0.00    -0.249 C  
HETATM   13  C   UNL     1      -8.677  17.226  69.768  1.00  0.00     1.232 C  
HETATM   14  C   UNL     1      -7.682  16.396  68.853  1.00  0.00    -0.230 C  
HETATM   15  C   UNL     1      -8.459  16.137  67.423  1.00  0.00    -0.188 C  
HETATM   16  C   UNL     1      -6.637  17.482  68.403  1.00  0.00    -0.190 C  
HETATM   17  C   UNL     1      -7.998  15.123  66.712  1.00  0.00    -0.047 C  
HETATM   18  C   UNL     1      -7.966  14.178  67.831  1.00  0.00    -0.156 C  
HETATM   19  C   UNL     1      -6.610  13.872  68.268  1.00  0.00    -0.110 C  
HETATM   20  O   UNL     1      -8.972  13.859  68.465  1.00  0.00    -0.186 OA 
HETATM   21  C   UNL     1      -6.590  12.269  68.172  1.00  0.00    -0.067 C  
HETATM   22  C   UNL     1      -5.126  11.860  67.894  1.00  0.00    -0.055 C  
HETATM   23  C   UNL     1      -7.432  11.827  66.912  1.00  0.00    -0.106 C  
HETATM   24  C   UNL     1      -7.964  10.416  66.732  1.00  0.00    -0.117 C  
HETATM   25  C   UNL     1      -8.511   9.756  68.017  1.00  0.00    -0.118 C  
HETATM   26  C   UNL     1      -7.410   9.930  69.172  1.00  0.00    -0.083 C  
HETATM   27  C   UNL     1      -7.070  13.928  70.731  1.00  0.00     1.389 C  
HETATM   28  C   UNL     1      -7.199  11.563  69.415  1.00  0.00     0.001 C  
HETATM   29  C   UNL     1      -6.163   9.110  68.648  1.00  0.00    -0.045 C  
HETATM   30  C   UNL     1      -7.846   9.093  70.389  1.00  0.00    -0.140 C  
HETATM   31  C   UNL     1      -5.229  15.354  69.822  1.00  0.00    -0.099 C  
HETATM   32  C   UNL     1      -6.685  14.895  69.479  1.00  0.00    -0.165 C  
HETATM   33  C   UNL     1      -6.625  12.317  70.661  1.00  0.00     1.195 C  
ENDROOT
BRANCH  25  34
HETATM   34  O   UNL     1      -9.962   9.865  68.307  1.00  0.00    -0.145 OA 
BRANCH  34  35
HETATM   35  C   UNL     1     -10.945   8.973  67.689  1.00  0.00     0.078 C  
HETATM   36  C   UNL     1      -9.600   6.599  66.584  1.00  0.00    -0.163 C  
HETATM   37  O   UNL     1     -10.570   8.724  66.353  1.00  0.00    -0.132 OA 
HETATM   38  C   UNL     1      -8.709   8.175  64.792  1.00  0.00     0.123 C  
HETATM   39  C   UNL     1      -9.350   8.033  66.208  1.00  0.00    -0.184 C  
HETATM   40  O   UNL     1      -8.356   5.883  66.548  1.00  0.00    -0.109 OA 
HETATM   41  C   UNL     1     -10.213   6.499  67.978  1.00  0.00    -0.164 C  
HETATM   42  O   UNL     1      -9.159   8.736  63.810  1.00  0.00     0.196 OA 
HETATM   43  O   UNL     1      -7.462   7.654  64.707  1.00  0.00    -0.081 OA 
HETATM   44  O   UNL     1     -10.821   5.182  68.034  1.00  0.00     0.058 OA 
HETATM   45  H   UNL     1      -8.514   4.976  66.786  1.00  0.00     0.000 HD 
HETATM   46  C   UNL     1     -11.258   7.575  68.364  1.00  0.00     0.412 C  
HETATM   47  H   UNL     1     -11.203   5.119  68.901  1.00  0.00     0.000 HD 
BRANCH  46  48
HETATM   48  O   UNL     1     -11.488   7.625  69.798  1.00  0.00    -0.033 OA 
BRANCH  48  49
HETATM   49  C   UNL     1     -12.369   8.699  70.195  1.00  0.00     0.809 C  
HETATM   50  O   UNL     1     -11.784   9.983  69.948  1.00  0.00    -0.213 OA 
HETATM   51  C   UNL     1     -12.783  11.015  70.100  1.00  0.00    -0.135 C  
HETATM   52  C   UNL     1     -12.273  12.325  69.496  1.00  0.00    -0.093 C  
HETATM   53  C   UNL     1     -13.092  11.141  71.590  1.00  0.00    -0.424 C  
HETATM   54  O   UNL     1     -14.100  12.112  71.906  1.00  0.00     0.357 OA 
HETATM   55  C   UNL     1     -13.611   9.799  72.132  1.00  0.00    -0.344 C  
HETATM   56  O   UNL     1     -11.035  12.206  68.964  1.00  0.00    -0.230 OA 
HETATM   57  O   UNL     1     -12.914  13.365  69.443  1.00  0.00     0.576 OA 
HETATM   58  O   UNL     1     -13.605   9.818  73.568  1.00  0.00     0.629 OA 
HETATM   59  C   UNL     1     -12.890   8.528  71.634  1.00  0.00    -0.338 C  
HETATM   60  H   UNL     1     -14.292  12.190  72.833  1.00  0.00     0.000 HD 
HETATM   61  H   UNL     1     -13.926   8.989  73.902  1.00  0.00     0.000 HD 
HETATM   62  O   UNL     1     -13.865   7.444  71.592  1.00  0.00    -0.385 OA 
HETATM   63  H   UNL     1     -14.187   7.338  72.480  1.00  0.00     0.000 HD 
ENDBRANCH  48  49
ENDBRANCH  46  48
ENDBRANCH  34  35
ENDBRANCH  25  34
TORSDOF 4
ENDMDL
MODEL       55
REMARK 921   NORMALIZED FREE ENERGY PREDICTED BY IDOCK:   12.96 KCAL/MOL
REMARK 922        TOTAL FREE ENERGY PREDICTED BY IDOCK:   15.08 KCAL/MOL
REMARK 923 INTER-LIGAND FREE ENERGY PREDICTED BY IDOCK:   11.59 KCAL/MOL
REMARK 924 INTRA-LIGAND FREE ENERGY PREDICTED BY IDOCK:    3.49 KCAL/MOL
REMARK 927      BINDING AFFINITY PREDICTED BY RF-SCORE:    0.00 PKD
ROOT
HETATM    1  C   UNL     1     -10.683  15.825  66.737  1.00  0.00    -0.293 C  
HETATM    2  C   UNL     1     -11.024  14.835  65.531  1.00  0.00    -0.350 C  
HETATM    3  C   UNL     1     -12.363  14.986  64.768  1.00  0.00    -0.162 C  
HETATM    4  C   UNL     1     -13.490  15.300  65.772  1.00  0.00     2.380 C  
HETATM    5  C   UNL     1     -12.249  16.014  63.625  1.00  0.00     1.470 C  
HETATM    6  C   UNL     1     -12.777  13.701  64.008  1.00  0.00     0.099 C  
HETATM    7  O   UNL     1     -13.884  13.171  64.076  1.00  0.00     1.817 OA 
HETATM    8  O   UNL     1     -11.848  13.203  63.180  1.00  0.00    -0.459 OA 
HETATM    9  C   UNL     1     -13.140  16.206  66.983  1.00  0.00     4.749 C  
HETATM   10  C   UNL     1     -11.832  15.816  67.756  1.00  0.00     0.163 C  
HETATM   11  C   UNL     1     -12.122  14.461  68.435  1.00  0.00    -0.278 C  
HETATM   12  C   UNL     1     -11.373  16.789  68.889  1.00  0.00    -0.016 C  
HETATM   13  C   UNL     1     -10.167  16.213  69.793  1.00  0.00    -0.208 C  
HETATM   14  C   UNL     1      -8.865  15.771  69.002  1.00  0.00    -0.236 C  
HETATM   15  C   UNL     1      -9.318  15.547  67.433  1.00  0.00    -0.211 C  
HETATM   16  C   UNL     1      -8.068  17.120  68.866  1.00  0.00    -0.203 C  
HETATM   17  C   UNL     1      -8.512  14.778  66.723  1.00  0.00    -0.179 C  
HETATM   18  C   UNL     1      -8.421  13.715  67.729  1.00  0.00    -0.183 C  
HETATM   19  C   UNL     1      -7.117  13.669  68.379  1.00  0.00    -0.107 C  
HETATM   20  O   UNL     1      -9.401  13.088  68.128  1.00  0.00    -0.209 OA 
HETATM   21  C   UNL     1      -6.682  12.144  68.129  1.00  0.00    -0.070 C  
HETATM   22  C   UNL     1      -5.137  12.125  68.091  1.00  0.00    -0.054 C  
HETATM   23  C   UNL     1      -7.178  11.705  66.696  1.00  0.00    -0.025 C  
HETATM   24  C   UNL     1      -7.304  10.250  66.279  1.00  0.00    -0.118 C  
HETATM   25  C   UNL     1      -7.864   9.306  67.367  1.00  0.00    -0.099 C  
HETATM   26  C   UNL     1      -7.037   9.562  68.719  1.00  0.00    -0.068 C  
HETATM   27  C   UNL     1      -7.959  13.268  70.705  1.00  0.00     4.771 C  
HETATM   28  C   UNL     1      -7.283  11.147  69.159  1.00  0.00    -0.123 C  
HETATM   29  C   UNL     1      -5.559   9.132  68.358  1.00  0.00    -0.038 C  
HETATM   30  C   UNL     1      -7.436   8.483  69.744  1.00  0.00    -0.071 C  
HETATM   31  C   UNL     1      -6.414  15.192  70.304  1.00  0.00    -0.065 C  
HETATM   32  C   UNL     1      -7.636  14.465  69.651  1.00  0.00     0.160 C  
HETATM   33  C   UNL     1      -7.120  11.828  70.560  1.00  0.00     1.933 C  
ENDROOT
BRANCH  25  34
HETATM   34  O   UNL     1      -9.323   9.037  67.390  1.00  0.00    -0.136 OA 
BRANCH  34  35
HETATM   35  C   UNL     1      -9.981   8.246  66.349  1.00  0.00    -0.194 C  
HETATM   36  C   UNL     1      -8.823   8.876  63.717  1.00  0.00     0.090 C  
HETATM   37  O   UNL     1     -10.486   9.112  65.357  1.00  0.00     0.677 OA 
HETATM   38  C   UNL     1     -10.046  11.102  63.925  1.00  0.00    -0.348 C  
HETATM   39  C   UNL     1      -9.500   9.835  64.657  1.00  0.00    -0.229 C  
HETATM   40  O   UNL     1      -7.741   9.552  63.058  1.00  0.00    -0.117 OA 
HETATM   41  C   UNL     1      -8.290   7.660  64.469  1.00  0.00     0.029 C  
HETATM   42  O   UNL     1     -11.197  11.484  63.834  1.00  0.00    -0.387 OA 
HETATM   43  O   UNL     1      -9.075  11.883  63.397  1.00  0.00     0.012 OA 
HETATM   44  O   UNL     1      -8.099   6.638  63.454  1.00  0.00    -0.232 OA 
HETATM   45  H   UNL     1      -7.313   8.946  62.464  1.00  0.00     0.000 HD 
HETATM   46  C   UNL     1      -9.171   7.101  65.615  1.00  0.00     0.235 C  
HETATM   47  H   UNL     1      -7.767   5.881  63.922  1.00  0.00     0.000 HD 
BRANCH  46  48
HETATM   48  O   UNL     1      -8.426   6.216  66.494  1.00  0.00    -0.114 OA 
BRANCH  48  49
HETATM   49  C   UNL     1      -8.240   4.893  65.943  1.00  0.00    -0.113 C  
HETATM   50  O   UNL     1      -7.432   4.920  64.762  1.00  0.00    -0.072 OA 
HETATM   51  C   UNL     1      -7.046   3.575  64.400  1.00  0.00    -0.057 C  
HETATM   52  C   UNL     1      -5.909   3.617  63.378  1.00  0.00    -0.014 C  
HETATM   53  C   UNL     1      -8.289   2.869  63.862  1.00  0.00    -0.086 C  
HETATM   54  O   UNL     1      -8.077   1.500  63.487  1.00  0.00    -0.060 OA 
HETATM   55  C   UNL     1      -9.387   2.849  64.938  1.00  0.00    -0.142 C  
HETATM   56  O   UNL     1      -5.534   4.880  63.069  1.00  0.00    -0.012 OA 
HETATM   57  O   UNL     1      -5.350   2.633  62.915  1.00  0.00    -0.007 OA 
HETATM   58  O   UNL     1     -10.641   2.475  64.348  1.00  0.00    -0.374 OA 
HETATM   59  C   UNL     1      -9.573   4.142  65.759  1.00  0.00    -0.190 C  
HETATM   60  H   UNL     1      -8.849   1.061  63.152  1.00  0.00     0.000 HD 
HETATM   61  H   UNL     1     -11.319   2.463  65.013  1.00  0.00     0.000 HD 
HETATM   62  O   UNL     1     -10.020   3.768  67.096  1.00  0.00    -0.287 OA 
HETATM   63  H   UNL     1     -10.842   3.304  66.983  1.00  0.00     0.000 HD 
ENDBRANCH  48  49
ENDBRANCH  46  48
ENDBRANCH  34  35
ENDBRANCH  25  34
TORSDOF 4
ENDMDL
MODEL       56
REMARK 921   NORMALIZED FREE ENERGY PREDICTED BY IDOCK:   14.98 KCAL/MOL
REMARK 922        TOTAL FREE ENERGY PREDICTED BY IDOCK:   17.58 KCAL/MOL
REMARK 923 INTER-LIGAND FREE ENERGY PREDICTED BY IDOCK:   17.56 KCAL/MOL
REMARK 924 INTRA-LIGAND FREE ENERGY PREDICTED BY IDOCK:    0.02 KCAL/MOL
REMARK 927      BINDING AFFINITY PREDICTED BY RF-SCORE:    0.00 PKD
ROOT
HETATM    1  C   UNL     1     -10.866  16.538  70.266  1.00  0.00    -0.156 C  
HETATM    2  C   UNL     1     -12.068  15.542  70.603  1.00  0.00    -0.430 C  
HETATM    3  C   UNL     1     -12.664  15.511  72.032  1.00  0.00    -0.490 C  
HETATM    4  C   UNL     1     -11.523  15.625  73.062  1.00  0.00    -0.142 C  
HETATM    5  C   UNL     1     -13.765  16.575  72.207  1.00  0.00     1.689 C  
HETATM    6  C   UNL     1     -13.428  14.200  72.343  1.00  0.00    -0.517 C  
HETATM    7  O   UNL     1     -13.257  13.508  73.344  1.00  0.00    -0.133 OA 
HETATM    8  O   UNL     1     -14.380  13.869  71.458  1.00  0.00    -0.199 OA 
HETATM    9  C   UNL     1     -10.321  16.539  72.704  1.00  0.00     5.239 C  
HETATM   10  C   UNL     1      -9.723  16.328  71.270  1.00  0.00     3.484 C  
HETATM   11  C   UNL     1      -9.077  14.927  71.275  1.00  0.00     3.377 C  
HETATM   12  C   UNL     1      -8.608  17.328  70.824  1.00  0.00     5.447 C  
HETATM   13  C   UNL     1      -7.876  16.914  69.447  1.00  0.00     0.138 C  
HETATM   14  C   UNL     1      -8.831  16.695  68.200  1.00  0.00    -0.206 C  
HETATM   15  C   UNL     1     -10.346  16.449  68.801  1.00  0.00    -0.275 C  
HETATM   16  C   UNL     1      -8.997  18.151  67.629  1.00  0.00    -0.260 C  
HETATM   17  C   UNL     1     -11.177  15.829  67.983  1.00  0.00    -0.338 C  
HETATM   18  C   UNL     1     -10.239  14.764  67.618  1.00  0.00    -0.232 C  
HETATM   19  C   UNL     1      -9.746  14.896  66.252  1.00  0.00    -0.320 C  
HETATM   20  O   UNL     1      -9.757  13.986  68.441  1.00  0.00    -0.217 OA 
HETATM   21  C   UNL     1     -10.113  13.461  65.634  1.00  0.00    -0.285 C  
HETATM   22  C   UNL     1     -10.330  13.675  64.118  1.00  0.00     0.160 C  
HETATM   23  C   UNL     1     -11.498  12.992  66.229  1.00  0.00    -0.379 C  
HETATM   24  C   UNL     1     -11.962  11.547  66.192  1.00  0.00     0.631 C  
HETATM   25  C   UNL     1     -10.861  10.500  66.473  1.00  0.00    -0.058 C  
HETATM   26  C   UNL     1      -9.603  10.839  65.535  1.00  0.00    -0.269 C  
HETATM   27  C   UNL     1      -7.359  14.309  66.739  1.00  0.00     0.970 C  
HETATM   28  C   UNL     1      -9.067  12.358  65.954  1.00  0.00     0.090 C  
HETATM   29  C   UNL     1     -10.151  10.646  64.064  1.00  0.00    -0.378 C  
HETATM   30  C   UNL     1      -8.589   9.685  65.645  1.00  0.00    -0.149 C  
HETATM   31  C   UNL     1      -7.848  16.453  65.551  1.00  0.00     1.929 C  
HETATM   32  C   UNL     1      -8.388  15.570  66.724  1.00  0.00    -0.301 C  
HETATM   33  C   UNL     1      -7.665  13.016  65.723  1.00  0.00     3.237 C  
ENDROOT
BRANCH  25  34
HETATM   34  O   UNL     1     -10.682  10.015  67.864  1.00  0.00    -0.236 OA 
BRANCH  34  35
HETATM   35  C   UNL     1     -10.048  10.837  68.895  1.00  0.00    -0.205 C  
HETATM   36  C   UNL     1     -10.574   9.697  71.558  1.00  0.00     0.007 C  
HETATM   37  O   UNL     1     -11.021  11.230  69.838  1.00  0.00    -0.177 OA 
HETATM   38  C   UNL     1     -12.962  10.524  71.230  1.00  0.00    -0.433 C  
HETATM   39  C   UNL     1     -11.596  10.167  70.561  1.00  0.00    -0.329 C  
HETATM   40  O   UNL     1     -11.086   8.545  72.246  1.00  0.00    -0.342 OA 
HETATM   41  C   UNL     1      -9.260   9.344  70.868  1.00  0.00    -0.173 C  
HETATM   42  O   UNL     1     -13.532  11.598  71.257  1.00  0.00     0.045 OA 
HETATM   43  O   UNL     1     -13.591   9.458  71.779  1.00  0.00    -0.386 OA 
HETATM   44  O   UNL     1      -8.259   9.366  71.919  1.00  0.00    -0.132 OA 
HETATM   45  H   UNL     1     -10.439   8.248  72.876  1.00  0.00     0.000 HD 
HETATM   46  C   UNL     1      -8.813  10.258  69.700  1.00  0.00    -0.103 C  
HETATM   47  H   UNL     1      -7.440   9.146  71.489  1.00  0.00     0.000 HD 
BRANCH  46  48
HETATM   48  O   UNL     1      -7.786   9.637  68.881  1.00  0.00    -0.074 OA 
BRANCH  48  49
HETATM   49  C   UNL     1      -7.483   8.282  69.282  1.00  0.00    -0.085 C  
HETATM   50  O   UNL     1      -6.565   8.247  70.381  1.00  0.00    -0.036 OA 
HETATM   51  C   UNL     1      -6.498   6.910  70.923  1.00  0.00    -0.048 C  
HETATM   52  C   UNL     1      -5.818   6.937  72.293  1.00  0.00    -0.038 C  
HETATM   53  C   UNL     1      -5.747   6.042  69.915  1.00  0.00    -0.017 C  
HETATM   54  O   UNL     1      -5.624   4.664  70.296  1.00  0.00    -0.011 OA 
HETATM   55  C   UNL     1      -6.486   6.046  68.567  1.00  0.00    -0.049 C  
HETATM   56  O   UNL     1      -5.456   8.185  72.669  1.00  0.00    -0.036 OA 
HETATM   57  O   UNL     1      -5.653   5.960  73.009  1.00  0.00    -0.033 OA 
HETATM   58  O   UNL     1      -5.638   5.501  67.545  1.00  0.00    -0.011 OA 
HETATM   59  C   UNL     1      -7.052   7.402  68.094  1.00  0.00    -0.085 C  
HETATM   60  H   UNL     1      -5.157   4.124  69.669  1.00  0.00     0.000 HD 
HETATM   61  H   UNL     1      -6.096   5.504  66.712  1.00  0.00     0.000 HD 
HETATM   62  O   UNL     1      -8.259   7.141  67.318  1.00  0.00    -0.116 OA 
HETATM   63  H   UNL     1      -7.993   6.597  66.585  1.00  0.00     0.000 HD 
ENDBRANCH  48  49
ENDBRANCH  46  48
ENDBRANCH  34  35
ENDBRANCH  25  34
TORSDOF 4
ENDMDL
MODEL       57
REMARK 921   NORMALIZED FREE ENERGY PREDICTED BY IDOCK:   15.12 KCAL/MOL
REMARK 922        TOTAL FREE ENERGY PREDICTED BY IDOCK:   17.75 KCAL/MOL
REMARK 923 INTER-LIGAND FREE ENERGY PREDICTED BY IDOCK:   12.02 KCAL/MOL
REMARK 924 INTRA-LIGAND FREE ENERGY PREDICTED BY IDOCK:    5.73 KCAL/MOL
REMARK 927      BINDING AFFINITY PREDICTED BY RF-SCORE:    0.00 PKD
ROOT
HETATM    1  C   UNL     1     -10.505  15.363  68.775  1.00  0.00    -0.231 C  
HETATM    2  C   UNL     1     -11.610  14.327  69.280  1.00  0.00    -0.350 C  
HETATM    3  C   UNL     1     -12.769  14.817  70.181  1.00  0.00    -0.264 C  
HETATM    4  C   UNL     1     -12.224  15.832  71.206  1.00  0.00    -0.491 C  
HETATM    5  C   UNL     1     -13.947  15.355  69.345  1.00  0.00     3.666 C  
HETATM    6  C   UNL     1     -13.438  13.674  70.985  1.00  0.00     0.042 C  
HETATM    7  O   UNL     1     -13.651  13.699  72.196  1.00  0.00    -0.446 OA 
HETATM    8  O   UNL     1     -13.855  12.630  70.256  1.00  0.00     2.193 OA 
HETATM    9  C   UNL     1     -11.100  16.794  70.736  1.00  0.00     0.299 C  
HETATM   10  C   UNL     1      -9.909  16.111  69.977  1.00  0.00     0.233 C  
HETATM   11  C   UNL     1      -9.178  15.239  71.020  1.00  0.00     2.321 C  
HETATM   12  C   UNL     1      -8.833  17.064  69.364  1.00  0.00     0.276 C  
HETATM   13  C   UNL     1      -7.525  16.299  68.810  1.00  0.00    -0.195 C  
HETATM   14  C   UNL     1      -7.797  15.156  67.744  1.00  0.00    -0.161 C  
HETATM   15  C   UNL     1      -9.383  14.733  67.898  1.00  0.00    -0.193 C  
HETATM   16  C   UNL     1      -7.857  15.954  66.389  1.00  0.00    -0.041 C  
HETATM   17  C   UNL     1      -9.690  13.538  67.428  1.00  0.00    -0.229 C  
HETATM   18  C   UNL     1      -8.573  12.847  68.077  1.00  0.00    -0.186 C  
HETATM   19  C   UNL     1      -7.545  12.432  67.130  1.00  0.00    -0.104 C  
HETATM   20  O   UNL     1      -8.421  12.822  69.298  1.00  0.00     0.538 OA 
HETATM   21  C   UNL     1      -7.434  10.860  67.438  1.00  0.00    -0.100 C  
HETATM   22  C   UNL     1      -6.981  10.183  66.125  1.00  0.00    -0.113 C  
HETATM   23  C   UNL     1      -8.877  10.305  67.761  1.00  0.00    -0.125 C  
HETATM   24  C   UNL     1      -9.110   8.985  68.476  1.00  0.00    -0.133 C  
HETATM   25  C   UNL     1      -8.136   8.693  69.640  1.00  0.00    -0.112 C  
HETATM   26  C   UNL     1      -6.640   8.928  69.106  1.00  0.00    -0.047 C  
HETATM   27  C   UNL     1      -5.571  13.059  68.541  1.00  0.00    -0.069 C  
HETATM   28  C   UNL     1      -6.521  10.524  68.649  1.00  0.00    -0.051 C  
HETATM   29  C   UNL     1      -6.454   7.837  67.976  1.00  0.00    -0.055 C  
HETATM   30  C   UNL     1      -5.657   8.434  70.183  1.00  0.00    -0.021 C  
HETATM   31  C   UNL     1      -5.723  13.970  66.218  1.00  0.00     4.891 C  
HETATM   32  C   UNL     1      -6.622  13.680  67.465  1.00  0.00    -0.122 C  
HETATM   33  C   UNL     1      -5.247  11.419  68.487  1.00  0.00    -0.043 C  
ENDROOT
BRANCH  25  34
HETATM   34  O   UNL     1      -8.538   9.081  71.014  1.00  0.00    -0.188 OA 
BRANCH  34  35
HETATM   35  C   UNL     1      -9.756   8.564  71.640  1.00  0.00    -0.252 C  
HETATM   36  C   UNL     1     -11.640   7.643  69.573  1.00  0.00     0.470 C  
HETATM   37  O   UNL     1     -10.873   9.242  71.111  1.00  0.00    -0.280 OA 
HETATM   38  C   UNL     1     -11.989  10.116  69.063  1.00  0.00     0.314 C  
HETATM   39  C   UNL     1     -11.086   9.032  69.735  1.00  0.00    -0.104 C  
HETATM   40  O   UNL     1     -11.775   7.353  68.174  1.00  0.00     0.304 OA 
HETATM   41  C   UNL     1     -10.726   6.612  70.228  1.00  0.00    -0.246 C  
HETATM   42  O   UNL     1     -12.567  11.049  69.587  1.00  0.00    -0.238 OA 
HETATM   43  O   UNL     1     -12.054  10.007  67.715  1.00  0.00     0.898 OA 
HETATM   44  O   UNL     1     -11.554   5.435  70.420  1.00  0.00     0.520 OA 
HETATM   45  H   UNL     1     -12.124   6.476  68.072  1.00  0.00     0.000 HD 
HETATM   46  C   UNL     1     -10.065   7.012  71.572  1.00  0.00    -0.187 C  
HETATM   47  H   UNL     1     -10.985   4.793  70.828  1.00  0.00     0.000 HD 
BRANCH  46  48
HETATM   48  O   UNL     1      -8.947   6.148  71.910  1.00  0.00    -0.140 OA 
BRANCH  48  49
HETATM   49  C   UNL     1      -8.349   5.517  70.756  1.00  0.00    -0.122 C  
HETATM   50  O   UNL     1      -9.338   4.942  69.894  1.00  0.00    -0.121 OA 
HETATM   51  C   UNL     1      -8.735   4.566  68.636  1.00  0.00    -0.098 C  
HETATM   52  C   UNL     1      -9.824   4.295  67.597  1.00  0.00    -0.094 C  
HETATM   53  C   UNL     1      -7.857   3.342  68.894  1.00  0.00    -0.051 C  
HETATM   54  O   UNL     1      -7.156   2.862  67.739  1.00  0.00    -0.048 OA 
HETATM   55  C   UNL     1      -6.778   3.684  69.935  1.00  0.00    -0.034 C  
HETATM   56  O   UNL     1     -11.071   4.478  68.091  1.00  0.00     1.425 OA 
HETATM   57  O   UNL     1      -9.616   3.993  66.431  1.00  0.00    -0.185 OA 
HETATM   58  O   UNL     1      -6.159   2.477  70.408  1.00  0.00    -0.021 OA 
HETATM   59  C   UNL     1      -7.225   4.536  71.141  1.00  0.00    -0.044 C  
HETATM   60  H   UNL     1      -6.610   2.101  67.900  1.00  0.00     0.000 HD 
HETATM   61  H   UNL     1      -5.492   2.688  71.051  1.00  0.00     0.000 HD 
HETATM   62  O   UNL     1      -6.093   5.354  71.561  1.00  0.00    -0.030 OA 
HETATM   63  H   UNL     1      -5.399   4.749  71.798  1.00  0.00     0.000 HD 
ENDBRANCH  48  49
ENDBRANCH  46  48
ENDBRANCH  34  35
ENDBRANCH  25  34
TORSDOF 4
ENDMDL
MODEL       58
REMARK 921   NORMALIZED FREE ENERGY PREDICTED BY IDOCK:   15.17 KCAL/MOL
REMARK 922        TOTAL FREE ENERGY PREDICTED BY IDOCK:   17.82 KCAL/MOL
REMARK 923 INTER-LIGAND FREE ENERGY PREDICTED BY IDOCK:   18.03 KCAL/MOL
REMARK 924 INTRA-LIGAND FREE ENERGY PREDICTED BY IDOCK:   -0.21 KCAL/MOL
REMARK 927      BINDING AFFINITY PREDICTED BY RF-SCORE:    0.00 PKD
ROOT
HETATM    1  C   UNL     1      -8.888  18.899  67.587  1.00  0.00    -0.312 C  
HETATM    2  C   UNL     1      -9.583  18.250  66.304  1.00  0.00    -0.256 C  
HETATM    3  C   UNL     1     -10.768  18.976  65.620  1.00  0.00    -0.252 C  
HETATM    4  C   UNL     1     -11.688  19.577  66.701  1.00  0.00     1.328 C  
HETATM    5  C   UNL     1     -10.277  20.005  64.583  1.00  0.00     2.320 C  
HETATM    6  C   UNL     1     -11.639  18.033  64.754  1.00  0.00     3.102 C  
HETATM    7  O   UNL     1     -12.865  17.953  64.819  1.00  0.00     7.762 OA 
HETATM    8  O   UNL     1     -10.971  17.317  63.839  1.00  0.00     0.620 OA 
HETATM    9  C   UNL     1     -11.017  20.146  67.981  1.00  0.00     0.238 C  
HETATM   10  C   UNL     1      -9.952  19.210  68.650  1.00  0.00    -0.486 C  
HETATM   11  C   UNL     1     -10.730  17.996  69.201  1.00  0.00     0.426 C  
HETATM   12  C   UNL     1      -9.154  19.808  69.854  1.00  0.00     0.732 C  
HETATM   13  C   UNL     1      -8.253  18.725  70.640  1.00  0.00     3.500 C  
HETATM   14  C   UNL     1      -7.218  17.917  69.750  1.00  0.00     0.536 C  
HETATM   15  C   UNL     1      -7.727  18.054  68.189  1.00  0.00    -0.274 C  
HETATM   16  C   UNL     1      -5.970  18.873  69.716  1.00  0.00    -0.276 C  
HETATM   17  C   UNL     1      -7.275  17.121  67.370  1.00  0.00    -0.178 C  
HETATM   18  C   UNL     1      -7.589  15.998  68.257  1.00  0.00    -0.137 C  
HETATM   19  C   UNL     1      -6.397  15.394  68.840  1.00  0.00    -0.106 C  
HETATM   20  O   UNL     1      -8.732  15.745  68.635  1.00  0.00    -0.175 OA 
HETATM   21  C   UNL     1      -6.573  13.855  68.419  1.00  0.00    -0.103 C  
HETATM   22  C   UNL     1      -5.150  13.262  68.309  1.00  0.00    -0.089 C  
HETATM   23  C   UNL     1      -7.203  13.795  66.972  1.00  0.00     0.458 C  
HETATM   24  C   UNL     1      -7.871  12.550  66.417  1.00  0.00     0.602 C  
HETATM   25  C   UNL     1      -8.743  11.772  67.428  1.00  0.00    -0.162 C  
HETATM   26  C   UNL     1      -7.876  11.547  68.761  1.00  0.00    -0.117 C  
HETATM   27  C   UNL     1      -7.320  15.084  71.149  1.00  0.00     1.781 C  
HETATM   28  C   UNL     1      -7.502  13.050  69.368  1.00  0.00     0.434 C  
HETATM   29  C   UNL     1      -6.672  10.636  68.292  1.00  0.00    -0.063 C  
HETATM   30  C   UNL     1      -8.650  10.591  69.688  1.00  0.00     0.022 C  
HETATM   31  C   UNL     1      -5.163  16.318  70.875  1.00  0.00    -0.142 C  
HETATM   32  C   UNL     1      -6.572  16.181  70.208  1.00  0.00     0.349 C  
HETATM   33  C   UNL     1      -7.089  13.460  70.822  1.00  0.00     2.193 C  
ENDROOT
BRANCH  25  34
HETATM   34  O   UNL     1     -10.195  12.070  67.489  1.00  0.00    -0.195 OA 
BRANCH  34  35
HETATM   35  C   UNL     1     -11.184  11.254  66.784  1.00  0.00    -0.195 C  
HETATM   36  C   UNL     1     -11.441  12.162  63.996  1.00  0.00    -0.411 C  
HETATM   37  O   UNL     1     -12.169  12.096  66.226  1.00  0.00    -0.604 OA 
HETATM   38  C   UNL     1     -12.628  14.196  64.969  1.00  0.00    -0.380 C  
HETATM   39  C   UNL     1     -11.691  12.975  65.235  1.00  0.00    -0.353 C  
HETATM   40  O   UNL     1     -10.855  13.005  62.992  1.00  0.00    -0.358 OA 
HETATM   41  C   UNL     1     -10.511  10.989  64.291  1.00  0.00    -0.359 C  
HETATM   42  O   UNL     1     -13.720  14.429  65.451  1.00  0.00    -0.236 OA 
HETATM   43  O   UNL     1     -12.089  15.123  64.142  1.00  0.00    -0.543 OA 
HETATM   44  O   UNL     1     -10.718  10.054  63.199  1.00  0.00     0.517 OA 
HETATM   45  H   UNL     1     -10.697  12.491  62.209  1.00  0.00     0.000 HD 
HETATM   46  C   UNL     1     -10.705  10.263  65.646  1.00  0.00     0.152 C  
HETATM   47  H   UNL     1     -10.139   9.323  63.383  1.00  0.00     0.000 HD 
BRANCH  46  48
HETATM   48  O   UNL     1      -9.560   9.439  65.993  1.00  0.00    -0.220 OA 
BRANCH  48  49
HETATM   49  C   UNL     1      -9.922   8.233  66.703  1.00  0.00    -0.278 C  
HETATM   50  O   UNL     1     -10.092   8.474  68.104  1.00  0.00    -0.185 OA 
HETATM   51  C   UNL     1     -10.710   7.327  68.728  1.00  0.00    -0.139 C  
HETATM   52  C   UNL     1     -11.219   7.703  70.121  1.00  0.00    -0.180 C  
HETATM   53  C   UNL     1      -9.669   6.209  68.770  1.00  0.00    -0.129 C  
HETATM   54  O   UNL     1     -10.144   4.979  69.336  1.00  0.00    -0.210 OA 
HETATM   55  C   UNL     1      -9.209   5.870  67.343  1.00  0.00    -0.108 C  
HETATM   56  O   UNL     1     -10.983   9.000  70.428  1.00  0.00    -0.234 OA 
HETATM   57  O   UNL     1     -11.819   6.949  70.872  1.00  0.00    -0.339 OA 
HETATM   58  O   UNL     1      -8.026   5.058  67.393  1.00  0.00    -0.095 OA 
HETATM   59  C   UNL     1      -8.972   7.062  66.392  1.00  0.00    -0.154 C  
HETATM   60  H   UNL     1      -9.496   4.285  69.362  1.00  0.00     0.000 HD 
HETATM   61  H   UNL     1      -7.742   4.848  66.511  1.00  0.00     0.000 HD 
HETATM   62  O   UNL     1      -9.287   6.627  65.035  1.00  0.00    -0.006 OA 
HETATM   63  H   UNL     1      -8.701   5.904  64.843  1.00  0.00     0.000 HD 
ENDBRANCH  48  49
ENDBRANCH  46  48
ENDBRANCH  34  35
ENDBRANCH  25  34
TORSDOF 4
ENDMDL
MODEL       59
REMARK 921   NORMALIZED FREE ENERGY PREDICTED BY IDOCK:   15.97 KCAL/MOL
REMARK 922        TOTAL FREE ENERGY PREDICTED BY IDOCK:   18.81 KCAL/MOL
REMARK 923 INTER-LIGAND FREE ENERGY PREDICTED BY IDOCK:   15.85 KCAL/MOL
REMARK 924 INTRA-LIGAND FREE ENERGY PREDICTED BY IDOCK:    2.95 KCAL/MOL
REMARK 927      BINDING AFFINITY PREDICTED BY RF-SCORE:    0.00 PKD
ROOT
HETATM    1  C   UNL     1     -10.343  15.687  68.563  1.00  0.00    -0.219 C  
HETATM    2  C   UNL     1     -11.409  14.625  69.096  1.00  0.00    -0.305 C  
HETATM    3  C   UNL     1     -12.496  15.066  70.106  1.00  0.00    -0.356 C  
HETATM    4  C   UNL     1     -11.872  16.028  71.138  1.00  0.00    -0.465 C  
HETATM    5  C   UNL     1     -13.732  15.645  69.390  1.00  0.00     2.878 C  
HETATM    6  C   UNL     1     -13.105  13.883  70.898  1.00  0.00    -0.192 C  
HETATM    7  O   UNL     1     -13.226  13.845  72.121  1.00  0.00    -0.376 OA 
HETATM    8  O   UNL     1     -13.579  12.877  70.149  1.00  0.00     1.389 OA 
HETATM    9  C   UNL     1     -10.784  17.014  70.634  1.00  0.00     0.770 C  
HETATM   10  C   UNL     1      -9.656  16.373  69.754  1.00  0.00     0.242 C  
HETATM   11  C   UNL     1      -8.850  15.450  70.691  1.00  0.00     1.705 C  
HETATM   12  C   UNL     1      -8.627  17.358  69.111  1.00  0.00     0.065 C  
HETATM   13  C   UNL     1      -7.367  16.624  68.421  1.00  0.00    -0.190 C  
HETATM   14  C   UNL     1      -7.722  15.538  67.321  1.00  0.00    -0.244 C  
HETATM   15  C   UNL     1      -9.292  15.106  67.572  1.00  0.00    -0.198 C  
HETATM   16  C   UNL     1      -7.882  16.405  66.018  1.00  0.00     0.179 C  
HETATM   17  C   UNL     1      -9.637  13.936  67.066  1.00  0.00    -0.254 C  
HETATM   18  C   UNL     1      -8.475  13.213  67.592  1.00  0.00    -0.194 C  
HETATM   19  C   UNL     1      -7.523  12.850  66.550  1.00  0.00     0.995 C  
HETATM   20  O   UNL     1      -8.232  13.126  68.795  1.00  0.00    -0.048 OA 
HETATM   21  C   UNL     1      -7.393  11.264  66.767  1.00  0.00    -0.146 C  
HETATM   22  C   UNL     1      -7.042  10.656  65.390  1.00  0.00    -0.011 C  
HETATM   23  C   UNL     1      -8.809  10.691  67.169  1.00  0.00    -0.139 C  
HETATM   24  C   UNL     1      -8.990   9.336  67.830  1.00  0.00    -0.130 C  
HETATM   25  C   UNL     1      -7.932   8.986  68.901  1.00  0.00    -0.100 C  
HETATM   26  C   UNL     1      -6.480   9.250  68.268  1.00  0.00    -0.055 C  
HETATM   27  C   UNL     1      -5.446  13.406  67.838  1.00  0.00    -0.113 C  
HETATM   28  C   UNL     1      -6.392  10.867  67.887  1.00  0.00    -0.057 C  
HETATM   29  C   UNL     1      -6.383   8.219  67.073  1.00  0.00    -0.056 C  
HETATM   30  C   UNL     1      -5.419   8.703  69.241  1.00  0.00    -0.035 C  
HETATM   31  C   UNL     1      -5.771  14.435  65.583  1.00  0.00    10.127 C  
HETATM   32  C   UNL     1      -6.575  14.080  66.878  1.00  0.00     1.333 C  
HETATM   33  C   UNL     1      -5.131  11.772  67.675  1.00  0.00    -0.064 C  
ENDROOT
BRANCH  25  34
HETATM   34  O   UNL     1      -8.228   9.301  70.320  1.00  0.00    -0.132 OA 
BRANCH  34  35
HETATM   35  C   UNL     1      -9.345   8.682  71.034  1.00  0.00    -0.202 C  
HETATM   36  C   UNL     1     -11.173   7.389  69.123  1.00  0.00     0.168 C  
HETATM   37  O   UNL     1     -10.559   9.176  70.515  1.00  0.00    -0.204 OA 
HETATM   38  C   UNL     1     -11.854   9.756  68.468  1.00  0.00     0.931 C  
HETATM   39  C   UNL     1     -10.796   8.844  69.167  1.00  0.00    -0.070 C  
HETATM   40  O   UNL     1     -11.323   6.985  67.753  1.00  0.00    -0.541 OA 
HETATM   41  C   UNL     1     -10.111   6.529  69.801  1.00  0.00    -0.178 C  
HETATM   42  O   UNL     1     -12.526  10.644  68.956  1.00  0.00    -0.311 OA 
HETATM   43  O   UNL     1     -11.956   9.544  67.135  1.00  0.00     2.123 OA 
HETATM   44  O   UNL     1     -10.774   5.274  70.107  1.00  0.00    -0.276 OA 
HETATM   45  H   UNL     1     -11.561   6.066  67.725  1.00  0.00     0.000 HD 
HETATM   46  C   UNL     1      -9.456   7.103  71.083  1.00  0.00    -0.157 C  
HETATM   47  H   UNL     1     -10.113   4.739  70.530  1.00  0.00     0.000 HD 
BRANCH  46  48
HETATM   48  O   UNL     1      -8.225   6.412  71.424  1.00  0.00    -0.119 OA 
BRANCH  48  49
HETATM   49  C   UNL     1      -8.443   5.068  71.909  1.00  0.00    -0.124 C  
HETATM   50  O   UNL     1      -9.622   4.982  72.717  1.00  0.00    -0.141 OA 
HETATM   51  C   UNL     1      -9.954   3.596  72.955  1.00  0.00    -0.142 C  
HETATM   52  C   UNL     1     -11.381   3.488  73.495  1.00  0.00    -0.123 C  
HETATM   53  C   UNL     1      -8.918   3.035  73.928  1.00  0.00    -0.075 C  
HETATM   54  O   UNL     1      -9.092   1.646  74.241  1.00  0.00    -0.060 OA 
HETATM   55  C   UNL     1      -7.511   3.161  73.322  1.00  0.00    -0.051 C  
HETATM   56  O   UNL     1     -11.986   4.693  73.610  1.00  0.00    -0.013 OA 
HETATM   57  O   UNL     1     -11.952   2.439  73.754  1.00  0.00    -0.065 OA 
HETATM   58  O   UNL     1      -6.521   2.931  74.337  1.00  0.00    -0.023 OA 
HETATM   59  C   UNL     1      -7.191   4.478  72.585  1.00  0.00    -0.080 C  
HETATM   60  H   UNL     1      -8.448   1.297  74.846  1.00  0.00     0.000 HD 
HETATM   61  H   UNL     1      -5.652   3.009  73.962  1.00  0.00     0.000 HD 
HETATM   62  O   UNL     1      -6.249   4.179  71.513  1.00  0.00    -0.016 OA 
HETATM   63  H   UNL     1      -5.476   3.815  71.929  1.00  0.00     0.000 HD 
ENDBRANCH  48  49
ENDBRANCH  46  48
ENDBRANCH  34  35
ENDBRANCH  25  34
TORSDOF 4
ENDMDL
MODEL       60
REMARK 921   NORMALIZED FREE ENERGY PREDICTED BY IDOCK:   18.50 KCAL/MOL
REMARK 922        TOTAL FREE ENERGY PREDICTED BY IDOCK:   21.93 KCAL/MOL
REMARK 923 INTER-LIGAND FREE ENERGY PREDICTED BY IDOCK:   21.49 KCAL/MOL
REMARK 924 INTRA-LIGAND FREE ENERGY PREDICTED BY IDOCK:    0.44 KCAL/MOL
REMARK 927      BINDING AFFINITY PREDICTED BY RF-SCORE:    0.00 PKD
ROOT
HETATM    1  C   UNL     1      -8.875  18.923  67.721  1.00  0.00    -0.318 C  
HETATM    2  C   UNL     1      -9.522  18.252  66.425  1.00  0.00    -0.290 C  
HETATM    3  C   UNL     1     -10.687  18.962  65.692  1.00  0.00    -0.214 C  
HETATM    4  C   UNL     1     -11.647  19.572  66.733  1.00  0.00     0.898 C  
HETATM    5  C   UNL     1     -10.168  19.980  64.659  1.00  0.00     2.320 C  
HETATM    6  C   UNL     1     -11.524  18.002  64.810  1.00  0.00     2.657 C  
HETATM    7  O   UNL     1     -12.750  17.916  64.834  1.00  0.00     6.961 OA 
HETATM    8  O   UNL     1     -10.821  17.278  63.927  1.00  0.00     1.017 OA 
HETATM    9  C   UNL     1     -11.023  20.161  68.027  1.00  0.00     0.238 C  
HETATM   10  C   UNL     1      -9.976  19.241  68.744  1.00  0.00    -0.511 C  
HETATM   11  C   UNL     1     -10.765  18.030  69.285  1.00  0.00     0.537 C  
HETATM   12  C   UNL     1      -9.222  19.860  69.966  1.00  0.00     0.845 C  
HETATM   13  C   UNL     1      -8.342  18.793  70.796  1.00  0.00     4.099 C  
HETATM   14  C   UNL     1      -7.273  17.979  69.953  1.00  0.00     0.755 C  
HETATM   15  C   UNL     1      -7.730  18.092  68.374  1.00  0.00    -0.303 C  
HETATM   16  C   UNL     1      -6.030  18.943  69.948  1.00  0.00    -0.266 C  
HETATM   17  C   UNL     1      -7.245  17.152  67.583  1.00  0.00    -0.172 C  
HETATM   18  C   UNL     1      -7.582  16.039  68.474  1.00  0.00    -0.155 C  
HETATM   19  C   UNL     1      -6.408  15.450  69.105  1.00  0.00    -0.117 C  
HETATM   20  O   UNL     1      -8.737  15.784  68.817  1.00  0.00    -0.176 OA 
HETATM   21  C   UNL     1      -6.560  13.904  68.698  1.00  0.00    -0.095 C  
HETATM   22  C   UNL     1      -5.131  13.318  68.644  1.00  0.00    -0.071 C  
HETATM   23  C   UNL     1      -7.141  13.822  67.232  1.00  0.00     0.054 C  
HETATM   24  C   UNL     1      -7.783  12.565  66.671  1.00  0.00     0.306 C  
HETATM   25  C   UNL     1      -8.684  11.795  67.663  1.00  0.00    -0.159 C  
HETATM   26  C   UNL     1      -7.861  11.593  69.027  1.00  0.00     0.031 C  
HETATM   27  C   UNL     1      -7.406  15.165  71.386  1.00  0.00     2.416 C  
HETATM   28  C   UNL     1      -7.517  13.106  69.627  1.00  0.00     0.732 C  
HETATM   29  C   UNL     1      -6.637  10.683  68.611  1.00  0.00    -0.056 C  
HETATM   30  C   UNL     1      -8.660  10.645  69.940  1.00  0.00     0.412 C  
HETATM   31  C   UNL     1      -5.249  16.408  71.168  1.00  0.00    -0.076 C  
HETATM   32  C   UNL     1      -6.633  16.253  70.455  1.00  0.00     0.836 C  
HETATM   33  C   UNL     1      -7.155  13.538  71.088  1.00  0.00     2.934 C  
ENDROOT
BRANCH  25  34
HETATM   34  O   UNL     1     -10.139  12.085  67.671  1.00  0.00    -0.192 OA 
BRANCH  34  35
HETATM   35  C   UNL     1     -11.112  11.188  67.047  1.00  0.00    -0.273 C  
HETATM   36  C   UNL     1     -10.104  10.263  64.439  1.00  0.00    -0.171 C  
HETATM   37  O   UNL     1     -11.435  11.674  65.763  1.00  0.00    -0.255 OA 
HETATM   38  C   UNL     1     -10.571  12.636  63.634  1.00  0.00    -0.342 C  
HETATM   39  C   UNL     1     -10.357  11.686  64.856  1.00  0.00    -0.283 C  
HETATM   40  O   UNL     1      -8.945  10.222  63.593  1.00  0.00    -0.196 OA 
HETATM   41  C   UNL     1      -9.886   9.370  65.657  1.00  0.00    -0.223 C  
HETATM   42  O   UNL     1     -11.556  13.289  63.349  1.00  0.00    -0.358 OA 
HETATM   43  O   UNL     1      -9.472  12.774  62.856  1.00  0.00     1.169 OA 
HETATM   44  O   UNL     1     -10.120   8.017  65.183  1.00  0.00     1.080 OA 
HETATM   45  H   UNL     1      -8.786   9.323  63.330  1.00  0.00     0.000 HD 
HETATM   46  C   UNL     1     -10.767   9.649  66.900  1.00  0.00    -0.115 C  
HETATM   47  H   UNL     1      -9.984   7.460  65.941  1.00  0.00     0.000 HD 
BRANCH  46  48
HETATM   48  O   UNL     1     -10.234   9.024  68.099  1.00  0.00    -0.187 OA 
BRANCH  48  49
HETATM   49  C   UNL     1     -11.158   9.048  69.210  1.00  0.00     0.060 C  
HETATM   50  O   UNL     1     -11.232  10.347  69.808  1.00  0.00    -0.253 OA 
HETATM   51  C   UNL     1     -12.348  10.403  70.724  1.00  0.00    -0.367 C  
HETATM   52  C   UNL     1     -12.653  11.858  71.085  1.00  0.00    -0.288 C  
HETATM   53  C   UNL     1     -11.982   9.563  71.947  1.00  0.00    -0.311 C  
HETATM   54  O   UNL     1     -13.011   9.490  72.944  1.00  0.00    -0.341 OA 
HETATM   55  C   UNL     1     -11.701   8.113  71.519  1.00  0.00    -0.286 C  
HETATM   56  O   UNL     1     -11.827  12.732  70.464  1.00  0.00    -0.253 OA 
HETATM   57  O   UNL     1     -13.566  12.220  71.812  1.00  0.00    -0.235 OA 
HETATM   58  O   UNL     1     -11.063   7.404  72.593  1.00  0.00    -0.282 OA 
HETATM   59  C   UNL     1     -10.886   7.921  70.223  1.00  0.00    -0.241 C  
HETATM   60  H   UNL     1     -12.783   8.968  73.704  1.00  0.00     0.000 HD 
HETATM   61  H   UNL     1     -10.889   6.508  72.328  1.00  0.00     0.000 HD 
HETATM   62  O   UNL     1     -11.331   6.684  69.590  1.00  0.00    -0.429 OA 
HETATM   63  H   UNL     1     -11.164   5.988  70.215  1.00  0.00     0.000 HD 
ENDBRANCH  48  49
ENDBRANCH  46  48
ENDBRANCH  34  35
ENDBRANCH  25  34
TORSDOF 4
ENDMDL
MODEL       61
REMARK 921   NORMALIZED FREE ENERGY PREDICTED BY IDOCK:   18.92 KCAL/MOL
REMARK 922        TOTAL FREE ENERGY PREDICTED BY IDOCK:   22.44 KCAL/MOL
REMARK 923 INTER-LIGAND FREE ENERGY PREDICTED BY IDOCK:   20.28 KCAL/MOL
REMARK 924 INTRA-LIGAND FREE ENERGY PREDICTED BY IDOCK:    2.16 KCAL/MOL
REMARK 927      BINDING AFFINITY PREDICTED BY RF-SCORE:    0.00 PKD
ROOT
HETATM    1  C   UNL     1      -9.975  12.307  65.881  1.00  0.00    -0.272 C  
HETATM    2  C   UNL     1      -8.750  11.639  65.104  1.00  0.00     0.388 C  
HETATM    3  C   UNL     1      -8.842  11.408  63.576  1.00  0.00     0.164 C  
HETATM    4  C   UNL     1     -10.261  10.923  63.219  1.00  0.00    -0.317 C  
HETATM    5  C   UNL     1      -8.398  12.656  62.788  1.00  0.00     5.004 C  
HETATM    6  C   UNL     1      -7.852  10.332  63.064  1.00  0.00    -0.148 C  
HETATM    7  O   UNL     1      -8.156   9.385  62.342  1.00  0.00    -0.121 OA 
HETATM    8  O   UNL     1      -6.570  10.525  63.406  1.00  0.00    -0.092 OA 
HETATM    9  C   UNL     1     -11.448  11.520  64.021  1.00  0.00    -0.331 C  
HETATM   10  C   UNL     1     -11.265  11.529  65.578  1.00  0.00    -0.204 C  
HETATM   11  C   UNL     1     -11.282  10.051  66.023  1.00  0.00     1.000 C  
HETATM   12  C   UNL     1     -12.374  12.254  66.408  1.00  0.00     0.396 C  
HETATM   13  C   UNL     1     -12.251  12.022  68.000  1.00  0.00     0.241 C  
HETATM   14  C   UNL     1     -10.856  12.414  68.646  1.00  0.00    -0.273 C  
HETATM   15  C   UNL     1      -9.761  12.458  67.416  1.00  0.00    -0.193 C  
HETATM   16  C   UNL     1     -11.021  13.954  68.921  1.00  0.00    -0.290 C  
HETATM   17  C   UNL     1      -8.499  12.333  67.786  1.00  0.00    -0.163 C  
HETATM   18  C   UNL     1      -8.729  11.180  68.661  1.00  0.00    -0.153 C  
HETATM   19  C   UNL     1      -8.616  11.518  70.074  1.00  0.00     2.247 C  
HETATM   20  O   UNL     1      -9.184  10.112  68.252  1.00  0.00    -0.127 OA 
HETATM   21  C   UNL     1      -7.520  10.456  70.575  1.00  0.00     0.507 C  
HETATM   22  C   UNL     1      -6.785  11.109  71.768  1.00  0.00     3.543 C  
HETATM   23  C   UNL     1      -6.447  10.260  69.434  1.00  0.00    -0.053 C  
HETATM   24  C   UNL     1      -5.509   9.066  69.383  1.00  0.00    -0.035 C  
HETATM   25  C   UNL     1      -6.151   7.715  69.772  1.00  0.00    -0.027 C  
HETATM   26  C   UNL     1      -6.928   7.917  71.162  1.00  0.00    -0.049 C  
HETATM   27  C   UNL     1     -10.580  10.174  70.860  1.00  0.00     0.050 C  
HETATM   28  C   UNL     1      -8.111   9.059  70.909  1.00  0.00    -0.203 C  
HETATM   29  C   UNL     1      -5.786   8.276  72.197  1.00  0.00    -0.048 C  
HETATM   30  C   UNL     1      -7.386   6.536  71.668  1.00  0.00    -0.087 C  
HETATM   31  C   UNL     1     -10.474  12.601  71.450  1.00  0.00     7.734 C  
HETATM   32  C   UNL     1     -10.189  11.633  70.254  1.00  0.00     2.121 C  
HETATM   33  C   UNL     1      -9.421   9.331  71.722  1.00  0.00     0.124 C  
ENDROOT
BRANCH  25  34
HETATM   34  O   UNL     1      -6.701   6.856  68.695  1.00  0.00    -0.055 OA 
BRANCH  34  35
HETATM   35  C   UNL     1      -5.991   5.672  68.209  1.00  0.00    -0.017 C  
HETATM   36  C   UNL     1      -7.630   3.265  68.639  1.00  0.00    -0.052 C  
HETATM   37  O   UNL     1      -5.899   4.726  69.251  1.00  0.00    -0.016 OA 
HETATM   38  C   UNL     1      -7.086   3.569  71.110  1.00  0.00    -0.033 C  
HETATM   39  C   UNL     1      -7.137   4.220  69.691  1.00  0.00    -0.049 C  
HETATM   40  O   UNL     1      -8.941   2.804  69.002  1.00  0.00    -0.089 OA 
HETATM   41  C   UNL     1      -7.681   3.939  67.271  1.00  0.00    -0.080 C  
HETATM   42  O   UNL     1      -6.118   3.392  71.825  1.00  0.00    -0.013 OA 
HETATM   43  O   UNL     1      -8.304   3.236  71.598  1.00  0.00    -0.061 OA 
HETATM   44  O   UNL     1      -7.706   2.850  66.310  1.00  0.00    -0.075 OA 
HETATM   45  H   UNL     1      -9.252   2.201  68.337  1.00  0.00     0.000 HD 
HETATM   46  C   UNL     1      -6.528   4.915  66.926  1.00  0.00    -0.045 C  
HETATM   47  H   UNL     1      -7.737   3.270  65.458  1.00  0.00     0.000 HD 
BRANCH  46  48
HETATM   48  O   UNL     1      -6.858   5.774  65.801  1.00  0.00    -0.057 OA 
BRANCH  48  49
HETATM   49  C   UNL     1      -7.540   5.077  64.735  1.00  0.00    -0.078 C  
HETATM   50  O   UNL     1      -8.890   4.757  65.091  1.00  0.00    -0.141 OA 
HETATM   51  C   UNL     1      -9.614   4.312  63.923  1.00  0.00    -0.100 C  
HETATM   52  C   UNL     1     -11.117   4.317  64.208  1.00  0.00     0.230 C  
HETATM   53  C   UNL     1      -9.093   2.923  63.559  1.00  0.00    -0.095 C  
HETATM   54  O   UNL     1      -9.695   2.352  62.389  1.00  0.00    -0.089 OA 
HETATM   55  C   UNL     1      -7.584   2.989  63.272  1.00  0.00    -0.063 C  
HETATM   56  O   UNL     1     -11.407   4.737  65.461  1.00  0.00    -0.012 OA 
HETATM   57  O   UNL     1     -11.982   4.024  63.396  1.00  0.00     1.024 OA 
HETATM   58  O   UNL     1      -7.036   1.662  63.239  1.00  0.00    -0.032 OA 
HETATM   59  C   UNL     1      -6.739   3.868  64.217  1.00  0.00    -0.044 C  
HETATM   60  H   UNL     1      -9.371   1.488  62.163  1.00  0.00     0.000 HD 
HETATM   61  H   UNL     1      -6.104   1.704  63.061  1.00  0.00     0.000 HD 
HETATM   62  O   UNL     1      -5.624   4.414  63.450  1.00  0.00    -0.012 OA 
HETATM   63  H   UNL     1      -5.129   3.668  63.130  1.00  0.00     0.000 HD 
ENDBRANCH  48  49
ENDBRANCH  46  48
ENDBRANCH  34  35
ENDBRANCH  25  34
TORSDOF 4
ENDMDL
MODEL       62
REMARK 921   NORMALIZED FREE ENERGY PREDICTED BY IDOCK:   19.17 KCAL/MOL
REMARK 922        TOTAL FREE ENERGY PREDICTED BY IDOCK:   22.76 KCAL/MOL
REMARK 923 INTER-LIGAND FREE ENERGY PREDICTED BY IDOCK:    7.22 KCAL/MOL
REMARK 924 INTRA-LIGAND FREE ENERGY PREDICTED BY IDOCK:   15.54 KCAL/MOL
REMARK 927      BINDING AFFINITY PREDICTED BY RF-SCORE:    0.00 PKD
ROOT
HETATM    1  C   UNL     1      -9.388  14.655  66.824  1.00  0.00    -0.275 C  
HETATM    2  C   UNL     1     -10.144  13.556  65.947  1.00  0.00    -0.311 C  
HETATM    3  C   UNL     1     -11.439  13.934  65.188  1.00  0.00    -0.324 C  
HETATM    4  C   UNL     1     -12.302  14.850  66.079  1.00  0.00     0.174 C  
HETATM    5  C   UNL     1     -11.128  14.533  63.803  1.00  0.00     1.034 C  
HETATM    6  C   UNL     1     -12.309  12.706  64.822  1.00  0.00    -0.489 C  
HETATM    7  O   UNL     1     -13.514  12.606  65.049  1.00  0.00    -0.503 OA 
HETATM    8  O   UNL     1     -11.673  11.733  64.154  1.00  0.00    -0.344 OA 
HETATM    9  C   UNL     1     -11.564  15.873  66.985  1.00  0.00     0.344 C  
HETATM   10  C   UNL     1     -10.372  15.289  67.819  1.00  0.00    -0.244 C  
HETATM   11  C   UNL     1     -10.998  14.329  68.853  1.00  0.00    -0.275 C  
HETATM   12  C   UNL     1      -9.517  16.316  68.630  1.00  0.00    -0.228 C  
HETATM   13  C   UNL     1      -8.466  15.631  69.644  1.00  0.00    -0.076 C  
HETATM   14  C   UNL     1      -7.456  14.597  68.992  1.00  0.00    -0.136 C  
HETATM   15  C   UNL     1      -8.114  14.135  67.553  1.00  0.00    -0.199 C  
HETATM   16  C   UNL     1      -6.295  15.525  68.476  1.00  0.00    -0.100 C  
HETATM   17  C   UNL     1      -7.666  12.988  67.077  1.00  0.00     0.052 C  
HETATM   18  C   UNL     1      -7.808  12.254  68.337  1.00  0.00    -0.151 C  
HETATM   19  C   UNL     1      -6.525  11.952  68.958  1.00  0.00    -0.086 C  
HETATM   20  O   UNL     1      -8.889  12.110  68.908  1.00  0.00     0.048 OA 
HETATM   21  C   UNL     1      -6.616  10.359  69.139  1.00  0.00    -0.054 C  
HETATM   22  C   UNL     1      -5.167   9.825  69.088  1.00  0.00    -0.036 C  
HETATM   23  C   UNL     1      -7.369   9.751  67.891  1.00  0.00    -0.085 C  
HETATM   24  C   UNL     1      -7.985   8.363  67.898  1.00  0.00    -0.115 C  
HETATM   25  C   UNL     1      -8.697   7.972  69.213  1.00  0.00    -0.137 C  
HETATM   26  C   UNL     1      -7.697   8.284  70.430  1.00  0.00    -0.084 C  
HETATM   27  C   UNL     1      -7.206  12.468  71.314  1.00  0.00     5.657 C  
HETATM   28  C   UNL     1      -7.389   9.919  70.413  1.00  0.00    -0.139 C  
HETATM   29  C   UNL     1      -6.472   7.314  70.185  1.00  0.00    -0.042 C  
HETATM   30  C   UNL     1      -8.305   7.701  71.719  1.00  0.00    -0.121 C  
HETATM   31  C   UNL     1      -5.187  13.603  70.373  1.00  0.00    -0.109 C  
HETATM   32  C   UNL     1      -6.636  13.175  69.964  1.00  0.00     0.181 C  
HETATM   33  C   UNL     1      -6.878  10.847  71.566  1.00  0.00     2.734 C  
ENDROOT
BRANCH  25  34
HETATM   34  O   UNL     1     -10.156   8.214  69.327  1.00  0.00    -0.191 OA 
BRANCH  34  35
HETATM   35  C   UNL     1     -11.091   7.823  68.271  1.00  0.00     0.337 C  
HETATM   36  C   UNL     1     -10.347   9.119  65.735  1.00  0.00     0.488 C  
HETATM   37  O   UNL     1     -11.642   8.983  67.687  1.00  0.00     0.960 OA 
HETATM   38  C   UNL     1     -11.199  11.269  66.805  1.00  0.00    -0.195 C  
HETATM   39  C   UNL     1     -10.708   9.803  67.024  1.00  0.00    -0.166 C  
HETATM   40  O   UNL     1      -9.319   9.875  65.076  1.00  0.00    -0.225 OA 
HETATM   41  C   UNL     1      -9.859   7.696  65.989  1.00  0.00     0.267 C  
HETATM   42  O   UNL     1     -12.285  11.750  67.068  1.00  0.00    -0.425 OA 
HETATM   43  O   UNL     1     -10.241  12.095  66.321  1.00  0.00    -0.216 OA 
HETATM   44  O   UNL     1      -9.993   7.013  64.715  1.00  0.00     1.975 OA 
HETATM   45  H   UNL     1      -9.090   9.443  64.262  1.00  0.00     0.000 HD 
HETATM   46  C   UNL     1     -10.588   6.891  67.094  1.00  0.00    -0.338 C  
HETATM   47  H   UNL     1      -9.689   6.127  64.873  1.00  0.00     0.000 HD 
BRANCH  46  48
HETATM   48  O   UNL     1      -9.826   5.728  67.516  1.00  0.00    -0.117 OA 
BRANCH  48  49
HETATM   49  C   UNL     1      -9.729   4.711  66.494  1.00  0.00    -0.201 C  
HETATM   50  O   UNL     1      -8.373   4.498  66.086  1.00  0.00    -0.112 OA 
HETATM   51  C   UNL     1      -8.286   3.305  65.276  1.00  0.00    -0.094 C  
HETATM   52  C   UNL     1      -6.824   2.874  65.141  1.00  0.00    -0.044 C  
HETATM   53  C   UNL     1      -8.929   3.617  63.926  1.00  0.00    -0.105 C  
HETATM   54  O   UNL     1      -8.951   2.512  63.011  1.00  0.00    -0.088 OA 
HETATM   55  C   UNL     1     -10.396   4.030  64.129  1.00  0.00    -0.174 C  
HETATM   56  O   UNL     1      -5.977   3.691  65.808  1.00  0.00    -0.022 OA 
HETATM   57  O   UNL     1      -6.443   1.878  64.544  1.00  0.00    -0.018 OA 
HETATM   58  O   UNL     1     -10.908   4.617  62.923  1.00  0.00    -0.304 OA 
HETATM   59  C   UNL     1     -10.692   4.967  65.319  1.00  0.00     0.134 C  
HETATM   60  H   UNL     1      -9.352   2.706  62.172  1.00  0.00     0.000 HD 
HETATM   61  H   UNL     1     -11.815   4.872  63.049  1.00  0.00     0.000 HD 
HETATM   62  O   UNL     1     -12.030   4.662  65.812  1.00  0.00     0.532 OA 
HETATM   63  H   UNL     1     -12.624   4.819  65.087  1.00  0.00     0.000 HD 
ENDBRANCH  48  49
ENDBRANCH  46  48
ENDBRANCH  34  35
ENDBRANCH  25  34
TORSDOF 4
ENDMDL
MODEL       63
REMARK 921   NORMALIZED FREE ENERGY PREDICTED BY IDOCK:   20.33 KCAL/MOL
REMARK 922        TOTAL FREE ENERGY PREDICTED BY IDOCK:   24.18 KCAL/MOL
REMARK 923 INTER-LIGAND FREE ENERGY PREDICTED BY IDOCK:    6.07 KCAL/MOL
REMARK 924 INTRA-LIGAND FREE ENERGY PREDICTED BY IDOCK:   18.11 KCAL/MOL
REMARK 927      BINDING AFFINITY PREDICTED BY RF-SCORE:    0.00 PKD
ROOT
HETATM    1  C   UNL     1      -8.993   6.515  69.337  1.00  0.00    -0.132 C  
HETATM    2  C   UNL     1      -8.407   7.200  70.655  1.00  0.00    -0.126 C  
HETATM    3  C   UNL     1      -8.739   6.605  72.045  1.00  0.00    -0.127 C  
HETATM    4  C   UNL     1     -10.216   6.162  72.069  1.00  0.00    -0.223 C  
HETATM    5  C   UNL     1      -7.752   5.487  72.431  1.00  0.00    -0.102 C  
HETATM    6  C   UNL     1      -8.550   7.618  73.201  1.00  0.00    -0.165 C  
HETATM    7  O   UNL     1      -9.385   7.853  74.073  1.00  0.00    -0.184 OA 
HETATM    8  O   UNL     1      -7.349   8.212  73.249  1.00  0.00    -0.121 OA 
HETATM    9  C   UNL     1     -10.807   5.559  70.765  1.00  0.00    -0.249 C  
HETATM   10  C   UNL     1     -10.518   6.378  69.459  1.00  0.00    -0.279 C  
HETATM   11  C   UNL     1     -11.306   7.698  69.595  1.00  0.00     0.111 C  
HETATM   12  C   UNL     1     -10.972   5.727  68.113  1.00  0.00    -0.150 C  
HETATM   13  C   UNL     1     -10.862   6.716  66.843  1.00  0.00    -0.415 C  
HETATM   14  C   UNL     1      -9.433   7.357  66.592  1.00  0.00    -0.240 C  
HETATM   15  C   UNL     1      -8.602   7.229  68.009  1.00  0.00    -0.125 C  
HETATM   16  C   UNL     1      -8.701   6.251  65.746  1.00  0.00    -0.145 C  
HETATM   17  C   UNL     1      -7.590   8.068  68.141  1.00  0.00    -0.109 C  
HETATM   18  C   UNL     1      -8.340   9.252  67.714  1.00  0.00    -0.116 C  
HETATM   19  C   UNL     1      -7.941   9.723  66.394  1.00  0.00    -0.109 C  
HETATM   20  O   UNL     1      -9.339   9.660  68.306  1.00  0.00    -0.133 OA 
HETATM   21  C   UNL     1      -7.570  11.256  66.692  1.00  0.00    -0.140 C  
HETATM   22  C   UNL     1      -6.499  11.663  65.654  1.00  0.00     1.179 C  
HETATM   23  C   UNL     1      -6.882  11.343  68.111  1.00  0.00    -0.064 C  
HETATM   24  C   UNL     1      -6.762  12.642  68.889  1.00  0.00    -0.098 C  
HETATM   25  C   UNL     1      -8.005  13.558  68.824  1.00  0.00    -0.002 C  
HETATM   26  C   UNL     1      -8.422  13.720  67.282  1.00  0.00    -0.204 C  
HETATM   27  C   UNL     1     -10.245  10.227  65.548  1.00  0.00    -0.308 C  
HETATM   28  C   UNL     1      -8.801  12.204  66.709  1.00  0.00    -0.198 C  
HETATM   29  C   UNL     1      -7.189  14.456  66.620  1.00  0.00     1.487 C  
HETATM   30  C   UNL     1      -9.518  14.797  67.186  1.00  0.00    -0.233 C  
HETATM   31  C   UNL     1      -8.774   8.724  64.197  1.00  0.00    -0.024 C  
HETATM   32  C   UNL     1      -9.170   9.013  65.683  1.00  0.00    -0.288 C  
HETATM   33  C   UNL     1      -9.672  11.797  65.473  1.00  0.00    -0.248 C  
ENDROOT
BRANCH  25  34
HETATM   34  O   UNL     1      -9.025  13.446  69.895  1.00  0.00     1.862 OA 
BRANCH  34  35
HETATM   35  C   UNL     1     -10.375  12.945  69.631  1.00  0.00     0.920 C  
HETATM   36  C   UNL     1     -12.371  14.969  70.395  1.00  0.00    -0.348 C  
HETATM   37  O   UNL     1     -11.137  13.017  70.815  1.00  0.00     1.225 OA 
HETATM   38  C   UNL     1     -11.757  14.389  72.799  1.00  0.00     0.583 C  
HETATM   39  C   UNL     1     -11.351  14.325  71.292  1.00  0.00     0.534 C  
HETATM   40  O   UNL     1     -12.541  16.340  70.787  1.00  0.00    -0.461 OA 
HETATM   41  C   UNL     1     -11.933  14.901  68.935  1.00  0.00    -0.260 C  
HETATM   42  O   UNL     1     -11.972  13.468  73.563  1.00  0.00     1.424 OA 
HETATM   43  O   UNL     1     -11.798  15.647  73.297  1.00  0.00    -0.440 OA 
HETATM   44  O   UNL     1     -13.146  15.107  68.163  1.00  0.00     1.095 OA 
HETATM   45  H   UNL     1     -13.185  16.747  70.220  1.00  0.00     0.000 HD 
HETATM   46  C   UNL     1     -11.233  13.599  68.472  1.00  0.00    -0.280 C  
HETATM   47  H   UNL     1     -12.874  15.064  67.254  1.00  0.00     0.000 HD 
BRANCH  46  48
HETATM   48  O   UNL     1     -10.530  13.775  67.212  1.00  0.00    -0.261 OA 
BRANCH  48  49
HETATM   49  C   UNL     1     -11.405  14.121  66.116  1.00  0.00    -0.337 C  
HETATM   50  O   UNL     1     -11.361  13.141  65.073  1.00  0.00    -0.291 OA 
HETATM   51  C   UNL     1     -12.433  13.375  64.133  1.00  0.00    -0.245 C  
HETATM   52  C   UNL     1     -12.616  12.149  63.237  1.00  0.00    -0.368 C  
HETATM   53  C   UNL     1     -12.084  14.632  63.339  1.00  0.00     0.900 C  
HETATM   54  O   UNL     1     -13.075  15.021  62.378  1.00  0.00     2.482 OA 
HETATM   55  C   UNL     1     -11.926  15.827  64.294  1.00  0.00    -0.058 C  
HETATM   56  O   UNL     1     -11.753  11.152  63.537  1.00  0.00     0.029 OA 
HETATM   57  O   UNL     1     -13.472  12.040  62.371  1.00  0.00     0.865 OA 
HETATM   58  O   UNL     1     -11.301  16.922  63.606  1.00  0.00    -0.784 OA 
HETATM   59  C   UNL     1     -11.178  15.560  65.617  1.00  0.00    -0.155 C  
HETATM   60  H   UNL     1     -12.858  15.802  61.885  1.00  0.00     0.000 HD 
HETATM   61  H   UNL     1     -11.204  17.659  64.197  1.00  0.00     0.000 HD 
HETATM   62  O   UNL     1     -11.737  16.441  66.638  1.00  0.00     0.716 OA 
HETATM   63  H   UNL     1     -11.598  17.329  66.330  1.00  0.00     0.000 HD 
ENDBRANCH  48  49
ENDBRANCH  46  48
ENDBRANCH  34  35
ENDBRANCH  25  34
TORSDOF 4
ENDMDL
MODEL       64
REMARK 921   NORMALIZED FREE ENERGY PREDICTED BY IDOCK:   20.80 KCAL/MOL
REMARK 922        TOTAL FREE ENERGY PREDICTED BY IDOCK:   24.77 KCAL/MOL
REMARK 923 INTER-LIGAND FREE ENERGY PREDICTED BY IDOCK:   22.87 KCAL/MOL
REMARK 924 INTRA-LIGAND FREE ENERGY PREDICTED BY IDOCK:    1.89 KCAL/MOL
REMARK 927      BINDING AFFINITY PREDICTED BY RF-SCORE:    0.00 PKD
ROOT
HETATM    1  C   UNL     1     -10.362  16.563  70.451  1.00  0.00     0.501 C  
HETATM    2  C   UNL     1     -11.619  15.639  70.787  1.00  0.00    -0.412 C  
HETATM    3  C   UNL     1     -11.902  15.227  72.253  1.00  0.00    -0.529 C  
HETATM    4  C   UNL     1     -10.569  14.898  72.955  1.00  0.00     2.661 C  
HETATM    5  C   UNL     1     -12.742  16.290  72.987  1.00  0.00    -0.434 C  
HETATM    6  C   UNL     1     -12.798  13.969  72.367  1.00  0.00    -0.317 C  
HETATM    7  O   UNL     1     -12.544  12.986  73.061  1.00  0.00     0.438 OA 
HETATM    8  O   UNL     1     -13.955  14.027  71.693  1.00  0.00    -0.364 OA 
HETATM    9  C   UNL     1      -9.329  15.751  72.577  1.00  0.00     8.203 C  
HETATM   10  C   UNL     1      -9.088  15.937  71.039  1.00  0.00     3.203 C  
HETATM   11  C   UNL     1      -8.706  14.545  70.491  1.00  0.00     2.137 C  
HETATM   12  C   UNL     1      -7.935  16.907  70.624  1.00  0.00     4.051 C  
HETATM   13  C   UNL     1      -7.588  16.870  69.049  1.00  0.00    -0.210 C  
HETATM   14  C   UNL     1      -8.804  17.147  68.070  1.00  0.00    -0.229 C  
HETATM   15  C   UNL     1     -10.180  16.881  68.938  1.00  0.00    -0.314 C  
HETATM   16  C   UNL     1      -8.832  18.718  67.988  1.00  0.00    -0.327 C  
HETATM   17  C   UNL     1     -11.258  16.634  68.215  1.00  0.00    -0.220 C  
HETATM   18  C   UNL     1     -10.613  15.647  67.345  1.00  0.00    -0.301 C  
HETATM   19  C   UNL     1     -10.400  16.146  65.992  1.00  0.00    -0.372 C  
HETATM   20  O   UNL     1     -10.112  14.607  67.772  1.00  0.00    -0.226 OA 
HETATM   21  C   UNL     1     -11.128  15.019  65.111  1.00  0.00    -0.408 C  
HETATM   22  C   UNL     1     -11.616  15.715  63.819  1.00  0.00     0.628 C  
HETATM   23  C   UNL     1     -12.419  14.531  65.879  1.00  0.00    -0.203 C  
HETATM   24  C   UNL     1     -13.122  13.224  65.558  1.00  0.00     0.123 C  
HETATM   25  C   UNL     1     -12.183  12.036  65.252  1.00  0.00     0.049 C  
HETATM   26  C   UNL     1     -11.108  12.521  64.162  1.00  0.00    -0.426 C  
HETATM   27  C   UNL     1      -8.101  15.197  65.684  1.00  0.00     2.894 C  
HETATM   28  C   UNL     1     -10.244  13.771  64.839  1.00  0.00    -0.374 C  
HETATM   29  C   UNL     1     -11.976  12.851  62.882  1.00  0.00     0.278 C  
HETATM   30  C   UNL     1     -10.308  11.293  63.690  1.00  0.00    -0.464 C  
HETATM   31  C   UNL     1      -8.451  17.643  65.300  1.00  0.00     1.990 C  
HETATM   32  C   UNL     1      -8.878  16.498  66.278  1.00  0.00    -0.364 C  
HETATM   33  C   UNL     1      -8.829  14.322  64.458  1.00  0.00     5.035 C  
ENDROOT
BRANCH  25  34
HETATM   34  O   UNL     1     -11.805  11.127  66.363  1.00  0.00    -0.065 OA 
BRANCH  34  35
HETATM   35  C   UNL     1     -10.806  11.502  67.365  1.00  0.00    -0.246 C  
HETATM   36  C   UNL     1     -10.868   9.600  69.611  1.00  0.00    -0.244 C  
HETATM   37  O   UNL     1     -11.438  11.649  68.617  1.00  0.00    -0.237 OA 
HETATM   38  C   UNL     1     -13.080  10.703  70.233  1.00  0.00     0.033 C  
HETATM   39  C   UNL     1     -12.001  10.464  69.129  1.00  0.00     0.016 C  
HETATM   40  O   UNL     1     -11.395   8.337  70.048  1.00  0.00    -0.438 OA 
HETATM   41  C   UNL     1      -9.843   9.377  68.504  1.00  0.00    -0.156 C  
HETATM   42  O   UNL     1     -13.427  11.755  70.735  1.00  0.00     0.467 OA 
HETATM   43  O   UNL     1     -13.737   9.578  70.602  1.00  0.00    -0.014 OA 
HETATM   44  O   UNL     1      -8.630   8.960  69.185  1.00  0.00    -0.130 OA 
HETATM   45  H   UNL     1     -10.679   7.792  70.352  1.00  0.00     0.000 HD 
HETATM   46  C   UNL     1      -9.536  10.580  67.578  1.00  0.00    -0.149 C  
HETATM   47  H   UNL     1      -7.992   8.820  68.495  1.00  0.00     0.000 HD 
BRANCH  46  48
HETATM   48  O   UNL     1      -8.863  10.173  66.356  1.00  0.00    -0.141 OA 
BRANCH  48  49
HETATM   49  C   UNL     1      -9.167   8.815  65.966  1.00  0.00    -0.222 C  
HETATM   50  O   UNL     1      -9.048   7.908  67.068  1.00  0.00    -0.129 OA 
HETATM   51  C   UNL     1      -9.614   6.627  66.713  1.00  0.00    -0.166 C  
HETATM   52  C   UNL     1      -9.819   5.782  67.972  1.00  0.00    -0.131 C  
HETATM   53  C   UNL     1      -8.667   5.966  65.714  1.00  0.00    -0.151 C  
HETATM   54  O   UNL     1      -9.110   4.688  65.235  1.00  0.00    -0.142 OA 
HETATM   55  C   UNL     1      -8.514   6.857  64.470  1.00  0.00     0.196 C  
HETATM   56  O   UNL     1      -9.438   6.427  69.099  1.00  0.00    -0.135 OA 
HETATM   57  O   UNL     1     -10.316   4.666  67.989  1.00  0.00    -0.005 OA 
HETATM   58  O   UNL     1      -7.404   6.403  63.680  1.00  0.00    -0.061 OA 
HETATM   59  C   UNL     1      -8.379   8.373  64.719  1.00  0.00    -0.141 C  
HETATM   60  H   UNL     1      -8.521   4.277  64.613  1.00  0.00     0.000 HD 
HETATM   61  H   UNL     1      -7.310   6.954  62.911  1.00  0.00     0.000 HD 
HETATM   62  O   UNL     1      -8.979   9.072  63.587  1.00  0.00    -0.433 OA 
HETATM   63  H   UNL     1      -8.493   8.799  62.816  1.00  0.00     0.000 HD 
ENDBRANCH  48  49
ENDBRANCH  46  48
ENDBRANCH  34  35
ENDBRANCH  25  34
TORSDOF 4
ENDMDL
MODEL       65
REMARK 921   NORMALIZED FREE ENERGY PREDICTED BY IDOCK:   21.44 KCAL/MOL
REMARK 922        TOTAL FREE ENERGY PREDICTED BY IDOCK:   25.56 KCAL/MOL
REMARK 923 INTER-LIGAND FREE ENERGY PREDICTED BY IDOCK:   24.97 KCAL/MOL
REMARK 924 INTRA-LIGAND FREE ENERGY PREDICTED BY IDOCK:    0.59 KCAL/MOL
REMARK 927      BINDING AFFINITY PREDICTED BY RF-SCORE:    0.00 PKD
ROOT
HETATM    1  C   UNL     1      -9.616  18.006  67.023  1.00  0.00    -0.287 C  
HETATM    2  C   UNL     1     -10.373  17.060  65.984  1.00  0.00    -0.324 C  
HETATM    3  C   UNL     1     -11.712  17.521  65.358  1.00  0.00     2.392 C  
HETATM    4  C   UNL     1     -12.564  18.219  66.436  1.00  0.00     7.466 C  
HETATM    5  C   UNL     1     -11.481  18.379  64.099  1.00  0.00     6.208 C  
HETATM    6  C   UNL     1     -12.557  16.348  64.801  1.00  0.00     2.341 C  
HETATM    7  O   UNL     1     -13.746  16.159  65.049  1.00  0.00     2.805 OA 
HETATM    8  O   UNL     1     -11.919  15.543  63.939  1.00  0.00    -0.498 OA 
HETATM    9  C   UNL     1     -11.822  19.084  67.490  1.00  0.00     1.902 C  
HETATM   10  C   UNL     1     -10.575  18.404  68.155  1.00  0.00    -0.298 C  
HETATM   11  C   UNL     1     -11.124  17.244  69.013  1.00  0.00     0.259 C  
HETATM   12  C   UNL     1      -9.720  19.296  69.112  1.00  0.00    -0.382 C  
HETATM   13  C   UNL     1      -8.603  18.477  69.940  1.00  0.00     1.391 C  
HETATM   14  C   UNL     1      -7.589  17.624  69.069  1.00  0.00    -0.155 C  
HETATM   15  C   UNL     1      -8.295  17.412  67.595  1.00  0.00    -0.214 C  
HETATM   16  C   UNL     1      -6.483  18.678  68.693  1.00  0.00    -0.247 C  
HETATM   17  C   UNL     1      -7.831  16.392  66.895  1.00  0.00    -0.273 C  
HETATM   18  C   UNL     1      -7.894  15.431  67.999  1.00  0.00    -0.127 C  
HETATM   19  C   UNL     1      -6.575  15.071  68.505  1.00  0.00    -0.096 C  
HETATM   20  O   UNL     1      -8.943  15.140  68.572  1.00  0.00    -0.172 OA 
HETATM   21  C   UNL     1      -6.606  13.470  68.387  1.00  0.00    -0.095 C  
HETATM   22  C   UNL     1      -5.144  13.013  68.183  1.00  0.00    -0.088 C  
HETATM   23  C   UNL     1      -7.393  13.075  67.076  1.00  0.00     0.173 C  
HETATM   24  C   UNL     1      -7.962  11.686  66.846  1.00  0.00    -0.161 C  
HETATM   25  C   UNL     1      -8.603  11.029  68.089  1.00  0.00    -0.140 C  
HETATM   26  C   UNL     1      -7.561  11.149  69.305  1.00  0.00    -0.057 C  
HETATM   27  C   UNL     1      -7.169  15.112  70.940  1.00  0.00     1.192 C  
HETATM   28  C   UNL     1      -7.308  12.770  69.583  1.00  0.00     0.653 C  
HETATM   29  C   UNL     1      -6.317  10.292  68.838  1.00  0.00    -0.047 C  
HETATM   30  C   UNL     1      -8.093  10.313  70.484  1.00  0.00     0.731 C  
HETATM   31  C   UNL     1      -5.231  16.483  70.155  1.00  0.00    -0.184 C  
HETATM   32  C   UNL     1      -6.682  16.080  69.726  1.00  0.00    -0.116 C  
HETATM   33  C   UNL     1      -6.777  13.487  70.871  1.00  0.00     1.212 C  
ENDROOT
BRANCH  25  34
HETATM   34  O   UNL     1     -10.063  11.186  68.301  1.00  0.00    -0.172 OA 
BRANCH  34  35
HETATM   35  C   UNL     1     -11.025  10.186  67.835  1.00  0.00    -0.277 C  
HETATM   36  C   UNL     1     -10.931   9.985  64.900  1.00  0.00     1.831 C  
HETATM   37  O   UNL     1     -11.889  10.778  66.890  1.00  0.00    -0.000 OA 
HETATM   38  C   UNL     1     -12.076  12.261  64.899  1.00  0.00    -0.356 C  
HETATM   39  C   UNL     1     -11.254  11.210  65.710  1.00  0.00     0.069 C  
HETATM   40  O   UNL     1     -10.190  10.376  63.734  1.00  0.00    -0.439 OA 
HETATM   41  C   UNL     1     -10.115   8.989  65.719  1.00  0.00     0.171 C  
HETATM   42  O   UNL     1     -13.195  12.682  65.124  1.00  0.00    -0.646 OA 
HETATM   43  O   UNL     1     -11.395  12.797  63.858  1.00  0.00    -0.384 OA 
HETATM   44  O   UNL     1     -10.269   7.717  65.036  1.00  0.00     2.122 OA 
HETATM   45  H   UNL     1      -9.985   9.602  63.222  1.00  0.00     0.000 HD 
HETATM   46  C   UNL     1     -10.496   8.830  67.212  1.00  0.00    -0.283 C  
HETATM   47  H   UNL     1      -9.761   7.096  65.545  1.00  0.00     0.000 HD 
BRANCH  46  48
HETATM   48  O   UNL     1      -9.449   8.172  67.976  1.00  0.00    -0.142 OA 
BRANCH  48  49
HETATM   49  C   UNL     1      -8.694   7.216  67.199  1.00  0.00    -0.121 C  
HETATM   50  O   UNL     1      -9.521   6.145  66.729  1.00  0.00    -0.137 OA 
HETATM   51  C   UNL     1      -8.804   5.367  65.745  1.00  0.00    -0.151 C  
HETATM   52  C   UNL     1      -9.778   4.464  64.986  1.00  0.00    -0.164 C  
HETATM   53  C   UNL     1      -7.725   4.574  66.481  1.00  0.00    -0.094 C  
HETATM   54  O   UNL     1      -6.898   3.769  65.629  1.00  0.00    -0.054 OA 
HETATM   55  C   UNL     1      -6.775   5.538  67.210  1.00  0.00    -0.059 C  
HETATM   56  O   UNL     1     -11.057   4.612  65.402  1.00  0.00    -0.205 OA 
HETATM   57  O   UNL     1      -9.467   3.718  64.068  1.00  0.00    -0.136 OA 
HETATM   58  O   UNL     1      -5.962   4.808  68.142  1.00  0.00    -0.024 OA 
HETATM   59  C   UNL     1      -7.425   6.738  67.929  1.00  0.00    -0.098 C  
HETATM   60  H   UNL     1      -6.227   3.276  66.087  1.00  0.00     0.000 HD 
HETATM   61  H   UNL     1      -5.375   5.403  68.593  1.00  0.00     0.000 HD 
HETATM   62  O   UNL     1      -6.485   7.853  67.888  1.00  0.00    -0.049 OA 
HETATM   63  H   UNL     1      -5.701   7.558  68.338  1.00  0.00     0.000 HD 
ENDBRANCH  48  49
ENDBRANCH  46  48
ENDBRANCH  34  35
ENDBRANCH  25  34
TORSDOF 4
ENDMDL
MODEL       66
REMARK 921   NORMALIZED FREE ENERGY PREDICTED BY IDOCK:   22.24 KCAL/MOL
REMARK 922        TOTAL FREE ENERGY PREDICTED BY IDOCK:   26.54 KCAL/MOL
REMARK 923 INTER-LIGAND FREE ENERGY PREDICTED BY IDOCK:   -3.78 KCAL/MOL
REMARK 924 INTRA-LIGAND FREE ENERGY PREDICTED BY IDOCK:   30.32 KCAL/MOL
REMARK 927      BINDING AFFINITY PREDICTED BY RF-SCORE:    0.00 PKD
ROOT
HETATM    1  C   UNL     1      -9.654  11.957  69.666  1.00  0.00     1.353 C  
HETATM    2  C   UNL     1      -8.088  12.074  69.376  1.00  0.00     0.714 C  
HETATM    3  C   UNL     1      -7.511  13.385  68.788  1.00  0.00    -0.061 C  
HETATM    4  C   UNL     1      -8.476  13.930  67.716  1.00  0.00    -0.183 C  
HETATM    5  C   UNL     1      -7.177  14.403  69.895  1.00  0.00     0.113 C  
HETATM    6  C   UNL     1      -6.135  13.189  68.103  1.00  0.00    -0.103 C  
HETATM    7  O   UNL     1      -5.850  13.586  66.975  1.00  0.00    -0.137 OA 
HETATM    8  O   UNL     1      -5.201  12.593  68.857  1.00  0.00    -0.062 OA 
HETATM    9  C   UNL     1      -9.998  13.753  67.964  1.00  0.00    -0.246 C  
HETATM   10  C   UNL     1     -10.443  12.314  68.397  1.00  0.00    -0.244 C  
HETATM   11  C   UNL     1     -10.203  11.402  67.175  1.00  0.00    -0.234 C  
HETATM   12  C   UNL     1     -11.944  12.136  68.795  1.00  0.00    -0.292 C  
HETATM   13  C   UNL     1     -12.385  10.597  68.999  1.00  0.00     0.215 C  
HETATM   14  C   UNL     1     -11.526   9.768  70.042  1.00  0.00    -0.232 C  
HETATM   15  C   UNL     1     -10.103  10.578  70.234  1.00  0.00     0.296 C  
HETATM   16  C   UNL     1     -12.221  10.109  71.412  1.00  0.00    -0.492 C  
HETATM   17  C   UNL     1      -9.105   9.851  70.703  1.00  0.00     0.235 C  
HETATM   18  C   UNL     1      -9.313   8.728  69.784  1.00  0.00    -0.163 C  
HETATM   19  C   UNL     1      -9.857   7.552  70.450  1.00  0.00    -0.183 C  
HETATM   20  O   UNL     1      -9.245   8.845  68.561  1.00  0.00    -0.137 OA 
HETATM   21  C   UNL     1      -8.785   6.426  70.050  1.00  0.00    -0.142 C  
HETATM   22  C   UNL     1      -8.791   5.384  71.191  1.00  0.00    -0.146 C  
HETATM   23  C   UNL     1      -7.347   7.077  70.038  1.00  0.00    -0.081 C  
HETATM   24  C   UNL     1      -6.162   6.442  69.331  1.00  0.00    -0.034 C  
HETATM   25  C   UNL     1      -6.485   5.800  67.964  1.00  0.00    -0.043 C  
HETATM   26  C   UNL     1      -7.761   4.844  68.154  1.00  0.00    -0.082 C  
HETATM   27  C   UNL     1     -11.494   6.926  68.659  1.00  0.00     0.154 C  
HETATM   28  C   UNL     1      -9.029   5.802  68.648  1.00  0.00    -0.112 C  
HETATM   29  C   UNL     1      -7.265   3.727  69.157  1.00  0.00    -0.050 C  
HETATM   30  C   UNL     1      -7.960   4.036  66.858  1.00  0.00    -0.096 C  
HETATM   31  C   UNL     1     -12.329   7.222  70.997  1.00  0.00    -0.335 C  
HETATM   32  C   UNL     1     -11.338   7.871  69.975  1.00  0.00    -0.034 C  
HETATM   33  C   UNL     1     -10.570   5.536  68.559  1.00  0.00    -0.208 C  
ENDROOT
BRANCH  25  34
HETATM   34  O   UNL     1      -6.303   6.614  66.737  1.00  0.00    -0.039 OA 
BRANCH  34  35
HETATM   35  C   UNL     1      -6.914   6.241  65.461  1.00  0.00    -0.056 C  
HETATM   36  C   UNL     1      -8.351   3.686  65.739  1.00  0.00    -0.106 C  
HETATM   37  O   UNL     1      -6.479   4.950  65.098  1.00  0.00    -0.034 OA 
HETATM   38  C   UNL     1      -6.039   2.621  65.862  1.00  0.00    -0.024 C  
HETATM   39  C   UNL     1      -6.886   3.928  65.978  1.00  0.00    -0.061 C  
HETATM   40  O   UNL     1      -8.827   2.722  66.690  1.00  0.00    -0.129 OA 
HETATM   41  C   UNL     1      -9.146   4.981  65.875  1.00  0.00    -0.150 C  
HETATM   42  O   UNL     1      -5.145   2.366  65.077  1.00  0.00    -0.007 OA 
HETATM   43  O   UNL     1      -6.321   1.705  66.819  1.00  0.00    -0.020 OA 
HETATM   44  O   UNL     1     -10.401   4.732  65.188  1.00  0.00    -0.416 OA 
HETATM   45  H   UNL     1      -9.753   2.569  66.539  1.00  0.00     0.000 HD 
HETATM   46  C   UNL     1      -8.491   6.270  65.317  1.00  0.00    -0.111 C  
HETATM   47  H   UNL     1     -10.897   5.538  65.272  1.00  0.00     0.000 HD 
BRANCH  46  48
HETATM   48  O   UNL     1      -9.131   7.472  65.825  1.00  0.00    -0.099 OA 
BRANCH  48  49
HETATM   49  C   UNL     1      -8.651   8.680  65.193  1.00  0.00    -0.173 C  
HETATM   50  O   UNL     1      -9.698   9.363  64.493  1.00  0.00     0.050 OA 
HETATM   51  C   UNL     1      -9.253  10.683  64.111  1.00  0.00    -0.236 C  
HETATM   52  C   UNL     1     -10.452  11.537  63.696  1.00  0.00    -0.427 C  
HETATM   53  C   UNL     1      -8.236  10.518  62.984  1.00  0.00    -0.136 C  
HETATM   54  O   UNL     1      -7.669  11.749  62.512  1.00  0.00    -0.289 OA 
HETATM   55  C   UNL     1      -7.052   9.664  63.468  1.00  0.00    -0.108 C  
HETATM   56  O   UNL     1     -11.625  10.868  63.793  1.00  0.00     0.432 OA 
HETATM   57  O   UNL     1     -10.390  12.710  63.358  1.00  0.00    -0.354 OA 
HETATM   58  O   UNL     1      -6.260   9.248  62.345  1.00  0.00    -0.094 OA 
HETATM   59  C   UNL     1      -7.397   8.434  64.335  1.00  0.00    -0.091 C  
HETATM   60  H   UNL     1      -7.037  11.646  61.811  1.00  0.00     0.000 HD 
HETATM   61  H   UNL     1      -5.529   8.720  62.644  1.00  0.00     0.000 HD 
HETATM   62  O   UNL     1      -6.297   8.218  65.268  1.00  0.00    -0.048 OA 
HETATM   63  H   UNL     1      -5.522   8.067  64.739  1.00  0.00     0.000 HD 
ENDBRANCH  48  49
ENDBRANCH  46  48
ENDBRANCH  34  35
ENDBRANCH  25  34
TORSDOF 4
ENDMDL
MODEL       67
REMARK 921   NORMALIZED FREE ENERGY PREDICTED BY IDOCK:   25.38 KCAL/MOL
REMARK 922        TOTAL FREE ENERGY PREDICTED BY IDOCK:   30.41 KCAL/MOL
REMARK 923 INTER-LIGAND FREE ENERGY PREDICTED BY IDOCK:   33.25 KCAL/MOL
REMARK 924 INTRA-LIGAND FREE ENERGY PREDICTED BY IDOCK:   -2.84 KCAL/MOL
REMARK 927      BINDING AFFINITY PREDICTED BY RF-SCORE:    0.00 PKD
ROOT
HETATM    1  C   UNL     1     -11.910   9.863  66.823  1.00  0.00     3.135 C  
HETATM    2  C   UNL     1     -11.639  11.333  67.384  1.00  0.00    -0.214 C  
HETATM    3  C   UNL     1     -11.818  12.558  66.454  1.00  0.00    -0.445 C  
HETATM    4  C   UNL     1     -11.270  12.217  65.053  1.00  0.00    -0.367 C  
HETATM    5  C   UNL     1     -13.279  13.050  66.443  1.00  0.00     2.214 C  
HETATM    6  C   UNL     1     -11.057  13.813  66.947  1.00  0.00    -0.302 C  
HETATM    7  O   UNL     1     -10.307  14.498  66.253  1.00  0.00    -0.279 OA 
HETATM    8  O   UNL     1     -11.313  14.176  68.212  1.00  0.00    -0.263 OA 
HETATM    9  C   UNL     1     -11.472  10.768  64.536  1.00  0.00     1.040 C  
HETATM   10  C   UNL     1     -11.084   9.635  65.548  1.00  0.00     2.163 C  
HETATM   11  C   UNL     1      -9.552   9.712  65.714  1.00  0.00    -0.329 C  
HETATM   12  C   UNL     1     -11.410   8.169  65.116  1.00  0.00     9.354 C  
HETATM   13  C   UNL     1     -10.776   7.048  66.087  1.00  0.00     1.033 C  
HETATM   14  C   UNL     1     -11.154   7.175  67.622  1.00  0.00    -0.134 C  
HETATM   15  C   UNL     1     -11.668   8.723  67.856  1.00  0.00     2.259 C  
HETATM   16  C   UNL     1     -12.529   6.415  67.705  1.00  0.00     5.895 C  
HETATM   17  C   UNL     1     -11.611   9.148  69.106  1.00  0.00     0.596 C  
HETATM   18  C   UNL     1     -10.245   8.674  69.346  1.00  0.00    -0.210 C  
HETATM   19  C   UNL     1     -10.201   7.521  70.237  1.00  0.00    -0.204 C  
HETATM   20  O   UNL     1      -9.277   9.067  68.695  1.00  0.00    -0.136 OA 
HETATM   21  C   UNL     1      -9.193   8.030  71.379  1.00  0.00    -0.180 C  
HETATM   22  C   UNL     1      -9.589   7.292  72.678  1.00  0.00    -0.189 C  
HETATM   23  C   UNL     1      -9.451   9.567  71.633  1.00  0.00     0.585 C  
HETATM   24  C   UNL     1      -8.445  10.465  72.332  1.00  0.00     7.969 C  
HETATM   25  C   UNL     1      -6.969  10.210  71.953  1.00  0.00     1.916 C  
HETATM   26  C   UNL     1      -6.688   8.635  72.083  1.00  0.00    -0.072 C  
HETATM   27  C   UNL     1      -8.456   6.239  68.976  1.00  0.00    -0.120 C  
HETATM   28  C   UNL     1      -7.694   7.860  71.009  1.00  0.00    -0.084 C  
HETATM   29  C   UNL     1      -6.897   8.329  73.621  1.00  0.00    -0.153 C  
HETATM   30  C   UNL     1      -5.175   8.397  71.920  1.00  0.00    -0.035 C  
HETATM   31  C   UNL     1     -10.627   5.115  69.498  1.00  0.00    -0.130 C  
HETATM   32  C   UNL     1     -10.061   6.497  69.032  1.00  0.00    -0.186 C  
HETATM   33  C   UNL     1      -7.567   6.432  70.379  1.00  0.00    -0.096 C  
ENDROOT
BRANCH  25  34
HETATM   34  O   UNL     1      -6.369  11.017  70.862  1.00  0.00    -0.339 OA 
BRANCH  34  35
HETATM   35  C   UNL     1      -6.991  11.120  69.541  1.00  0.00    -0.111 C  
HETATM   36  C   UNL     1      -6.142  13.609  68.217  1.00  0.00    -0.108 C  
HETATM   37  O   UNL     1      -7.687  12.344  69.451  1.00  0.00     0.312 OA 
HETATM   38  C   UNL     1      -7.640  14.792  69.904  1.00  0.00     0.114 C  
HETATM   39  C   UNL     1      -6.868  13.488  69.528  1.00  0.00     0.048 C  
HETATM   40  O   UNL     1      -5.218  14.706  68.293  1.00  0.00    -0.099 OA 
HETATM   41  C   UNL     1      -5.388  12.323  67.890  1.00  0.00    -0.074 C  
HETATM   42  O   UNL     1      -8.837  14.943  70.064  1.00  0.00     0.190 OA 
HETATM   43  O   UNL     1      -6.831  15.851  70.142  1.00  0.00     0.001 OA 
HETATM   44  O   UNL     1      -5.138  12.380  66.461  1.00  0.00    -0.349 OA 
HETATM   45  H   UNL     1      -4.759  14.782  67.465  1.00  0.00     0.000 HD 
HETATM   46  C   UNL     1      -6.091  10.988  68.245  1.00  0.00    -0.049 C  
HETATM   47  H   UNL     1      -4.669  11.579  66.257  1.00  0.00     0.000 HD 
BRANCH  46  48
HETATM   48  O   UNL     1      -5.164   9.869  68.254  1.00  0.00    -0.037 OA 
BRANCH  48  49
HETATM   49  C   UNL     1      -5.286   9.021  67.090  1.00  0.00    -0.036 C  
HETATM   50  O   UNL     1      -5.752   9.752  65.950  1.00  0.00    -0.047 OA 
HETATM   51  C   UNL     1      -5.603   8.949  64.758  1.00  0.00    -0.061 C  
HETATM   52  C   UNL     1      -5.751   9.829  63.516  1.00  0.00    -0.104 C  
HETATM   53  C   UNL     1      -6.651   7.839  64.816  1.00  0.00    -0.044 C  
HETATM   54  O   UNL     1      -6.611   6.928  63.709  1.00  0.00    -0.041 OA 
HETATM   55  C   UNL     1      -6.440   6.986  66.077  1.00  0.00    -0.051 C  
HETATM   56  O   UNL     1      -5.973  11.128  63.822  1.00  0.00     0.344 OA 
HETATM   57  O   UNL     1      -5.637   9.435  62.364  1.00  0.00    -0.085 OA 
HETATM   58  O   UNL     1      -7.588   6.153  66.300  1.00  0.00    -0.087 OA 
HETATM   59  C   UNL     1      -6.099   7.745  67.377  1.00  0.00    -0.049 C  
HETATM   60  H   UNL     1      -7.263   6.238  63.745  1.00  0.00     0.000 HD 
HETATM   61  H   UNL     1      -7.457   5.626  67.079  1.00  0.00     0.000 HD 
HETATM   62  O   UNL     1      -5.243   6.887  68.190  1.00  0.00    -0.010 OA 
HETATM   63  H   UNL     1      -5.745   6.100  68.366  1.00  0.00     0.000 HD 
ENDBRANCH  48  49
ENDBRANCH  46  48
ENDBRANCH  34  35
ENDBRANCH  25  34
TORSDOF 4
ENDMDL
MODEL       68
REMARK 921   NORMALIZED FREE ENERGY PREDICTED BY IDOCK:   25.79 KCAL/MOL
REMARK 922        TOTAL FREE ENERGY PREDICTED BY IDOCK:   30.92 KCAL/MOL
REMARK 923 INTER-LIGAND FREE ENERGY PREDICTED BY IDOCK:   26.21 KCAL/MOL
REMARK 924 INTRA-LIGAND FREE ENERGY PREDICTED BY IDOCK:    4.72 KCAL/MOL
REMARK 927      BINDING AFFINITY PREDICTED BY RF-SCORE:    0.00 PKD
ROOT
HETATM    1  C   UNL     1      -9.038   6.019  69.551  1.00  0.00    -0.141 C  
HETATM    2  C   UNL     1      -7.853   6.625  70.433  1.00  0.00    -0.106 C  
HETATM    3  C   UNL     1      -7.597   6.078  71.859  1.00  0.00    -0.097 C  
HETATM    4  C   UNL     1      -8.949   5.828  72.557  1.00  0.00    -0.133 C  
HETATM    5  C   UNL     1      -6.676   4.843  71.833  1.00  0.00    -0.047 C  
HETATM    6  C   UNL     1      -6.799   7.060  72.752  1.00  0.00    -0.069 C  
HETATM    7  O   UNL     1      -7.125   7.400  73.887  1.00  0.00    -0.085 OA 
HETATM    8  O   UNL     1      -5.643   7.495  72.231  1.00  0.00    -0.037 OA 
HETATM    9  C   UNL     1     -10.122   5.305  71.686  1.00  0.00    -0.259 C  
HETATM   10  C   UNL     1     -10.353   6.078  70.342  1.00  0.00    -0.282 C  
HETATM   11  C   UNL     1     -10.842   7.489  70.734  1.00  0.00    -0.253 C  
HETATM   12  C   UNL     1     -11.431   5.491  69.374  1.00  0.00     1.133 C  
HETATM   13  C   UNL     1     -11.785   6.456  68.131  1.00  0.00     0.905 C  
HETATM   14  C   UNL     1     -10.554   6.908  67.238  1.00  0.00    -0.393 C  
HETATM   15  C   UNL     1      -9.200   6.676  68.148  1.00  0.00    -0.117 C  
HETATM   16  C   UNL     1     -10.407   5.717  66.222  1.00  0.00    -0.174 C  
HETATM   17  C   UNL     1      -8.146   7.379  67.771  1.00  0.00    -0.119 C  
HETATM   18  C   UNL     1      -8.867   8.649  67.651  1.00  0.00    -0.136 C  
HETATM   19  C   UNL     1      -9.047   9.063  66.265  1.00  0.00    -0.224 C  
HETATM   20  O   UNL     1      -9.444   9.181  68.599  1.00  0.00    -0.142 OA 
HETATM   21  C   UNL     1      -8.409  10.536  66.281  1.00  0.00    -0.152 C  
HETATM   22  C   UNL     1      -7.874  10.801  64.855  1.00  0.00     0.147 C  
HETATM   23  C   UNL     1      -7.157  10.536  67.242  1.00  0.00    -0.088 C  
HETATM   24  C   UNL     1      -6.555  11.809  67.811  1.00  0.00    -0.075 C  
HETATM   25  C   UNL     1      -7.583  12.877  68.248  1.00  0.00    -0.134 C  
HETATM   26  C   UNL     1      -8.622  13.089  67.042  1.00  0.00    -0.165 C  
HETATM   27  C   UNL     1     -11.412   9.858  66.496  1.00  0.00     1.480 C  
HETATM   28  C   UNL     1      -9.386  11.634  66.784  1.00  0.00    -0.193 C  
HETATM   29  C   UNL     1      -7.736  13.661  65.863  1.00  0.00     3.553 C  
HETATM   30  C   UNL     1      -9.515  14.298  67.377  1.00  0.00    -0.211 C  
HETATM   31  C   UNL     1     -10.879   8.177  64.724  1.00  0.00     8.256 C  
HETATM   32  C   UNL     1     -10.536   8.516  66.212  1.00  0.00     0.289 C  
HETATM   33  C   UNL     1     -10.757  11.341  66.085  1.00  0.00    -0.307 C  
ENDROOT
BRANCH  25  34
HETATM   34  O   UNL     1      -8.025  12.898  69.664  1.00  0.00     0.894 OA 
BRANCH  34  35
HETATM   35  C   UNL     1      -8.626  14.086  70.271  1.00  0.00     2.504 C  
HETATM   36  C   UNL     1      -6.547  15.713  71.576  1.00  0.00     2.006 C  
HETATM   37  O   UNL     1      -8.282  14.133  71.638  1.00  0.00     4.406 OA 
HETATM   38  C   UNL     1      -6.475  13.866  73.330  1.00  0.00     1.834 C  
HETATM   39  C   UNL     1      -6.904  14.286  71.889  1.00  0.00     2.222 C  
HETATM   40  O   UNL     1      -5.129  15.882  71.721  1.00  0.00    -0.189 OA 
HETATM   41  C   UNL     1      -6.969  16.082  70.157  1.00  0.00     0.419 C  
HETATM   42  O   UNL     1      -7.178  13.502  74.253  1.00  0.00     2.140 OA 
HETATM   43  O   UNL     1      -5.133  13.854  73.514  1.00  0.00    -0.247 OA 
HETATM   44  O   UNL     1      -7.010  17.533  70.136  1.00  0.00     0.560 OA 
HETATM   45  H   UNL     1      -4.903  16.784  71.523  1.00  0.00     0.000 HD 
HETATM   46  C   UNL     1      -8.319  15.512  69.655  1.00  0.00    -0.113 C  
HETATM   47  H   UNL     1      -7.272  17.763  69.253  1.00  0.00     0.000 HD 
BRANCH  46  48
HETATM   48  O   UNL     1      -8.444  15.595  68.210  1.00  0.00    -0.151 OA 
BRANCH  48  49
HETATM   49  C   UNL     1      -8.072  16.887  67.680  1.00  0.00    -0.182 C  
HETATM   50  O   UNL     1      -9.207  17.599  67.174  1.00  0.00    -0.237 OA 
HETATM   51  C   UNL     1      -8.846  18.973  66.908  1.00  0.00    -0.301 C  
HETATM   52  C   UNL     1     -10.109  19.815  66.718  1.00  0.00    -0.444 C  
HETATM   53  C   UNL     1      -7.948  18.981  65.672  1.00  0.00     0.273 C  
HETATM   54  O   UNL     1      -7.473  20.282  65.295  1.00  0.00    -0.445 OA 
HETATM   55  C   UNL     1      -6.694  18.130  65.932  1.00  0.00    -0.292 C  
HETATM   56  O   UNL     1     -11.243  19.089  66.851  1.00  0.00    -0.127 OA 
HETATM   57  O   UNL     1     -10.120  21.020  66.516  1.00  0.00     0.194 OA 
HETATM   58  O   UNL     1      -6.010  17.880  64.694  1.00  0.00     0.204 OA 
HETATM   59  C   UNL     1      -6.906  16.796  66.678  1.00  0.00    -0.220 C  
HETATM   60  H   UNL     1      -6.914  20.287  64.527  1.00  0.00     0.000 HD 
HETATM   61  H   UNL     1      -5.235  17.354  64.855  1.00  0.00     0.000 HD 
HETATM   62  O   UNL     1      -5.709  16.523  67.465  1.00  0.00    -0.126 OA 
HETATM   63  H   UNL     1      -4.989  16.467  66.847  1.00  0.00     0.000 HD 
ENDBRANCH  48  49
ENDBRANCH  46  48
ENDBRANCH  34  35
ENDBRANCH  25  34
TORSDOF 4
ENDMDL
MODEL       69
REMARK 921   NORMALIZED FREE ENERGY PREDICTED BY IDOCK:   26.22 KCAL/MOL
REMARK 922        TOTAL FREE ENERGY PREDICTED BY IDOCK:   31.45 KCAL/MOL
REMARK 923 INTER-LIGAND FREE ENERGY PREDICTED BY IDOCK:   26.45 KCAL/MOL
REMARK 924 INTRA-LIGAND FREE ENERGY PREDICTED BY IDOCK:    5.00 KCAL/MOL
REMARK 927      BINDING AFFINITY PREDICTED BY RF-SCORE:    0.00 PKD
ROOT
HETATM    1  C   UNL     1     -11.074  16.684  68.791  1.00  0.00    -0.270 C  
HETATM    2  C   UNL     1     -11.369  15.828  70.106  1.00  0.00    -0.361 C  
HETATM    3  C   UNL     1     -11.205  16.479  71.501  1.00  0.00     0.173 C  
HETATM    4  C   UNL     1      -9.949  17.373  71.501  1.00  0.00     5.368 C  
HETATM    5  C   UNL     1     -12.488  17.213  71.936  1.00  0.00     3.280 C  
HETATM    6  C   UNL     1     -11.024  15.442  72.638  1.00  0.00     0.659 C  
HETATM    7  O   UNL     1     -10.133  15.476  73.484  1.00  0.00     4.739 OA 
HETATM    8  O   UNL     1     -11.967  14.491  72.700  1.00  0.00    -0.123 OA 
HETATM    9  C   UNL     1      -9.623  18.153  70.199  1.00  0.00     1.713 C  
HETATM   10  C   UNL     1      -9.672  17.304  68.881  1.00  0.00    -0.251 C  
HETATM   11  C   UNL     1      -8.497  16.306  68.967  1.00  0.00    -0.244 C  
HETATM   12  C   UNL     1      -9.491  18.085  67.539  1.00  0.00    -0.262 C  
HETATM   13  C   UNL     1      -9.315  17.132  66.250  1.00  0.00    -0.260 C  
HETATM   14  C   UNL     1     -10.469  16.069  66.018  1.00  0.00    -0.356 C  
HETATM   15  C   UNL     1     -11.254  15.901  67.457  1.00  0.00    -0.171 C  
HETATM   16  C   UNL     1     -11.542  16.892  65.215  1.00  0.00     1.021 C  
HETATM   17  C   UNL     1     -11.938  14.779  67.593  1.00  0.00    -0.244 C  
HETATM   18  C   UNL     1     -10.860  13.906  67.121  1.00  0.00    -0.284 C  
HETATM   19  C   UNL     1     -11.126  13.352  65.800  1.00  0.00    -0.295 C  
HETATM   20  O   UNL     1      -9.766  13.834  67.680  1.00  0.00    -0.217 OA 
HETATM   21  C   UNL     1     -10.974  11.776  66.071  1.00  0.00    -0.355 C  
HETATM   22  C   UNL     1     -11.887  11.062  65.049  1.00  0.00     1.062 C  
HETATM   23  C   UNL     1     -11.555  11.452  67.503  1.00  0.00    -0.298 C  
HETATM   24  C   UNL     1     -11.227  10.173  68.253  1.00  0.00    -0.246 C  
HETATM   25  C   UNL     1      -9.759   9.707  68.138  1.00  0.00    -0.146 C  
HETATM   26  C   UNL     1      -9.358   9.711  66.583  1.00  0.00    -0.200 C  
HETATM   27  C   UNL     1      -8.807  13.629  64.888  1.00  0.00     2.839 C  
HETATM   28  C   UNL     1      -9.504  11.275  66.037  1.00  0.00    -0.240 C  
HETATM   29  C   UNL     1     -10.308   8.626  65.934  1.00  0.00     0.704 C  
HETATM   30  C   UNL     1      -7.977   9.045  66.436  1.00  0.00    -0.103 C  
HETATM   31  C   UNL     1     -10.724  14.597  63.608  1.00  0.00     2.418 C  
HETATM   32  C   UNL     1     -10.212  14.430  65.077  1.00  0.00    -0.406 C  
HETATM   33  C   UNL     1      -8.847  11.959  64.791  1.00  0.00     0.685 C  
ENDROOT
BRANCH  25  34
HETATM   34  O   UNL     1      -8.797  10.126  69.187  1.00  0.00    -0.152 OA 
BRANCH  34  35
HETATM   35  C   UNL     1      -7.372   9.801  69.108  1.00  0.00    -0.079 C  
HETATM   36  C   UNL     1      -6.143   9.991  71.776  1.00  0.00     0.378 C  
HETATM   37  O   UNL     1      -6.623  10.865  69.651  1.00  0.00    -0.092 OA 
HETATM   38  C   UNL     1      -6.407  12.511  71.507  1.00  0.00     2.341 C  
HETATM   39  C   UNL     1      -6.841  11.091  71.024  1.00  0.00     1.721 C  
HETATM   40  O   UNL     1      -6.428  10.128  73.177  1.00  0.00     0.881 OA 
HETATM   41  C   UNL     1      -6.603   8.620  71.288  1.00  0.00    -0.069 C  
HETATM   42  O   UNL     1      -5.856  13.390  70.871  1.00  0.00    -0.190 OA 
HETATM   43  O   UNL     1      -6.770  12.785  72.782  1.00  0.00     4.049 OA 
HETATM   44  O   UNL     1      -5.570   7.696  71.721  1.00  0.00    -0.035 OA 
HETATM   45  H   UNL     1      -5.988   9.433  73.652  1.00  0.00     0.000 HD 
HETATM   46  C   UNL     1      -6.844   8.461  69.766  1.00  0.00    -0.043 C  
HETATM   47  H   UNL     1      -5.856   6.842  71.417  1.00  0.00     0.000 HD 
BRANCH  46  48
HETATM   48  O   UNL     1      -7.626   7.276  69.457  1.00  0.00    -0.095 OA 
BRANCH  48  49
HETATM   49  C   UNL     1      -8.657   7.006  70.433  1.00  0.00    -0.142 C  
HETATM   50  O   UNL     1      -9.770   7.894  70.286  1.00  0.00    -0.181 OA 
HETATM   51  C   UNL     1     -10.880   7.427  71.086  1.00  0.00    -0.242 C  
HETATM   52  C   UNL     1     -12.164   8.144  70.664  1.00  0.00     0.107 C  
HETATM   53  C   UNL     1     -10.527   7.674  72.551  1.00  0.00    -0.268 C  
HETATM   54  O   UNL     1     -11.523   7.229  73.483  1.00  0.00    -0.542 OA 
HETATM   55  C   UNL     1      -9.238   6.918  72.914  1.00  0.00    -0.134 C  
HETATM   56  O   UNL     1     -11.961   9.022  69.655  1.00  0.00     0.492 OA 
HETATM   57  O   UNL     1     -13.270   7.929  71.137  1.00  0.00    -0.201 OA 
HETATM   58  O   UNL     1      -8.737   7.387  74.175  1.00  0.00    -0.191 OA 
HETATM   59  C   UNL     1      -8.104   6.946  71.869  1.00  0.00    -0.100 C  
HETATM   60  H   UNL     1     -11.304   7.383  74.394  1.00  0.00     0.000 HD 
HETATM   61  H   UNL     1      -7.941   6.920  74.398  1.00  0.00     0.000 HD 
HETATM   62  O   UNL     1      -7.364   5.693  71.972  1.00  0.00    -0.089 OA 
HETATM   63  H   UNL     1      -7.023   5.656  72.858  1.00  0.00     0.000 HD 
ENDBRANCH  48  49
ENDBRANCH  46  48
ENDBRANCH  34  35
ENDBRANCH  25  34
TORSDOF 4
ENDMDL
MODEL       70
REMARK 921   NORMALIZED FREE ENERGY PREDICTED BY IDOCK:   29.07 KCAL/MOL
REMARK 922        TOTAL FREE ENERGY PREDICTED BY IDOCK:   34.96 KCAL/MOL
REMARK 923 INTER-LIGAND FREE ENERGY PREDICTED BY IDOCK:   36.42 KCAL/MOL
REMARK 924 INTRA-LIGAND FREE ENERGY PREDICTED BY IDOCK:   -1.46 KCAL/MOL
REMARK 927      BINDING AFFINITY PREDICTED BY RF-SCORE:    0.00 PKD
ROOT
HETATM    1  C   UNL     1     -10.268  17.645  68.937  1.00  0.00    -0.354 C  
HETATM    2  C   UNL     1      -8.901  17.239  68.219  1.00  0.00    -0.258 C  
HETATM    3  C   UNL     1      -8.243  18.213  67.212  1.00  0.00    -0.234 C  
HETATM    4  C   UNL     1      -9.337  18.865  66.343  1.00  0.00    -0.343 C  
HETATM    5  C   UNL     1      -7.330  19.230  67.924  1.00  0.00    -0.289 C  
HETATM    6  C   UNL     1      -7.254  17.512  66.246  1.00  0.00    -0.316 C  
HETATM    7  O   UNL     1      -7.260  17.636  65.023  1.00  0.00     0.583 OA 
HETATM    8  O   UNL     1      -6.303  16.775  66.838  1.00  0.00    -0.172 OA 
HETATM    9  C   UNL     1     -10.692  19.196  67.025  1.00  0.00    -0.542 C  
HETATM   10  C   UNL     1     -11.311  18.038  67.881  1.00  0.00     0.574 C  
HETATM   11  C   UNL     1     -11.711  16.931  66.882  1.00  0.00     1.422 C  
HETATM   12  C   UNL     1     -12.599  18.384  68.697  1.00  0.00     7.808 C  
HETATM   13  C   UNL     1     -13.314  17.098  69.360  1.00  0.00     8.212 C  
HETATM   14  C   UNL     1     -12.395  16.207  70.296  1.00  0.00     0.183 C  
HETATM   15  C   UNL     1     -10.834  16.565  69.906  1.00  0.00    -0.285 C  
HETATM   16  C   UNL     1     -12.504  16.937  71.685  1.00  0.00     2.320 C  
HETATM   17  C   UNL     1      -9.948  15.645  70.244  1.00  0.00     0.081 C  
HETATM   18  C   UNL     1     -10.710  14.518  69.698  1.00  0.00    -0.103 C  
HETATM   19  C   UNL     1     -11.281  13.672  70.738  1.00  0.00     0.940 C  
HETATM   20  O   UNL     1     -11.014  14.431  68.509  1.00  0.00    -0.235 OA 
HETATM   21  C   UNL     1     -10.707  12.228  70.335  1.00  0.00     2.049 C  
HETATM   22  C   UNL     1     -10.599  11.413  71.644  1.00  0.00     6.413 C  
HETATM   23  C   UNL     1      -9.236  12.403  69.787  1.00  0.00     2.371 C  
HETATM   24  C   UNL     1      -8.537  11.343  68.954  1.00  0.00    -0.020 C  
HETATM   25  C   UNL     1      -9.431  10.639  67.909  1.00  0.00    -0.159 C  
HETATM   26  C   UNL     1     -10.771  10.154  68.650  1.00  0.00    -0.253 C  
HETATM   27  C   UNL     1     -13.510  13.322  69.647  1.00  0.00     2.540 C  
HETATM   28  C   UNL     1     -11.535  11.512  69.232  1.00  0.00    -0.370 C  
HETATM   29  C   UNL     1     -10.267   9.096  69.712  1.00  0.00    -0.219 C  
HETATM   30  C   UNL     1     -11.569   9.266  67.677  1.00  0.00     1.595 C  
HETATM   31  C   UNL     1     -13.445  14.190  71.990  1.00  0.00    -0.518 C  
HETATM   32  C   UNL     1     -12.710  14.353  70.619  1.00  0.00    -0.421 C  
HETATM   33  C   UNL     1     -13.037  11.717  69.625  1.00  0.00     1.235 C  
ENDROOT
BRANCH  25  34
HETATM   34  O   UNL     1      -9.461  11.174  66.526  1.00  0.00    -0.185 OA 
BRANCH  34  35
HETATM   35  C   UNL     1      -9.287  10.310  65.357  1.00  0.00    -0.207 C  
HETATM   36  C   UNL     1      -9.305  11.925  62.896  1.00  0.00     0.297 C  
HETATM   37  O   UNL     1     -10.354  10.523  64.460  1.00  0.00    -0.348 OA 
HETATM   38  C   UNL     1     -11.802  12.201  63.324  1.00  0.00    -0.372 C  
HETATM   39  C   UNL     1     -10.407  11.821  63.914  1.00  0.00    -0.385 C  
HETATM   40  O   UNL     1      -9.261  13.269  62.390  1.00  0.00     4.858 OA 
HETATM   41  C   UNL     1      -7.957  11.561  63.511  1.00  0.00     1.277 C  
HETATM   42  O   UNL     1     -12.794  11.505  63.221  1.00  0.00    -0.306 OA 
HETATM   43  O   UNL     1     -11.898  13.500  62.955  1.00  0.00    -0.112 OA 
HETATM   44  O   UNL     1      -7.096  11.246  62.385  1.00  0.00    -0.395 OA 
HETATM   45  H   UNL     1      -8.564  13.334  61.747  1.00  0.00     0.000 HD 
HETATM   46  C   UNL     1      -7.942  10.390  64.525  1.00  0.00    -0.093 C  
HETATM   47  H   UNL     1      -6.257  11.019  62.768  1.00  0.00     0.000 HD 
BRANCH  46  48
HETATM   48  O   UNL     1      -6.727  10.372  65.322  1.00  0.00    -0.129 OA 
BRANCH  48  49
HETATM   49  C   UNL     1      -6.508   9.113  65.997  1.00  0.00    -0.068 C  
HETATM   50  O   UNL     1      -7.420   8.105  65.545  1.00  0.00    -0.077 OA 
HETATM   51  C   UNL     1      -7.001   6.811  66.033  1.00  0.00    -0.065 C  
HETATM   52  C   UNL     1      -7.739   5.705  65.275  1.00  0.00    -0.088 C  
HETATM   53  C   UNL     1      -7.279   6.773  67.535  1.00  0.00    -0.090 C  
HETATM   54  O   UNL     1      -6.884   5.554  68.179  1.00  0.00    -0.056 OA 
HETATM   55  C   UNL     1      -6.500   7.897  68.238  1.00  0.00    -0.054 C  
HETATM   56  O   UNL     1      -8.585   6.193  64.338  1.00  0.00     0.016 OA 
HETATM   57  O   UNL     1      -7.564   4.508  65.443  1.00  0.00    -0.080 OA 
HETATM   58  O   UNL     1      -6.990   8.064  69.577  1.00  0.00    -0.049 OA 
HETATM   59  C   UNL     1      -6.473   9.267  67.529  1.00  0.00    -0.063 C  
HETATM   60  H   UNL     1      -7.056   5.531  69.113  1.00  0.00     0.000 HD 
HETATM   61  H   UNL     1      -6.509   8.759  70.012  1.00  0.00     0.000 HD 
HETATM   62  O   UNL     1      -5.205   9.915  67.846  1.00  0.00    -0.036 OA 
HETATM   63  H   UNL     1      -5.182  10.010  68.792  1.00  0.00     0.000 HD 
ENDBRANCH  48  49
ENDBRANCH  46  48
ENDBRANCH  34  35
ENDBRANCH  25  34
TORSDOF 4
ENDMDL
MODEL       71
REMARK 921   NORMALIZED FREE ENERGY PREDICTED BY IDOCK:   29.65 KCAL/MOL
REMARK 922        TOTAL FREE ENERGY PREDICTED BY IDOCK:   35.68 KCAL/MOL
REMARK 923 INTER-LIGAND FREE ENERGY PREDICTED BY IDOCK:   19.28 KCAL/MOL
REMARK 924 INTRA-LIGAND FREE ENERGY PREDICTED BY IDOCK:   16.41 KCAL/MOL
REMARK 927      BINDING AFFINITY PREDICTED BY RF-SCORE:    0.00 PKD
ROOT
HETATM    1  C   UNL     1     -10.182   7.072  66.767  1.00  0.00    -0.282 C  
HETATM    2  C   UNL     1      -9.749   8.134  65.656  1.00  0.00     0.393 C  
HETATM    3  C   UNL     1      -8.669   7.758  64.612  1.00  0.00     0.280 C  
HETATM    4  C   UNL     1      -7.550   6.955  65.304  1.00  0.00    -0.099 C  
HETATM    5  C   UNL     1      -9.285   7.040  63.396  1.00  0.00     2.010 C  
HETATM    6  C   UNL     1      -8.003   8.994  63.956  1.00  0.00    -0.145 C  
HETATM    7  O   UNL     1      -6.790   9.167  63.856  1.00  0.00    -0.088 OA 
HETATM    8  O   UNL     1      -8.851   9.882  63.417  1.00  0.00    -0.200 OA 
HETATM    9  C   UNL     1      -7.963   5.973  66.432  1.00  0.00    -0.105 C  
HETATM   10  C   UNL     1      -8.937   6.563  67.510  1.00  0.00    -0.110 C  
HETATM   11  C   UNL     1      -8.131   7.628  68.283  1.00  0.00    -0.124 C  
HETATM   12  C   UNL     1      -9.487   5.563  68.577  1.00  0.00    -0.150 C  
HETATM   13  C   UNL     1     -10.286   6.274  69.785  1.00  0.00    -0.260 C  
HETATM   14  C   UNL     1     -11.495   7.207  69.354  1.00  0.00     0.072 C  
HETATM   15  C   UNL     1     -11.258   7.587  67.768  1.00  0.00     0.283 C  
HETATM   16  C   UNL     1     -12.686   6.189  69.217  1.00  0.00     4.991 C  
HETATM   17  C   UNL     1     -11.886   8.672  67.353  1.00  0.00     3.658 C  
HETATM   18  C   UNL     1     -11.474   9.507  68.485  1.00  0.00     0.417 C  
HETATM   19  C   UNL     1     -12.573   9.795  69.398  1.00  0.00     1.321 C  
HETATM   20  O   UNL     1     -10.295   9.745  68.745  1.00  0.00    -0.192 OA 
HETATM   21  C   UNL     1     -12.542  11.400  69.448  1.00  0.00     0.147 C  
HETATM   22  C   UNL     1     -13.987  11.861  69.743  1.00  0.00     5.588 C  
HETATM   23  C   UNL     1     -12.175  11.944  68.012  1.00  0.00     0.256 C  
HETATM   24  C   UNL     1     -11.669  13.356  67.772  1.00  0.00    -0.394 C  
HETATM   25  C   UNL     1     -10.671  13.879  68.830  1.00  0.00    -0.262 C  
HETATM   26  C   UNL     1     -11.303  13.617  70.282  1.00  0.00     0.085 C  
HETATM   27  C   UNL     1     -11.279   9.496  71.524  1.00  0.00    -0.437 C  
HETATM   28  C   UNL     1     -11.499  11.973  70.448  1.00  0.00     0.189 C  
HETATM   29  C   UNL     1     -12.610  14.507  70.303  1.00  0.00    -0.378 C  
HETATM   30  C   UNL     1     -10.425  14.325  71.330  1.00  0.00     2.473 C  
HETATM   31  C   UNL     1     -13.393   8.198  71.213  1.00  0.00    -0.158 C  
HETATM   32  C   UNL     1     -12.129   8.660  70.415  1.00  0.00     0.246 C  
HETATM   33  C   UNL     1     -11.636  11.114  71.750  1.00  0.00     1.912 C  
ENDROOT
BRANCH  25  34
HETATM   34  O   UNL     1      -9.218  13.716  68.576  1.00  0.00    -0.190 OA 
BRANCH  34  35
HETATM   35  C   UNL     1      -8.650  13.822  67.231  1.00  0.00    -0.212 C  
HETATM   36  C   UNL     1      -8.490  16.649  66.424  1.00  0.00    -0.313 C  
HETATM   37  O   UNL     1      -9.536  14.548  66.409  1.00  0.00    -0.276 OA 
HETATM   38  C   UNL     1     -11.027  16.533  66.214  1.00  0.00     0.085 C  
HETATM   39  C   UNL     1      -9.731  15.887  66.799  1.00  0.00    -0.238 C  
HETATM   40  O   UNL     1      -8.609  17.999  66.899  1.00  0.00    -0.236 OA 
HETATM   41  C   UNL     1      -7.248  15.998  67.024  1.00  0.00    -0.213 C  
HETATM   42  O   UNL     1     -11.824  16.052  65.430  1.00  0.00     0.409 OA 
HETATM   43  O   UNL     1     -11.299  17.758  66.722  1.00  0.00     0.468 OA 
HETATM   44  O   UNL     1      -6.135  16.507  66.243  1.00  0.00    -0.124 OA 
HETATM   45  H   UNL     1      -7.824  18.480  66.662  1.00  0.00     0.000 HD 
HETATM   46  C   UNL     1      -7.207  14.449  67.045  1.00  0.00     0.444 C  
HETATM   47  H   UNL     1      -5.361  16.102  66.616  1.00  0.00     0.000 HD 
BRANCH  46  48
HETATM   48  O   UNL     1      -6.196  13.941  67.957  1.00  0.00    -0.113 OA 
BRANCH  48  49
HETATM   49  C   UNL     1      -6.207  12.501  68.071  1.00  0.00    -0.088 C  
HETATM   50  O   UNL     1      -6.243  11.868  66.787  1.00  0.00    -0.141 OA 
HETATM   51  C   UNL     1      -5.981  10.454  66.929  1.00  0.00    -0.057 C  
HETATM   52  C   UNL     1      -5.661   9.844  65.563  1.00  0.00    -0.063 C  
HETATM   53  C   UNL     1      -7.210   9.820  67.578  1.00  0.00    -0.089 C  
HETATM   54  O   UNL     1      -7.092   8.411  67.819  1.00  0.00    -0.080 OA 
HETATM   55  C   UNL     1      -7.468  10.466  68.949  1.00  0.00    -0.099 C  
HETATM   56  O   UNL     1      -5.691  10.759  64.565  1.00  0.00    -0.094 OA 
HETATM   57  O   UNL     1      -5.362   8.675  65.373  1.00  0.00    -0.034 OA 
HETATM   58  O   UNL     1      -8.777  10.106  69.418  1.00  0.00    -0.159 OA 
HETATM   59  C   UNL     1      -7.297  11.997  69.035  1.00  0.00    -0.018 C  
HETATM   60  H   UNL     1      -7.857   8.018  68.223  1.00  0.00     0.000 HD 
HETATM   61  H   UNL     1      -8.936  10.505  70.265  1.00  0.00     0.000 HD 
HETATM   62  O   UNL     1      -6.838  12.326  70.380  1.00  0.00    -0.228 OA 
HETATM   63  H   UNL     1      -7.511  12.015  70.976  1.00  0.00     0.000 HD 
ENDBRANCH  48  49
ENDBRANCH  46  48
ENDBRANCH  34  35
ENDBRANCH  25  34
TORSDOF 4
ENDMDL
MODEL       72
REMARK 921   NORMALIZED FREE ENERGY PREDICTED BY IDOCK:   29.75 KCAL/MOL
REMARK 922        TOTAL FREE ENERGY PREDICTED BY IDOCK:   35.80 KCAL/MOL
REMARK 923 INTER-LIGAND FREE ENERGY PREDICTED BY IDOCK:   17.56 KCAL/MOL
REMARK 924 INTRA-LIGAND FREE ENERGY PREDICTED BY IDOCK:   18.24 KCAL/MOL
REMARK 927      BINDING AFFINITY PREDICTED BY RF-SCORE:    0.00 PKD
ROOT
HETATM    1  C   UNL     1      -7.519   8.935  71.116  1.00  0.00    -0.125 C  
HETATM    2  C   UNL     1      -9.064   8.538  71.167  1.00  0.00    -0.238 C  
HETATM    3  C   UNL     1      -9.473   7.049  71.282  1.00  0.00    -0.164 C  
HETATM    4  C   UNL     1      -8.548   6.197  70.390  1.00  0.00    -0.134 C  
HETATM    5  C   UNL     1      -9.514   6.586  72.751  1.00  0.00    -0.150 C  
HETATM    6  C   UNL     1     -10.926   6.780  70.817  1.00  0.00    -0.262 C  
HETATM    7  O   UNL     1     -11.258   5.904  70.021  1.00  0.00    -0.364 OA 
HETATM    8  O   UNL     1     -11.863   7.543  71.399  1.00  0.00    -0.275 OA 
HETATM    9  C   UNL     1      -7.059   6.624  70.284  1.00  0.00    -0.072 C  
HETATM   10  C   UNL     1      -6.819   8.147  69.999  1.00  0.00    -0.040 C  
HETATM   11  C   UNL     1      -7.334   8.404  68.567  1.00  0.00    -0.093 C  
HETATM   12  C   UNL     1      -5.335   8.638  70.030  1.00  0.00    -0.028 C  
HETATM   13  C   UNL     1      -5.138  10.149  69.499  1.00  0.00    -0.038 C  
HETATM   14  C   UNL     1      -6.010  11.254  70.231  1.00  0.00    -0.154 C  
HETATM   15  C   UNL     1      -7.249  10.462  70.975  1.00  0.00     1.183 C  
HETATM   16  C   UNL     1      -5.128  11.619  71.481  1.00  0.00    -0.026 C  
HETATM   17  C   UNL     1      -8.300  11.211  71.259  1.00  0.00     7.195 C  
HETATM   18  C   UNL     1      -8.380  11.836  69.936  1.00  0.00     2.052 C  
HETATM   19  C   UNL     1      -7.974  13.236  69.951  1.00  0.00     1.850 C  
HETATM   20  O   UNL     1      -8.556  11.192  68.902  1.00  0.00    -0.153 OA 
HETATM   21  C   UNL     1      -9.255  13.954  69.304  1.00  0.00     0.493 C  
HETATM   22  C   UNL     1      -9.303  15.384  69.890  1.00  0.00    -0.003 C  
HETATM   23  C   UNL     1     -10.557  13.214  69.803  1.00  0.00     0.717 C  
HETATM   24  C   UNL     1     -11.899  13.349  69.105  1.00  0.00    -0.383 C  
HETATM   25  C   UNL     1     -11.833  13.362  67.561  1.00  0.00    -0.366 C  
HETATM   26  C   UNL     1     -10.721  14.434  67.121  1.00  0.00    -0.283 C  
HETATM   27  C   UNL     1      -6.661  13.188  67.817  1.00  0.00    -0.151 C  
HETATM   28  C   UNL     1      -9.267  13.927  67.750  1.00  0.00    -0.197 C  
HETATM   29  C   UNL     1     -11.290  15.817  67.637  1.00  0.00    -0.194 C  
HETATM   30  C   UNL     1     -10.798  14.613  65.594  1.00  0.00    -0.335 C  
HETATM   31  C   UNL     1      -5.548  14.031  69.892  1.00  0.00    -0.106 C  
HETATM   32  C   UNL     1      -6.519  12.900  69.413  1.00  0.00    -0.091 C  
HETATM   33  C   UNL     1      -7.810  14.289  67.304  1.00  0.00    -0.170 C  
ENDROOT
BRANCH  25  34
HETATM   34  O   UNL     1     -12.004  12.080  66.834  1.00  0.00    -0.612 OA 
BRANCH  34  35
HETATM   35  C   UNL     1     -12.685  12.009  65.540  1.00  0.00     1.306 C  
HETATM   36  C   UNL     1     -10.914  13.007  63.411  1.00  0.00     0.102 C  
HETATM   37  O   UNL     1     -12.674  13.284  64.939  1.00  0.00    -0.635 OA 
HETATM   38  C   UNL     1     -11.331  15.313  64.409  1.00  0.00    -0.215 C  
HETATM   39  C   UNL     1     -11.390  13.767  64.618  1.00  0.00    -0.372 C  
HETATM   40  O   UNL     1      -9.565  13.398  63.113  1.00  0.00     1.464 OA 
HETATM   41  C   UNL     1     -10.972  11.502  63.656  1.00  0.00    -0.404 C  
HETATM   42  O   UNL     1     -12.248  16.113  64.422  1.00  0.00    -0.311 OA 
HETATM   43  O   UNL     1     -10.073  15.794  64.268  1.00  0.00     0.502 OA 
HETATM   44  O   UNL     1     -10.950  10.899  62.336  1.00  0.00    -0.233 OA 
HETATM   45  H   UNL     1      -9.264  12.918  62.351  1.00  0.00     0.000 HD 
HETATM   46  C   UNL     1     -12.186  10.967  64.457  1.00  0.00     1.804 C  
HETATM   47  H   UNL     1     -10.987   9.962  62.488  1.00  0.00     0.000 HD 
BRANCH  46  48
HETATM   48  O   UNL     1     -11.961   9.622  64.957  1.00  0.00     6.042 OA 
BRANCH  48  49
HETATM   49  C   UNL     1     -10.616   9.415  65.445  1.00  0.00     1.395 C  
HETATM   50  O   UNL     1      -9.658   9.440  64.382  1.00  0.00     0.009 OA 
HETATM   51  C   UNL     1      -8.321   9.503  64.927  1.00  0.00    -0.146 C  
HETATM   52  C   UNL     1      -7.329   9.891  63.830  1.00  0.00    -0.130 C  
HETATM   53  C   UNL     1      -8.010   8.138  65.540  1.00  0.00    -0.112 C  
HETATM   54  O   UNL     1      -6.719   8.048  66.159  1.00  0.00    -0.052 OA 
HETATM   55  C   UNL     1      -9.033   7.815  66.642  1.00  0.00    -0.149 C  
HETATM   56  O   UNL     1      -7.928  10.089  62.633  1.00  0.00    -0.123 OA 
HETATM   57  O   UNL     1      -6.130  10.057  64.000  1.00  0.00    -0.116 OA 
HETATM   58  O   UNL     1      -8.940   6.427  67.000  1.00  0.00    -0.116 OA 
HETATM   59  C   UNL     1     -10.504   8.169  66.344  1.00  0.00     0.245 C  
HETATM   60  H   UNL     1      -6.525   7.200  66.540  1.00  0.00     0.000 HD 
HETATM   61  H   UNL     1      -9.572   6.227  67.680  1.00  0.00     0.000 HD 
HETATM   62  O   UNL     1     -11.150   8.515  67.606  1.00  0.00    -0.475 OA 
HETATM   63  H   UNL     1     -11.080   7.746  68.161  1.00  0.00     0.000 HD 
ENDBRANCH  48  49
ENDBRANCH  46  48
ENDBRANCH  34  35
ENDBRANCH  25  34
TORSDOF 4
ENDMDL
MODEL       73
REMARK 921   NORMALIZED FREE ENERGY PREDICTED BY IDOCK:   31.15 KCAL/MOL
REMARK 922        TOTAL FREE ENERGY PREDICTED BY IDOCK:   37.53 KCAL/MOL
REMARK 923 INTER-LIGAND FREE ENERGY PREDICTED BY IDOCK:   35.22 KCAL/MOL
REMARK 924 INTRA-LIGAND FREE ENERGY PREDICTED BY IDOCK:    2.31 KCAL/MOL
REMARK 927      BINDING AFFINITY PREDICTED BY RF-SCORE:    0.00 PKD
ROOT
HETATM    1  C   UNL     1      -9.074   5.868  72.091  1.00  0.00    -0.145 C  
HETATM    2  C   UNL     1      -7.730   6.729  72.142  1.00  0.00    -0.095 C  
HETATM    3  C   UNL     1      -7.251   7.329  73.487  1.00  0.00    -0.085 C  
HETATM    4  C   UNL     1      -8.469   7.862  74.268  1.00  0.00    -0.278 C  
HETATM    5  C   UNL     1      -6.398   6.322  74.283  1.00  0.00    -0.070 C  
HETATM    6  C   UNL     1      -6.271   8.514  73.308  1.00  0.00    -0.104 C  
HETATM    7  O   UNL     1      -6.380   9.606  73.864  1.00  0.00    -0.134 OA 
HETATM    8  O   UNL     1      -5.207   8.265  72.531  1.00  0.00    -0.036 OA 
HETATM    9  C   UNL     1      -9.796   7.064  74.163  1.00  0.00    -0.306 C  
HETATM   10  C   UNL     1     -10.228   6.673  72.707  1.00  0.00    -0.208 C  
HETATM   11  C   UNL     1     -10.585   7.995  71.994  1.00  0.00    -0.310 C  
HETATM   12  C   UNL     1     -11.480   5.747  72.574  1.00  0.00    -0.349 C  
HETATM   13  C   UNL     1     -12.008   5.580  71.059  1.00  0.00     1.249 C  
HETATM   14  C   UNL     1     -10.935   5.066  70.010  1.00  0.00     0.636 C  
HETATM   15  C   UNL     1      -9.452   5.346  70.673  1.00  0.00    -0.215 C  
HETATM   16  C   UNL     1     -11.015   3.503  70.170  1.00  0.00     3.971 C  
HETATM   17  C   UNL     1      -8.454   5.397  69.810  1.00  0.00    -0.100 C  
HETATM   18  C   UNL     1      -9.135   6.294  68.871  1.00  0.00    -0.124 C  
HETATM   19  C   UNL     1      -9.537   5.620  67.643  1.00  0.00    -0.126 C  
HETATM   20  O   UNL     1      -9.516   7.422  69.182  1.00  0.00    -0.150 OA 
HETATM   21  C   UNL     1      -8.849   6.543  66.524  1.00  0.00    -0.142 C  
HETATM   22  C   UNL     1      -8.561   5.628  65.312  1.00  0.00    -0.141 C  
HETATM   23  C   UNL     1      -7.449   7.034  67.065  1.00  0.00    -0.094 C  
HETATM   24  C   UNL     1      -6.708   8.219  66.471  1.00  0.00    -0.063 C  
HETATM   25  C   UNL     1      -7.601   9.421  66.087  1.00  0.00    -0.096 C  
HETATM   26  C   UNL     1      -8.824   8.868  65.207  1.00  0.00    -0.227 C  
HETATM   27  C   UNL     1     -11.792   6.692  67.439  1.00  0.00     1.484 C  
HETATM   28  C   UNL     1      -9.679   7.804  66.159  1.00  0.00    -0.057 C  
HETATM   29  C   UNL     1      -8.137   8.285  63.908  1.00  0.00    -0.124 C  
HETATM   30  C   UNL     1      -9.597  10.073  64.638  1.00  0.00    -0.363 C  
HETATM   31  C   UNL     1     -11.643   4.197  67.405  1.00  0.00     7.165 C  
HETATM   32  C   UNL     1     -11.033   5.436  68.141  1.00  0.00     0.267 C  
HETATM   33  C   UNL     1     -11.161   7.317  66.022  1.00  0.00     2.627 C  
ENDROOT
BRANCH  25  34
HETATM   34  O   UNL     1      -7.787  10.510  67.076  1.00  0.00    -0.110 OA 
BRANCH  34  35
HETATM   35  C   UNL     1      -7.131  11.810  66.931  1.00  0.00    -0.097 C  
HETATM   36  C   UNL     1      -8.873  13.660  65.444  1.00  0.00     1.675 C  
HETATM   37  O   UNL     1      -7.078  12.153  65.564  1.00  0.00     1.702 OA 
HETATM   38  C   UNL     1      -8.309  12.244  63.401  1.00  0.00     2.861 C  
HETATM   39  C   UNL     1      -8.336  12.341  64.960  1.00  0.00     2.039 C  
HETATM   40  O   UNL     1     -10.202  13.841  64.930  1.00  0.00    -0.478 OA 
HETATM   41  C   UNL     1      -8.899  13.712  66.968  1.00  0.00    -0.223 C  
HETATM   42  O   UNL     1      -7.348  12.100  62.670  1.00  0.00     1.505 OA 
HETATM   43  O   UNL     1      -9.539  12.258  62.836  1.00  0.00    -0.125 OA 
HETATM   44  O   UNL     1      -8.974  15.123  67.300  1.00  0.00    -0.182 OA 
HETATM   45  H   UNL     1     -10.541  14.674  65.236  1.00  0.00     0.000 HD 
HETATM   46  C   UNL     1      -7.705  13.062  67.713  1.00  0.00    -0.151 C  
HETATM   47  H   UNL     1      -8.990  15.156  68.250  1.00  0.00     0.000 HD 
BRANCH  46  48
HETATM   48  O   UNL     1      -8.000  12.826  69.116  1.00  0.00     0.220 OA 
BRANCH  48  49
HETATM   49  C   UNL     1      -9.217  12.075  69.322  1.00  0.00     0.749 C  
HETATM   50  O   UNL     1     -10.367  12.929  69.358  1.00  0.00     0.216 OA 
HETATM   51  C   UNL     1     -11.571  12.134  69.292  1.00  0.00    -0.318 C  
HETATM   52  C   UNL     1     -12.769  13.029  68.968  1.00  0.00     0.924 C  
HETATM   53  C   UNL     1     -11.724  11.418  70.633  1.00  0.00    -0.097 C  
HETATM   54  O   UNL     1     -12.866  10.554  70.716  1.00  0.00    -0.360 OA 
HETATM   55  C   UNL     1     -10.498  10.527  70.892  1.00  0.00     0.998 C  
HETATM   56  O   UNL     1     -12.420  14.327  68.813  1.00  0.00    -0.157 OA 
HETATM   57  O   UNL     1     -13.914  12.633  68.812  1.00  0.00     6.196 OA 
HETATM   58  O   UNL     1     -10.486  10.103  72.264  1.00  0.00     1.966 OA 
HETATM   59  C   UNL     1      -9.122  11.123  70.529  1.00  0.00     3.485 C  
HETATM   60  H   UNL     1     -12.961  10.109  71.550  1.00  0.00     0.000 HD 
HETATM   61  H   UNL     1      -9.728   9.553  72.425  1.00  0.00     0.000 HD 
HETATM   62  O   UNL     1      -8.250  10.028  70.119  1.00  0.00    -0.276 OA 
HETATM   63  H   UNL     1      -8.191   9.440  70.863  1.00  0.00     0.000 HD 
ENDBRANCH  48  49
ENDBRANCH  46  48
ENDBRANCH  34  35
ENDBRANCH  25  34
TORSDOF 4
ENDMDL
MODEL       74
REMARK 921   NORMALIZED FREE ENERGY PREDICTED BY IDOCK:   33.11 KCAL/MOL
REMARK 922        TOTAL FREE ENERGY PREDICTED BY IDOCK:   39.95 KCAL/MOL
REMARK 923 INTER-LIGAND FREE ENERGY PREDICTED BY IDOCK:   27.66 KCAL/MOL
REMARK 924 INTRA-LIGAND FREE ENERGY PREDICTED BY IDOCK:   12.29 KCAL/MOL
REMARK 927      BINDING AFFINITY PREDICTED BY RF-SCORE:    0.00 PKD
ROOT
HETATM    1  C   UNL     1     -10.542  16.739  67.084  1.00  0.00    -0.256 C  
HETATM    2  C   UNL     1     -10.507  16.707  68.680  1.00  0.00    -0.323 C  
HETATM    3  C   UNL     1      -9.815  17.855  69.456  1.00  0.00     0.232 C  
HETATM    4  C   UNL     1      -8.521  18.258  68.723  1.00  0.00    -0.241 C  
HETATM    5  C   UNL     1     -10.780  19.031  69.703  1.00  0.00     1.346 C  
HETATM    6  C   UNL     1      -9.415  17.456  70.899  1.00  0.00     4.794 C  
HETATM    7  O   UNL     1      -8.302  17.628  71.391  1.00  0.00     8.036 OA 
HETATM    8  O   UNL     1     -10.405  16.948  71.647  1.00  0.00     2.506 OA 
HETATM    9  C   UNL     1      -8.533  18.222  67.171  1.00  0.00    -0.253 C  
HETATM   10  C   UNL     1      -9.117  16.912  66.537  1.00  0.00    -0.302 C  
HETATM   11  C   UNL     1      -8.121  15.785  66.882  1.00  0.00    -0.292 C  
HETATM   12  C   UNL     1      -9.279  16.899  64.983  1.00  0.00     2.346 C  
HETATM   13  C   UNL     1      -9.657  15.452  64.379  1.00  0.00     3.012 C  
HETATM   14  C   UNL     1     -10.953  14.770  64.988  1.00  0.00    -0.426 C  
HETATM   15  C   UNL     1     -11.246  15.513  66.430  1.00  0.00    -0.098 C  
HETATM   16  C   UNL     1     -12.110  15.391  64.121  1.00  0.00    -0.104 C  
HETATM   17  C   UNL     1     -11.991  14.821  67.273  1.00  0.00    -0.236 C  
HETATM   18  C   UNL     1     -11.248  13.568  67.112  1.00  0.00    -0.305 C  
HETATM   19  C   UNL     1     -11.998  12.564  66.368  1.00  0.00    -0.386 C  
HETATM   20  O   UNL     1     -10.052  13.461  67.380  1.00  0.00    -0.232 OA 
HETATM   21  C   UNL     1     -11.977  11.322  67.384  1.00  0.00     0.277 C  
HETATM   22  C   UNL     1     -13.257  10.501  67.107  1.00  0.00    11.210 C  
HETATM   23  C   UNL     1     -12.101  11.872  68.859  1.00  0.00    -0.213 C  
HETATM   24  C   UNL     1     -11.720  11.050  70.078  1.00  0.00    -0.437 C  
HETATM   25  C   UNL     1     -10.443  10.196  69.916  1.00  0.00    -0.275 C  
HETATM   26  C   UNL     1     -10.569   9.369  68.545  1.00  0.00    -0.234 C  
HETATM   27  C   UNL     1     -10.084  11.731  64.981  1.00  0.00    -0.302 C  
HETATM   28  C   UNL     1     -10.676  10.475  67.307  1.00  0.00    -0.333 C  
HETATM   29  C   UNL     1     -11.813   8.420  68.778  1.00  0.00     1.968 C  
HETATM   30  C   UNL     1      -9.411   8.356  68.480  1.00  0.00    -0.139 C  
HETATM   31  C   UNL     1     -12.166  12.488  63.821  1.00  0.00    -0.615 C  
HETATM   32  C   UNL     1     -11.233  12.884  65.014  1.00  0.00    -0.324 C  
HETATM   33  C   UNL     1     -10.374  10.292  65.782  1.00  0.00    -0.236 C  
ENDROOT
BRANCH  25  34
HETATM   34  O   UNL     1      -9.147  10.766  70.360  1.00  0.00     0.958 OA 
BRANCH  34  35
HETATM   35  C   UNL     1      -8.098   9.937  70.953  1.00  0.00     0.684 C  
HETATM   36  C   UNL     1      -8.380   7.150  70.046  1.00  0.00    -0.138 C  
HETATM   37  O   UNL     1      -8.691   8.853  71.632  1.00  0.00    -0.274 OA 
HETATM   38  C   UNL     1     -10.424   7.065  71.566  1.00  0.00    -0.204 C  
HETATM   39  C   UNL     1      -9.397   7.960  70.802  1.00  0.00    -0.157 C  
HETATM   40  O   UNL     1      -9.061   6.298  69.112  1.00  0.00    -0.130 OA 
HETATM   41  C   UNL     1      -7.405   8.057  69.302  1.00  0.00    -0.081 C  
HETATM   42  O   UNL     1     -10.627   7.002  72.764  1.00  0.00    -0.219 OA 
HETATM   43  O   UNL     1     -11.217   6.331  70.750  1.00  0.00    -0.293 OA 
HETATM   44  O   UNL     1      -6.249   7.224  69.021  1.00  0.00    -0.032 OA 
HETATM   45  H   UNL     1      -8.418   5.787  68.635  1.00  0.00     0.000 HD 
HETATM   46  C   UNL     1      -6.955   9.350  70.027  1.00  0.00    -0.071 C  
HETATM   47  H   UNL     1      -5.641   7.788  68.558  1.00  0.00     0.000 HD 
BRANCH  46  48
HETATM   48  O   UNL     1      -6.353  10.307  69.115  1.00  0.00    -0.043 OA 
BRANCH  48  49
HETATM   49  C   UNL     1      -6.768  10.122  67.743  1.00  0.00    -0.071 C  
HETATM   50  O   UNL     1      -6.774   8.739  67.373  1.00  0.00    -0.064 OA 
HETATM   51  C   UNL     1      -7.444   8.572  66.104  1.00  0.00    -0.089 C  
HETATM   52  C   UNL     1      -7.772   7.095  65.879  1.00  0.00    -0.101 C  
HETATM   53  C   UNL     1      -6.526   9.138  65.022  1.00  0.00    -0.066 C  
HETATM   54  O   UNL     1      -7.068   9.077  63.695  1.00  0.00    -0.092 OA 
HETATM   55  C   UNL     1      -6.246  10.624  65.298  1.00  0.00    -0.046 C  
HETATM   56  O   UNL     1      -7.374   6.311  66.907  1.00  0.00    -0.079 OA 
HETATM   57  O   UNL     1      -8.371   6.654  64.909  1.00  0.00    -0.120 OA 
HETATM   58  O   UNL     1      -5.155  11.074  64.480  1.00  0.00    -0.384 OA 
HETATM   59  C   UNL     1      -5.980  11.016  66.767  1.00  0.00    -0.099 C  
HETATM   60  H   UNL     1      -6.497   9.428  63.022  1.00  0.00     0.000 HD 
HETATM   61  H   UNL     1      -4.982  11.992  64.651  1.00  0.00     0.000 HD 
HETATM   62  O   UNL     1      -6.470  12.375  66.968  1.00  0.00    -0.296 OA 
HETATM   63  H   UNL     1      -5.984  12.926  66.365  1.00  0.00     0.000 HD 
ENDBRANCH  48  49
ENDBRANCH  46  48
ENDBRANCH  34  35
ENDBRANCH  25  34
TORSDOF 4
ENDMDL
MODEL       75
REMARK 921   NORMALIZED FREE ENERGY PREDICTED BY IDOCK:   33.51 KCAL/MOL
REMARK 922        TOTAL FREE ENERGY PREDICTED BY IDOCK:   40.45 KCAL/MOL
REMARK 923 INTER-LIGAND FREE ENERGY PREDICTED BY IDOCK:   11.40 KCAL/MOL
REMARK 924 INTRA-LIGAND FREE ENERGY PREDICTED BY IDOCK:   29.05 KCAL/MOL
REMARK 927      BINDING AFFINITY PREDICTED BY RF-SCORE:    0.00 PKD
ROOT
HETATM    1  C   UNL     1      -8.022   5.178  69.289  1.00  0.00    -0.080 C  
HETATM    2  C   UNL     1      -9.276   5.020  68.314  1.00  0.00    -0.147 C  
HETATM    3  C   UNL     1      -9.267   3.923  67.221  1.00  0.00    -0.200 C  
HETATM    4  C   UNL     1      -7.861   3.841  66.592  1.00  0.00    -0.088 C  
HETATM    5  C   UNL     1      -9.779   2.576  67.768  1.00  0.00     0.172 C  
HETATM    6  C   UNL     1     -10.264   4.204  66.069  1.00  0.00    -0.074 C  
HETATM    7  O   UNL     1      -9.983   4.168  64.873  1.00  0.00    -0.188 OA 
HETATM    8  O   UNL     1     -11.527   4.439  66.452  1.00  0.00     1.881 OA 
HETATM    9  C   UNL     1      -6.643   4.065  67.528  1.00  0.00    -0.046 C  
HETATM   10  C   UNL     1      -6.736   5.322  68.460  1.00  0.00    -0.054 C  
HETATM   11  C   UNL     1      -6.666   6.553  67.532  1.00  0.00    -0.067 C  
HETATM   12  C   UNL     1      -5.596   5.496  69.515  1.00  0.00    -0.008 C  
HETATM   13  C   UNL     1      -5.623   6.920  70.273  1.00  0.00    -0.023 C  
HETATM   14  C   UNL     1      -6.986   7.287  70.996  1.00  0.00    -0.060 C  
HETATM   15  C   UNL     1      -8.151   6.335  70.324  1.00  0.00    -0.116 C  
HETATM   16  C   UNL     1      -6.835   6.587  72.397  1.00  0.00    -0.068 C  
HETATM   17  C   UNL     1      -9.387   6.779  70.466  1.00  0.00    -0.162 C  
HETATM   18  C   UNL     1      -9.085   8.151  70.051  1.00  0.00    -0.151 C  
HETATM   19  C   UNL     1      -9.124   9.094  71.161  1.00  0.00    -0.275 C  
HETATM   20  O   UNL     1      -8.634   8.429  68.940  1.00  0.00    -0.132 OA 
HETATM   21  C   UNL     1     -10.169  10.188  70.623  1.00  0.00     0.081 C  
HETATM   22  C   UNL     1     -10.847  10.803  71.869  1.00  0.00     4.101 C  
HETATM   23  C   UNL     1     -11.302   9.449  69.809  1.00  0.00    -0.071 C  
HETATM   24  C   UNL     1     -12.218  10.168  68.834  1.00  0.00     0.758 C  
HETATM   25  C   UNL     1     -11.529  11.243  67.965  1.00  0.00    -0.298 C  
HETATM   26  C   UNL     1     -10.678  12.197  68.936  1.00  0.00    -0.212 C  
HETATM   27  C   UNL     1      -7.093  10.408  70.508  1.00  0.00     0.192 C  
HETATM   28  C   UNL     1      -9.533  11.250  69.684  1.00  0.00     0.735 C  
HETATM   29  C   UNL     1     -11.765  12.882  69.858  1.00  0.00    -0.324 C  
HETATM   30  C   UNL     1     -10.166  13.395  68.114  1.00  0.00    -0.246 C  
HETATM   31  C   UNL     1      -7.212   9.452  72.815  1.00  0.00     1.112 C  
HETATM   32  C   UNL     1      -7.546   9.080  71.332  1.00  0.00    -0.078 C  
HETATM   33  C   UNL     1      -8.184  11.667  70.361  1.00  0.00     3.796 C  
ENDROOT
BRANCH  25  34
HETATM   34  O   UNL     1     -11.025  10.855  66.624  1.00  0.00    -0.235 OA 
BRANCH  34  35
HETATM   35  C   UNL     1     -10.374  11.816  65.732  1.00  0.00    -0.253 C  
HETATM   36  C   UNL     1     -10.449  14.508  66.922  1.00  0.00    -0.269 C  
HETATM   37  O   UNL     1     -11.269  12.870  65.454  1.00  0.00    -0.277 OA 
HETATM   38  C   UNL     1     -12.939  14.469  66.379  1.00  0.00     0.835 C  
HETATM   39  C   UNL     1     -11.629  13.642  66.576  1.00  0.00    -0.366 C  
HETATM   40  O   UNL     1     -10.740  15.236  68.125  1.00  0.00    -0.245 OA 
HETATM   41  C   UNL     1      -9.193  13.665  67.121  1.00  0.00    -0.244 C  
HETATM   42  O   UNL     1     -13.622  14.576  65.379  1.00  0.00    -0.293 OA 
HETATM   43  O   UNL     1     -13.372  15.075  67.510  1.00  0.00     2.751 OA 
HETATM   44  O   UNL     1      -8.085  14.593  66.981  1.00  0.00    -0.285 OA 
HETATM   45  H   UNL     1      -9.995  15.783  68.344  1.00  0.00     0.000 HD 
HETATM   46  C   UNL     1      -8.994  12.464  66.162  1.00  0.00     0.037 C  
HETATM   47  H   UNL     1      -7.303  14.068  67.105  1.00  0.00     0.000 HD 
BRANCH  46  48
HETATM   48  O   UNL     1      -8.005  11.524  66.661  1.00  0.00    -0.158 OA 
BRANCH  48  49
HETATM   49  C   UNL     1      -8.061  10.238  66.004  1.00  0.00    -0.139 C  
HETATM   50  O   UNL     1      -8.988   9.355  66.644  1.00  0.00    -0.140 OA 
HETATM   51  C   UNL     1      -9.217   8.196  65.813  1.00  0.00    -0.034 C  
HETATM   52  C   UNL     1     -10.452   7.439  66.303  1.00  0.00     0.535 C  
HETATM   53  C   UNL     1      -7.952   7.340  65.858  1.00  0.00    -0.115 C  
HETATM   54  O   UNL     1      -8.008   6.157  65.049  1.00  0.00    -0.110 OA 
HETATM   55  C   UNL     1      -6.753   8.152  65.342  1.00  0.00    -0.052 C  
HETATM   56  O   UNL     1     -11.033   8.030  67.373  1.00  0.00    -0.151 OA 
HETATM   57  O   UNL     1     -10.913   6.438  65.774  1.00  0.00     1.196 OA 
HETATM   58  O   UNL     1      -5.529   7.475  65.670  1.00  0.00    -0.028 OA 
HETATM   59  C   UNL     1      -6.664   9.622  65.803  1.00  0.00    -0.089 C  
HETATM   60  H   UNL     1      -7.222   5.625  65.077  1.00  0.00     0.000 HD 
HETATM   61  H   UNL     1      -4.788   7.977  65.351  1.00  0.00     0.000 HD 
HETATM   62  O   UNL     1      -6.025  10.391  64.740  1.00  0.00    -0.131 OA 
HETATM   63  H   UNL     1      -5.163  10.010  64.615  1.00  0.00     0.000 HD 
ENDBRANCH  48  49
ENDBRANCH  46  48
ENDBRANCH  34  35
ENDBRANCH  25  34
TORSDOF 4
ENDMDL
MODEL       76
REMARK 921   NORMALIZED FREE ENERGY PREDICTED BY IDOCK:   33.71 KCAL/MOL
REMARK 922        TOTAL FREE ENERGY PREDICTED BY IDOCK:   40.69 KCAL/MOL
REMARK 923 INTER-LIGAND FREE ENERGY PREDICTED BY IDOCK:   40.13 KCAL/MOL
REMARK 924 INTRA-LIGAND FREE ENERGY PREDICTED BY IDOCK:    0.55 KCAL/MOL
REMARK 927      BINDING AFFINITY PREDICTED BY RF-SCORE:    0.00 PKD
ROOT
HETATM    1  C   UNL     1     -10.464  17.685  69.176  1.00  0.00    -0.128 C  
HETATM    2  C   UNL     1     -11.206  16.646  70.136  1.00  0.00    -0.008 C  
HETATM    3  C   UNL     1     -10.928  16.673  71.659  1.00  0.00     0.889 C  
HETATM    4  C   UNL     1      -9.424  16.915  71.898  1.00  0.00     8.783 C  
HETATM    5  C   UNL     1     -11.840  17.683  72.382  1.00  0.00     2.507 C  
HETATM    6  C   UNL     1     -11.293  15.343  72.365  1.00  0.00    -0.277 C  
HETATM    7  O   UNL     1     -10.550  14.726  73.127  1.00  0.00     1.838 OA 
HETATM    8  O   UNL     1     -12.541  14.905  72.150  1.00  0.00    -0.306 OA 
HETATM    9  C   UNL     1      -8.686  17.870  70.922  1.00  0.00     6.302 C  
HETATM   10  C   UNL     1      -8.946  17.603  69.399  1.00  0.00     0.433 C  
HETATM   11  C   UNL     1      -8.290  16.243  69.083  1.00  0.00    -0.211 C  
HETATM   12  C   UNL     1      -8.336  18.634  68.395  1.00  0.00    -0.362 C  
HETATM   13  C   UNL     1      -8.436  18.175  66.851  1.00  0.00    -0.265 C  
HETATM   14  C   UNL     1      -9.893  17.825  66.331  1.00  0.00    -0.328 C  
HETATM   15  C   UNL     1     -10.815  17.533  67.666  1.00  0.00    -0.229 C  
HETATM   16  C   UNL     1     -10.459  19.231  65.911  1.00  0.00    -0.534 C  
HETATM   17  C   UNL     1     -11.903  16.817  67.448  1.00  0.00     1.159 C  
HETATM   18  C   UNL     1     -11.230  15.786  66.654  1.00  0.00    -0.000 C  
HETATM   19  C   UNL     1     -11.568  15.859  65.238  1.00  0.00     0.213 C  
HETATM   20  O   UNL     1     -10.318  15.090  67.099  1.00  0.00    -0.252 OA 
HETATM   21  C   UNL     1     -12.094  14.369  64.952  1.00  0.00    -0.442 C  
HETATM   22  C   UNL     1     -13.114  14.475  63.795  1.00  0.00     1.585 C  
HETATM   23  C   UNL     1     -12.892  13.862  66.216  1.00  0.00    -0.083 C  
HETATM   24  C   UNL     1     -13.184  12.394  66.470  1.00  0.00     4.008 C  
HETATM   25  C   UNL     1     -12.025  11.430  66.129  1.00  0.00     0.949 C  
HETATM   26  C   UNL     1     -11.508  11.779  64.650  1.00  0.00    -0.303 C  
HETATM   27  C   UNL     1      -9.259  15.438  64.359  1.00  0.00     4.807 C  
HETATM   28  C   UNL     1     -10.956  13.348  64.675  1.00  0.00    -0.388 C  
HETATM   29  C   UNL     1     -12.748  11.463  63.720  1.00  0.00     0.350 C  
HETATM   30  C   UNL     1     -10.506  10.693  64.216  1.00  0.00    -0.221 C  
HETATM   31  C   UNL     1     -10.487  17.472  63.581  1.00  0.00     8.446 C  
HETATM   32  C   UNL     1     -10.231  16.636  64.878  1.00  0.00     0.596 C  
HETATM   33  C   UNL     1      -9.961  14.068  63.703  1.00  0.00     3.465 C  
ENDROOT
BRANCH  25  34
HETATM   34  O   UNL     1     -11.082  11.044  67.209  1.00  0.00    -0.286 OA 
BRANCH  34  35
HETATM   35  C   UNL     1     -10.585  12.014  68.186  1.00  0.00    -0.210 C  
HETATM   36  C   UNL     1      -9.327  10.611  70.448  1.00  0.00     1.393 C  
HETATM   37  O   UNL     1     -11.137  11.724  69.450  1.00  0.00    -0.235 OA 
HETATM   38  C   UNL     1     -11.699   9.953  71.109  1.00  0.00    -0.396 C  
HETATM   39  C   UNL     1     -10.751  10.479  69.984  1.00  0.00    -0.224 C  
HETATM   40  O   UNL     1      -8.863   9.332  70.906  1.00  0.00    -0.222 OA 
HETATM   41  C   UNL     1      -8.430  11.112  69.320  1.00  0.00     0.136 C  
HETATM   42  O   UNL     1     -12.658  10.509  71.610  1.00  0.00    -0.394 OA 
HETATM   43  O   UNL     1     -11.424   8.687  71.502  1.00  0.00    -0.259 OA 
HETATM   44  O   UNL     1      -7.245  11.633  69.978  1.00  0.00    -0.345 OA 
HETATM   45  H   UNL     1      -7.963   9.416  71.199  1.00  0.00     0.000 HD 
HETATM   46  C   UNL     1      -9.022  12.190  68.378  1.00  0.00    -0.146 C  
HETATM   47  H   UNL     1      -6.686  11.945  69.276  1.00  0.00     0.000 HD 
BRANCH  46  48
HETATM   48  O   UNL     1      -8.263  12.316  67.146  1.00  0.00    -0.173 OA 
BRANCH  48  49
HETATM   49  C   UNL     1      -7.479  11.141  66.839  1.00  0.00    -0.138 C  
HETATM   50  O   UNL     1      -8.309  10.015  66.535  1.00  0.00    -0.124 OA 
HETATM   51  C   UNL     1      -7.507   8.951  65.976  1.00  0.00    -0.090 C  
HETATM   52  C   UNL     1      -8.412   7.905  65.323  1.00  0.00    -0.104 C  
HETATM   53  C   UNL     1      -6.664   8.367  67.108  1.00  0.00    -0.063 C  
HETATM   54  O   UNL     1      -5.780   7.312  66.705  1.00  0.00    -0.022 OA 
HETATM   55  C   UNL     1      -5.770   9.463  67.712  1.00  0.00    -0.041 C  
HETATM   56  O   UNL     1      -9.725   8.224  65.413  1.00  0.00     0.347 OA 
HETATM   57  O   UNL     1      -8.017   6.909  64.736  1.00  0.00    -0.118 OA 
HETATM   58  O   UNL     1      -5.216   9.009  68.957  1.00  0.00    -0.036 OA 
HETATM   59  C   UNL     1      -6.417  10.849  67.915  1.00  0.00    -0.062 C  
HETATM   60  H   UNL     1      -5.256   6.949  67.409  1.00  0.00     0.000 HD 
HETATM   61  H   UNL     1      -4.664   9.686  69.330  1.00  0.00     0.000 HD 
HETATM   62  O   UNL     1      -5.379  11.860  67.753  1.00  0.00    -0.050 OA 
HETATM   63  H   UNL     1      -4.723  11.680  68.416  1.00  0.00     0.000 HD 
ENDBRANCH  48  49
ENDBRANCH  46  48
ENDBRANCH  34  35
ENDBRANCH  25  34
TORSDOF 4
ENDMDL
MODEL       77
REMARK 921   NORMALIZED FREE ENERGY PREDICTED BY IDOCK:   36.58 KCAL/MOL
REMARK 922        TOTAL FREE ENERGY PREDICTED BY IDOCK:   44.24 KCAL/MOL
REMARK 923 INTER-LIGAND FREE ENERGY PREDICTED BY IDOCK:   11.55 KCAL/MOL
REMARK 924 INTRA-LIGAND FREE ENERGY PREDICTED BY IDOCK:   32.69 KCAL/MOL
REMARK 927      BINDING AFFINITY PREDICTED BY RF-SCORE:    0.00 PKD
ROOT
HETATM    1  C   UNL     1     -12.435  12.569  67.271  1.00  0.00     0.810 C  
HETATM    2  C   UNL     1     -11.722  12.625  65.843  1.00  0.00    -0.470 C  
HETATM    3  C   UNL     1     -11.598  11.336  64.994  1.00  0.00     0.204 C  
HETATM    4  C   UNL     1     -11.252  10.150  65.917  1.00  0.00     0.952 C  
HETATM    5  C   UNL     1     -12.854  11.104  64.133  1.00  0.00     1.870 C  
HETATM    6  C   UNL     1     -10.481  11.419  63.924  1.00  0.00    -0.387 C  
HETATM    7  O   UNL     1      -9.609  10.569  63.751  1.00  0.00    -0.264 OA 
HETATM    8  O   UNL     1     -10.548  12.481  63.109  1.00  0.00    -0.273 OA 
HETATM    9  C   UNL     1     -11.891  10.131  67.332  1.00  0.00     1.763 C  
HETATM   10  C   UNL     1     -11.785  11.476  68.132  1.00  0.00    -0.357 C  
HETATM   11  C   UNL     1     -10.287  11.670  68.452  1.00  0.00    -0.215 C  
HETATM   12  C   UNL     1     -12.541  11.538  69.498  1.00  0.00     0.121 C  
HETATM   13  C   UNL     1     -12.199  12.850  70.372  1.00  0.00    -0.381 C  
HETATM   14  C   UNL     1     -12.434  14.240  69.647  1.00  0.00    -0.215 C  
HETATM   15  C   UNL     1     -12.469  13.930  68.028  1.00  0.00     0.239 C  
HETATM   16  C   UNL     1     -13.962  14.513  69.906  1.00  0.00     2.545 C  
HETATM   17  C   UNL     1     -12.220  14.970  67.254  1.00  0.00     0.269 C  
HETATM   18  C   UNL     1     -11.035  15.409  67.997  1.00  0.00    -0.307 C  
HETATM   19  C   UNL     1     -11.271  16.631  68.756  1.00  0.00    -0.217 C  
HETATM   20  O   UNL     1     -10.035  14.705  68.136  1.00  0.00    -0.215 OA 
HETATM   21  C   UNL     1     -10.095  17.582  68.216  1.00  0.00    -0.346 C  
HETATM   22  C   UNL     1     -10.608  19.034  68.340  1.00  0.00    -0.146 C  
HETATM   23  C   UNL     1      -9.886  17.304  66.676  1.00  0.00    -0.299 C  
HETATM   24  C   UNL     1      -8.627  17.709  65.930  1.00  0.00     0.066 C  
HETATM   25  C   UNL     1      -7.310  17.495  66.710  1.00  0.00    -0.215 C  
HETATM   26  C   UNL     1      -7.484  18.150  68.165  1.00  0.00    -0.262 C  
HETATM   27  C   UNL     1     -10.042  15.936  70.827  1.00  0.00     0.840 C  
HETATM   28  C   UNL     1      -8.731  17.350  68.923  1.00  0.00    -0.153 C  
HETATM   29  C   UNL     1      -7.682  19.692  67.877  1.00  0.00    -0.331 C  
HETATM   30  C   UNL     1      -6.114  18.136  68.870  1.00  0.00    -0.209 C  
HETATM   31  C   UNL     1     -12.410  16.710  71.039  1.00  0.00     1.463 C  
HETATM   32  C   UNL     1     -11.501  15.838  70.111  1.00  0.00    -0.366 C  
HETATM   33  C   UNL     1      -9.054  17.233  70.451  1.00  0.00     3.209 C  
ENDROOT
BRANCH  25  34
HETATM   34  O   UNL     1      -6.569  16.225  66.514  1.00  0.00    -0.224 OA 
BRANCH  34  35
HETATM   35  C   UNL     1      -5.329  15.932  67.235  1.00  0.00     0.084 C  
HETATM   36  C   UNL     1      -5.868  15.710  70.121  1.00  0.00    -0.152 C  
HETATM   37  O   UNL     1      -5.135  16.905  68.238  1.00  0.00    -0.111 OA 
HETATM   38  C   UNL     1      -6.183  18.237  70.062  1.00  0.00    -0.040 C  
HETATM   39  C   UNL     1      -6.118  16.907  69.246  1.00  0.00    -0.206 C  
HETATM   40  O   UNL     1      -6.913  15.619  71.102  1.00  0.00     1.352 OA 
HETATM   41  C   UNL     1      -5.826  14.429  69.293  1.00  0.00    -0.088 C  
HETATM   42  O   UNL     1      -5.460  19.212  69.977  1.00  0.00    -0.209 OA 
HETATM   43  O   UNL     1      -7.234  18.301  70.913  1.00  0.00     2.568 OA 
HETATM   44  O   UNL     1      -5.137  13.459  70.125  1.00  0.00    -0.084 OA 
HETATM   45  H   UNL     1      -6.754  14.862  71.654  1.00  0.00     0.000 HD 
HETATM   46  C   UNL     1      -5.138  14.511  67.907  1.00  0.00    -0.045 C  
HETATM   47  H   UNL     1      -5.111  12.661  69.610  1.00  0.00     0.000 HD 
BRANCH  46  48
HETATM   48  O   UNL     1      -5.480  13.382  67.059  1.00  0.00    -0.180 OA 
BRANCH  48  49
HETATM   49  C   UNL     1      -6.454  12.497  67.656  1.00  0.00    -0.138 C  
HETATM   50  O   UNL     1      -5.910  11.787  68.774  1.00  0.00    -0.046 OA 
HETATM   51  C   UNL     1      -6.970  11.130  69.502  1.00  0.00    -0.111 C  
HETATM   52  C   UNL     1      -6.461  10.681  70.873  1.00  0.00     0.315 C  
HETATM   53  C   UNL     1      -7.458   9.960  68.649  1.00  0.00    -0.075 C  
HETATM   54  O   UNL     1      -8.544   9.220  69.225  1.00  0.00    -0.130 OA 
HETATM   55  C   UNL     1      -7.968  10.478  67.294  1.00  0.00    -0.114 C  
HETATM   56  O   UNL     1      -5.164  11.009  71.078  1.00  0.00    -0.103 OA 
HETATM   57  O   UNL     1      -7.142  10.130  71.725  1.00  0.00     0.634 OA 
HETATM   58  O   UNL     1      -8.132   9.380  66.384  1.00  0.00    -0.107 OA 
HETATM   59  C   UNL     1      -7.131  11.583  66.618  1.00  0.00    -0.069 C  
HETATM   60  H   UNL     1      -8.847   8.492  68.694  1.00  0.00     0.000 HD 
HETATM   61  H   UNL     1      -8.446   9.700  65.546  1.00  0.00     0.000 HD 
HETATM   62  O   UNL     1      -8.037  12.432  65.853  1.00  0.00     0.104 OA 
HETATM   63  H   UNL     1      -8.455  11.868  65.212  1.00  0.00     0.000 HD 
ENDBRANCH  48  49
ENDBRANCH  46  48
ENDBRANCH  34  35
ENDBRANCH  25  34
TORSDOF 4
ENDMDL
MODEL       78
REMARK 921   NORMALIZED FREE ENERGY PREDICTED BY IDOCK:   39.31 KCAL/MOL
REMARK 922        TOTAL FREE ENERGY PREDICTED BY IDOCK:   47.60 KCAL/MOL
REMARK 923 INTER-LIGAND FREE ENERGY PREDICTED BY IDOCK:   32.47 KCAL/MOL
REMARK 924 INTRA-LIGAND FREE ENERGY PREDICTED BY IDOCK:   15.13 KCAL/MOL
REMARK 927      BINDING AFFINITY PREDICTED BY RF-SCORE:    0.00 PKD
ROOT
HETATM    1  C   UNL     1      -9.201   7.296  68.844  1.00  0.00    -0.141 C  
HETATM    2  C   UNL     1      -7.801   7.875  69.347  1.00  0.00    -0.114 C  
HETATM    3  C   UNL     1      -7.135   7.286  70.614  1.00  0.00    -0.065 C  
HETATM    4  C   UNL     1      -8.217   7.016  71.679  1.00  0.00    -0.104 C  
HETATM    5  C   UNL     1      -6.274   6.053  70.279  1.00  0.00    -0.031 C  
HETATM    6  C   UNL     1      -6.097   8.242  71.254  1.00  0.00    -0.036 C  
HETATM    7  O   UNL     1      -6.065   8.548  72.445  1.00  0.00    -0.062 OA 
HETATM    8  O   UNL     1      -5.146   8.693  70.423  1.00  0.00    -0.022 OA 
HETATM    9  C   UNL     1      -9.602   6.519  71.185  1.00  0.00    -0.181 C  
HETATM   10  C   UNL     1     -10.219   7.331  69.994  1.00  0.00    -0.206 C  
HETATM   11  C   UNL     1     -10.555   8.729  70.555  1.00  0.00    -0.252 C  
HETATM   12  C   UNL     1     -11.541   6.772  69.377  1.00  0.00    -0.136 C  
HETATM   13  C   UNL     1     -12.244   7.774  68.326  1.00  0.00     3.952 C  
HETATM   14  C   UNL     1     -11.333   8.252  67.119  1.00  0.00     1.248 C  
HETATM   15  C   UNL     1      -9.770   7.994  67.574  1.00  0.00    -0.206 C  
HETATM   16  C   UNL     1     -11.508   7.092  66.071  1.00  0.00     3.409 C  
HETATM   17  C   UNL     1      -8.872   8.708  66.918  1.00  0.00    -0.147 C  
HETATM   18  C   UNL     1      -9.585   9.981  67.056  1.00  0.00    -0.172 C  
HETATM   19  C   UNL     1     -10.168  10.436  65.800  1.00  0.00    -0.305 C  
HETATM   20  O   UNL     1      -9.847  10.485  68.148  1.00  0.00    -0.149 OA 
HETATM   21  C   UNL     1      -9.542  11.908  65.665  1.00  0.00    -0.221 C  
HETATM   22  C   UNL     1      -9.456  12.215  64.152  1.00  0.00     0.156 C  
HETATM   23  C   UNL     1      -8.059  11.879  66.207  1.00  0.00     0.185 C  
HETATM   24  C   UNL     1      -7.304  13.135  66.605  1.00  0.00     1.008 C  
HETATM   25  C   UNL     1      -8.144  14.190  67.360  1.00  0.00    -0.189 C  
HETATM   26  C   UNL     1      -9.494  14.437  66.527  1.00  0.00    -0.309 C  
HETATM   27  C   UNL     1     -12.348  11.223  66.751  1.00  0.00     2.242 C  
HETATM   28  C   UNL     1     -10.314  12.990  66.469  1.00  0.00    -0.278 C  
HETATM   29  C   UNL     1      -8.998  15.044  65.154  1.00  0.00     1.873 C  
HETATM   30  C   UNL     1     -10.236  15.636  67.149  1.00  0.00    -0.270 C  
HETATM   31  C   UNL     1     -12.385   9.596  64.854  1.00  0.00    11.271 C  
HETATM   32  C   UNL     1     -11.609   9.890  66.180  1.00  0.00     2.566 C  
HETATM   33  C   UNL     1     -11.833  12.718  66.205  1.00  0.00    -0.485 C  
ENDROOT
BRANCH  25  34
HETATM   34  O   UNL     1      -8.142  14.168  68.843  1.00  0.00    -0.122 OA 
BRANCH  34  35
HETATM   35  C   UNL     1      -9.013  15.039  69.633  1.00  0.00     0.022 C  
HETATM   36  C   UNL     1      -7.481  17.330  70.668  1.00  0.00     3.569 C  
HETATM   37  O   UNL     1      -8.458  15.211  70.918  1.00  0.00     1.519 OA 
HETATM   38  C   UNL     1      -6.394  15.646  72.241  1.00  0.00     2.418 C  
HETATM   39  C   UNL     1      -7.215  15.874  70.933  1.00  0.00     2.235 C  
HETATM   40  O   UNL     1      -6.228  18.025  70.573  1.00  0.00     0.123 OA 
HETATM   41  C   UNL     1      -8.272  17.514  69.376  1.00  0.00     0.397 C  
HETATM   42  O   UNL     1      -6.722  15.041  73.244  1.00  0.00     2.155 OA 
HETATM   43  O   UNL     1      -5.136  16.144  72.185  1.00  0.00    -0.198 OA 
HETATM   44  O   UNL     1      -8.853  18.842  69.470  1.00  0.00     0.235 OA 
HETATM   45  H   UNL     1      -6.396  18.945  70.405  1.00  0.00     0.000 HD 
HETATM   46  C   UNL     1      -9.383  16.476  69.079  1.00  0.00    -0.239 C  
HETATM   47  H   UNL     1      -9.345  18.957  68.666  1.00  0.00     0.000 HD 
BRANCH  46  48
HETATM   48  O   UNL     1      -9.803  16.507  67.688  1.00  0.00    -0.240 OA 
BRANCH  48  49
HETATM   49  C   UNL     1      -9.204  17.588  66.938  1.00  0.00    -0.265 C  
HETATM   50  O   UNL     1      -7.782  17.445  66.847  1.00  0.00    -0.189 OA 
HETATM   51  C   UNL     1      -7.256  18.377  65.876  1.00  0.00    -0.232 C  
HETATM   52  C   UNL     1      -5.821  17.992  65.510  1.00  0.00    -0.153 C  
HETATM   53  C   UNL     1      -7.349  19.775  66.484  1.00  0.00    -0.259 C  
HETATM   54  O   UNL     1      -6.891  20.827  65.621  1.00  0.00    -0.448 OA 
HETATM   55  C   UNL     1      -8.813  20.104  66.816  1.00  0.00    -0.314 C  
HETATM   56  O   UNL     1      -5.396  16.885  66.163  1.00  0.00    -0.325 OA 
HETATM   57  O   UNL     1      -5.131  18.575  64.687  1.00  0.00    -0.157 OA 
HETATM   58  O   UNL     1      -8.872  21.265  67.659  1.00  0.00    -0.158 OA 
HETATM   59  C   UNL     1      -9.651  18.972  67.446  1.00  0.00    -0.306 C  
HETATM   60  H   UNL     1      -6.949  21.696  65.999  1.00  0.00     0.000 HD 
HETATM   61  H   UNL     1      -9.777  21.468  67.865  1.00  0.00     0.000 HD 
HETATM   62  O   UNL     1     -11.034  19.139  67.014  1.00  0.00    -0.426 OA 
HETATM   63  H   UNL     1     -11.310  19.994  67.327  1.00  0.00     0.000 HD 
ENDBRANCH  48  49
ENDBRANCH  46  48
ENDBRANCH  34  35
ENDBRANCH  25  34
TORSDOF 4
ENDMDL
MODEL       79
REMARK 921   NORMALIZED FREE ENERGY PREDICTED BY IDOCK:   40.87 KCAL/MOL
REMARK 922        TOTAL FREE ENERGY PREDICTED BY IDOCK:   49.52 KCAL/MOL
REMARK 923 INTER-LIGAND FREE ENERGY PREDICTED BY IDOCK:    9.78 KCAL/MOL
REMARK 924 INTRA-LIGAND FREE ENERGY PREDICTED BY IDOCK:   39.74 KCAL/MOL
REMARK 927      BINDING AFFINITY PREDICTED BY RF-SCORE:    0.00 PKD
ROOT
HETATM    1  C   UNL     1      -7.313   8.879  71.843  1.00  0.00     0.020 C  
HETATM    2  C   UNL     1      -6.604   9.401  70.511  1.00  0.00    -0.084 C  
HETATM    3  C   UNL     1      -6.772  10.878  70.078  1.00  0.00    -0.128 C  
HETATM    4  C   UNL     1      -8.227  11.321  70.331  1.00  0.00     2.890 C  
HETATM    5  C   UNL     1      -5.724  11.786  70.750  1.00  0.00    -0.074 C  
HETATM    6  C   UNL     1      -6.482  11.107  68.574  1.00  0.00    -0.058 C  
HETATM    7  O   UNL     1      -7.223  11.710  67.800  1.00  0.00    -0.090 OA 
HETATM    8  O   UNL     1      -5.297  10.651  68.144  1.00  0.00    -0.037 OA 
HETATM    9  C   UNL     1      -8.940  10.758  71.589  1.00  0.00     7.680 C  
HETATM   10  C   UNL     1      -8.812   9.209  71.795  1.00  0.00     0.136 C  
HETATM   11  C   UNL     1      -9.611   8.554  70.648  1.00  0.00    -0.203 C  
HETATM   12  C   UNL     1      -9.394   8.630  73.125  1.00  0.00     0.128 C  
HETATM   13  C   UNL     1      -9.443   7.018  73.166  1.00  0.00    -0.186 C  
HETATM   14  C   UNL     1      -8.064   6.281  72.901  1.00  0.00    -0.108 C  
HETATM   15  C   UNL     1      -7.082   7.369  72.148  1.00  0.00    -0.067 C  
HETATM   16  C   UNL     1      -7.402   6.259  74.328  1.00  0.00    -0.089 C  
HETATM   17  C   UNL     1      -6.081   6.842  71.466  1.00  0.00    -0.037 C  
HETATM   18  C   UNL     1      -6.899   5.837  70.781  1.00  0.00    -0.054 C  
HETATM   19  C   UNL     1      -6.655   4.486  71.271  1.00  0.00    -0.027 C  
HETATM   20  O   UNL     1      -7.838   6.132  70.042  1.00  0.00    -0.101 OA 
HETATM   21  C   UNL     1      -6.289   3.710  69.914  1.00  0.00    -0.028 C  
HETATM   22  C   UNL     1      -5.345   2.551  70.309  1.00  0.00    -0.008 C  
HETATM   23  C   UNL     1      -5.454   4.678  68.986  1.00  0.00    -0.012 C  
HETATM   24  C   UNL     1      -5.281   4.442  67.496  1.00  0.00    -0.011 C  
HETATM   25  C   UNL     1      -6.544   3.933  66.765  1.00  0.00    -0.046 C  
HETATM   26  C   UNL     1      -7.127   2.687  67.592  1.00  0.00    -0.049 C  
HETATM   27  C   UNL     1      -9.048   3.741  71.297  1.00  0.00    -0.181 C  
HETATM   28  C   UNL     1      -7.531   3.243  69.107  1.00  0.00    -0.048 C  
HETATM   29  C   UNL     1      -5.989   1.593  67.502  1.00  0.00    -0.020 C  
HETATM   30  C   UNL     1      -8.252   2.038  66.763  1.00  0.00    -0.082 C  
HETATM   31  C   UNL     1      -7.697   3.511  73.388  1.00  0.00    -0.066 C  
HETATM   32  C   UNL     1      -7.937   4.509  72.206  1.00  0.00    -0.097 C  
HETATM   33  C   UNL     1      -8.521   2.635  70.158  1.00  0.00    -0.087 C  
ENDROOT
BRANCH  25  34
HETATM   34  O   UNL     1      -7.440   4.927  66.124  1.00  0.00    -0.083 OA 
BRANCH  34  35
HETATM   35  C   UNL     1      -8.791   4.579  65.682  1.00  0.00    -0.127 C  
HETATM   36  C   UNL     1     -10.751   5.308  67.755  1.00  0.00     0.056 C  
HETATM   37  O   UNL     1      -9.395   3.745  66.646  1.00  0.00    -0.166 OA 
HETATM   38  C   UNL     1      -9.806   3.339  69.068  1.00  0.00     0.296 C  
HETATM   39  C   UNL     1      -9.597   4.354  67.900  1.00  0.00    -0.152 C  
HETATM   40  O   UNL     1     -10.922   6.025  68.987  1.00  0.00    -0.321 OA 
HETATM   41  C   UNL     1     -10.505   6.292  66.615  1.00  0.00    -0.186 C  
HETATM   42  O   UNL     1      -9.883   2.126  69.011  1.00  0.00     0.039 OA 
HETATM   43  O   UNL     1      -9.832   3.918  70.291  1.00  0.00    -0.198 OA 
HETATM   44  O   UNL     1     -11.815   6.819  66.276  1.00  0.00     0.541 OA 
HETATM   45  H   UNL     1     -11.651   6.628  68.895  1.00  0.00     0.000 HD 
HETATM   46  C   UNL     1      -9.819   5.736  65.342  1.00  0.00     0.543 C  
HETATM   47  H   UNL     1     -11.662   7.432  65.567  1.00  0.00     0.000 HD 
BRANCH  46  48
HETATM   48  O   UNL     1      -9.293   6.794  64.497  1.00  0.00     1.145 OA 
BRANCH  48  49
HETATM   49  C   UNL     1      -9.503   8.115  65.045  1.00  0.00     1.013 C  
HETATM   50  O   UNL     1      -8.918   9.129  64.220  1.00  0.00    -0.163 OA 
HETATM   51  C   UNL     1      -9.375  10.432  64.646  1.00  0.00    -0.254 C  
HETATM   52  C   UNL     1      -9.055  11.472  63.570  1.00  0.00     0.055 C  
HETATM   53  C   UNL     1      -8.698  10.744  65.979  1.00  0.00    -0.183 C  
HETATM   54  O   UNL     1      -9.077  12.002  66.556  1.00  0.00    -0.201 OA 
HETATM   55  C   UNL     1      -9.068   9.671  67.017  1.00  0.00    -0.135 C  
HETATM   56  O   UNL     1      -8.441  10.934  62.492  1.00  0.00    -0.226 OA 
HETATM   57  O   UNL     1      -9.355  12.655  63.634  1.00  0.00     0.183 OA 
HETATM   58  O   UNL     1      -8.204   9.780  68.158  1.00  0.00    -0.108 OA 
HETATM   59  C   UNL     1      -9.085   8.209  66.524  1.00  0.00    -0.176 C  
HETATM   60  H   UNL     1      -8.656  12.195  67.385  1.00  0.00     0.000 HD 
HETATM   61  H   UNL     1      -8.433   9.117  68.799  1.00  0.00     0.000 HD 
HETATM   62  O   UNL     1     -10.100   7.488  67.284  1.00  0.00    -0.184 OA 
HETATM   63  H   UNL     1      -9.842   7.547  68.197  1.00  0.00     0.000 HD 
ENDBRANCH  48  49
ENDBRANCH  46  48
ENDBRANCH  34  35
ENDBRANCH  25  34
TORSDOF 4
ENDMDL
MODEL       80
REMARK 921   NORMALIZED FREE ENERGY PREDICTED BY IDOCK:   42.64 KCAL/MOL
REMARK 922        TOTAL FREE ENERGY PREDICTED BY IDOCK:   51.71 KCAL/MOL
REMARK 923 INTER-LIGAND FREE ENERGY PREDICTED BY IDOCK:   47.38 KCAL/MOL
REMARK 924 INTRA-LIGAND FREE ENERGY PREDICTED BY IDOCK:    4.32 KCAL/MOL
REMARK 927      BINDING AFFINITY PREDICTED BY RF-SCORE:    0.00 PKD
ROOT
HETATM    1  C   UNL     1     -11.317  16.910  68.972  1.00  0.00     0.171 C  
HETATM    2  C   UNL     1     -10.382  17.199  67.710  1.00  0.00    -0.347 C  
HETATM    3  C   UNL     1     -10.829  18.223  66.639  1.00  0.00    -0.064 C  
HETATM    4  C   UNL     1     -12.341  18.064  66.383  1.00  0.00     5.727 C  
HETATM    5  C   UNL     1     -10.414  19.657  67.021  1.00  0.00    -0.600 C  
HETATM    6  C   UNL     1     -10.115  18.030  65.278  1.00  0.00     0.903 C  
HETATM    7  O   UNL     1     -10.684  17.961  64.190  1.00  0.00     1.682 OA 
HETATM    8  O   UNL     1      -8.776  18.004  65.334  1.00  0.00     0.223 OA 
HETATM    9  C   UNL     1     -13.243  17.714  67.598  1.00  0.00     7.666 C  
HETATM   10  C   UNL     1     -12.728  16.536  68.495  1.00  0.00     2.479 C  
HETATM   11  C   UNL     1     -12.833  15.260  67.632  1.00  0.00     2.075 C  
HETATM   12  C   UNL     1     -13.533  16.252  69.804  1.00  0.00     3.186 C  
HETATM   13  C   UNL     1     -13.099  14.890  70.553  1.00  0.00    -0.299 C  
HETATM   14  C   UNL     1     -11.560  14.765  70.915  1.00  0.00    -0.316 C  
HETATM   15  C   UNL     1     -10.759  15.841  69.958  1.00  0.00    -0.347 C  
HETATM   16  C   UNL     1     -11.468  15.509  72.298  1.00  0.00    -0.496 C  
HETATM   17  C   UNL     1      -9.473  15.591  69.791  1.00  0.00    -0.178 C  
HETATM   18  C   UNL     1      -9.651  14.169  69.485  1.00  0.00     0.562 C  
HETATM   19  C   UNL     1      -9.194  13.302  70.564  1.00  0.00     5.685 C  
HETATM   20  O   UNL     1     -10.312  13.769  68.527  1.00  0.00    -0.238 OA 
HETATM   21  C   UNL     1      -8.157  12.346  69.796  1.00  0.00     1.847 C  
HETATM   22  C   UNL     1      -7.106  11.905  70.841  1.00  0.00     3.356 C  
HETATM   23  C   UNL     1      -7.388  13.200  68.713  1.00  0.00    -0.068 C  
HETATM   24  C   UNL     1      -6.640  12.572  67.550  1.00  0.00    -0.150 C  
HETATM   25  C   UNL     1      -7.347  11.362  66.897  1.00  0.00    -0.147 C  
HETATM   26  C   UNL     1      -7.773  10.347  68.065  1.00  0.00    -0.092 C  
HETATM   27  C   UNL     1     -11.094  11.672  70.461  1.00  0.00     0.906 C  
HETATM   28  C   UNL     1      -8.832  11.155  69.062  1.00  0.00    -0.025 C  
HETATM   29  C   UNL     1      -6.400   9.879  68.694  1.00  0.00    -0.045 C  
HETATM   30  C   UNL     1      -8.280   9.045  67.416  1.00  0.00    -0.108 C  
HETATM   31  C   UNL     1     -10.561  12.756  72.650  1.00  0.00    13.137 C  
HETATM   32  C   UNL     1     -10.664  13.094  71.125  1.00  0.00     4.515 C  
HETATM   33  C   UNL     1      -9.891  10.580  70.062  1.00  0.00     0.178 C  
ENDROOT
BRANCH  25  34
HETATM   34  O   UNL     1      -8.219  11.601  65.721  1.00  0.00     0.126 OA 
BRANCH  34  35
HETATM   35  C   UNL     1      -9.203  10.615  65.272  1.00  0.00    -0.197 C  
HETATM   36  C   UNL     1     -11.747  11.948  64.625  1.00  0.00    -0.232 C  
HETATM   37  O   UNL     1     -10.362  10.720  66.068  1.00  0.00    -0.248 OA 
HETATM   38  C   UNL     1     -12.006  12.251  67.142  1.00  0.00    -0.137 C  
HETATM   39  C   UNL     1     -11.040  11.949  65.952  1.00  0.00    -0.316 C  
HETATM   40  O   UNL     1     -12.367  13.227  64.424  1.00  0.00    -0.483 OA 
HETATM   41  C   UNL     1     -10.770  11.664  63.487  1.00  0.00    -0.428 C  
HETATM   42  O   UNL     1     -12.284  11.541  68.089  1.00  0.00    -0.576 OA 
HETATM   43  O   UNL     1     -12.527  13.501  67.113  1.00  0.00    -0.242 OA 
HETATM   44  O   UNL     1     -11.596  11.233  62.374  1.00  0.00     0.109 OA 
HETATM   45  H   UNL     1     -12.813  13.227  63.585  1.00  0.00     0.000 HD 
HETATM   46  C   UNL     1      -9.665  10.612  63.757  1.00  0.00    -0.327 C  
HETATM   47  H   UNL     1     -10.988  11.056  61.665  1.00  0.00     0.000 HD 
BRANCH  46  48
HETATM   48  O   UNL     1      -8.586  10.692  62.787  1.00  0.00    -0.181 OA 
BRANCH  48  49
HETATM   49  C   UNL     1      -7.650   9.595  62.887  1.00  0.00    -0.116 C  
HETATM   50  O   UNL     1      -8.322   8.336  63.013  1.00  0.00    -0.157 OA 
HETATM   51  C   UNL     1      -7.377   7.256  62.837  1.00  0.00    -0.087 C  
HETATM   52  C   UNL     1      -8.126   5.942  62.610  1.00  0.00    -0.107 C  
HETATM   53  C   UNL     1      -6.489   7.215  64.079  1.00  0.00    -0.044 C  
HETATM   54  O   UNL     1      -5.468   6.208  64.044  1.00  0.00    -0.017 OA 
HETATM   55  C   UNL     1      -5.757   8.557  64.243  1.00  0.00    -0.064 C  
HETATM   56  O   UNL     1      -9.470   6.101  62.617  1.00  0.00     0.894 OA 
HETATM   57  O   UNL     1      -7.593   4.864  62.394  1.00  0.00    -0.051 OA 
HETATM   58  O   UNL     1      -5.175   8.638  65.554  1.00  0.00    -0.034 OA 
HETATM   59  C   UNL     1      -6.582   9.832  63.970  1.00  0.00    -0.120 C  
HETATM   60  H   UNL     1      -4.916   6.183  64.817  1.00  0.00     0.000 HD 
HETATM   61  H   UNL     1      -4.723   9.467  65.655  1.00  0.00     0.000 HD 
HETATM   62  O   UNL     1      -5.680  10.849  63.440  1.00  0.00    -0.361 OA 
HETATM   63  H   UNL     1      -5.020  10.995  64.109  1.00  0.00     0.000 HD 
ENDBRANCH  48  49
ENDBRANCH  46  48
ENDBRANCH  34  35
ENDBRANCH  25  34
TORSDOF 4
ENDMDL
MODEL       81
REMARK 921   NORMALIZED FREE ENERGY PREDICTED BY IDOCK:   47.30 KCAL/MOL
REMARK 922        TOTAL FREE ENERGY PREDICTED BY IDOCK:   57.46 KCAL/MOL
REMARK 923 INTER-LIGAND FREE ENERGY PREDICTED BY IDOCK:    1.80 KCAL/MOL
REMARK 924 INTRA-LIGAND FREE ENERGY PREDICTED BY IDOCK:   55.66 KCAL/MOL
REMARK 927      BINDING AFFINITY PREDICTED BY RF-SCORE:    0.00 PKD
ROOT
HETATM    1  C   UNL     1      -9.592  11.209  69.444  1.00  0.00     0.187 C  
HETATM    2  C   UNL     1      -8.556  11.662  68.317  1.00  0.00    -0.162 C  
HETATM    3  C   UNL     1      -8.756  13.013  67.587  1.00  0.00    -0.189 C  
HETATM    4  C   UNL     1     -10.256  13.218  67.298  1.00  0.00    -0.240 C  
HETATM    5  C   UNL     1      -8.110  14.176  68.363  1.00  0.00    -0.144 C  
HETATM    6  C   UNL     1      -8.018  13.082  66.226  1.00  0.00     1.188 C  
HETATM    7  O   UNL     1      -8.532  13.431  65.166  1.00  0.00     2.475 OA 
HETATM    8  O   UNL     1      -6.710  12.791  66.270  1.00  0.00     1.030 OA 
HETATM    9  C   UNL     1     -11.268  12.715  68.363  1.00  0.00    -0.316 C  
HETATM   10  C   UNL     1     -11.021  11.256  68.882  1.00  0.00    -0.274 C  
HETATM   11  C   UNL     1     -11.309  10.319  67.690  1.00  0.00    -0.088 C  
HETATM   12  C   UNL     1     -11.931  10.769  70.056  1.00  0.00    -0.427 C  
HETATM   13  C   UNL     1     -11.789   9.195  70.381  1.00  0.00    -0.057 C  
HETATM   14  C   UNL     1     -10.318   8.687  70.690  1.00  0.00    -0.241 C  
HETATM   15  C   UNL     1      -9.288   9.820  70.080  1.00  0.00    -0.261 C  
HETATM   16  C   UNL     1     -10.166   8.979  72.228  1.00  0.00    -0.016 C  
HETATM   17  C   UNL     1      -8.061   9.392  69.846  1.00  0.00    -0.142 C  
HETATM   18  C   UNL     1      -8.475   8.174  69.145  1.00  0.00    -0.135 C  
HETATM   19  C   UNL     1      -8.238   6.968  69.928  1.00  0.00    -0.130 C  
HETATM   20  O   UNL     1      -9.147   8.192  68.114  1.00  0.00    -0.135 OA 
HETATM   21  C   UNL     1      -7.351   6.091  68.917  1.00  0.00    -0.085 C  
HETATM   22  C   UNL     1      -6.453   5.184  69.789  1.00  0.00    -0.035 C  
HETATM   23  C   UNL     1      -6.386   7.057  68.123  1.00  0.00    -0.039 C  
HETATM   24  C   UNL     1      -5.704   6.654  66.827  1.00  0.00    -0.014 C  
HETATM   25  C   UNL     1      -6.581   5.833  65.855  1.00  0.00    -0.044 C  
HETATM   26  C   UNL     1      -7.244   4.628  66.683  1.00  0.00    -0.080 C  
HETATM   27  C   UNL     1     -10.393   5.818  69.365  1.00  0.00    -0.332 C  
HETATM   28  C   UNL     1      -8.190   5.304  67.873  1.00  0.00    -0.099 C  
HETATM   29  C   UNL     1      -6.012   3.753  67.149  1.00  0.00    -0.024 C  
HETATM   30  C   UNL     1      -7.942   3.682  65.688  1.00  0.00    -0.093 C  
HETATM   31  C   UNL     1      -9.788   6.121  71.772  1.00  0.00    -0.185 C  
HETATM   32  C   UNL     1      -9.749   6.888  70.409  1.00  0.00    -0.177 C  
HETATM   33  C   UNL     1      -9.386   4.679  68.667  1.00  0.00    -0.193 C  
ENDROOT
BRANCH  25  34
HETATM   34  O   UNL     1      -7.334   6.554  64.799  1.00  0.00    -0.067 OA 
BRANCH  34  35
HETATM   35  C   UNL     1      -8.758   6.861  64.935  1.00  0.00     0.283 C  
HETATM   36  C   UNL     1     -10.113   4.720  66.435  1.00  0.00    -0.262 C  
HETATM   37  O   UNL     1      -9.515   5.783  64.429  1.00  0.00     0.657 OA 
HETATM   38  C   UNL     1      -9.793   3.310  64.336  1.00  0.00    -0.162 C  
HETATM   39  C   UNL     1      -9.361   4.577  65.141  1.00  0.00    -0.159 C  
HETATM   40  O   UNL     1      -9.895   3.548  67.235  1.00  0.00    -0.309 OA 
HETATM   41  C   UNL     1      -9.654   5.959  67.199  1.00  0.00    -0.127 C  
HETATM   42  O   UNL     1     -10.297   3.253  63.231  1.00  0.00    -0.164 OA 
HETATM   43  O   UNL     1      -9.489   2.145  64.955  1.00  0.00    -0.104 OA 
HETATM   44  O   UNL     1     -10.723   6.244  68.140  1.00  0.00    -0.233 OA 
HETATM   45  H   UNL     1     -10.370   3.638  68.053  1.00  0.00     0.000 HD 
HETATM   46  C   UNL     1      -9.342   7.224  66.361  1.00  0.00    -0.150 C  
HETATM   47  H   UNL     1     -10.437   7.015  68.615  1.00  0.00     0.000 HD 
BRANCH  46  48
HETATM   48  O   UNL     1      -8.567   8.198  67.111  1.00  0.00    -0.121 OA 
BRANCH  48  49
HETATM   49  C   UNL     1      -8.186   9.349  66.324  1.00  0.00    -0.111 C  
HETATM   50  O   UNL     1      -9.050   9.527  65.195  1.00  0.00    -0.201 OA 
HETATM   51  C   UNL     1      -8.813  10.820  64.595  1.00  0.00    -0.143 C  
HETATM   52  C   UNL     1      -9.954  11.166  63.637  1.00  0.00    -0.363 C  
HETATM   53  C   UNL     1      -7.458  10.761  63.893  1.00  0.00     0.355 C  
HETATM   54  O   UNL     1      -7.060  11.990  63.270  1.00  0.00     2.045 OA 
HETATM   55  C   UNL     1      -6.356  10.423  64.910  1.00  0.00    -0.086 C  
HETATM   56  O   UNL     1     -10.901  10.201  63.586  1.00  0.00     1.194 OA 
HETATM   57  O   UNL     1     -10.048  12.212  63.012  1.00  0.00    -0.309 OA 
HETATM   58  O   UNL     1      -5.150  10.062  64.220  1.00  0.00    -0.063 OA 
HETATM   59  C   UNL     1      -6.691   9.340  65.957  1.00  0.00    -0.077 C  
HETATM   60  H   UNL     1      -6.217  11.953  62.833  1.00  0.00     0.000 HD 
HETATM   61  H   UNL     1      -4.469   9.853  64.849  1.00  0.00     0.000 HD 
HETATM   62  O   UNL     1      -5.966   9.658  67.183  1.00  0.00    -0.051 OA 
HETATM   63  H   UNL     1      -5.043   9.653  66.957  1.00  0.00     0.000 HD 
ENDBRANCH  48  49
ENDBRANCH  46  48
ENDBRANCH  34  35
ENDBRANCH  25  34
TORSDOF 4
ENDMDL
MODEL       82
REMARK 921   NORMALIZED FREE ENERGY PREDICTED BY IDOCK:   48.76 KCAL/MOL
REMARK 922        TOTAL FREE ENERGY PREDICTED BY IDOCK:   59.26 KCAL/MOL
REMARK 923 INTER-LIGAND FREE ENERGY PREDICTED BY IDOCK:   54.22 KCAL/MOL
REMARK 924 INTRA-LIGAND FREE ENERGY PREDICTED BY IDOCK:    5.04 KCAL/MOL
REMARK 927      BINDING AFFINITY PREDICTED BY RF-SCORE:    0.00 PKD
ROOT
HETATM    1  C   UNL     1      -9.053   9.258  72.569  1.00  0.00     1.349 C  
HETATM    2  C   UNL     1     -10.243   8.694  71.667  1.00  0.00    -0.366 C  
HETATM    3  C   UNL     1     -10.850   7.303  71.976  1.00  0.00    -0.264 C  
HETATM    4  C   UNL     1      -9.719   6.326  72.353  1.00  0.00    -0.162 C  
HETATM    5  C   UNL     1     -11.966   7.396  73.035  1.00  0.00     0.272 C  
HETATM    6  C   UNL     1     -11.599   6.686  70.768  1.00  0.00    -0.376 C  
HETATM    7  O   UNL     1     -11.426   5.545  70.343  1.00  0.00     0.094 OA 
HETATM    8  O   UNL     1     -12.540   7.468  70.219  1.00  0.00     0.292 OA 
HETATM    9  C   UNL     1      -8.526   6.890  73.171  1.00  0.00    -0.133 C  
HETATM   10  C   UNL     1      -7.915   8.228  72.627  1.00  0.00    -0.193 C  
HETATM   11  C   UNL     1      -7.250   7.880  71.278  1.00  0.00    -0.059 C  
HETATM   12  C   UNL     1      -6.809   8.899  73.505  1.00  0.00     0.178 C  
HETATM   13  C   UNL     1      -6.062  10.131  72.780  1.00  0.00     1.130 C  
HETATM   14  C   UNL     1      -7.004  11.292  72.250  1.00  0.00     6.530 C  
HETATM   15  C   UNL     1      -8.520  10.655  72.135  1.00  0.00     8.985 C  
HETATM   16  C   UNL     1      -7.185  12.199  73.522  1.00  0.00    11.188 C  
HETATM   17  C   UNL     1      -9.337  11.301  71.323  1.00  0.00     8.168 C  
HETATM   18  C   UNL     1      -8.382  11.393  70.216  1.00  0.00     2.858 C  
HETATM   19  C   UNL     1      -7.881  12.748  70.020  1.00  0.00     2.336 C  
HETATM   20  O   UNL     1      -7.897  10.404  69.668  1.00  0.00    -0.156 OA 
HETATM   21  C   UNL     1      -8.224  13.001  68.472  1.00  0.00    -0.067 C  
HETATM   22  C   UNL     1      -8.433  14.524  68.308  1.00  0.00    -0.161 C  
HETATM   23  C   UNL     1      -9.607  12.315  68.141  1.00  0.00    -0.213 C  
HETATM   24  C   UNL     1     -10.052  12.002  66.723  1.00  0.00    -0.223 C  
HETATM   25  C   UNL     1      -8.939  11.471  65.792  1.00  0.00    -0.115 C  
HETATM   26  C   UNL     1      -7.678  12.458  65.912  1.00  0.00     1.619 C  
HETATM   27  C   UNL     1      -5.490  12.123  69.603  1.00  0.00    -0.083 C  
HETATM   28  C   UNL     1      -7.166  12.418  67.494  1.00  0.00    -0.145 C  
HETATM   29  C   UNL     1      -8.213  13.840  65.360  1.00  0.00     4.060 C  
HETATM   30  C   UNL     1      -6.650  12.066  64.834  1.00  0.00     4.316 C  
HETATM   31  C   UNL     1      -5.998  13.799  71.387  1.00  0.00    -0.009 C  
HETATM   32  C   UNL     1      -6.535  12.448  70.807  1.00  0.00     1.142 C  
HETATM   33  C   UNL     1      -5.771  12.796  68.098  1.00  0.00    -0.083 C  
ENDROOT
BRANCH  25  34
HETATM   34  O   UNL     1      -8.764  10.003  65.662  1.00  0.00    -0.144 OA 
BRANCH  34  35
HETATM   35  C   UNL     1      -8.429   9.158  66.809  1.00  0.00    -0.123 C  
HETATM   36  C   UNL     1     -10.840   7.775  67.782  1.00  0.00    -0.041 C  
HETATM   37  O   UNL     1      -9.257   9.504  67.898  1.00  0.00    -0.126 OA 
HETATM   38  C   UNL     1     -11.564  10.058  68.653  1.00  0.00     0.149 C  
HETATM   39  C   UNL     1     -10.628   9.261  67.689  1.00  0.00    -0.261 C  
HETATM   40  O   UNL     1     -12.210   7.477  67.472  1.00  0.00     2.172 OA 
HETATM   41  C   UNL     1      -9.920   7.032  66.817  1.00  0.00    -0.197 C  
HETATM   42  O   UNL     1     -11.255  10.785  69.577  1.00  0.00    -0.239 OA 
HETATM   43  O   UNL     1     -12.878   9.953  68.342  1.00  0.00     2.930 OA 
HETATM   44  O   UNL     1      -9.870   5.668  67.312  1.00  0.00    -0.127 OA 
HETATM   45  H   UNL     1     -12.344   6.538  67.530  1.00  0.00     0.000 HD 
HETATM   46  C   UNL     1      -8.481   7.583  66.655  1.00  0.00    -0.130 C  
HETATM   47  H   UNL     1      -9.298   5.205  66.712  1.00  0.00     0.000 HD 
BRANCH  46  48
HETATM   48  O   UNL     1      -7.828   7.062  65.466  1.00  0.00    -0.101 OA 
BRANCH  48  49
HETATM   49  C   UNL     1      -7.744   5.619  65.450  1.00  0.00    -0.087 C  
HETATM   50  O   UNL     1      -9.020   5.018  65.204  1.00  0.00    -0.153 OA 
HETATM   51  C   UNL     1      -8.853   3.609  64.927  1.00  0.00    -0.121 C  
HETATM   52  C   UNL     1     -10.137   3.043  64.317  1.00  0.00    -0.097 C  
HETATM   53  C   UNL     1      -8.478   2.923  66.239  1.00  0.00    -0.105 C  
HETATM   54  O   UNL     1      -8.244   1.513  66.124  1.00  0.00    -0.073 OA 
HETATM   55  C   UNL     1      -7.177   3.527  66.791  1.00  0.00    -0.067 C  
HETATM   56  O   UNL     1     -11.103   3.981  64.176  1.00  0.00    -0.296 OA 
HETATM   57  O   UNL     1     -10.283   1.888  63.945  1.00  0.00    -0.122 OA 
HETATM   58  O   UNL     1      -6.989   3.116  68.155  1.00  0.00    -0.048 OA 
HETATM   59  C   UNL     1      -7.030   5.060  66.694  1.00  0.00    -0.067 C  
HETATM   60  H   UNL     1      -8.011   1.086  66.940  1.00  0.00     0.000 HD 
HETATM   61  H   UNL     1      -6.185   3.489  68.495  1.00  0.00     0.000 HD 
HETATM   62  O   UNL     1      -5.614   5.368  66.529  1.00  0.00    -0.016 OA 
HETATM   63  H   UNL     1      -5.173   5.023  67.296  1.00  0.00     0.000 HD 
ENDBRANCH  48  49
ENDBRANCH  46  48
ENDBRANCH  34  35
ENDBRANCH  25  34
TORSDOF 4
ENDMDL
MODEL       83
REMARK 921   NORMALIZED FREE ENERGY PREDICTED BY IDOCK:   50.66 KCAL/MOL
REMARK 922        TOTAL FREE ENERGY PREDICTED BY IDOCK:   61.61 KCAL/MOL
REMARK 923 INTER-LIGAND FREE ENERGY PREDICTED BY IDOCK:   50.41 KCAL/MOL
REMARK 924 INTRA-LIGAND FREE ENERGY PREDICTED BY IDOCK:   11.20 KCAL/MOL
REMARK 927      BINDING AFFINITY PREDICTED BY RF-SCORE:    0.00 PKD
ROOT
HETATM    1  C   UNL     1     -10.073  17.282  71.226  1.00  0.00     3.867 C  
HETATM    2  C   UNL     1     -11.271  16.252  71.455  1.00  0.00    -0.035 C  
HETATM    3  C   UNL     1     -11.569  15.722  72.879  1.00  0.00    -0.364 C  
HETATM    4  C   UNL     1     -10.239  15.440  73.606  1.00  0.00     5.969 C  
HETATM    5  C   UNL     1     -12.506  16.672  73.650  1.00  0.00    -0.336 C  
HETATM    6  C   UNL     1     -12.376  14.400  72.879  1.00  0.00    -0.091 C  
HETATM    7  O   UNL     1     -12.073  13.393  73.516  1.00  0.00     1.531 OA 
HETATM    8  O   UNL     1     -13.512  14.424  72.169  1.00  0.00    -0.348 OA 
HETATM    9  C   UNL     1      -9.051  16.401  73.330  1.00  0.00    15.418 C  
HETATM   10  C   UNL     1      -8.776  16.707  71.817  1.00  0.00    10.031 C  
HETATM   11  C   UNL     1      -8.278  15.386  71.194  1.00  0.00     3.236 C  
HETATM   12  C   UNL     1      -7.684  17.781  71.508  1.00  0.00     8.528 C  
HETATM   13  C   UNL     1      -7.286  17.875  69.948  1.00  0.00     0.782 C  
HETATM   14  C   UNL     1      -8.488  18.133  68.946  1.00  0.00    -0.134 C  
HETATM   15  C   UNL     1      -9.867  17.714  69.744  1.00  0.00     0.575 C  
HETATM   16  C   UNL     1      -8.626  19.700  68.965  1.00  0.00    -0.157 C  
HETATM   17  C   UNL     1     -10.901  17.442  68.968  1.00  0.00     0.057 C  
HETATM   18  C   UNL     1     -10.160  16.563  68.059  1.00  0.00    -0.255 C  
HETATM   19  C   UNL     1      -9.941  17.166  66.751  1.00  0.00    -0.291 C  
HETATM   20  O   UNL     1      -9.599  15.534  68.435  1.00  0.00    -0.194 OA 
HETATM   21  C   UNL     1     -10.559  16.054  65.772  1.00  0.00    -0.366 C  
HETATM   22  C   UNL     1     -11.055  16.800  64.512  1.00  0.00     0.209 C  
HETATM   23  C   UNL     1     -11.834  15.427  66.459  1.00  0.00     0.306 C  
HETATM   24  C   UNL     1     -12.432  14.099  66.029  1.00  0.00    -0.454 C  
HETATM   25  C   UNL     1     -11.400  13.002  65.680  1.00  0.00    -0.301 C  
HETATM   26  C   UNL     1     -10.330  13.633  64.663  1.00  0.00    -0.407 C  
HETATM   27  C   UNL     1      -7.571  16.403  66.464  1.00  0.00    -0.258 C  
HETATM   28  C   UNL     1      -9.579  14.891  65.451  1.00  0.00    -0.085 C  
HETATM   29  C   UNL     1     -11.178  13.988  63.377  1.00  0.00     1.242 C  
HETATM   30  C   UNL     1      -9.428  12.498  64.141  1.00  0.00     0.371 C  
HETATM   31  C   UNL     1      -8.084  18.839  66.229  1.00  0.00    -0.270 C  
HETATM   32  C   UNL     1      -8.458  17.603  67.113  1.00  0.00    -0.239 C  
HETATM   33  C   UNL     1      -8.196  15.565  65.159  1.00  0.00     4.537 C  
ENDROOT
BRANCH  25  34
HETATM   34  O   UNL     1     -10.993  12.049  66.741  1.00  0.00    -0.256 OA 
BRANCH  34  35
HETATM   35  C   UNL     1     -10.898  10.609  66.495  1.00  0.00    -0.099 C  
HETATM   36  C   UNL     1      -8.109   9.865  65.917  1.00  0.00    -0.121 C  
HETATM   37  O   UNL     1     -10.294  10.391  65.240  1.00  0.00    -0.284 OA 
HETATM   38  C   UNL     1      -8.461  11.038  63.683  1.00  0.00     0.183 C  
HETATM   39  C   UNL     1      -8.961  10.837  65.149  1.00  0.00    -0.198 C  
HETATM   40  O   UNL     1      -6.754  10.342  65.934  1.00  0.00    -0.102 OA 
HETATM   41  C   UNL     1      -8.618   9.705  67.347  1.00  0.00    -0.125 C  
HETATM   42  O   UNL     1      -9.047  10.795  62.645  1.00  0.00    -0.253 OA 
HETATM   43  O   UNL     1      -7.243  11.624  63.601  1.00  0.00     1.853 OA 
HETATM   44  O   UNL     1      -8.048   8.456  67.817  1.00  0.00    -0.119 OA 
HETATM   45  H   UNL     1      -6.216   9.727  66.420  1.00  0.00     0.000 HD 
HETATM   46  C   UNL     1     -10.154   9.688  67.547  1.00  0.00    -0.197 C  
HETATM   47  H   UNL     1      -8.365   8.356  68.708  1.00  0.00     0.000 HD 
BRANCH  46  48
HETATM   48  O   UNL     1     -10.527   9.916  68.933  1.00  0.00    -0.193 OA 
BRANCH  48  49
HETATM   49  C   UNL     1      -9.810   9.072  69.861  1.00  0.00    -0.183 C  
HETATM   50  O   UNL     1      -8.448   9.487  70.011  1.00  0.00    -0.157 OA 
HETATM   51  C   UNL     1      -7.846   8.802  71.132  1.00  0.00    -0.134 C  
HETATM   52  C   UNL     1      -6.536   9.490  71.520  1.00  0.00     0.155 C  
HETATM   53  C   UNL     1      -7.641   7.344  70.724  1.00  0.00    -0.083 C  
HETATM   54  O   UNL     1      -7.078   6.516  71.750  1.00  0.00    -0.080 OA 
HETATM   55  C   UNL     1      -8.993   6.708  70.359  1.00  0.00    -0.152 C  
HETATM   56  O   UNL     1      -6.262  10.563  70.743  1.00  0.00    -0.263 OA 
HETATM   57  O   UNL     1      -5.824   9.156  72.456  1.00  0.00    -0.159 OA 
HETATM   58  O   UNL     1      -8.777   5.458  69.686  1.00  0.00    -0.101 OA 
HETATM   59  C   UNL     1      -9.963   7.575  69.530  1.00  0.00    -0.180 C  
HETATM   60  H   UNL     1      -6.950   5.609  71.496  1.00  0.00     0.000 HD 
HETATM   61  H   UNL     1      -9.613   5.066  69.461  1.00  0.00     0.000 HD 
HETATM   62  O   UNL     1     -11.326   7.210  69.901  1.00  0.00    -0.411 OA 
HETATM   63  H   UNL     1     -11.420   6.287  69.697  1.00  0.00     0.000 HD 
ENDBRANCH  48  49
ENDBRANCH  46  48
ENDBRANCH  34  35
ENDBRANCH  25  34
TORSDOF 4
ENDMDL
MODEL       84
REMARK 921   NORMALIZED FREE ENERGY PREDICTED BY IDOCK:   51.49 KCAL/MOL
REMARK 922        TOTAL FREE ENERGY PREDICTED BY IDOCK:   62.63 KCAL/MOL
REMARK 923 INTER-LIGAND FREE ENERGY PREDICTED BY IDOCK:   61.23 KCAL/MOL
REMARK 924 INTRA-LIGAND FREE ENERGY PREDICTED BY IDOCK:    1.40 KCAL/MOL
REMARK 927      BINDING AFFINITY PREDICTED BY RF-SCORE:    0.00 PKD
ROOT
HETATM    1  C   UNL     1      -9.714   6.285  71.769  1.00  0.00    -0.168 C  
HETATM    2  C   UNL     1      -8.327   7.074  71.808  1.00  0.00    -0.110 C  
HETATM    3  C   UNL     1      -7.478   7.074  73.103  1.00  0.00    -0.076 C  
HETATM    4  C   UNL     1      -8.411   7.213  74.323  1.00  0.00    -0.203 C  
HETATM    5  C   UNL     1      -6.550   5.846  73.170  1.00  0.00    -0.069 C  
HETATM    6  C   UNL     1      -6.469   8.248  73.167  1.00  0.00    -0.102 C  
HETATM    7  O   UNL     1      -6.338   9.009  74.123  1.00  0.00    -0.300 OA 
HETATM    8  O   UNL     1      -5.658   8.363  72.106  1.00  0.00    -0.037 OA 
HETATM    9  C   UNL     1      -9.790   6.503  74.257  1.00  0.00    -0.337 C  
HETATM   10  C   UNL     1     -10.602   6.740  72.937  1.00  0.00    -0.278 C  
HETATM   11  C   UNL     1     -11.002   8.231  72.940  1.00  0.00    -0.185 C  
HETATM   12  C   UNL     1     -11.927   5.927  72.776  1.00  0.00    -0.039 C  
HETATM   13  C   UNL     1     -12.826   6.390  71.519  1.00  0.00     0.128 C  
HETATM   14  C   UNL     1     -12.097   6.377  70.110  1.00  0.00     0.105 C  
HETATM   15  C   UNL     1     -10.477   6.388  70.415  1.00  0.00    -0.269 C  
HETATM   16  C   UNL     1     -12.277   4.886  69.641  1.00  0.00     8.647 C  
HETATM   17  C   UNL     1      -9.724   6.811  69.417  1.00  0.00    -0.155 C  
HETATM   18  C   UNL     1     -10.530   8.002  69.135  1.00  0.00    -0.208 C  
HETATM   19  C   UNL     1     -11.283   7.887  67.892  1.00  0.00     0.490 C  
HETATM   20  O   UNL     1     -10.719   8.892  69.963  1.00  0.00    -0.222 OA 
HETATM   21  C   UNL     1     -10.812   9.204  67.103  1.00  0.00    -0.094 C  
HETATM   22  C   UNL     1     -10.918   8.878  65.596  1.00  0.00     3.107 C  
HETATM   23  C   UNL     1      -9.283   9.456  67.407  1.00  0.00    -0.145 C  
HETATM   24  C   UNL     1      -8.608  10.795  67.171  1.00  0.00    -0.128 C  
HETATM   25  C   UNL     1      -9.455  12.030  67.553  1.00  0.00    -0.178 C  
HETATM   26  C   UNL     1     -10.903  11.865  66.880  1.00  0.00    -0.305 C  
HETATM   27  C   UNL     1     -13.412   8.903  68.739  1.00  0.00    10.018 C  
HETATM   28  C   UNL     1     -11.589  10.486  67.510  1.00  0.00     0.230 C  
HETATM   29  C   UNL     1     -10.614  11.885  65.326  1.00  0.00    -0.320 C  
HETATM   30  C   UNL     1     -11.680  13.182  67.072  1.00  0.00    -0.431 C  
HETATM   31  C   UNL     1     -13.504   6.648  67.663  1.00  0.00    15.967 C  
HETATM   32  C   UNL     1     -12.620   7.484  68.647  1.00  0.00     5.133 C  
HETATM   33  C   UNL     1     -13.097  10.069  67.583  1.00  0.00     9.972 C  
ENDROOT
BRANCH  25  34
HETATM   34  O   UNL     1      -9.291  12.609  68.909  1.00  0.00     0.075 OA 
BRANCH  34  35
HETATM   35  C   UNL     1      -8.172  12.242  69.779  1.00  0.00     1.955 C  
HETATM   36  C   UNL     1      -5.680  13.451  68.780  1.00  0.00    -0.074 C  
HETATM   37  O   UNL     1      -7.159  11.642  69.003  1.00  0.00    -0.106 OA 
HETATM   38  C   UNL     1      -5.829  11.737  66.900  1.00  0.00    -0.143 C  
HETATM   39  C   UNL     1      -6.576  12.493  68.044  1.00  0.00    -0.086 C  
HETATM   40  O   UNL     1      -5.146  14.403  67.847  1.00  0.00    -0.181 OA 
HETATM   41  C   UNL     1      -6.447  14.180  69.879  1.00  0.00    -0.119 C  
HETATM   42  O   UNL     1      -5.638  10.542  66.783  1.00  0.00    -0.045 OA 
HETATM   43  O   UNL     1      -5.416  12.546  65.895  1.00  0.00     1.440 OA 
HETATM   44  O   UNL     1      -5.430  14.688  70.781  1.00  0.00    -0.131 OA 
HETATM   45  H   UNL     1      -4.580  15.008  68.312  1.00  0.00     0.000 HD 
HETATM   46  C   UNL     1      -7.489  13.355  70.675  1.00  0.00     3.002 C  
HETATM   47  H   UNL     1      -5.907  15.143  71.466  1.00  0.00     0.000 HD 
BRANCH  46  48
HETATM   48  O   UNL     1      -8.412  14.202  71.410  1.00  0.00     4.321 OA 
BRANCH  48  49
HETATM   49  C   UNL     1      -9.428  14.796  70.572  1.00  0.00     1.386 C  
HETATM   50  O   UNL     1      -9.013  16.065  70.054  1.00  0.00     0.254 OA 
HETATM   51  C   UNL     1      -9.925  16.495  69.019  1.00  0.00    -0.275 C  
HETATM   52  C   UNL     1      -9.304  17.644  68.223  1.00  0.00    -0.290 C  
HETATM   53  C   UNL     1     -11.235  16.895  69.697  1.00  0.00     0.259 C  
HETATM   54  O   UNL     1     -12.264  17.318  68.792  1.00  0.00     0.952 OA 
HETATM   55  C   UNL     1     -11.812  15.695  70.467  1.00  0.00    -0.373 C  
HETATM   56  O   UNL     1      -8.067  17.973  68.663  1.00  0.00    -0.303 OA 
HETATM   57  O   UNL     1      -9.827  18.189  67.262  1.00  0.00    -0.295 OA 
HETATM   58  O   UNL     1     -12.856  16.139  71.348  1.00  0.00    -0.507 OA 
HETATM   59  C   UNL     1     -10.806  14.834  71.259  1.00  0.00     0.467 C  
HETATM   60  H   UNL     1     -13.078  17.566  69.214  1.00  0.00     0.000 HD 
HETATM   61  H   UNL     1     -13.212  15.398  71.823  1.00  0.00     0.000 HD 
HETATM   62  O   UNL     1     -11.298  13.460  71.269  1.00  0.00     0.606 OA 
HETATM   63  H   UNL     1     -12.148  13.484  71.693  1.00  0.00     0.000 HD 
ENDBRANCH  48  49
ENDBRANCH  46  48
ENDBRANCH  34  35
ENDBRANCH  25  34
TORSDOF 4
ENDMDL
MODEL       85
REMARK 921   NORMALIZED FREE ENERGY PREDICTED BY IDOCK:   53.66 KCAL/MOL
REMARK 922        TOTAL FREE ENERGY PREDICTED BY IDOCK:   65.30 KCAL/MOL
REMARK 923 INTER-LIGAND FREE ENERGY PREDICTED BY IDOCK:   61.37 KCAL/MOL
REMARK 924 INTRA-LIGAND FREE ENERGY PREDICTED BY IDOCK:    3.94 KCAL/MOL
REMARK 927      BINDING AFFINITY PREDICTED BY RF-SCORE:    0.00 PKD
ROOT
HETATM    1  C   UNL     1     -11.695  17.542  69.182  1.00  0.00     2.222 C  
HETATM    2  C   UNL     1     -10.743  17.869  67.943  1.00  0.00    -0.328 C  
HETATM    3  C   UNL     1     -11.217  18.857  66.849  1.00  0.00     0.233 C  
HETATM    4  C   UNL     1     -12.711  18.615  66.555  1.00  0.00     7.709 C  
HETATM    5  C   UNL     1     -10.889  20.315  67.225  1.00  0.00     0.080 C  
HETATM    6  C   UNL     1     -10.457  18.690  65.509  1.00  0.00     0.066 C  
HETATM    7  O   UNL     1     -10.992  18.580  64.408  1.00  0.00     0.678 OA 
HETATM    8  O   UNL     1      -9.120  18.736  65.600  1.00  0.00    -0.281 OA 
HETATM    9  C   UNL     1     -13.624  18.228  67.750  1.00  0.00     9.503 C  
HETATM   10  C   UNL     1     -13.071  17.088  68.673  1.00  0.00     5.348 C  
HETATM   11  C   UNL     1     -13.084  15.800  67.822  1.00  0.00     3.518 C  
HETATM   12  C   UNL     1     -13.893  16.774  69.964  1.00  0.00     7.372 C  
HETATM   13  C   UNL     1     -13.407  15.444  70.738  1.00  0.00    -0.385 C  
HETATM   14  C   UNL     1     -11.874  15.406  71.142  1.00  0.00    -0.422 C  
HETATM   15  C   UNL     1     -11.107  16.514  70.194  1.00  0.00    -0.193 C  
HETATM   16  C   UNL     1     -11.859  16.167  72.519  1.00  0.00    -0.630 C  
HETATM   17  C   UNL     1      -9.805  16.333  70.063  1.00  0.00     0.332 C  
HETATM   18  C   UNL     1      -9.898  14.900  69.769  1.00  0.00     0.075 C  
HETATM   19  C   UNL     1      -9.424  14.070  70.869  1.00  0.00     4.555 C  
HETATM   20  O   UNL     1     -10.511  14.456  68.798  1.00  0.00    -0.235 OA 
HETATM   21  C   UNL     1      -8.317  13.164  70.139  1.00  0.00     3.433 C  
HETATM   22  C   UNL     1      -7.272  12.790  71.215  1.00  0.00     5.400 C  
HETATM   23  C   UNL     1      -7.567  14.047  69.066  1.00  0.00    -0.027 C  
HETATM   24  C   UNL     1      -6.756  13.449  67.930  1.00  0.00    -0.150 C  
HETATM   25  C   UNL     1      -7.379  12.197  67.272  1.00  0.00    -0.149 C  
HETATM   26  C   UNL     1      -7.781  11.172  68.440  1.00  0.00    -0.125 C  
HETATM   27  C   UNL     1     -11.231  12.338  70.735  1.00  0.00     1.690 C  
HETATM   28  C   UNL     1      -8.907  11.931  69.401  1.00  0.00     0.937 C  
HETATM   29  C   UNL     1      -6.402  10.785  69.110  1.00  0.00    -0.055 C  
HETATM   30  C   UNL     1      -8.200   9.839  67.792  1.00  0.00    -0.114 C  
HETATM   31  C   UNL     1     -10.815  13.471  72.924  1.00  0.00     7.377 C  
HETATM   32  C   UNL     1     -10.895  13.788  71.394  1.00  0.00     3.220 C  
HETATM   33  C   UNL     1      -9.961  11.310  70.379  1.00  0.00     2.227 C  
ENDROOT
BRANCH  25  34
HETATM   34  O   UNL     1      -8.231  12.378  66.071  1.00  0.00     0.422 OA 
BRANCH  34  35
HETATM   35  C   UNL     1      -9.491  11.653  65.899  1.00  0.00    -0.228 C  
HETATM   36  C   UNL     1     -11.051  12.849  63.707  1.00  0.00    -0.379 C  
HETATM   37  O   UNL     1     -10.565  12.563  65.986  1.00  0.00    -0.254 OA 
HETATM   38  C   UNL     1     -11.454  14.789  65.310  1.00  0.00    -0.352 C  
HETATM   39  C   UNL     1     -10.592  13.533  64.965  1.00  0.00    -0.372 C  
HETATM   40  O   UNL     1     -10.994  13.783  62.618  1.00  0.00     1.894 OA 
HETATM   41  C   UNL     1     -10.177  11.638  63.395  1.00  0.00    -0.433 C  
HETATM   42  O   UNL     1     -12.139  14.988  66.295  1.00  0.00    -0.071 OA 
HETATM   43  O   UNL     1     -11.343  15.788  64.403  1.00  0.00    -0.405 OA 
HETATM   44  O   UNL     1     -10.964  10.824  62.486  1.00  0.00    -0.330 OA 
HETATM   45  H   UNL     1     -11.284  13.350  61.824  1.00  0.00     0.000 HD 
HETATM   46  C   UNL     1      -9.713  10.778  64.598  1.00  0.00    -0.289 C  
HETATM   47  H   UNL     1     -10.420  10.069  62.291  1.00  0.00     0.000 HD 
BRANCH  46  48
HETATM   48  O   UNL     1      -8.604   9.905  64.250  1.00  0.00    -0.158 OA 
BRANCH  48  49
HETATM   49  C   UNL     1      -8.453   8.791  65.158  1.00  0.00    -0.174 C  
HETATM   50  O   UNL     1      -7.490   7.846  64.680  1.00  0.00    -0.088 OA 
HETATM   51  C   UNL     1      -7.168   6.900  65.724  1.00  0.00    -0.073 C  
HETATM   52  C   UNL     1      -5.902   6.127  65.355  1.00  0.00    -0.025 C  
HETATM   53  C   UNL     1      -8.379   5.986  65.906  1.00  0.00    -0.138 C  
HETATM   54  O   UNL     1      -8.228   5.004  66.941  1.00  0.00    -0.107 OA 
HETATM   55  C   UNL     1      -9.612   6.821  66.288  1.00  0.00    -0.031 C  
HETATM   56  O   UNL     1      -5.387   6.511  64.163  1.00  0.00    -0.024 OA 
HETATM   57  O   UNL     1      -5.367   5.286  66.061  1.00  0.00    -0.012 OA 
HETATM   58  O   UNL     1     -10.799   6.025  66.155  1.00  0.00    -0.529 OA 
HETATM   59  C   UNL     1      -9.803   8.155  65.536  1.00  0.00     0.856 C  
HETATM   60  H   UNL     1      -8.981   4.436  67.054  1.00  0.00     0.000 HD 
HETATM   61  H   UNL     1     -11.561   6.541  66.392  1.00  0.00     0.000 HD 
HETATM   62  O   UNL     1     -10.460   9.093  66.440  1.00  0.00    -0.213 OA 
HETATM   63  H   UNL     1     -11.293   8.700  66.674  1.00  0.00     0.000 HD 
ENDBRANCH  48  49
ENDBRANCH  46  48
ENDBRANCH  34  35
ENDBRANCH  25  34
TORSDOF 4
ENDMDL
MODEL       86
REMARK 921   NORMALIZED FREE ENERGY PREDICTED BY IDOCK:   60.21 KCAL/MOL
REMARK 922        TOTAL FREE ENERGY PREDICTED BY IDOCK:   73.39 KCAL/MOL
REMARK 923 INTER-LIGAND FREE ENERGY PREDICTED BY IDOCK:   65.77 KCAL/MOL
REMARK 924 INTRA-LIGAND FREE ENERGY PREDICTED BY IDOCK:    7.62 KCAL/MOL
REMARK 927      BINDING AFFINITY PREDICTED BY RF-SCORE:    0.00 PKD
ROOT
HETATM    1  C   UNL     1      -9.669  13.353  66.267  1.00  0.00    -0.280 C  
HETATM    2  C   UNL     1      -8.602  12.454  65.490  1.00  0.00     1.009 C  
HETATM    3  C   UNL     1      -8.880  12.016  64.032  1.00  0.00     0.955 C  
HETATM    4  C   UNL     1     -10.368  11.637  63.890  1.00  0.00    -0.417 C  
HETATM    5  C   UNL     1      -8.414  13.083  63.023  1.00  0.00     7.085 C  
HETATM    6  C   UNL     1      -8.053  10.779  63.601  1.00  0.00     0.132 C  
HETATM    7  O   UNL     1      -8.519   9.774  63.067  1.00  0.00    -0.150 OA 
HETATM    8  O   UNL     1      -6.730  10.883  63.787  1.00  0.00     0.261 OA 
HETATM    9  C   UNL     1     -11.401  12.467  64.699  1.00  0.00    -0.364 C  
HETATM   10  C   UNL     1     -11.049  12.681  66.211  1.00  0.00    -0.330 C  
HETATM   11  C   UNL     1     -11.151  11.293  66.879  1.00  0.00    -0.339 C  
HETATM   12  C   UNL     1     -11.991  13.631  67.020  1.00  0.00    -0.448 C  
HETATM   13  C   UNL     1     -11.716  13.621  68.610  1.00  0.00    -0.389 C  
HETATM   14  C   UNL     1     -10.229  13.952  69.053  1.00  0.00    -0.071 C  
HETATM   15  C   UNL     1      -9.275  13.701  67.733  1.00  0.00    -0.214 C  
HETATM   16  C   UNL     1     -10.223  15.524  69.101  1.00  0.00    -0.240 C  
HETATM   17  C   UNL     1      -7.997  13.498  67.997  1.00  0.00    -0.151 C  
HETATM   18  C   UNL     1      -8.234  12.515  69.057  1.00  0.00     0.375 C  
HETATM   19  C   UNL     1      -7.936  13.039  70.384  1.00  0.00     4.016 C  
HETATM   20  O   UNL     1      -8.825  11.453  68.864  1.00  0.00    -0.116 OA 
HETATM   21  C   UNL     1      -6.893  11.952  70.938  1.00  0.00     2.472 C  
HETATM   22  C   UNL     1      -5.976  12.689  71.941  1.00  0.00     1.476 C  
HETATM   23  C   UNL     1      -5.973  11.480  69.744  1.00  0.00    -0.116 C  
HETATM   24  C   UNL     1      -5.158  10.199  69.790  1.00  0.00    -0.038 C  
HETATM   25  C   UNL     1      -5.874   8.994  70.442  1.00  0.00    -0.031 C  
HETATM   26  C   UNL     1      -6.472   9.476  71.852  1.00  0.00     0.289 C  
HETATM   27  C   UNL     1      -9.916  12.039  71.550  1.00  0.00    11.324 C  
HETATM   28  C   UNL     1      -7.568  10.688  71.538  1.00  0.00     4.098 C  
HETATM   29  C   UNL     1      -5.197   9.857  72.706  1.00  0.00     0.046 C  
HETATM   30  C   UNL     1      -6.995   8.239  72.606  1.00  0.00    -0.115 C  
HETATM   31  C   UNL     1      -9.527  14.501  71.745  1.00  0.00     5.228 C  
HETATM   32  C   UNL     1      -9.463  13.346  70.692  1.00  0.00     5.749 C  
HETATM   33  C   UNL     1      -8.751  11.211  72.419  1.00  0.00    15.353 C  
ENDROOT
BRANCH  25  34
HETATM   34  O   UNL     1      -6.613   8.051  69.568  1.00  0.00    -0.037 OA 
BRANCH  34  35
HETATM   35  C   UNL     1      -6.028   6.785  69.123  1.00  0.00    -0.022 C  
HETATM   36  C   UNL     1      -8.159   4.847  68.515  1.00  0.00    -0.085 C  
HETATM   37  O   UNL     1      -6.516   5.739  69.933  1.00  0.00    -0.035 OA 
HETATM   38  C   UNL     1      -8.506   4.728  71.036  1.00  0.00    -0.111 C  
HETATM   39  C   UNL     1      -7.904   5.522  69.834  1.00  0.00    -0.082 C  
HETATM   40  O   UNL     1      -9.576   4.701  68.330  1.00  0.00    -0.141 OA 
HETATM   41  C   UNL     1      -7.570   5.658  67.364  1.00  0.00    -0.089 C  
HETATM   42  O   UNL     1      -7.924   4.230  71.981  1.00  0.00    -0.085 OA 
HETATM   43  O   UNL     1      -9.859   4.666  71.022  1.00  0.00    -0.174 OA 
HETATM   44  O   UNL     1      -7.460   4.725  66.257  1.00  0.00    -0.083 OA 
HETATM   45  H   UNL     1      -9.737   4.275  67.496  1.00  0.00     0.000 HD 
HETATM   46  C   UNL     1      -6.200   6.338  67.614  1.00  0.00    -0.025 C  
HETATM   47  H   UNL     1      -7.093   5.230  65.540  1.00  0.00     0.000 HD 
BRANCH  46  48
HETATM   48  O   UNL     1      -5.916   7.371  66.632  1.00  0.00    -0.034 OA 
BRANCH  48  49
HETATM   49  C   UNL     1      -6.676   7.220  65.412  1.00  0.00    -0.048 C  
HETATM   50  O   UNL     1      -8.024   7.676  65.568  1.00  0.00    -0.105 OA 
HETATM   51  C   UNL     1      -8.665   7.764  64.276  1.00  0.00     0.476 C  
HETATM   52  C   UNL     1      -9.955   8.579  64.389  1.00  0.00     3.180 C  
HETATM   53  C   UNL     1      -8.917   6.338  63.790  1.00  0.00     0.895 C  
HETATM   54  O   UNL     1      -9.524   6.253  62.493  1.00  0.00     0.307 OA 
HETATM   55  C   UNL     1      -7.584   5.578  63.685  1.00  0.00    -0.072 C  
HETATM   56  O   UNL     1     -10.180   9.025  65.647  1.00  0.00     0.042 OA 
HETATM   57  O   UNL     1     -10.691   8.852  63.453  1.00  0.00     6.167 OA 
HETATM   58  O   UNL     1      -7.835   4.172  63.535  1.00  0.00    -0.078 OA 
HETATM   59  C   UNL     1      -6.572   5.798  64.829  1.00  0.00    -0.042 C  
HETATM   60  H   UNL     1      -9.680   5.366  62.190  1.00  0.00     0.000 HD 
HETATM   61  H   UNL     1      -7.011   3.703  63.471  1.00  0.00     0.000 HD 
HETATM   62  O   UNL     1      -5.228   5.680  64.273  1.00  0.00    -0.009 OA 
HETATM   63  H   UNL     1      -5.164   4.803  63.913  1.00  0.00     0.000 HD 
ENDBRANCH  48  49
ENDBRANCH  46  48
ENDBRANCH  34  35
ENDBRANCH  25  34
TORSDOF 4
ENDMDL
MODEL       87
REMARK 921   NORMALIZED FREE ENERGY PREDICTED BY IDOCK:   61.22 KCAL/MOL
REMARK 922        TOTAL FREE ENERGY PREDICTED BY IDOCK:   74.63 KCAL/MOL
REMARK 923 INTER-LIGAND FREE ENERGY PREDICTED BY IDOCK:   71.20 KCAL/MOL
REMARK 924 INTRA-LIGAND FREE ENERGY PREDICTED BY IDOCK:    3.44 KCAL/MOL
REMARK 927      BINDING AFFINITY PREDICTED BY RF-SCORE:    0.00 PKD
ROOT
HETATM    1  C   UNL     1     -10.749   5.555  70.467  1.00  0.00    -0.310 C  
HETATM    2  C   UNL     1      -9.881   6.586  71.323  1.00  0.00    -0.197 C  
HETATM    3  C   UNL     1     -10.032   6.626  72.863  1.00  0.00    -0.187 C  
HETATM    4  C   UNL     1     -11.521   6.471  73.233  1.00  0.00     0.248 C  
HETATM    5  C   UNL     1      -9.113   5.596  73.548  1.00  0.00    -0.131 C  
HETATM    6  C   UNL     1      -9.546   7.959  73.486  1.00  0.00    -0.214 C  
HETATM    7  O   UNL     1     -10.192   8.639  74.281  1.00  0.00     3.128 OA 
HETATM    8  O   UNL     1      -8.300   8.325  73.153  1.00  0.00    -0.200 OA 
HETATM    9  C   UNL     1     -12.382   5.521  72.358  1.00  0.00     0.302 C  
HETATM   10  C   UNL     1     -12.237   5.722  70.810  1.00  0.00     1.366 C  
HETATM   11  C   UNL     1     -12.851   7.103  70.495  1.00  0.00     0.192 C  
HETATM   12  C   UNL     1     -12.978   4.691  69.899  1.00  0.00    16.050 C  
HETATM   13  C   UNL     1     -12.984   5.090  68.336  1.00  0.00    17.334 C  
HETATM   14  C   UNL     1     -11.560   5.347  67.686  1.00  0.00     2.446 C  
HETATM   15  C   UNL     1     -10.518   5.636  68.929  1.00  0.00    -0.310 C  
HETATM   16  C   UNL     1     -11.100   3.899  67.276  1.00  0.00     4.041 C  
HETATM   17  C   UNL     1      -9.418   6.287  68.596  1.00  0.00    -0.121 C  
HETATM   18  C   UNL     1     -10.104   7.324  67.820  1.00  0.00    -0.180 C  
HETATM   19  C   UNL     1      -9.889   7.184  66.386  1.00  0.00    -0.116 C  
HETATM   20  O   UNL     1     -10.941   8.081  68.311  1.00  0.00     0.021 OA 
HETATM   21  C   UNL     1      -9.317   8.634  66.000  1.00  0.00    -0.284 C  
HETATM   22  C   UNL     1      -8.402   8.436  64.770  1.00  0.00    -0.151 C  
HETATM   23  C   UNL     1      -8.393   9.143  67.175  1.00  0.00    -0.117 C  
HETATM   24  C   UNL     1      -8.010  10.602  67.348  1.00  0.00    -0.111 C  
HETATM   25  C   UNL     1      -9.145  11.612  67.065  1.00  0.00    -0.179 C  
HETATM   26  C   UNL     1      -9.799  11.239  65.647  1.00  0.00    -0.277 C  
HETATM   27  C   UNL     1     -12.239   7.694  65.681  1.00  0.00    11.233 C  
HETATM   28  C   UNL     1     -10.423   9.702  65.777  1.00  0.00     0.139 C  
HETATM   29  C   UNL     1      -8.627  11.459  64.609  1.00  0.00     0.462 C  
HETATM   30  C   UNL     1     -10.780  12.360  65.255  1.00  0.00    -0.322 C  
HETATM   31  C   UNL     1     -11.181   5.573  64.885  1.00  0.00     2.588 C  
HETATM   32  C   UNL     1     -11.287   6.466  66.166  1.00  0.00     1.467 C  
HETATM   33  C   UNL     1     -11.529   9.002  64.918  1.00  0.00     8.937 C  
ENDROOT
BRANCH  25  34
HETATM   34  O   UNL     1      -9.975  12.083  68.202  1.00  0.00    -0.191 OA 
BRANCH  34  35
HETATM   35  C   UNL     1      -9.515  13.129  69.116  1.00  0.00     0.592 C  
HETATM   36  C   UNL     1      -7.242  14.577  67.931  1.00  0.00    -0.158 C  
HETATM   37  O   UNL     1      -8.139  12.953  69.369  1.00  0.00     0.570 OA 
HETATM   38  C   UNL     1      -5.900  12.461  68.395  1.00  0.00    -0.056 C  
HETATM   39  C   UNL     1      -7.313  13.106  68.238  1.00  0.00    -0.116 C  
HETATM   40  O   UNL     1      -6.491  14.766  66.721  1.00  0.00     0.001 OA 
HETATM   41  C   UNL     1      -8.638  15.169  67.769  1.00  0.00    -0.152 C  
HETATM   42  O   UNL     1      -5.421  11.921  69.374  1.00  0.00    -0.059 OA 
HETATM   43  O   UNL     1      -5.173  12.463  67.253  1.00  0.00    -0.177 OA 
HETATM   44  O   UNL     1      -8.469  16.600  67.946  1.00  0.00    -0.188 OA 
HETATM   45  H   UNL     1      -6.446  15.696  66.527  1.00  0.00     0.000 HD 
HETATM   46  C   UNL     1      -9.737  14.649  68.731  1.00  0.00    -0.217 C  
HETATM   47  H   UNL     1      -9.339  16.969  67.845  1.00  0.00     0.000 HD 
BRANCH  46  48
HETATM   48  O   UNL     1     -11.073  14.974  68.261  1.00  0.00    -0.263 OA 
BRANCH  48  49
HETATM   49  C   UNL     1     -11.244  16.377  67.959  1.00  0.00    -0.235 C  
HETATM   50  O   UNL     1     -10.744  16.703  66.657  1.00  0.00    -0.247 OA 
HETATM   51  C   UNL     1     -11.172  18.033  66.286  1.00  0.00     0.858 C  
HETATM   52  C   UNL     1     -10.960  18.248  64.787  1.00  0.00     2.078 C  
HETATM   53  C   UNL     1     -10.381  19.025  67.137  1.00  0.00    -0.416 C  
HETATM   54  O   UNL     1     -10.717  20.400  66.909  1.00  0.00    -0.096 OA 
HETATM   55  C   UNL     1     -10.647  18.763  68.628  1.00  0.00     0.119 C  
HETATM   56  O   UNL     1     -10.441  17.160  64.173  1.00  0.00     1.105 OA 
HETATM   57  O   UNL     1     -11.263  19.264  64.178  1.00  0.00     2.135 OA 
HETATM   58  O   UNL     1      -9.685  19.470  69.426  1.00  0.00    -0.341 OA 
HETATM   59  C   UNL     1     -10.695  17.287  69.073  1.00  0.00    -0.158 C  
HETATM   60  H   UNL     1     -10.225  21.017  67.437  1.00  0.00     0.000 HD 
HETATM   61  H   UNL     1      -9.849  19.309  70.347  1.00  0.00     0.000 HD 
HETATM   62  O   UNL     1     -11.632  17.181  70.187  1.00  0.00     0.261 OA 
HETATM   63  H   UNL     1     -11.293  17.743  70.875  1.00  0.00     0.000 HD 
ENDBRANCH  48  49
ENDBRANCH  46  48
ENDBRANCH  34  35
ENDBRANCH  25  34
TORSDOF 4
ENDMDL
MODEL       88
REMARK 921   NORMALIZED FREE ENERGY PREDICTED BY IDOCK:   61.56 KCAL/MOL
REMARK 922        TOTAL FREE ENERGY PREDICTED BY IDOCK:   75.05 KCAL/MOL
REMARK 923 INTER-LIGAND FREE ENERGY PREDICTED BY IDOCK:   73.54 KCAL/MOL
REMARK 924 INTRA-LIGAND FREE ENERGY PREDICTED BY IDOCK:    1.51 KCAL/MOL
REMARK 927      BINDING AFFINITY PREDICTED BY RF-SCORE:    0.00 PKD
ROOT
HETATM    1  C   UNL     1     -10.483  18.078  69.109  1.00  0.00     0.059 C  
HETATM    2  C   UNL     1      -9.071  17.505  68.632  1.00  0.00    -0.263 C  
HETATM    3  C   UNL     1      -8.287  18.228  67.510  1.00  0.00    -0.247 C  
HETATM    4  C   UNL     1      -9.271  18.693  66.419  1.00  0.00    -0.295 C  
HETATM    5  C   UNL     1      -7.409  19.362  68.075  1.00  0.00    -0.309 C  
HETATM    6  C   UNL     1      -7.239  17.320  66.820  1.00  0.00    -0.214 C  
HETATM    7  O   UNL     1      -7.126  17.177  65.604  1.00  0.00    -0.057 OA 
HETATM    8  O   UNL     1      -6.373  16.715  67.646  1.00  0.00    -0.131 OA 
HETATM    9  C   UNL     1     -10.671  19.185  66.877  1.00  0.00    -0.515 C  
HETATM   10  C   UNL     1     -11.409  18.248  67.895  1.00  0.00     0.634 C  
HETATM   11  C   UNL     1     -11.753  16.957  67.122  1.00  0.00     1.200 C  
HETATM   12  C   UNL     1     -12.754  18.781  68.487  1.00  0.00     8.416 C  
HETATM   13  C   UNL     1     -13.573  17.681  69.336  1.00  0.00    13.465 C  
HETATM   14  C   UNL     1     -12.778  16.999  70.527  1.00  0.00     5.393 C  
HETATM   15  C   UNL     1     -11.175  17.241  70.226  1.00  0.00     1.129 C  
HETATM   16  C   UNL     1     -12.989  18.014  71.710  1.00  0.00    13.432 C  
HETATM   17  C   UNL     1     -10.359  16.403  70.838  1.00  0.00     1.187 C  
HETATM   18  C   UNL     1     -11.106  15.196  70.473  1.00  0.00    -0.262 C  
HETATM   19  C   UNL     1     -11.802  14.603  71.609  1.00  0.00    -0.324 C  
HETATM   20  O   UNL     1     -11.301  14.859  69.306  1.00  0.00    -0.264 OA 
HETATM   21  C   UNL     1     -11.244  13.098  71.582  1.00  0.00     3.803 C  
HETATM   22  C   UNL     1     -11.289  12.584  73.039  1.00  0.00     9.755 C  
HETATM   23  C   UNL     1      -9.724  13.128  71.157  1.00  0.00     9.277 C  
HETATM   24  C   UNL     1      -8.988  11.903  70.643  1.00  0.00     6.708 C  
HETATM   25  C   UNL     1      -9.807  11.003  69.690  1.00  0.00     0.313 C  
HETATM   26  C   UNL     1     -11.226  10.710  70.381  1.00  0.00    -0.334 C  
HETATM   27  C   UNL     1     -13.930  14.059  70.402  1.00  0.00     1.403 C  
HETATM   28  C   UNL     1     -11.992  12.173  70.581  1.00  0.00    -0.233 C  
HETATM   29  C   UNL     1     -10.861   9.899  71.689  1.00  0.00     0.361 C  
HETATM   30  C   UNL     1     -11.961   9.645  69.547  1.00  0.00     0.420 C  
HETATM   31  C   UNL     1     -14.053  15.412  72.501  1.00  0.00    -0.593 C  
HETATM   32  C   UNL     1     -13.188  15.264  71.205  1.00  0.00    -0.563 C  
HETATM   33  C   UNL     1     -13.516  12.480  70.771  1.00  0.00     0.905 C  
ENDROOT
BRANCH  25  34
HETATM   34  O   UNL     1      -9.688  11.226  68.228  1.00  0.00    -0.183 OA 
BRANCH  34  35
HETATM   35  C   UNL     1      -9.368  10.139  67.302  1.00  0.00    -0.152 C  
HETATM   36  C   UNL     1      -8.273  11.236  64.798  1.00  0.00     0.560 C  
HETATM   37  O   UNL     1     -10.035  10.360  66.079  1.00  0.00    -0.218 OA 
HETATM   38  C   UNL     1     -10.652  12.018  64.326  1.00  0.00    -0.334 C  
HETATM   39  C   UNL     1      -9.625  11.520  65.392  1.00  0.00    -0.224 C  
HETATM   40  O   UNL     1      -7.775  12.430  64.176  1.00  0.00     3.490 OA 
HETATM   41  C   UNL     1      -7.294  10.766  65.871  1.00  0.00    -0.094 C  
HETATM   42  O   UNL     1     -11.696  11.498  63.982  1.00  0.00    -0.298 OA 
HETATM   43  O   UNL     1     -10.335  13.220  63.789  1.00  0.00    -0.248 OA 
HETATM   44  O   UNL     1      -6.227  10.099  65.147  1.00  0.00    -0.104 OA 
HETATM   45  H   UNL     1      -6.921  12.250  63.801  1.00  0.00     0.000 HD 
HETATM   46  C   UNL     1      -7.852   9.824  66.967  1.00  0.00    -0.102 C  
HETATM   47  H   UNL     1      -5.618   9.806  65.814  1.00  0.00     0.000 HD 
BRANCH  46  48
HETATM   48  O   UNL     1      -6.973   9.747  68.121  1.00  0.00    -0.075 OA 
BRANCH  48  49
HETATM   49  C   UNL     1      -7.399   8.769  69.096  1.00  0.00    -0.072 C  
HETATM   50  O   UNL     1      -8.802   8.500  68.998  1.00  0.00    -0.143 OA 
HETATM   51  C   UNL     1      -9.136   7.338  69.788  1.00  0.00    -0.141 C  
HETATM   52  C   UNL     1     -10.530   6.834  69.411  1.00  0.00    -0.217 C  
HETATM   53  C   UNL     1      -9.039   7.739  71.259  1.00  0.00    -0.137 C  
HETATM   54  O   UNL     1      -9.311   6.674  72.182  1.00  0.00    -0.143 OA 
HETATM   55  C   UNL     1      -7.614   8.222  71.576  1.00  0.00    -0.092 C  
HETATM   56  O   UNL     1     -11.105   7.577  68.437  1.00  0.00     0.044 OA 
HETATM   57  O   UNL     1     -11.067   5.844  69.886  1.00  0.00    -0.366 OA 
HETATM   58  O   UNL     1      -7.597   8.884  72.851  1.00  0.00    -0.359 OA 
HETATM   59  C   UNL     1      -6.939   9.124  70.522  1.00  0.00    -0.082 C  
HETATM   60  H   UNL     1      -9.251   6.924  73.097  1.00  0.00     0.000 HD 
HETATM   61  H   UNL     1      -6.716   9.182  73.046  1.00  0.00     0.000 HD 
HETATM   62  O   UNL     1      -5.503   8.872  70.565  1.00  0.00    -0.027 OA 
HETATM   63  H   UNL     1      -5.219   9.090  71.445  1.00  0.00     0.000 HD 
ENDBRANCH  48  49
ENDBRANCH  46  48
ENDBRANCH  34  35
ENDBRANCH  25  34
TORSDOF 4
ENDMDL
MODEL       89
REMARK 921   NORMALIZED FREE ENERGY PREDICTED BY IDOCK:   62.10 KCAL/MOL
REMARK 922        TOTAL FREE ENERGY PREDICTED BY IDOCK:   75.73 KCAL/MOL
REMARK 923 INTER-LIGAND FREE ENERGY PREDICTED BY IDOCK:   70.88 KCAL/MOL
REMARK 924 INTRA-LIGAND FREE ENERGY PREDICTED BY IDOCK:    4.84 KCAL/MOL
REMARK 927      BINDING AFFINITY PREDICTED BY RF-SCORE:    0.00 PKD
ROOT
HETATM    1  C   UNL     1     -10.545  18.235  69.141  1.00  0.00     0.349 C  
HETATM    2  C   UNL     1      -9.067  17.857  68.668  1.00  0.00    -0.263 C  
HETATM    3  C   UNL     1      -8.228  18.885  67.871  1.00  0.00    -0.305 C  
HETATM    4  C   UNL     1      -9.138  19.608  66.857  1.00  0.00    -0.415 C  
HETATM    5  C   UNL     1      -7.466  19.841  68.809  1.00  0.00    -0.320 C  
HETATM    6  C   UNL     1      -7.076  18.235  67.065  1.00  0.00    -0.196 C  
HETATM    7  O   UNL     1      -6.850  18.439  65.874  1.00  0.00    -0.247 OA 
HETATM    8  O   UNL     1      -6.255  17.448  67.775  1.00  0.00    -0.143 OA 
HETATM    9  C   UNL     1     -10.597  19.913  67.291  1.00  0.00    -0.519 C  
HETATM   10  C   UNL     1     -11.369  18.710  67.935  1.00  0.00     0.632 C  
HETATM   11  C   UNL     1     -11.573  17.676  66.808  1.00  0.00     1.654 C  
HETATM   12  C   UNL     1     -12.787  19.020  68.514  1.00  0.00     9.147 C  
HETATM   13  C   UNL     1     -13.616  17.704  68.943  1.00  0.00    11.148 C  
HETATM   14  C   UNL     1     -12.892  16.741  69.975  1.00  0.00     4.065 C  
HETATM   15  C   UNL     1     -11.286  17.102  69.912  1.00  0.00     0.722 C  
HETATM   16  C   UNL     1     -13.262  17.380  71.364  1.00  0.00    10.067 C  
HETATM   17  C   UNL     1     -10.481  16.149  70.348  1.00  0.00     0.067 C  
HETATM   18  C   UNL     1     -11.127  15.071  69.595  1.00  0.00    -0.273 C  
HETATM   19  C   UNL     1     -11.886  14.167  70.449  1.00  0.00    -0.367 C  
HETATM   20  O   UNL     1     -11.201  15.066  68.366  1.00  0.00    -0.267 OA 
HETATM   21  C   UNL     1     -11.248  12.744  70.066  1.00  0.00     0.222 C  
HETATM   22  C   UNL     1     -11.391  11.844  71.315  1.00  0.00     2.381 C  
HETATM   23  C   UNL     1      -9.700  12.934  69.819  1.00  0.00     2.011 C  
HETATM   24  C   UNL     1      -8.857  11.922  69.065  1.00  0.00     0.296 C  
HETATM   25  C   UNL     1      -9.538  11.300  67.825  1.00  0.00    -0.174 C  
HETATM   26  C   UNL     1     -10.995  10.786  68.265  1.00  0.00    -0.307 C  
HETATM   27  C   UNL     1     -13.868  13.920  68.935  1.00  0.00     6.555 C  
HETATM   28  C   UNL     1     -11.854  12.114  68.782  1.00  0.00    -0.356 C  
HETATM   29  C   UNL     1     -10.702   9.654  69.330  1.00  0.00    -0.248 C  
HETATM   30  C   UNL     1     -11.595   9.975  67.102  1.00  0.00     1.205 C  
HETATM   31  C   UNL     1     -14.247  14.633  71.302  1.00  0.00    -0.369 C  
HETATM   32  C   UNL     1     -13.265  14.875  70.107  1.00  0.00     0.133 C  
HETATM   33  C   UNL     1     -13.402  12.314  68.896  1.00  0.00     4.073 C  
ENDROOT
BRANCH  25  34
HETATM   34  O   UNL     1      -9.304  11.924  66.500  1.00  0.00    -0.205 OA 
BRANCH  34  35
HETATM   35  C   UNL     1      -8.948  11.131  65.322  1.00  0.00    -0.121 C  
HETATM   36  C   UNL     1      -8.324   8.366  66.118  1.00  0.00    -0.125 C  
HETATM   37  O   UNL     1      -7.682  10.544  65.523  1.00  0.00    -0.152 OA 
HETATM   38  C   UNL     1      -6.186   9.337  67.107  1.00  0.00    -0.058 C  
HETATM   39  C   UNL     1      -7.630   9.616  66.582  1.00  0.00    -0.098 C  
HETATM   40  O   UNL     1      -8.383   7.431  67.206  1.00  0.00    -0.117 OA 
HETATM   41  C   UNL     1      -9.735   8.675  65.627  1.00  0.00     0.141 C  
HETATM   42  O   UNL     1      -5.130   9.759  66.675  1.00  0.00    -0.039 OA 
HETATM   43  O   UNL     1      -6.154   8.578  68.228  1.00  0.00    -0.048 OA 
HETATM   44  O   UNL     1     -10.110   7.541  64.802  1.00  0.00     2.467 OA 
HETATM   45  H   UNL     1      -8.822   6.641  66.912  1.00  0.00     0.000 HD 
HETATM   46  C   UNL     1      -9.929   9.989  64.829  1.00  0.00    -0.178 C  
HETATM   47  H   UNL     1     -10.989   7.733  64.496  1.00  0.00     0.000 HD 
BRANCH  46  48
HETATM   48  O   UNL     1     -11.326  10.376  64.743  1.00  0.00     0.960 OA 
BRANCH  48  49
HETATM   49  C   UNL     1     -11.512  11.739  64.299  1.00  0.00    -0.307 C  
HETATM   50  O   UNL     1     -10.413  12.574  64.678  1.00  0.00    -0.292 OA 
HETATM   51  C   UNL     1     -10.501  13.844  63.993  1.00  0.00     0.621 C  
HETATM   52  C   UNL     1      -9.170  14.589  64.105  1.00  0.00     5.370 C  
HETATM   53  C   UNL     1     -11.660  14.622  64.613  1.00  0.00    -0.402 C  
HETATM   54  O   UNL     1     -11.901  15.903  64.014  1.00  0.00    -1.008 OA 
HETATM   55  C   UNL     1     -12.967  13.827  64.457  1.00  0.00     0.280 C  
HETATM   56  O   UNL     1      -8.240  13.892  64.797  1.00  0.00     5.105 OA 
HETATM   57  O   UNL     1      -8.933  15.673  63.592  1.00  0.00     8.728 OA 
HETATM   58  O   UNL     1     -13.985  14.393  65.297  1.00  0.00     0.288 OA 
HETATM   59  C   UNL     1     -12.885  12.306  64.706  1.00  0.00     0.037 C  
HETATM   60  H   UNL     1     -12.622  16.387  64.400  1.00  0.00     0.000 HD 
HETATM   61  H   UNL     1     -14.792  13.901  65.200  1.00  0.00     0.000 HD 
HETATM   62  O   UNL     1     -13.869  11.654  63.849  1.00  0.00     0.077 OA 
HETATM   63  H   UNL     1     -14.716  12.005  64.100  1.00  0.00     0.000 HD 
ENDBRANCH  48  49
ENDBRANCH  46  48
ENDBRANCH  34  35
ENDBRANCH  25  34
TORSDOF 4
ENDMDL
MODEL       90
REMARK 921   NORMALIZED FREE ENERGY PREDICTED BY IDOCK:   63.06 KCAL/MOL
REMARK 922        TOTAL FREE ENERGY PREDICTED BY IDOCK:   76.90 KCAL/MOL
REMARK 923 INTER-LIGAND FREE ENERGY PREDICTED BY IDOCK:   74.91 KCAL/MOL
REMARK 924 INTRA-LIGAND FREE ENERGY PREDICTED BY IDOCK:    2.00 KCAL/MOL
REMARK 927      BINDING AFFINITY PREDICTED BY RF-SCORE:    0.00 PKD
ROOT
HETATM    1  C   UNL     1      -8.288  17.312  69.115  1.00  0.00     0.017 C  
HETATM    2  C   UNL     1      -9.507  16.600  69.861  1.00  0.00     0.728 C  
HETATM    3  C   UNL     1      -9.999  17.145  71.224  1.00  0.00     4.260 C  
HETATM    4  C   UNL     1      -8.782  17.553  72.078  1.00  0.00    14.069 C  
HETATM    5  C   UNL     1     -11.033  18.273  71.042  1.00  0.00     3.009 C  
HETATM    6  C   UNL     1     -10.799  16.101  72.043  1.00  0.00     1.208 C  
HETATM    7  O   UNL     1     -10.587  15.821  73.221  1.00  0.00     2.372 OA 
HETATM    8  O   UNL     1     -11.827  15.533  71.396  1.00  0.00    -0.321 OA 
HETATM    9  C   UNL     1      -7.567  18.181  71.343  1.00  0.00     6.807 C  
HETATM   10  C   UNL     1      -7.086  17.411  70.066  1.00  0.00     0.937 C  
HETATM   11  C   UNL     1      -6.508  16.069  70.564  1.00  0.00     0.511 C  
HETATM   12  C   UNL     1      -5.961  18.091  69.221  1.00  0.00    -0.232 C  
HETATM   13  C   UNL     1      -5.351  17.145  68.066  1.00  0.00    -0.118 C  
HETATM   14  C   UNL     1      -6.404  16.545  67.042  1.00  0.00    -0.207 C  
HETATM   15  C   UNL     1      -7.880  16.648  67.766  1.00  0.00    -0.175 C  
HETATM   16  C   UNL     1      -6.542  17.693  65.975  1.00  0.00    -0.280 C  
HETATM   17  C   UNL     1      -8.798  15.829  67.284  1.00  0.00    -0.212 C  
HETATM   18  C   UNL     1      -7.939  14.641  67.298  1.00  0.00    -0.197 C  
HETATM   19  C   UNL     1      -7.541  14.221  65.961  1.00  0.00     3.490 C  
HETATM   20  O   UNL     1      -7.436  14.193  68.328  1.00  0.00    -0.104 OA 
HETATM   21  C   UNL     1      -8.019  12.688  65.946  1.00  0.00     1.667 C  
HETATM   22  C   UNL     1      -8.336  12.338  64.474  1.00  0.00     2.555 C  
HETATM   23  C   UNL     1      -9.377  12.573  66.742  1.00  0.00    -0.230 C  
HETATM   24  C   UNL     1      -9.910  11.254  67.273  1.00  0.00    -0.203 C  
HETATM   25  C   UNL     1      -8.841  10.312  67.872  1.00  0.00    -0.122 C  
HETATM   26  C   UNL     1      -7.640  10.189  66.813  1.00  0.00    -0.105 C  
HETATM   27  C   UNL     1      -5.155  13.690  66.513  1.00  0.00     2.727 C  
HETATM   28  C   UNL     1      -7.005  11.712  66.604  1.00  0.00    -0.026 C  
HETATM   29  C   UNL     1      -8.303   9.502  65.552  1.00  0.00    -0.137 C  
HETATM   30  C   UNL     1      -6.676   9.090  67.298  1.00  0.00    -0.069 C  
HETATM   31  C   UNL     1      -5.629  15.267  64.632  1.00  0.00    16.069 C  
HETATM   32  C   UNL     1      -6.123  14.924  66.076  1.00  0.00     6.140 C  
HETATM   33  C   UNL     1      -5.594  12.137  66.073  1.00  0.00     1.539 C  
ENDROOT
BRANCH  25  34
HETATM   34  O   UNL     1      -8.585  10.368  69.332  1.00  0.00    -0.165 OA 
BRANCH  34  35
HETATM   35  C   UNL     1      -9.537   9.835  70.307  1.00  0.00    -0.208 C  
HETATM   36  C   UNL     1     -11.952   8.863  68.932  1.00  0.00     1.974 C  
HETATM   37  O   UNL     1     -10.777  10.489  70.150  1.00  0.00    -0.268 OA 
HETATM   38  C   UNL     1     -12.491  11.324  68.548  1.00  0.00     0.719 C  
HETATM   39  C   UNL     1     -11.403  10.263  68.909  1.00  0.00    -0.173 C  
HETATM   40  O   UNL     1     -12.509   8.558  67.644  1.00  0.00     4.885 OA 
HETATM   41  C   UNL     1     -10.860   7.854  69.273  1.00  0.00    -0.064 C  
HETATM   42  O   UNL     1     -12.896  12.251  69.223  1.00  0.00     0.655 OA 
HETATM   43  O   UNL     1     -12.970  11.202  67.287  1.00  0.00     3.563 OA 
HETATM   44  O   UNL     1     -11.564   6.665  69.716  1.00  0.00    -0.550 OA 
HETATM   45  H   UNL     1     -12.856   7.673  67.658  1.00  0.00     0.000 HD 
HETATM   46  C   UNL     1      -9.822   8.278  70.343  1.00  0.00    -0.186 C  
HETATM   47  H   UNL     1     -10.884   6.036  69.929  1.00  0.00     0.000 HD 
BRANCH  46  48
HETATM   48  O   UNL     1      -8.637   7.437  70.319  1.00  0.00    -0.141 OA 
BRANCH  48  49
HETATM   49  C   UNL     1      -8.800   6.205  71.056  1.00  0.00    -0.139 C  
HETATM   50  O   UNL     1     -10.050   6.166  71.754  1.00  0.00    -0.182 OA 
HETATM   51  C   UNL     1     -10.295   4.830  72.248  1.00  0.00    -0.201 C  
HETATM   52  C   UNL     1     -11.760   4.692  72.667  1.00  0.00     0.282 C  
HETATM   53  C   UNL     1      -9.330   4.584  73.406  1.00  0.00    -0.115 C  
HETATM   54  O   UNL     1      -9.427   3.277  73.989  1.00  0.00    -0.091 OA 
HETATM   55  C   UNL     1      -7.880   4.725  72.917  1.00  0.00    -0.093 C  
HETATM   56  O   UNL     1     -12.467   5.828  72.471  1.00  0.00    -0.091 OA 
HETATM   57  O   UNL     1     -12.270   3.665  73.090  1.00  0.00     0.330 OA 
HETATM   58  O   UNL     1      -6.992   4.805  74.043  1.00  0.00    -0.072 OA 
HETATM   59  C   UNL     1      -7.587   5.892  71.951  1.00  0.00    -0.097 C  
HETATM   60  H   UNL     1      -8.827   3.123  74.709  1.00  0.00     0.000 HD 
HETATM   61  H   UNL     1      -6.095   4.892  73.740  1.00  0.00     0.000 HD 
HETATM   62  O   UNL     1      -6.512   5.478  71.055  1.00  0.00    -0.033 OA 
HETATM   63  H   UNL     1      -5.763   5.284  71.607  1.00  0.00     0.000 HD 
ENDBRANCH  48  49
ENDBRANCH  46  48
ENDBRANCH  34  35
ENDBRANCH  25  34
TORSDOF 4
ENDMDL
MODEL       91
REMARK 921   NORMALIZED FREE ENERGY PREDICTED BY IDOCK:   66.87 KCAL/MOL
REMARK 922        TOTAL FREE ENERGY PREDICTED BY IDOCK:   81.61 KCAL/MOL
REMARK 923 INTER-LIGAND FREE ENERGY PREDICTED BY IDOCK:   28.84 KCAL/MOL
REMARK 924 INTRA-LIGAND FREE ENERGY PREDICTED BY IDOCK:   52.77 KCAL/MOL
REMARK 927      BINDING AFFINITY PREDICTED BY RF-SCORE:    0.00 PKD
ROOT
HETATM    1  C   UNL     1      -7.711   9.833  70.636  1.00  0.00    -0.002 C  
HETATM    2  C   UNL     1      -9.168   9.194  70.764  1.00  0.00    -0.321 C  
HETATM    3  C   UNL     1      -9.324   7.711  71.180  1.00  0.00    -0.161 C  
HETATM    4  C   UNL     1      -8.236   6.869  70.483  1.00  0.00    -0.120 C  
HETATM    5  C   UNL     1      -9.341   7.553  72.713  1.00  0.00    -0.217 C  
HETATM    6  C   UNL     1     -10.693   7.107  70.777  1.00  0.00    -0.231 C  
HETATM    7  O   UNL     1     -10.842   6.045  70.177  1.00  0.00    -0.280 OA 
HETATM    8  O   UNL     1     -11.765   7.798  71.188  1.00  0.00    -0.279 OA 
HETATM    9  C   UNL     1      -6.837   7.517  70.296  1.00  0.00    -0.047 C  
HETATM   10  C   UNL     1      -6.846   8.969  69.705  1.00  0.00    -0.050 C  
HETATM   11  C   UNL     1      -7.343   8.839  68.250  1.00  0.00    -0.087 C  
HETATM   12  C   UNL     1      -5.469   9.705  69.638  1.00  0.00    -0.033 C  
HETATM   13  C   UNL     1      -5.510  11.088  68.809  1.00  0.00    -0.040 C  
HETATM   14  C   UNL     1      -6.582  12.151  69.297  1.00  0.00    -0.104 C  
HETATM   15  C   UNL     1      -7.697  11.324  70.185  1.00  0.00     1.369 C  
HETATM   16  C   UNL     1      -5.822  12.907  70.448  1.00  0.00    -0.152 C  
HETATM   17  C   UNL     1      -8.869  11.921  70.307  1.00  0.00     4.220 C  
HETATM   18  C   UNL     1      -9.004  12.244  68.884  1.00  0.00     0.281 C  
HETATM   19  C   UNL     1      -8.840  13.667  68.614  1.00  0.00    -0.023 C  
HETATM   20  O   UNL     1      -9.029  11.384  68.004  1.00  0.00    -0.150 OA 
HETATM   21  C   UNL     1     -10.198  14.008  67.830  1.00  0.00    -0.240 C  
HETATM   22  C   UNL     1     -10.509  15.496  68.110  1.00  0.00    -0.259 C  
HETATM   23  C   UNL     1     -11.375  13.170  68.468  1.00  0.00    -0.321 C  
HETATM   24  C   UNL     1     -12.694  12.928  67.754  1.00  0.00     1.413 C  
HETATM   25  C   UNL     1     -12.573  12.641  66.240  1.00  0.00     0.575 C  
HETATM   26  C   UNL     1     -11.642  13.778  65.592  1.00  0.00    -0.339 C  
HETATM   27  C   UNL     1      -7.459  13.417  66.537  1.00  0.00     1.434 C  
HETATM   28  C   UNL     1     -10.148  13.667  66.315  1.00  0.00    -0.301 C  
HETATM   29  C   UNL     1     -12.454  15.117  65.812  1.00  0.00     0.554 C  
HETATM   30  C   UNL     1     -11.691  13.630  64.060  1.00  0.00    -0.405 C  
HETATM   31  C   UNL     1      -6.582  14.840  68.397  1.00  0.00    -0.101 C  
HETATM   32  C   UNL     1      -7.330  13.486  68.158  1.00  0.00    -0.121 C  
HETATM   33  C   UNL     1      -8.757  14.177  65.807  1.00  0.00     1.179 C  
ENDROOT
BRANCH  25  34
HETATM   34  O   UNL     1     -12.498  11.229  65.790  1.00  0.00     1.257 OA 
BRANCH  34  35
HETATM   35  C   UNL     1     -12.005  10.864  64.462  1.00  0.00     1.749 C  
HETATM   36  C   UNL     1      -9.131  11.468  64.252  1.00  0.00     0.197 C  
HETATM   37  O   UNL     1     -11.389  11.987  63.871  1.00  0.00    -0.361 OA 
HETATM   38  C   UNL     1      -9.845  13.914  64.197  1.00  0.00     1.537 C  
HETATM   39  C   UNL     1     -10.238  12.443  64.544  1.00  0.00    -0.299 C  
HETATM   40  O   UNL     1      -7.967  11.843  65.004  1.00  0.00     0.690 OA 
HETATM   41  C   UNL     1      -9.545  10.046  64.616  1.00  0.00    -0.297 C  
HETATM   42  O   UNL     1     -10.359  14.662  63.387  1.00  0.00     2.889 OA 
HETATM   43  O   UNL     1      -8.845  14.404  64.966  1.00  0.00     1.819 OA 
HETATM   44  O   UNL     1      -8.636   9.184  63.884  1.00  0.00    -0.226 OA 
HETATM   45  H   UNL     1      -7.267  11.227  64.819  1.00  0.00     0.000 HD 
HETATM   46  C   UNL     1     -11.010   9.641  64.312  1.00  0.00     4.580 C  
HETATM   47  H   UNL     1      -8.893   8.298  64.111  1.00  0.00     0.000 HD 
BRANCH  46  48
HETATM   48  O   UNL     1     -11.404   8.439  65.026  1.00  0.00     7.420 OA 
BRANCH  48  49
HETATM   49  C   UNL     1     -10.332   7.864  65.806  1.00  0.00     1.640 C  
HETATM   50  O   UNL     1      -9.933   6.586  65.297  1.00  0.00     1.095 OA 
HETATM   51  C   UNL     1      -8.699   6.172  65.923  1.00  0.00    -0.154 C  
HETATM   52  C   UNL     1      -8.084   5.009  65.142  1.00  0.00    -0.112 C  
HETATM   53  C   UNL     1      -9.018   5.799  67.370  1.00  0.00    -0.108 C  
HETATM   54  O   UNL     1      -7.879   5.395  68.142  1.00  0.00    -0.090 OA 
HETATM   55  C   UNL     1      -9.620   7.011  68.101  1.00  0.00    -0.129 C  
HETATM   56  O   UNL     1      -8.823   4.658  64.065  1.00  0.00    -0.142 OA 
HETATM   57  O   UNL     1      -7.019   4.473  65.412  1.00  0.00    -0.059 OA 
HETATM   58  O   UNL     1     -10.203   6.590  69.344  1.00  0.00    -0.169 OA 
HETATM   59  C   UNL     1     -10.645   7.854  67.314  1.00  0.00    -0.295 C  
HETATM   60  H   UNL     1      -8.078   5.163  69.042  1.00  0.00     0.000 HD 
HETATM   61  H   UNL     1     -10.574   7.339  69.795  1.00  0.00     0.000 HD 
HETATM   62  O   UNL     1     -10.534   9.237  67.765  1.00  0.00    -0.233 OA 
HETATM   63  H   UNL     1     -10.726   9.231  68.696  1.00  0.00     0.000 HD 
ENDBRANCH  48  49
ENDBRANCH  46  48
ENDBRANCH  34  35
ENDBRANCH  25  34
TORSDOF 4
ENDMDL
MODEL       92
REMARK 921   NORMALIZED FREE ENERGY PREDICTED BY IDOCK:   72.99 KCAL/MOL
REMARK 922        TOTAL FREE ENERGY PREDICTED BY IDOCK:   89.16 KCAL/MOL
REMARK 923 INTER-LIGAND FREE ENERGY PREDICTED BY IDOCK:   82.08 KCAL/MOL
REMARK 924 INTRA-LIGAND FREE ENERGY PREDICTED BY IDOCK:    7.08 KCAL/MOL
REMARK 927      BINDING AFFINITY PREDICTED BY RF-SCORE:    0.00 PKD
ROOT
HETATM    1  C   UNL     1     -10.802   5.525  70.458  1.00  0.00    -0.266 C  
HETATM    2  C   UNL     1      -9.698   6.382  71.230  1.00  0.00    -0.189 C  
HETATM    3  C   UNL     1      -9.565   6.259  72.767  1.00  0.00    -0.155 C  
HETATM    4  C   UNL     1     -10.971   6.179  73.395  1.00  0.00    -0.181 C  
HETATM    5  C   UNL     1      -8.643   5.089  73.163  1.00  0.00    -0.110 C  
HETATM    6  C   UNL     1      -8.847   7.470  73.413  1.00  0.00    -0.192 C  
HETATM    7  O   UNL     1      -9.270   8.104  74.378  1.00  0.00     0.336 OA 
HETATM    8  O   UNL     1      -7.651   7.773  72.888  1.00  0.00    -0.091 OA 
HETATM    9  C   UNL     1     -12.064   5.405  72.611  1.00  0.00     0.021 C  
HETATM   10  C   UNL     1     -12.181   5.768  71.090  1.00  0.00     0.988 C  
HETATM   11  C   UNL     1     -12.703   7.219  71.033  1.00  0.00    -0.284 C  
HETATM   12  C   UNL     1     -13.170   4.908  70.240  1.00  0.00    13.305 C  
HETATM   13  C   UNL     1     -13.419   5.481  68.753  1.00  0.00    17.103 C  
HETATM   14  C   UNL     1     -12.117   5.698  67.873  1.00  0.00     4.683 C  
HETATM   15  C   UNL     1     -10.844   5.763  68.919  1.00  0.00    -0.305 C  
HETATM   16  C   UNL     1     -11.881   4.275  67.245  1.00  0.00     8.574 C  
HETATM   17  C   UNL     1      -9.764   6.359  68.449  1.00  0.00    -0.131 C  
HETATM   18  C   UNL     1     -10.474   7.527  67.921  1.00  0.00    -0.204 C  
HETATM   19  C   UNL     1     -10.535   7.535  66.465  1.00  0.00    -0.021 C  
HETATM   20  O   UNL     1     -11.131   8.287  68.632  1.00  0.00     0.128 OA 
HETATM   21  C   UNL     1      -9.902   8.971  66.120  1.00  0.00    -0.349 C  
HETATM   22  C   UNL     1      -9.248   8.843  64.726  1.00  0.00     0.103 C  
HETATM   23  C   UNL     1      -8.737   9.269  67.143  1.00  0.00    -0.134 C  
HETATM   24  C   UNL     1      -8.189  10.665  67.381  1.00  0.00    -0.115 C  
HETATM   25  C   UNL     1      -9.252  11.786  67.418  1.00  0.00    -0.174 C  
HETATM   26  C   UNL     1     -10.183  11.628  66.119  1.00  0.00    -0.263 C  
HETATM   27  C   UNL     1     -12.912   8.303  66.270  1.00  0.00    16.795 C  
HETATM   28  C   UNL     1     -10.921  10.140  66.216  1.00  0.00     0.182 C  
HETATM   29  C   UNL     1      -9.201  11.872  64.904  1.00  0.00     0.217 C  
HETATM   30  C   UNL     1     -11.104  12.860  66.030  1.00  0.00    -0.308 C  
HETATM   31  C   UNL     1     -12.227   6.210  65.086  1.00  0.00     6.708 C  
HETATM   32  C   UNL     1     -12.013   6.958  66.445  1.00  0.00     3.924 C  
HETATM   33  C   UNL     1     -12.226   9.630  65.517  1.00  0.00     9.135 C  
ENDROOT
BRANCH  25  34
HETATM   34  O   UNL     1      -9.813  12.188  68.731  1.00  0.00    -0.145 OA 
BRANCH  34  35
HETATM   35  C   UNL     1      -9.047  12.983  69.691  1.00  0.00     1.985 C  
HETATM   36  C   UNL     1      -6.750  14.245  68.350  1.00  0.00    -0.104 C  
HETATM   37  O   UNL     1      -7.702  12.558  69.676  1.00  0.00     0.658 OA 
HETATM   38  C   UNL     1      -5.752  11.901  68.273  1.00  0.00    -0.050 C  
HETATM   39  C   UNL     1      -7.036  12.772  68.453  1.00  0.00    -0.095 C  
HETATM   40  O   UNL     1      -6.162  14.519  67.069  1.00  0.00    -0.230 OA 
HETATM   41  C   UNL     1      -8.028  15.062  68.517  1.00  0.00    -0.144 C  
HETATM   42  O   UNL     1      -5.239  11.138  69.068  1.00  0.00    -0.041 OA 
HETATM   43  O   UNL     1      -5.211  11.985  67.035  1.00  0.00    -0.143 OA 
HETATM   44  O   UNL     1      -7.582  16.400  68.862  1.00  0.00    -0.196 OA 
HETATM   45  H   UNL     1      -5.981  15.449  67.004  1.00  0.00     0.000 HD 
HETATM   46  C   UNL     1      -9.049  14.562  69.569  1.00  0.00     0.342 C  
HETATM   47  H   UNL     1      -8.378  16.909  68.966  1.00  0.00     0.000 HD 
BRANCH  46  48
HETATM   48  O   UNL     1     -10.360  15.161  69.386  1.00  0.00    -0.236 OA 
BRANCH  48  49
HETATM   49  C   UNL     1     -11.379  14.562  70.219  1.00  0.00    -0.171 C  
HETATM   50  O   UNL     1     -11.477  15.217  71.489  1.00  0.00    -0.355 OA 
HETATM   51  C   UNL     1     -12.669  14.778  72.177  1.00  0.00    -0.326 C  
HETATM   52  C   UNL     1     -12.972  15.718  73.345  1.00  0.00    -0.583 C  
HETATM   53  C   UNL     1     -12.434  13.339  72.632  1.00  0.00     0.655 C  
HETATM   54  O   UNL     1     -13.549  12.742  73.308  1.00  0.00    -0.003 OA 
HETATM   55  C   UNL     1     -12.148  12.445  71.413  1.00  0.00     0.551 C  
HETATM   56  O   UNL     1     -12.074  16.725  73.448  1.00  0.00    -0.422 OA 
HETATM   57  O   UNL     1     -13.938  15.620  74.086  1.00  0.00     1.018 OA 
HETATM   58  O   UNL     1     -11.625  11.181  71.848  1.00  0.00     1.057 OA 
HETATM   59  C   UNL     1     -11.225  13.034  70.326  1.00  0.00     0.599 C  
HETATM   60  H   UNL     1     -13.402  11.847  73.591  1.00  0.00     0.000 HD 
HETATM   61  H   UNL     1     -11.449  10.629  71.095  1.00  0.00     0.000 HD 
HETATM   62  O   UNL     1     -11.639  12.489  69.038  1.00  0.00    -0.273 OA 
HETATM   63  H   UNL     1     -11.545  11.545  69.104  1.00  0.00     0.000 HD 
ENDBRANCH  48  49
ENDBRANCH  46  48
ENDBRANCH  34  35
ENDBRANCH  25  34
TORSDOF 4
ENDMDL
MODEL       93
REMARK 921   NORMALIZED FREE ENERGY PREDICTED BY IDOCK:   74.80 KCAL/MOL
REMARK 922        TOTAL FREE ENERGY PREDICTED BY IDOCK:   91.40 KCAL/MOL
REMARK 923 INTER-LIGAND FREE ENERGY PREDICTED BY IDOCK:   11.52 KCAL/MOL
REMARK 924 INTRA-LIGAND FREE ENERGY PREDICTED BY IDOCK:   79.88 KCAL/MOL
REMARK 927      BINDING AFFINITY PREDICTED BY RF-SCORE:    0.00 PKD
ROOT
HETATM    1  C   UNL     1      -7.338   8.603  71.893  1.00  0.00    -0.092 C  
HETATM    2  C   UNL     1      -6.588   9.089  70.570  1.00  0.00    -0.054 C  
HETATM    3  C   UNL     1      -6.511  10.600  70.240  1.00  0.00    -0.138 C  
HETATM    4  C   UNL     1      -7.861  11.264  70.578  1.00  0.00     2.841 C  
HETATM    5  C   UNL     1      -5.304  11.267  70.926  1.00  0.00    -0.117 C  
HETATM    6  C   UNL     1      -6.229  10.881  68.743  1.00  0.00    -0.044 C  
HETATM    7  O   UNL     1      -6.877  11.653  68.039  1.00  0.00    -0.067 OA 
HETATM    8  O   UNL     1      -5.152  10.262  68.238  1.00  0.00    -0.036 OA 
HETATM    9  C   UNL     1      -8.625  10.744  71.825  1.00  0.00     8.177 C  
HETATM   10  C   UNL     1      -8.759   9.185  71.925  1.00  0.00     0.265 C  
HETATM   11  C   UNL     1      -9.690   8.758  70.771  1.00  0.00    -0.257 C  
HETATM   12  C   UNL     1      -9.394   8.621  73.237  1.00  0.00     0.247 C  
HETATM   13  C   UNL     1      -9.719   7.042  73.177  1.00  0.00    -0.215 C  
HETATM   14  C   UNL     1      -8.495   6.102  72.811  1.00  0.00    -0.123 C  
HETATM   15  C   UNL     1      -7.363   7.058  72.090  1.00  0.00    -0.082 C  
HETATM   16  C   UNL     1      -7.808   5.868  74.206  1.00  0.00    -0.100 C  
HETATM   17  C   UNL     1      -6.487   6.417  71.337  1.00  0.00    -0.050 C  
HETATM   18  C   UNL     1      -7.485   5.617  70.622  1.00  0.00    -0.085 C  
HETATM   19  C   UNL     1      -7.463   4.213  71.014  1.00  0.00    -0.047 C  
HETATM   20  O   UNL     1      -8.379   6.118  69.941  1.00  0.00    -0.124 OA 
HETATM   21  C   UNL     1      -7.274   3.483  69.596  1.00  0.00    -0.042 C  
HETATM   22  C   UNL     1      -6.534   2.155  69.878  1.00  0.00    -0.029 C  
HETATM   23  C   UNL     1      -6.312   4.358  68.700  1.00  0.00    -0.036 C  
HETATM   24  C   UNL     1      -6.224   4.201  67.192  1.00  0.00    -0.036 C  
HETATM   25  C   UNL     1      -7.576   3.966  66.481  1.00  0.00    -0.088 C  
HETATM   26  C   UNL     1      -8.342   2.783  67.248  1.00  0.00    -0.096 C  
HETATM   27  C   UNL     1      -9.947   3.886  71.087  1.00  0.00    -0.169 C  
HETATM   28  C   UNL     1      -8.601   3.291  68.811  1.00  0.00    -0.120 C  
HETATM   29  C   UNL     1      -7.412   1.520  67.043  1.00  0.00    -0.059 C  
HETATM   30  C   UNL     1      -9.584   2.394  66.425  1.00  0.00     0.301 C  
HETATM   31  C   UNL     1      -8.597   3.283  73.103  1.00  0.00    -0.081 C  
HETATM   32  C   UNL     1      -8.696   4.387  71.999  1.00  0.00    -0.125 C  
HETATM   33  C   UNL     1      -9.651   2.789  69.859  1.00  0.00    -0.088 C  
ENDROOT
BRANCH  25  34
HETATM   34  O   UNL     1      -8.305   5.140  65.941  1.00  0.00    -0.113 OA 
BRANCH  34  35
HETATM   35  C   UNL     1      -9.274   5.887  66.745  1.00  0.00    -0.133 C  
HETATM   36  C   UNL     1      -7.882   7.866  68.422  1.00  0.00    -0.120 C  
HETATM   37  O   UNL     1      -8.923   5.786  68.107  1.00  0.00    -0.115 OA 
HETATM   38  C   UNL     1      -7.084   5.866  69.784  1.00  0.00    -0.068 C  
HETATM   39  C   UNL     1      -7.687   6.375  68.436  1.00  0.00    -0.104 C  
HETATM   40  O   UNL     1      -6.618   8.506  68.653  1.00  0.00    -0.053 OA 
HETATM   41  C   UNL     1      -8.458   8.328  67.087  1.00  0.00    -0.123 C  
HETATM   42  O   UNL     1      -7.576   5.098  70.589  1.00  0.00    -0.068 OA 
HETATM   43  O   UNL     1      -5.824   6.305  70.015  1.00  0.00    -0.017 OA 
HETATM   44  O   UNL     1      -9.024   9.639  67.348  1.00  0.00    -0.130 OA 
HETATM   45  H   UNL     1      -6.742   9.448  68.644  1.00  0.00     0.000 HD 
HETATM   46  C   UNL     1      -9.528   7.418  66.431  1.00  0.00    -0.134 C  
HETATM   47  H   UNL     1      -9.382   9.927  66.517  1.00  0.00     0.000 HD 
BRANCH  46  48
HETATM   48  O   UNL     1      -9.724   7.731  65.026  1.00  0.00     1.253 OA 
BRANCH  48  49
HETATM   49  C   UNL     1      -9.424   9.108  64.703  1.00  0.00     0.312 C  
HETATM   50  O   UNL     1     -10.502   9.734  63.999  1.00  0.00     1.084 OA 
HETATM   51  C   UNL     1     -10.283  11.161  63.935  1.00  0.00    -0.362 C  
HETATM   52  C   UNL     1     -11.575  11.868  63.518  1.00  0.00    -0.441 C  
HETATM   53  C   UNL     1      -9.140  11.408  62.953  1.00  0.00    -0.222 C  
HETATM   54  O   UNL     1      -8.776  12.787  62.803  1.00  0.00     2.028 OA 
HETATM   55  C   UNL     1      -7.872  10.684  63.435  1.00  0.00     0.059 C  
HETATM   56  O   UNL     1     -12.599  11.005  63.321  1.00  0.00     0.646 OA 
HETATM   57  O   UNL     1     -11.706  13.078  63.415  1.00  0.00    -0.504 OA 
HETATM   58  O   UNL     1      -6.899  10.650  62.379  1.00  0.00    -0.159 OA 
HETATM   59  C   UNL     1      -8.061   9.261  64.002  1.00  0.00    -0.150 C  
HETATM   60  H   UNL     1      -8.065  12.941  62.192  1.00  0.00     0.000 HD 
HETATM   61  H   UNL     1      -6.116  10.203  62.677  1.00  0.00     0.000 HD 
HETATM   62  O   UNL     1      -7.046   9.045  65.027  1.00  0.00    -0.085 OA 
HETATM   63  H   UNL     1      -6.205   9.140  64.595  1.00  0.00     0.000 HD 
ENDBRANCH  48  49
ENDBRANCH  46  48
ENDBRANCH  34  35
ENDBRANCH  25  34
TORSDOF 4
ENDMDL
MODEL       94
REMARK 921   NORMALIZED FREE ENERGY PREDICTED BY IDOCK:   75.49 KCAL/MOL
REMARK 922        TOTAL FREE ENERGY PREDICTED BY IDOCK:   92.24 KCAL/MOL
REMARK 923 INTER-LIGAND FREE ENERGY PREDICTED BY IDOCK:   58.62 KCAL/MOL
REMARK 924 INTRA-LIGAND FREE ENERGY PREDICTED BY IDOCK:   33.62 KCAL/MOL
REMARK 927      BINDING AFFINITY PREDICTED BY RF-SCORE:    0.00 PKD
ROOT
HETATM    1  C   UNL     1      -8.374  13.785  65.661  1.00  0.00     2.564 C  
HETATM    2  C   UNL     1      -9.794  13.936  66.374  1.00  0.00    -0.304 C  
HETATM    3  C   UNL     1     -10.387  15.346  66.617  1.00  0.00    -0.281 C  
HETATM    4  C   UNL     1      -9.262  16.302  67.061  1.00  0.00    -0.230 C  
HETATM    5  C   UNL     1     -11.176  15.845  65.391  1.00  0.00    -0.100 C  
HETATM    6  C   UNL     1     -11.466  15.367  67.728  1.00  0.00    -0.278 C  
HETATM    7  O   UNL     1     -11.486  16.154  68.673  1.00  0.00    -0.373 OA 
HETATM    8  O   UNL     1     -12.466  14.487  67.572  1.00  0.00    -0.114 OA 
HETATM    9  C   UNL     1      -7.862  16.110  66.418  1.00  0.00    -0.197 C  
HETATM   10  C   UNL     1      -7.330  14.636  66.400  1.00  0.00     2.077 C  
HETATM   11  C   UNL     1      -7.069  14.254  67.873  1.00  0.00    -0.169 C  
HETATM   12  C   UNL     1      -5.991  14.385  65.634  1.00  0.00    10.145 C  
HETATM   13  C   UNL     1      -5.383  12.907  65.853  1.00  0.00     4.174 C  
HETATM   14  C   UNL     1      -6.354  11.704  65.500  1.00  0.00     1.399 C  
HETATM   15  C   UNL     1      -7.885  12.315  65.501  1.00  0.00     2.061 C  
HETATM   16  C   UNL     1      -6.134  11.523  63.953  1.00  0.00     2.319 C  
HETATM   17  C   UNL     1      -8.844  11.421  65.662  1.00  0.00    -0.080 C  
HETATM   18  C   UNL     1      -8.210  10.747  66.799  1.00  0.00    -0.135 C  
HETATM   19  C   UNL     1      -7.691   9.430  66.452  1.00  0.00    -0.097 C  
HETATM   20  O   UNL     1      -7.951  11.321  67.856  1.00  0.00    -0.111 OA 
HETATM   21  C   UNL     1      -8.413   8.498  67.542  1.00  0.00    -0.128 C  
HETATM   22  C   UNL     1      -8.558   7.099  66.900  1.00  0.00    -0.124 C  
HETATM   23  C   UNL     1      -9.876   9.041  67.783  1.00  0.00    -0.209 C  
HETATM   24  C   UNL     1     -10.698   8.674  69.006  1.00  0.00    -0.122 C  
HETATM   25  C   UNL     1      -9.907   8.620  70.332  1.00  0.00    -0.183 C  
HETATM   26  C   UNL     1      -8.598   7.722  70.092  1.00  0.00    -0.139 C  
HETATM   27  C   UNL     1      -5.540   9.612  67.725  1.00  0.00    -0.040 C  
HETATM   28  C   UNL     1      -7.690   8.471  68.917  1.00  0.00    -0.100 C  
HETATM   29  C   UNL     1      -9.168   6.285  69.760  1.00  0.00    -0.150 C  
HETATM   30  C   UNL     1      -7.918   7.482  71.453  1.00  0.00    -0.095 C  
HETATM   31  C   UNL     1      -5.451   9.023  65.297  1.00  0.00    -0.038 C  
HETATM   32  C   UNL     1      -6.208   9.971  66.285  1.00  0.00    -0.070 C  
HETATM   33  C   UNL     1      -6.164   8.327  68.596  1.00  0.00    -0.045 C  
ENDROOT
BRANCH  25  34
HETATM   34  O   UNL     1      -9.868   9.834  71.184  1.00  0.00    -0.087 OA 
BRANCH  34  35
HETATM   35  C   UNL     1     -10.582   9.909  72.459  1.00  0.00     3.522 C  
HETATM   36  C   UNL     1     -13.248  11.091  72.055  1.00  0.00    -0.342 C  
HETATM   37  O   UNL     1     -10.992  11.239  72.685  1.00  0.00     7.222 OA 
HETATM   38  C   UNL     1     -12.009  13.289  71.701  1.00  0.00     0.894 C  
HETATM   39  C   UNL     1     -11.922  11.730  71.748  1.00  0.00     1.385 C  
HETATM   40  O   UNL     1     -14.202  11.488  71.057  1.00  0.00     2.225 OA 
HETATM   41  C   UNL     1     -13.128   9.570  72.078  1.00  0.00    -0.438 C  
HETATM   42  O   UNL     1     -11.437  14.099  72.406  1.00  0.00     0.886 OA 
HETATM   43  O   UNL     1     -12.776  13.759  70.690  1.00  0.00    -0.313 OA 
HETATM   44  O   UNL     1     -14.289   9.107  72.817  1.00  0.00    -0.897 OA 
HETATM   45  H   UNL     1     -15.039  11.083  71.251  1.00  0.00     0.000 HD 
HETATM   46  C   UNL     1     -11.840   8.976  72.701  1.00  0.00     0.211 C  
HETATM   47  H   UNL     1     -14.215   8.160  72.831  1.00  0.00     0.000 HD 
BRANCH  46  48
HETATM   48  O   UNL     1     -11.648   7.583  72.337  1.00  0.00    -0.294 OA 
BRANCH  48  49
HETATM   49  C   UNL     1     -11.357   7.397  70.934  1.00  0.00    -0.276 C  
HETATM   50  O   UNL     1     -12.263   8.133  70.103  1.00  0.00     0.377 OA 
HETATM   51  C   UNL     1     -11.781   8.143  68.741  1.00  0.00     1.642 C  
HETATM   52  C   UNL     1     -12.527   9.207  67.933  1.00  0.00     6.818 C  
HETATM   53  C   UNL     1     -11.975   6.738  68.174  1.00  0.00     1.940 C  
HETATM   54  O   UNL     1     -11.511   6.573  66.827  1.00  0.00    -0.774 OA 
HETATM   55  C   UNL     1     -11.193   5.720  69.020  1.00  0.00     0.069 C  
HETATM   56  O   UNL     1     -13.436   9.881  68.675  1.00  0.00     4.481 OA 
HETATM   57  O   UNL     1     -12.309   9.472  66.760  1.00  0.00     5.169 OA 
HETATM   58  O   UNL     1     -11.614   4.387  68.692  1.00  0.00     4.776 OA 
HETATM   59  C   UNL     1     -11.243   5.910  70.551  1.00  0.00    -0.223 C  
HETATM   60  H   UNL     1     -11.632   5.699  66.474  1.00  0.00     0.000 HD 
HETATM   61  H   UNL     1     -11.130   3.758  69.215  1.00  0.00     0.000 HD 
HETATM   62  O   UNL     1      -9.979   5.439  71.106  1.00  0.00    -0.179 OA 
HETATM   63  H   UNL     1      -9.908   4.521  70.869  1.00  0.00     0.000 HD 
ENDBRANCH  48  49
ENDBRANCH  46  48
ENDBRANCH  34  35
ENDBRANCH  25  34
TORSDOF 4
ENDMDL
MODEL       95
REMARK 921   NORMALIZED FREE ENERGY PREDICTED BY IDOCK:   75.57 KCAL/MOL
REMARK 922        TOTAL FREE ENERGY PREDICTED BY IDOCK:   92.34 KCAL/MOL
REMARK 923 INTER-LIGAND FREE ENERGY PREDICTED BY IDOCK:   84.45 KCAL/MOL
REMARK 924 INTRA-LIGAND FREE ENERGY PREDICTED BY IDOCK:    7.89 KCAL/MOL
REMARK 927      BINDING AFFINITY PREDICTED BY RF-SCORE:    0.00 PKD
ROOT
HETATM    1  C   UNL     1      -8.894  10.484  72.434  1.00  0.00     9.541 C  
HETATM    2  C   UNL     1     -10.439  10.154  72.207  1.00  0.00     3.967 C  
HETATM    3  C   UNL     1     -10.980   8.740  72.533  1.00  0.00    -0.095 C  
HETATM    4  C   UNL     1      -9.952   7.684  72.078  1.00  0.00    -0.220 C  
HETATM    5  C   UNL     1     -11.378   8.616  74.017  1.00  0.00     5.561 C  
HETATM    6  C   UNL     1     -12.312   8.418  71.811  1.00  0.00    -0.331 C  
HETATM    7  O   UNL     1     -12.530   7.397  71.162  1.00  0.00    -0.336 OA 
HETATM    8  O   UNL     1     -13.290   9.318  71.988  1.00  0.00    -0.386 OA 
HETATM    9  C   UNL     1      -8.448   8.033  72.233  1.00  0.00    -0.206 C  
HETATM   10  C   UNL     1      -8.030   9.447  71.699  1.00  0.00     0.555 C  
HETATM   11  C   UNL     1      -8.196   9.395  70.166  1.00  0.00    -0.180 C  
HETATM   12  C   UNL     1      -6.555   9.889  71.969  1.00  0.00     0.924 C  
HETATM   13  C   UNL     1      -6.128  11.237  71.195  1.00  0.00     0.545 C  
HETATM   14  C   UNL     1      -7.048  12.502  71.457  1.00  0.00     5.983 C  
HETATM   15  C   UNL     1      -8.479  11.933  72.043  1.00  0.00    17.496 C  
HETATM   16  C   UNL     1      -6.436  13.110  72.772  1.00  0.00     3.538 C  
HETATM   17  C   UNL     1      -9.504  12.756  71.912  1.00  0.00    17.955 C  
HETATM   18  C   UNL     1      -9.242  13.075  70.506  1.00  0.00     6.299 C  
HETATM   19  C   UNL     1      -8.739  14.430  70.322  1.00  0.00     1.716 C  
HETATM   20  O   UNL     1      -9.237  12.222  69.618  1.00  0.00     1.292 OA 
HETATM   21  C   UNL     1      -9.785  15.025  69.259  1.00  0.00    -0.192 C  
HETATM   22  C   UNL     1      -9.848  16.550  69.506  1.00  0.00    -0.080 C  
HETATM   23  C   UNL     1     -11.220  14.453  69.588  1.00  0.00    -0.274 C  
HETATM   24  C   UNL     1     -12.361  14.469  68.586  1.00  0.00    -0.040 C  
HETATM   25  C   UNL     1     -11.957  14.137  67.132  1.00  0.00    -0.426 C  
HETATM   26  C   UNL     1     -10.695  15.052  66.747  1.00  0.00    -0.308 C  
HETATM   27  C   UNL     1      -6.998  13.871  68.608  1.00  0.00    -0.108 C  
HETATM   28  C   UNL     1      -9.458  14.654  67.787  1.00  0.00    -0.205 C  
HETATM   29  C   UNL     1     -11.251  16.530  66.815  1.00  0.00     0.335 C  
HETATM   30  C   UNL     1     -10.420  14.890  65.240  1.00  0.00    -0.427 C  
HETATM   31  C   UNL     1      -6.304  15.120  70.660  1.00  0.00     0.117 C  
HETATM   32  C   UNL     1      -7.232  13.941  70.217  1.00  0.00     0.795 C  
HETATM   33  C   UNL     1      -7.915  14.865  67.624  1.00  0.00    -0.184 C  
ENDROOT
BRANCH  25  34
HETATM   34  O   UNL     1     -12.066  12.732  66.669  1.00  0.00    -0.468 OA 
BRANCH  34  35
HETATM   35  C   UNL     1     -12.888  12.356  65.517  1.00  0.00     0.765 C  
HETATM   36  C   UNL     1     -11.528  13.113  63.018  1.00  0.00     0.606 C  
HETATM   37  O   UNL     1     -13.107  13.494  64.713  1.00  0.00    -0.680 OA 
HETATM   38  C   UNL     1     -12.097  15.513  63.661  1.00  0.00     0.729 C  
HETATM   39  C   UNL     1     -11.941  14.033  64.134  1.00  0.00    -0.408 C  
HETATM   40  O   UNL     1     -10.284  13.574  62.468  1.00  0.00     3.715 OA 
HETATM   41  C   UNL     1     -11.371  11.681  63.520  1.00  0.00    -0.354 C  
HETATM   42  O   UNL     1     -13.096  16.207  63.669  1.00  0.00     0.350 OA 
HETATM   43  O   UNL     1     -10.935  16.080  63.261  1.00  0.00     1.283 OA 
HETATM   44  O   UNL     1     -11.440  10.850  62.332  1.00  0.00     0.252 OA 
HETATM   45  H   UNL     1     -10.023  12.993  61.763  1.00  0.00     0.000 HD 
HETATM   46  C   UNL     1     -12.403  11.187  64.565  1.00  0.00     1.553 C  
HETATM   47  H   UNL     1     -11.343   9.958  62.644  1.00  0.00     0.000 HD 
BRANCH  46  48
HETATM   48  O   UNL     1     -11.956   9.986  65.249  1.00  0.00     3.689 OA 
BRANCH  48  49
HETATM   49  C   UNL     1     -10.523   9.803  65.198  1.00  0.00     0.676 C  
HETATM   50  O   UNL     1     -10.154   8.439  65.430  1.00  0.00     0.759 OA 
HETATM   51  C   UNL     1      -8.760   8.245  65.106  1.00  0.00    -0.054 C  
HETATM   52  C   UNL     1      -8.452   6.750  65.002  1.00  0.00     0.012 C  
HETATM   53  C   UNL     1      -7.935   8.937  66.189  1.00  0.00    -0.106 C  
HETATM   54  O   UNL     1      -6.516   8.863  65.991  1.00  0.00    -0.059 OA 
HETATM   55  C   UNL     1      -8.280  10.434  66.233  1.00  0.00    -0.144 C  
HETATM   56  O   UNL     1      -9.542   5.978  65.225  1.00  0.00     0.337 OA 
HETATM   57  O   UNL     1      -7.364   6.281  64.704  1.00  0.00    -0.064 OA 
HETATM   58  O   UNL     1      -7.753  11.020  67.433  1.00  0.00    -0.107 OA 
HETATM   59  C   UNL     1      -9.772  10.804  66.096  1.00  0.00    -0.207 C  
HETATM   60  H   UNL     1      -6.003   9.293  66.665  1.00  0.00     0.000 HD 
HETATM   61  H   UNL     1      -7.966  11.946  67.460  1.00  0.00     0.000 HD 
HETATM   62  O   UNL     1      -9.857  12.098  65.428  1.00  0.00    -0.248 OA 
HETATM   63  H   UNL     1      -9.393  12.715  65.982  1.00  0.00     0.000 HD 
ENDBRANCH  48  49
ENDBRANCH  46  48
ENDBRANCH  34  35
ENDBRANCH  25  34
TORSDOF 4
ENDMDL
MODEL       96
REMARK 921   NORMALIZED FREE ENERGY PREDICTED BY IDOCK:   78.00 KCAL/MOL
REMARK 922        TOTAL FREE ENERGY PREDICTED BY IDOCK:   95.34 KCAL/MOL
REMARK 923 INTER-LIGAND FREE ENERGY PREDICTED BY IDOCK:   42.46 KCAL/MOL
REMARK 924 INTRA-LIGAND FREE ENERGY PREDICTED BY IDOCK:   52.88 KCAL/MOL
REMARK 927      BINDING AFFINITY PREDICTED BY RF-SCORE:    0.00 PKD
ROOT
HETATM    1  C   UNL     1     -10.292  18.378  66.517  1.00  0.00    -0.426 C  
HETATM    2  C   UNL     1     -10.357  18.327  68.112  1.00  0.00    -0.393 C  
HETATM    3  C   UNL     1      -9.707  19.458  68.945  1.00  0.00    -0.502 C  
HETATM    4  C   UNL     1      -8.365  19.859  68.299  1.00  0.00    -0.251 C  
HETATM    5  C   UNL     1     -10.675  20.641  69.144  1.00  0.00     0.655 C  
HETATM    6  C   UNL     1      -9.402  19.039  70.404  1.00  0.00     1.898 C  
HETATM    7  O   UNL     1      -8.320  19.195  70.968  1.00  0.00     3.117 OA 
HETATM    8  O   UNL     1     -10.441  18.531  71.082  1.00  0.00     1.885 OA 
HETATM    9  C   UNL     1      -8.280  19.841  66.749  1.00  0.00    -0.344 C  
HETATM   10  C   UNL     1      -8.834  18.545  66.064  1.00  0.00     0.018 C  
HETATM   11  C   UNL     1      -7.871  17.404  66.457  1.00  0.00    -0.320 C  
HETATM   12  C   UNL     1      -8.897  18.552  64.502  1.00  0.00     6.497 C  
HETATM   13  C   UNL     1      -9.248  17.115  63.858  1.00  0.00    11.264 C  
HETATM   14  C   UNL     1     -10.587  16.439  64.375  1.00  0.00     0.925 C  
HETATM   15  C   UNL     1     -10.963  17.167  65.805  1.00  0.00     0.107 C  
HETATM   16  C   UNL     1     -11.681  17.081  63.445  1.00  0.00     5.789 C  
HETATM   17  C   UNL     1     -11.766  16.472  66.591  1.00  0.00     1.235 C  
HETATM   18  C   UNL     1     -11.025  15.214  66.461  1.00  0.00    -0.318 C  
HETATM   19  C   UNL     1     -11.735  14.226  65.658  1.00  0.00    -0.358 C  
HETATM   20  O   UNL     1      -9.849  15.093  66.803  1.00  0.00    -0.231 OA 
HETATM   21  C   UNL     1     -11.788  12.971  66.658  1.00  0.00    -0.455 C  
HETATM   22  C   UNL     1     -13.056  12.166  66.290  1.00  0.00     3.645 C  
HETATM   23  C   UNL     1     -12.000  13.505  68.129  1.00  0.00    -0.376 C  
HETATM   24  C   UNL     1     -11.705  12.665  69.359  1.00  0.00    -0.387 C  
HETATM   25  C   UNL     1     -10.427  11.801  69.267  1.00  0.00     0.060 C  
HETATM   26  C   UNL     1     -10.474  10.992  67.881  1.00  0.00    -0.223 C  
HETATM   27  C   UNL     1      -9.744  13.392  64.384  1.00  0.00     0.504 C  
HETATM   28  C   UNL     1     -10.493  12.113  66.653  1.00  0.00    -0.248 C  
HETATM   29  C   UNL     1     -11.737  10.051  68.023  1.00  0.00     0.696 C  
HETATM   30  C   UNL     1      -9.322   9.969  67.876  1.00  0.00    -0.151 C  
HETATM   31  C   UNL     1     -11.743  14.182  63.105  1.00  0.00     1.217 C  
HETATM   32  C   UNL     1     -10.884  14.555  64.359  1.00  0.00    -0.076 C  
HETATM   33  C   UNL     1     -10.096  11.946  65.147  1.00  0.00    -0.293 C  
ENDROOT
BRANCH  25  34
HETATM   34  O   UNL     1      -9.157  12.354  69.799  1.00  0.00     1.740 OA 
BRANCH  34  35
HETATM   35  C   UNL     1      -8.011  11.500  70.113  1.00  0.00     2.158 C  
HETATM   36  C   UNL     1      -8.017   9.123  68.375  1.00  0.00    -0.103 C  
HETATM   37  O   UNL     1      -8.469  10.200  70.412  1.00  0.00    -0.031 OA 
HETATM   38  C   UNL     1     -10.002   8.345  69.770  1.00  0.00    -0.191 C  
HETATM   39  C   UNL     1      -9.096   9.541  69.336  1.00  0.00    -0.168 C  
HETATM   40  O   UNL     1      -8.625   8.538  67.214  1.00  0.00    -0.121 OA 
HETATM   41  C   UNL     1      -7.162  10.318  67.963  1.00  0.00    -0.085 C  
HETATM   42  O   UNL     1     -10.168   7.889  70.885  1.00  0.00    -0.198 OA 
HETATM   43  O   UNL     1     -10.732   7.822  68.757  1.00  0.00    -0.170 OA 
HETATM   44  O   UNL     1      -5.931   9.746  67.447  1.00  0.00    -0.053 OA 
HETATM   45  H   UNL     1      -7.943   8.275  66.607  1.00  0.00     0.000 HD 
HETATM   46  C   UNL     1      -6.835  11.360  69.062  1.00  0.00    -0.102 C  
HETATM   47  H   UNL     1      -5.398  10.490  67.190  1.00  0.00     0.000 HD 
BRANCH  46  48
HETATM   48  O   UNL     1      -6.361  12.615  68.502  1.00  0.00    -0.062 OA 
BRANCH  48  49
HETATM   49  C   UNL     1      -6.957  13.775  69.124  1.00  0.00    -0.082 C  
HETATM   50  O   UNL     1      -8.355  13.585  69.369  1.00  0.00     0.518 OA 
HETATM   51  C   UNL     1      -8.851  14.639  70.225  1.00  0.00     1.322 C  
HETATM   52  C   UNL     1     -10.224  14.256  70.780  1.00  0.00     1.991 C  
HETATM   53  C   UNL     1      -8.893  15.922  69.398  1.00  0.00    -0.203 C  
HETATM   54  O   UNL     1      -9.336  17.079  70.122  1.00  0.00     1.158 OA 
HETATM   55  C   UNL     1      -7.483  16.258  68.882  1.00  0.00    -0.209 C  
HETATM   56  O   UNL     1     -10.636  13.040  70.353  1.00  0.00     1.571 OA 
HETATM   57  O   UNL     1     -10.874  14.933  71.562  1.00  0.00    -0.008 OA 
HETATM   58  O   UNL     1      -7.565  17.267  67.864  1.00  0.00    -0.180 OA 
HETATM   59  C   UNL     1      -6.637  15.076  68.365  1.00  0.00    -0.102 C  
HETATM   60  H   UNL     1      -9.362  17.877  69.607  1.00  0.00     0.000 HD 
HETATM   61  H   UNL     1      -6.694  17.474  67.546  1.00  0.00     0.000 HD 
HETATM   62  O   UNL     1      -5.235  15.374  68.633  1.00  0.00    -0.089 OA 
HETATM   63  H   UNL     1      -5.037  16.177  68.164  1.00  0.00     0.000 HD 
ENDBRANCH  48  49
ENDBRANCH  46  48
ENDBRANCH  34  35
ENDBRANCH  25  34
TORSDOF 4
ENDMDL
MODEL       97
REMARK 921   NORMALIZED FREE ENERGY PREDICTED BY IDOCK:   80.98 KCAL/MOL
REMARK 922        TOTAL FREE ENERGY PREDICTED BY IDOCK:   99.01 KCAL/MOL
REMARK 923 INTER-LIGAND FREE ENERGY PREDICTED BY IDOCK:   93.53 KCAL/MOL
REMARK 924 INTRA-LIGAND FREE ENERGY PREDICTED BY IDOCK:    5.48 KCAL/MOL
REMARK 927      BINDING AFFINITY PREDICTED BY RF-SCORE:    0.00 PKD
ROOT
HETATM    1  C   UNL     1      -9.167  10.114  73.084  1.00  0.00     8.865 C  
HETATM    2  C   UNL     1     -10.217   9.554  72.019  1.00  0.00     0.736 C  
HETATM    3  C   UNL     1     -10.838   8.150  72.216  1.00  0.00    -0.388 C  
HETATM    4  C   UNL     1      -9.752   7.180  72.724  1.00  0.00    -0.190 C  
HETATM    5  C   UNL     1     -12.087   8.206  73.117  1.00  0.00     0.559 C  
HETATM    6  C   UNL     1     -11.408   7.549  70.907  1.00  0.00    -0.277 C  
HETATM    7  O   UNL     1     -11.161   6.420  70.488  1.00  0.00    -0.300 OA 
HETATM    8  O   UNL     1     -12.278   8.330  70.251  1.00  0.00     0.246 OA 
HETATM    9  C   UNL     1      -8.689   7.742  73.705  1.00  0.00    -0.318 C  
HETATM   10  C   UNL     1      -8.031   9.098  73.274  1.00  0.00     1.139 C  
HETATM   11  C   UNL     1      -7.186   8.788  72.021  1.00  0.00    -0.022 C  
HETATM   12  C   UNL     1      -7.064   9.765  74.305  1.00  0.00     1.560 C  
HETATM   13  C   UNL     1      -6.245  11.022  73.712  1.00  0.00     2.865 C  
HETATM   14  C   UNL     1      -7.125  12.181  73.082  1.00  0.00    10.529 C  
HETATM   15  C   UNL     1      -8.602  11.527  72.752  1.00  0.00    20.484 C  
HETATM   16  C   UNL     1      -7.490  13.059  74.335  1.00  0.00     6.229 C  
HETATM   17  C   UNL     1      -9.313  12.180  71.849  1.00  0.00    18.412 C  
HETATM   18  C   UNL     1      -8.219  12.307  70.883  1.00  0.00     8.267 C  
HETATM   19  C   UNL     1      -7.717  13.672  70.782  1.00  0.00     3.582 C  
HETATM   20  O   UNL     1      -7.649  11.336  70.387  1.00  0.00     0.770 OA 
HETATM   21  C   UNL     1      -7.852  13.953  69.207  1.00  0.00     0.254 C  
HETATM   22  C   UNL     1      -8.061  15.476  69.046  1.00  0.00    -0.220 C  
HETATM   23  C   UNL     1      -9.168  13.257  68.680  1.00  0.00     0.017 C  
HETATM   24  C   UNL     1      -9.413  12.968  67.209  1.00  0.00    -0.224 C  
HETATM   25  C   UNL     1      -8.177  12.471  66.427  1.00  0.00     0.353 C  
HETATM   26  C   UNL     1      -6.960  13.471  66.734  1.00  0.00     1.273 C  
HETATM   27  C   UNL     1      -5.282  13.087  70.680  1.00  0.00    -0.135 C  
HETATM   28  C   UNL     1      -6.664  13.404  68.370  1.00  0.00    -0.096 C  
HETATM   29  C   UNL     1      -7.437  14.857  66.141  1.00  0.00     2.672 C  
HETATM   30  C   UNL     1      -5.790  13.115  65.798  1.00  0.00     6.246 C  
HETATM   31  C   UNL     1      -6.052  14.718  72.411  1.00  0.00     0.663 C  
HETATM   32  C   UNL     1      -6.485  13.373  71.738  1.00  0.00     2.069 C  
HETATM   33  C   UNL     1      -5.369  13.787  69.163  1.00  0.00    -0.077 C  
ENDROOT
BRANCH  25  34
HETATM   34  O   UNL     1      -7.964  11.008  66.294  1.00  0.00    -0.159 OA 
BRANCH  34  35
HETATM   35  C   UNL     1      -7.755  10.146  67.458  1.00  0.00    -0.091 C  
HETATM   36  C   UNL     1     -10.268   8.790  68.174  1.00  0.00    -0.205 C  
HETATM   37  O   UNL     1      -8.680  10.494  68.465  1.00  0.00    -0.126 OA 
HETATM   38  C   UNL     1     -11.042  11.074  68.997  1.00  0.00    -0.244 C  
HETATM   39  C   UNL     1     -10.028  10.274  68.120  1.00  0.00    -0.146 C  
HETATM   40  O   UNL     1     -11.605   8.516  67.729  1.00  0.00     0.523 OA 
HETATM   41  C   UNL     1      -9.269   8.043  67.295  1.00  0.00    -0.139 C  
HETATM   42  O   UNL     1     -10.815  11.787  69.956  1.00  0.00     0.194 OA 
HETATM   43  O   UNL     1     -12.320  10.992  68.558  1.00  0.00    -0.536 OA 
HETATM   44  O   UNL     1      -9.287   6.673  67.777  1.00  0.00    -0.121 OA 
HETATM   45  H   UNL     1     -11.757   7.579  67.763  1.00  0.00     0.000 HD 
HETATM   46  C   UNL     1      -7.813   8.574  67.281  1.00  0.00    -0.098 C  
HETATM   47  H   UNL     1      -8.665   6.208  67.230  1.00  0.00     0.000 HD 
BRANCH  46  48
HETATM   48  O   UNL     1      -7.054   8.056  66.155  1.00  0.00    -0.061 OA 
BRANCH  48  49
HETATM   49  C   UNL     1      -7.279   6.648  65.918  1.00  0.00    -0.067 C  
HETATM   50  O   UNL     1      -6.442   5.831  66.745  1.00  0.00    -0.047 OA 
HETATM   51  C   UNL     1      -6.881   4.456  66.680  1.00  0.00    -0.055 C  
HETATM   52  C   UNL     1      -6.242   3.652  67.814  1.00  0.00    -0.033 C  
HETATM   53  C   UNL     1      -6.506   3.918  65.300  1.00  0.00    -0.032 C  
HETATM   54  O   UNL     1      -6.908   2.561  65.064  1.00  0.00    -0.041 OA 
HETATM   55  C   UNL     1      -7.189   4.759  64.208  1.00  0.00    -0.054 C  
HETATM   56  O   UNL     1      -5.441   4.407  68.600  1.00  0.00    -0.011 OA 
HETATM   57  O   UNL     1      -6.454   2.469  68.036  1.00  0.00    -0.031 OA 
HETATM   58  O   UNL     1      -6.605   4.464  62.930  1.00  0.00    -0.026 OA 
HETATM   59  C   UNL     1      -7.207   6.287  64.423  1.00  0.00    -0.061 C  
HETATM   60  H   UNL     1      -6.675   2.227  64.206  1.00  0.00     0.000 HD 
HETATM   61  H   UNL     1      -7.026   4.984  62.256  1.00  0.00     0.000 HD 
HETATM   62  O   UNL     1      -8.423   6.814  63.814  1.00  0.00    -0.345 OA 
HETATM   63  H   UNL     1      -8.378   6.591  62.891  1.00  0.00     0.000 HD 
ENDBRANCH  48  49
ENDBRANCH  46  48
ENDBRANCH  34  35
ENDBRANCH  25  34
TORSDOF 4
ENDMDL
MODEL       98
REMARK 921   NORMALIZED FREE ENERGY PREDICTED BY IDOCK:   87.76 KCAL/MOL
REMARK 922        TOTAL FREE ENERGY PREDICTED BY IDOCK:  107.38 KCAL/MOL
REMARK 923 INTER-LIGAND FREE ENERGY PREDICTED BY IDOCK:   98.36 KCAL/MOL
REMARK 924 INTRA-LIGAND FREE ENERGY PREDICTED BY IDOCK:    9.02 KCAL/MOL
REMARK 927      BINDING AFFINITY PREDICTED BY RF-SCORE:    0.00 PKD
ROOT
HETATM    1  C   UNL     1     -10.103  17.321  71.281  1.00  0.00     3.867 C  
HETATM    2  C   UNL     1     -11.516  16.679  71.655  1.00  0.00     0.063 C  
HETATM    3  C   UNL     1     -11.784  16.198  73.102  1.00  0.00    -0.326 C  
HETATM    4  C   UNL     1     -10.521  15.506  73.651  1.00  0.00     4.696 C  
HETATM    5  C   UNL     1     -12.298  17.346  73.993  1.00  0.00     0.635 C  
HETATM    6  C   UNL     1     -12.941  15.172  73.197  1.00  0.00    -0.518 C  
HETATM    7  O   UNL     1     -12.877  14.093  73.783  1.00  0.00    -0.277 OA 
HETATM    8  O   UNL     1     -14.096  15.559  72.638  1.00  0.00    -0.540 OA 
HETATM    9  C   UNL     1      -9.144  16.088  73.232  1.00  0.00    13.646 C  
HETATM   10  C   UNL     1      -8.974  16.366  71.698  1.00  0.00     7.777 C  
HETATM   11  C   UNL     1      -8.969  14.985  71.008  1.00  0.00     2.675 C  
HETATM   12  C   UNL     1      -7.658  17.085  71.259  1.00  0.00     6.554 C  
HETATM   13  C   UNL     1      -7.440  17.126  69.661  1.00  0.00     0.450 C  
HETATM   14  C   UNL     1      -8.623  17.769  68.823  1.00  0.00    -0.206 C  
HETATM   15  C   UNL     1      -9.958  17.738  69.788  1.00  0.00     0.516 C  
HETATM   16  C   UNL     1      -8.287  19.305  68.870  1.00  0.00    -0.339 C  
HETATM   17  C   UNL     1     -11.112  17.816  69.149  1.00  0.00     0.940 C  
HETATM   18  C   UNL     1     -10.780  16.799  68.147  1.00  0.00    -0.361 C  
HETATM   19  C   UNL     1     -10.550  17.369  66.826  1.00  0.00    -0.194 C  
HETATM   20  O   UNL     1     -10.509  15.636  68.442  1.00  0.00    -0.233 OA 
HETATM   21  C   UNL     1     -11.583  16.531  65.926  1.00  0.00     1.020 C  
HETATM   22  C   UNL     1     -11.983  17.444  64.745  1.00  0.00     3.261 C  
HETATM   23  C   UNL     1     -12.895  16.276  66.767  1.00  0.00     4.219 C  
HETATM   24  C   UNL     1     -13.907  15.202  66.408  1.00  0.00     5.196 C  
HETATM   25  C   UNL     1     -13.297  13.867  65.923  1.00  0.00     0.721 C  
HETATM   26  C   UNL     1     -12.218  14.201  64.782  1.00  0.00    -0.457 C  
HETATM   27  C   UNL     1      -8.566  15.957  66.233  1.00  0.00    -0.348 C  
HETATM   28  C   UNL     1     -11.038  15.147  65.476  1.00  0.00    -0.347 C  
HETATM   29  C   UNL     1     -13.070  14.845  63.616  1.00  0.00     1.895 C  
HETATM   30  C   UNL     1     -11.763  12.876  64.142  1.00  0.00    -0.468 C  
HETATM   31  C   UNL     1      -8.357  18.444  66.082  1.00  0.00    -0.161 C  
HETATM   32  C   UNL     1      -8.973  17.335  66.998  1.00  0.00    -0.245 C  
HETATM   33  C   UNL     1      -9.564  15.397  65.013  1.00  0.00     0.382 C  
ENDROOT
BRANCH  25  34
HETATM   34  O   UNL     1     -13.066  12.791  66.917  1.00  0.00     1.218 OA 
BRANCH  34  35
HETATM   35  C   UNL     1     -13.390  11.392  66.634  1.00  0.00     9.113 C  
HETATM   36  C   UNL     1     -10.935   9.894  66.005  1.00  0.00     0.613 C  
HETATM   37  O   UNL     1     -12.879  11.044  65.367  1.00  0.00     3.075 OA 
HETATM   38  C   UNL     1     -10.944  11.180  63.805  1.00  0.00    -0.178 C  
HETATM   39  C   UNL     1     -11.474  11.091  65.271  1.00  0.00     0.456 C  
HETATM   40  O   UNL     1      -9.500   9.961  66.018  1.00  0.00    -0.173 OA 
HETATM   41  C   UNL     1     -11.462   9.849  67.436  1.00  0.00     0.782 C  
HETATM   42  O   UNL     1     -11.579  11.144  62.768  1.00  0.00     0.535 OA 
HETATM   43  O   UNL     1      -9.609  11.393  63.723  1.00  0.00    -0.245 OA 
HETATM   44  O   UNL     1     -11.273   8.475  67.868  1.00  0.00    -0.360 OA 
HETATM   45  H   UNL     1      -9.159   9.205  66.482  1.00  0.00     0.000 HD 
HETATM   46  C   UNL     1     -12.938  10.268  67.654  1.00  0.00     8.115 C  
HETATM   47  H   UNL     1     -11.602   8.447  68.760  1.00  0.00     0.000 HD 
BRANCH  46  48
HETATM   48  O   UNL     1     -13.224  10.555  69.049  1.00  0.00     0.973 OA 
BRANCH  48  49
HETATM   49  C   UNL     1     -12.802   9.502  69.944  1.00  0.00     1.145 C  
HETATM   50  O   UNL     1     -13.109   8.206  69.418  1.00  0.00     3.730 OA 
HETATM   51  C   UNL     1     -12.441   7.189  70.197  1.00  0.00     0.399 C  
HETATM   52  C   UNL     1     -12.463   5.858  69.444  1.00  0.00     4.371 C  
HETATM   53  C   UNL     1     -13.146   7.106  71.549  1.00  0.00    -0.375 C  
HETATM   54  O   UNL     1     -12.574   6.156  72.459  1.00  0.00    -0.548 OA 
HETATM   55  C   UNL     1     -13.077   8.469  72.259  1.00  0.00    -0.334 C  
HETATM   56  O   UNL     1     -13.084   5.949  68.245  1.00  0.00     8.961 OA 
HETATM   57  O   UNL     1     -11.943   4.824  69.837  1.00  0.00     5.017 OA 
HETATM   58  O   UNL     1     -13.990   8.488  73.367  1.00  0.00    -0.794 OA 
HETATM   59  C   UNL     1     -13.309   9.717  71.383  1.00  0.00    -0.371 C  
HETATM   60  H   UNL     1     -13.013   6.105  73.300  1.00  0.00     0.000 HD 
HETATM   61  H   UNL     1     -13.947   9.329  73.805  1.00  0.00     0.000 HD 
HETATM   62  O   UNL     1     -12.519  10.811  71.937  1.00  0.00    -0.262 OA 
HETATM   63  H   UNL     1     -12.831  10.944  72.824  1.00  0.00     0.000 HD 
ENDBRANCH  48  49
ENDBRANCH  46  48
ENDBRANCH  34  35
ENDBRANCH  25  34
TORSDOF 4
ENDMDL
MODEL       99
REMARK 921   NORMALIZED FREE ENERGY PREDICTED BY IDOCK:   91.62 KCAL/MOL
REMARK 922        TOTAL FREE ENERGY PREDICTED BY IDOCK:  112.15 KCAL/MOL
REMARK 923 INTER-LIGAND FREE ENERGY PREDICTED BY IDOCK:  108.09 KCAL/MOL
REMARK 924 INTRA-LIGAND FREE ENERGY PREDICTED BY IDOCK:    4.05 KCAL/MOL
REMARK 927      BINDING AFFINITY PREDICTED BY RF-SCORE:    0.00 PKD
ROOT
HETATM    1  C   UNL     1     -10.782   5.714  70.401  1.00  0.00    -0.352 C  
HETATM    2  C   UNL     1      -9.603   6.520  71.115  1.00  0.00    -0.181 C  
HETATM    3  C   UNL     1      -9.369   6.356  72.636  1.00  0.00    -0.142 C  
HETATM    4  C   UNL     1     -10.731   6.300  73.357  1.00  0.00    -0.281 C  
HETATM    5  C   UNL     1      -8.458   5.151  72.941  1.00  0.00    -0.116 C  
HETATM    6  C   UNL     1      -8.574   7.530  73.259  1.00  0.00    -0.157 C  
HETATM    7  O   UNL     1      -8.912   8.152  74.265  1.00  0.00    -0.052 OA 
HETATM    8  O   UNL     1      -7.408   7.812  72.660  1.00  0.00    -0.075 OA 
HETATM    9  C   UNL     1     -11.898   5.576  72.633  1.00  0.00    -0.176 C  
HETATM   10  C   UNL     1     -12.107   5.980  71.132  1.00  0.00     0.294 C  
HETATM   11  C   UNL     1     -12.589   7.446  71.143  1.00  0.00    -0.330 C  
HETATM   12  C   UNL     1     -13.177   5.168  70.332  1.00  0.00    10.292 C  
HETATM   13  C   UNL     1     -13.508   5.784  68.878  1.00  0.00    14.566 C  
HETATM   14  C   UNL     1     -12.263   5.986  67.917  1.00  0.00     4.490 C  
HETATM   15  C   UNL     1     -10.921   5.990  68.875  1.00  0.00    -0.395 C  
HETATM   16  C   UNL     1     -12.113   4.573  67.242  1.00  0.00     9.559 C  
HETATM   17  C   UNL     1      -9.858   6.567  68.345  1.00  0.00    -0.137 C  
HETATM   18  C   UNL     1     -10.567   7.767  67.893  1.00  0.00    -0.156 C  
HETATM   19  C   UNL     1     -10.726   7.813  66.445  1.00  0.00     0.645 C  
HETATM   20  O   UNL     1     -11.152   8.528  68.665  1.00  0.00     0.104 OA 
HETATM   21  C   UNL     1     -10.077   9.238  66.091  1.00  0.00    -0.304 C  
HETATM   22  C   UNL     1      -9.523   9.126  64.653  1.00  0.00     0.242 C  
HETATM   23  C   UNL     1      -8.837   9.479  67.038  1.00  0.00    -0.139 C  
HETATM   24  C   UNL     1      -8.233  10.853  67.270  1.00  0.00    -0.123 C  
HETATM   25  C   UNL     1      -9.257  12.001  67.404  1.00  0.00    -0.180 C  
HETATM   26  C   UNL     1     -10.279  11.902  66.169  1.00  0.00    -0.258 C  
HETATM   27  C   UNL     1     -13.088   8.651  66.431  1.00  0.00    18.468 C  
HETATM   28  C   UNL     1     -11.052  10.433  66.283  1.00  0.00     0.215 C  
HETATM   29  C   UNL     1      -9.375  12.148  64.896  1.00  0.00     0.243 C  
HETATM   30  C   UNL     1     -11.167  13.160  66.171  1.00  0.00    -0.320 C  
HETATM   31  C   UNL     1     -12.546   6.570  65.157  1.00  0.00     9.668 C  
HETATM   32  C   UNL     1     -12.219   7.277  66.514  1.00  0.00     6.145 C  
HETATM   33  C   UNL     1     -12.416   9.976  65.664  1.00  0.00     8.838 C  
ENDROOT
BRANCH  25  34
HETATM   34  O   UNL     1      -9.717  12.386  68.761  1.00  0.00    -0.104 OA 
BRANCH  34  35
HETATM   35  C   UNL     1      -8.872  13.156  69.676  1.00  0.00     1.923 C  
HETATM   36  C   UNL     1      -6.669  14.424  68.190  1.00  0.00    -0.127 C  
HETATM   37  O   UNL     1      -7.536  12.720  69.552  1.00  0.00     0.411 OA 
HETATM   38  C   UNL     1      -5.704  12.073  67.994  1.00  0.00    -0.055 C  
HETATM   39  C   UNL     1      -6.962  12.952  68.287  1.00  0.00    -0.099 C  
HETATM   40  O   UNL     1      -6.176  14.717  66.874  1.00  0.00    -0.055 OA 
HETATM   41  C   UNL     1      -7.922  15.249  68.468  1.00  0.00    -0.141 C  
HETATM   42  O   UNL     1      -5.141  11.289  68.734  1.00  0.00    -0.041 OA 
HETATM   43  O   UNL     1      -5.256  12.176  66.721  1.00  0.00    -0.309 OA 
HETATM   44  O   UNL     1      -7.439  16.576  68.804  1.00  0.00    -0.190 OA 
HETATM   45  H   UNL     1      -5.991  15.647  66.813  1.00  0.00     0.000 HD 
HETATM   46  C   UNL     1      -8.867  14.737  69.584  1.00  0.00     0.221 C  
HETATM   47  H   UNL     1      -8.219  17.090  68.977  1.00  0.00     0.000 HD 
BRANCH  46  48
HETATM   48  O   UNL     1     -10.182  15.351  69.512  1.00  0.00    -0.238 OA 
BRANCH  48  49
HETATM   49  C   UNL     1     -10.143  16.791  69.626  1.00  0.00    -0.025 C  
HETATM   50  O   UNL     1      -8.926  17.242  70.232  1.00  0.00     2.023 OA 
HETATM   51  C   UNL     1      -8.805  18.674  70.084  1.00  0.00     2.030 C  
HETATM   52  C   UNL     1      -7.372  19.110  70.395  1.00  0.00     1.113 C  
HETATM   53  C   UNL     1      -9.828  19.321  71.016  1.00  0.00     2.461 C  
HETATM   54  O   UNL     1      -9.856  20.755  70.960  1.00  0.00     0.801 OA 
HETATM   55  C   UNL     1     -11.244  18.854  70.643  1.00  0.00     4.568 C  
HETATM   56  O   UNL     1      -6.571  18.069  70.720  1.00  0.00     1.061 OA 
HETATM   57  O   UNL     1      -6.960  20.258  70.318  1.00  0.00    -0.139 OA 
HETATM   58  O   UNL     1     -12.163  19.202  71.690  1.00  0.00     9.504 OA 
HETATM   59  C   UNL     1     -11.409  17.360  70.294  1.00  0.00     1.703 C  
HETATM   60  H   UNL     1     -10.491  21.157  71.539  1.00  0.00     0.000 HD 
HETATM   61  H   UNL     1     -13.038  18.913  71.460  1.00  0.00     0.000 HD 
HETATM   62  O   UNL     1     -12.480  17.242  69.310  1.00  0.00     1.901 OA 
HETATM   63  H   UNL     1     -13.261  17.593  69.721  1.00  0.00     0.000 HD 
ENDBRANCH  48  49
ENDBRANCH  46  48
ENDBRANCH  34  35
ENDBRANCH  25  34
TORSDOF 4
ENDMDL
MODEL      100
REMARK 921   NORMALIZED FREE ENERGY PREDICTED BY IDOCK:   94.77 KCAL/MOL
REMARK 922        TOTAL FREE ENERGY PREDICTED BY IDOCK:  116.03 KCAL/MOL
REMARK 923 INTER-LIGAND FREE ENERGY PREDICTED BY IDOCK:  106.10 KCAL/MOL
REMARK 924 INTRA-LIGAND FREE ENERGY PREDICTED BY IDOCK:    9.94 KCAL/MOL
REMARK 927      BINDING AFFINITY PREDICTED BY RF-SCORE:    0.00 PKD
ROOT
HETATM    1  C   UNL     1      -9.169   5.989  67.521  1.00  0.00    -0.111 C  
HETATM    2  C   UNL     1      -7.816   6.759  67.878  1.00  0.00    -0.113 C  
HETATM    3  C   UNL     1      -6.750   6.070  68.765  1.00  0.00    -0.064 C  
HETATM    4  C   UNL     1      -7.453   5.301  69.902  1.00  0.00    -0.065 C  
HETATM    5  C   UNL     1      -5.795   5.198  67.926  1.00  0.00    -0.018 C  
HETATM    6  C   UNL     1      -5.774   7.073  69.430  1.00  0.00    -0.015 C  
HETATM    7  O   UNL     1      -5.493   7.089  70.627  1.00  0.00    -0.023 OA 
HETATM    8  O   UNL     1      -5.169   7.924  68.590  1.00  0.00    -0.025 OA 
HETATM    9  C   UNL     1      -8.804   4.611  69.573  1.00  0.00    -0.121 C  
HETATM   10  C   UNL     1      -9.844   5.504  68.813  1.00  0.00    -0.206 C  
HETATM   11  C   UNL     1     -10.274   6.605  69.805  1.00  0.00    -0.214 C  
HETATM   12  C   UNL     1     -11.157   4.799  68.339  1.00  0.00     1.896 C  
HETATM   13  C   UNL     1     -12.277   5.816  67.780  1.00  0.00     5.217 C  
HETATM   14  C   UNL     1     -11.811   6.772  66.603  1.00  0.00     2.375 C  
HETATM   15  C   UNL     1     -10.164   6.805  66.643  1.00  0.00    -0.211 C  
HETATM   16  C   UNL     1     -12.035   5.883  65.325  1.00  0.00     4.601 C  
HETATM   17  C   UNL     1      -9.610   7.849  66.053  1.00  0.00    -0.037 C  
HETATM   18  C   UNL     1     -10.483   8.840  66.688  1.00  0.00    -0.170 C  
HETATM   19  C   UNL     1     -11.443   9.420  65.757  1.00  0.00     3.940 C  
HETATM   20  O   UNL     1     -10.542   8.995  67.908  1.00  0.00    -0.234 OA 
HETATM   21  C   UNL     1     -11.152  10.990  65.926  1.00  0.00    -0.038 C  
HETATM   22  C   UNL     1     -11.517  11.655  64.579  1.00  0.00    -0.272 C  
HETATM   23  C   UNL     1      -9.600  11.199  66.129  1.00  0.00    -0.239 C  
HETATM   24  C   UNL     1      -9.010  12.472  66.710  1.00  0.00    -0.198 C  
HETATM   25  C   UNL     1      -9.805  13.081  67.887  1.00  0.00    -0.224 C  
HETATM   26  C   UNL     1     -11.346  13.180  67.447  1.00  0.00    -0.344 C  
HETATM   27  C   UNL     1     -13.410   9.405  67.309  1.00  0.00    16.871 C  
HETATM   28  C   UNL     1     -11.875  11.632  67.143  1.00  0.00    -0.090 C  
HETATM   29  C   UNL     1     -11.340  14.193  66.233  1.00  0.00    -0.340 C  
HETATM   30  C   UNL     1     -12.108  13.980  68.520  1.00  0.00    -0.329 C  
HETATM   31  C   UNL     1     -13.638   8.310  65.074  1.00  0.00    23.311 C  
HETATM   32  C   UNL     1     -12.613   8.466  66.246  1.00  0.00    13.261 C  
HETATM   33  C   UNL     1     -13.335  11.065  67.121  1.00  0.00    10.371 C  
ENDROOT
BRANCH  25  34
HETATM   34  O   UNL     1      -9.416  12.714  69.271  1.00  0.00     0.507 OA 
BRANCH  34  35
HETATM   35  C   UNL     1      -9.823  13.512  70.428  1.00  0.00     3.517 C  
HETATM   36  C   UNL     1      -7.819  15.599  70.970  1.00  0.00     2.995 C  
HETATM   37  O   UNL     1      -8.788  13.502  71.386  1.00  0.00     8.049 OA 
HETATM   38  C   UNL     1      -6.339  13.694  71.791  1.00  0.00     1.287 C  
HETATM   39  C   UNL     1      -7.592  14.113  70.959  1.00  0.00     2.890 C  
HETATM   40  O   UNL     1      -6.654  16.254  70.442  1.00  0.00     0.228 OA 
HETATM   41  C   UNL     1      -9.041  15.971  70.136  1.00  0.00     0.892 C  
HETATM   42  O   UNL     1      -6.288  12.982  72.775  1.00  0.00     1.727 OA 
HETATM   43  O   UNL     1      -5.171  14.148  71.277  1.00  0.00    -0.125 OA 
HETATM   44  O   UNL     1      -9.423  17.297  70.589  1.00  0.00     2.724 OA 
HETATM   45  H   UNL     1      -6.798  17.193  70.449  1.00  0.00     0.000 HD 
HETATM   46  C   UNL     1     -10.262  15.019  70.216  1.00  0.00     0.093 C  
HETATM   47  H   UNL     1     -10.184  17.529  70.070  1.00  0.00     0.000 HD 
BRANCH  46  48
HETATM   48  O   UNL     1     -11.198  15.238  69.127  1.00  0.00    -0.246 OA 
BRANCH  48  49
HETATM   49  C   UNL     1     -10.657  16.061  68.070  1.00  0.00    -0.295 C  
HETATM   50  O   UNL     1      -9.252  15.845  67.897  1.00  0.00    -0.197 OA 
HETATM   51  C   UNL     1      -8.806  16.469  66.673  1.00  0.00    -0.256 C  
HETATM   52  C   UNL     1      -7.417  15.948  66.299  1.00  0.00     0.632 C  
HETATM   53  C   UNL     1      -8.822  17.981  66.894  1.00  0.00    -0.258 C  
HETATM   54  O   UNL     1      -8.433  18.751  65.748  1.00  0.00    -0.436 OA 
HETATM   55  C   UNL     1     -10.245  18.441  67.253  1.00  0.00    -0.374 C  
HETATM   56  O   UNL     1      -6.949  15.036  67.182  1.00  0.00    -0.234 OA 
HETATM   57  O   UNL     1      -6.799  16.268  65.294  1.00  0.00     2.961 OA 
HETATM   58  O   UNL     1     -10.209  19.783  67.761  1.00  0.00    -0.392 OA 
HETATM   59  C   UNL     1     -11.035  17.545  68.229  1.00  0.00    -0.099 C  
HETATM   60  H   UNL     1      -8.444  19.691  65.886  1.00  0.00     0.000 HD 
HETATM   61  H   UNL     1     -11.088  20.067  67.982  1.00  0.00     0.000 HD 
HETATM   62  O   UNL     1     -12.451  17.646  67.890  1.00  0.00     2.368 OA 
HETATM   63  H   UNL     1     -12.684  18.562  67.988  1.00  0.00     0.000 HD 
ENDBRANCH  48  49
ENDBRANCH  46  48
ENDBRANCH  34  35
ENDBRANCH  25  34
TORSDOF 4
ENDMDL
MODEL      101
REMARK 921   NORMALIZED FREE ENERGY PREDICTED BY IDOCK:  101.74 KCAL/MOL
REMARK 922        TOTAL FREE ENERGY PREDICTED BY IDOCK:  124.63 KCAL/MOL
REMARK 923 INTER-LIGAND FREE ENERGY PREDICTED BY IDOCK:    0.69 KCAL/MOL
REMARK 924 INTRA-LIGAND FREE ENERGY PREDICTED BY IDOCK:  123.93 KCAL/MOL
REMARK 927      BINDING AFFINITY PREDICTED BY RF-SCORE:    0.00 PKD
ROOT
HETATM    1  C   UNL     1     -11.420  12.785  67.006  1.00  0.00    -0.397 C  
HETATM    2  C   UNL     1     -10.496  12.590  65.719  1.00  0.00    -0.296 C  
HETATM    3  C   UNL     1     -10.268  11.171  65.143  1.00  0.00    -0.347 C  
HETATM    4  C   UNL     1     -10.091  10.172  66.304  1.00  0.00    -0.303 C  
HETATM    5  C   UNL     1     -11.382  10.777  64.153  1.00  0.00     0.930 C  
HETATM    6  C   UNL     1      -8.999  11.070  64.260  1.00  0.00    -0.038 C  
HETATM    7  O   UNL     1      -8.128  10.210  64.379  1.00  0.00    -0.157 OA 
HETATM    8  O   UNL     1      -8.920  11.968  63.268  1.00  0.00     0.064 OA 
HETATM    9  C   UNL     1     -10.940  10.402  67.584  1.00  0.00    -0.374 C  
HETATM   10  C   UNL     1     -10.932  11.869  68.138  1.00  0.00    -0.272 C  
HETATM   11  C   UNL     1      -9.498  12.129  68.646  1.00  0.00    -0.052 C  
HETATM   12  C   UNL     1     -11.887  12.168  69.338  1.00  0.00    -0.370 C  
HETATM   13  C   UNL     1     -11.658  13.618  70.006  1.00  0.00    -0.250 C  
HETATM   14  C   UNL     1     -11.752  14.854  69.017  1.00  0.00    -0.347 C  
HETATM   15  C   UNL     1     -11.544  14.258  67.494  1.00  0.00    -0.390 C  
HETATM   16  C   UNL     1     -13.295  15.156  68.984  1.00  0.00     2.241 C  
HETATM   17  C   UNL     1     -11.159  15.145  66.595  1.00  0.00    -0.308 C  
HETATM   18  C   UNL     1     -10.094  15.721  67.421  1.00  0.00    -0.246 C  
HETATM   19  C   UNL     1     -10.419  17.056  67.904  1.00  0.00    -0.354 C  
HETATM   20  O   UNL     1      -9.141  15.062  67.837  1.00  0.00    -0.176 OA 
HETATM   21  C   UNL     1      -9.156  17.905  67.392  1.00  0.00    -0.245 C  
HETATM   22  C   UNL     1      -9.654  19.352  67.174  1.00  0.00    -0.412 C  
HETATM   23  C   UNL     1      -8.719  17.358  65.977  1.00  0.00    -0.097 C  
HETATM   24  C   UNL     1      -7.353  17.633  65.374  1.00  0.00     0.808 C  
HETATM   25  C   UNL     1      -6.175  17.574  66.374  1.00  0.00    -0.227 C  
HETATM   26  C   UNL     1      -6.558  18.477  67.645  1.00  0.00    -0.205 C  
HETATM   27  C   UNL     1      -9.537  16.754  70.231  1.00  0.00     1.622 C  
HETATM   28  C   UNL     1      -7.922  17.815  68.331  1.00  0.00    -0.293 C  
HETATM   29  C   UNL     1      -6.679  19.941  67.059  1.00  0.00    -0.231 C  
HETATM   30  C   UNL     1      -5.313  18.601  68.544  1.00  0.00    -0.184 C  
HETATM   31  C   UNL     1     -11.893  17.534  69.933  1.00  0.00     3.685 C  
HETATM   32  C   UNL     1     -10.870  16.517  69.328  1.00  0.00    -0.326 C  
HETATM   33  C   UNL     1      -8.478  17.971  69.786  1.00  0.00     1.303 C  
ENDROOT
BRANCH  25  34
HETATM   34  O   UNL     1      -5.438  16.295  66.525  1.00  0.00    -0.220 OA 
BRANCH  34  35
HETATM   35  C   UNL     1      -5.160  15.711  67.837  1.00  0.00    -0.125 C  
HETATM   36  C   UNL     1      -7.599  15.734  69.488  1.00  0.00    -0.177 C  
HETATM   37  O   UNL     1      -5.528  16.631  68.842  1.00  0.00    -0.124 OA 
HETATM   38  C   UNL     1      -7.241  18.253  69.640  1.00  0.00     0.286 C  
HETATM   39  C   UNL     1      -6.904  16.926  68.888  1.00  0.00    -0.209 C  
HETATM   40  O   UNL     1      -9.017  15.955  69.458  1.00  0.00    -0.249 OA 
HETATM   41  C   UNL     1      -7.258  14.461  68.720  1.00  0.00    -0.128 C  
HETATM   42  O   UNL     1      -6.484  18.999  70.231  1.00  0.00    -0.054 OA 
HETATM   43  O   UNL     1      -8.540  18.619  69.538  1.00  0.00     0.280 OA 
HETATM   44  O   UNL     1      -7.577  13.372  69.626  1.00  0.00    -0.138 OA 
HETATM   45  H   UNL     1      -9.456  15.202  69.836  1.00  0.00     0.000 HD 
HETATM   46  C   UNL     1      -5.800  14.313  68.216  1.00  0.00    -0.117 C  
HETATM   47  H   UNL     1      -7.365  12.578  69.148  1.00  0.00     0.000 HD 
BRANCH  46  48
HETATM   48  O   UNL     1      -5.676  13.285  67.196  1.00  0.00    -0.323 OA 
BRANCH  48  49
HETATM   49  C   UNL     1      -6.302  12.037  67.568  1.00  0.00    -0.118 C  
HETATM   50  O   UNL     1      -6.568  11.217  66.424  1.00  0.00    -0.128 OA 
HETATM   51  C   UNL     1      -6.937   9.886  66.849  1.00  0.00    -0.088 C  
HETATM   52  C   UNL     1      -6.869   8.923  65.663  1.00  0.00    -0.076 C  
HETATM   53  C   UNL     1      -8.336   9.968  67.456  1.00  0.00    -0.118 C  
HETATM   54  O   UNL     1      -8.837   8.722  67.960  1.00  0.00    -0.139 OA 
HETATM   55  C   UNL     1      -8.334  10.939  68.648  1.00  0.00    -0.148 C  
HETATM   56  O   UNL     1      -6.477   9.533  64.520  1.00  0.00    -0.085 OA 
HETATM   57  O   UNL     1      -7.091   7.723  65.725  1.00  0.00    -0.059 OA 
HETATM   58  O   UNL     1      -9.684  11.257  69.020  1.00  0.00    -0.352 OA 
HETATM   59  C   UNL     1      -7.530  12.244  68.474  1.00  0.00    -0.113 C  
HETATM   60  H   UNL     1      -9.707   8.773  68.337  1.00  0.00     0.000 HD 
HETATM   61  H   UNL     1      -9.682  11.857  69.756  1.00  0.00     0.000 HD 
HETATM   62  O   UNL     1      -7.013  12.634  69.782  1.00  0.00    -0.340 OA 
HETATM   63  H   UNL     1      -7.771  12.761  70.341  1.00  0.00     0.000 HD 
ENDBRANCH  48  49
ENDBRANCH  46  48
ENDBRANCH  34  35
ENDBRANCH  25  34
TORSDOF 4
ENDMDL
MODEL      102
REMARK 921   NORMALIZED FREE ENERGY PREDICTED BY IDOCK:  103.62 KCAL/MOL
REMARK 922        TOTAL FREE ENERGY PREDICTED BY IDOCK:  126.95 KCAL/MOL
REMARK 923 INTER-LIGAND FREE ENERGY PREDICTED BY IDOCK:   45.86 KCAL/MOL
REMARK 924 INTRA-LIGAND FREE ENERGY PREDICTED BY IDOCK:   81.09 KCAL/MOL
REMARK 927      BINDING AFFINITY PREDICTED BY RF-SCORE:    0.00 PKD
ROOT
HETATM    1  C   UNL     1     -11.485  12.757  67.068  1.00  0.00    -0.397 C  
HETATM    2  C   UNL     1     -10.417  12.280  65.982  1.00  0.00    -0.284 C  
HETATM    3  C   UNL     1     -10.167  10.768  65.760  1.00  0.00    -0.319 C  
HETATM    4  C   UNL     1     -10.168  10.047  67.122  1.00  0.00    -0.284 C  
HETATM    5  C   UNL     1     -11.163  10.175  64.744  1.00  0.00     2.359 C  
HETATM    6  C   UNL     1      -8.803  10.470  65.088  1.00  0.00    -0.190 C  
HETATM    7  O   UNL     1      -7.982   9.653  65.500  1.00  0.00    -0.109 OA 
HETATM    8  O   UNL     1      -8.573  11.130  63.945  1.00  0.00     0.060 OA 
HETATM    9  C   UNL     1     -11.159  10.555  68.204  1.00  0.00    -0.346 C  
HETATM   10  C   UNL     1     -11.170  12.107  68.424  1.00  0.00    -0.314 C  
HETATM   11  C   UNL     1      -9.802  12.465  69.042  1.00  0.00     0.243 C  
HETATM   12  C   UNL     1     -12.256  12.667  69.399  1.00  0.00    -0.116 C  
HETATM   13  C   UNL     1     -12.062  14.227  69.763  1.00  0.00    -0.401 C  
HETATM   14  C   UNL     1     -11.993  15.217  68.526  1.00  0.00    -0.228 C  
HETATM   15  C   UNL     1     -11.619  14.302  67.207  1.00  0.00    -0.401 C  
HETATM   16  C   UNL     1     -13.509  15.513  68.233  1.00  0.00     4.523 C  
HETATM   17  C   UNL     1     -11.097  14.969  66.194  1.00  0.00    -0.329 C  
HETATM   18  C   UNL     1     -10.123  15.705  67.005  1.00  0.00    -0.253 C  
HETATM   19  C   UNL     1     -10.461  17.116  67.143  1.00  0.00    -0.291 C  
HETATM   20  O   UNL     1      -9.251  15.147  67.671  1.00  0.00    -0.179 OA 
HETATM   21  C   UNL     1      -9.117  17.825  66.625  1.00  0.00    -0.280 C  
HETATM   22  C   UNL     1      -9.536  19.192  66.038  1.00  0.00    -0.206 C  
HETATM   23  C   UNL     1      -8.528  16.979  65.429  1.00  0.00     1.432 C  
HETATM   24  C   UNL     1      -7.089  17.109  64.960  1.00  0.00     3.308 C  
HETATM   25  C   UNL     1      -6.046  17.262  66.090  1.00  0.00    -0.070 C  
HETATM   26  C   UNL     1      -6.552  18.423  67.077  1.00  0.00    -0.202 C  
HETATM   27  C   UNL     1      -9.882  17.324  69.573  1.00  0.00     0.149 C  
HETATM   28  C   UNL     1      -8.011  17.936  67.710  1.00  0.00    -0.230 C  
HETATM   29  C   UNL     1      -6.552  19.725  66.179  1.00  0.00    -0.229 C  
HETATM   30  C   UNL     1      -5.424  18.734  68.079  1.00  0.00    -0.174 C  
HETATM   31  C   UNL     1     -12.157  18.033  68.817  1.00  0.00     4.451 C  
HETATM   32  C   UNL     1     -11.101  16.903  68.580  1.00  0.00    -0.194 C  
HETATM   33  C   UNL     1      -8.736  18.408  69.015  1.00  0.00    -0.058 C  
ENDROOT
BRANCH  25  34
HETATM   34  O   UNL     1      -5.375  16.044  66.606  1.00  0.00    -0.129 OA 
BRANCH  34  35
HETATM   35  C   UNL     1      -5.225  15.790  68.040  1.00  0.00    -0.122 C  
HETATM   36  C   UNL     1      -7.565  16.822  69.498  1.00  0.00     0.178 C  
HETATM   37  O   UNL     1      -5.351  17.007  68.742  1.00  0.00    -0.130 OA 
HETATM   38  C   UNL     1      -6.621  19.134  68.990  1.00  0.00    -0.297 C  
HETATM   39  C   UNL     1      -6.618  17.613  68.638  1.00  0.00    -0.209 C  
HETATM   40  O   UNL     1      -8.892  17.348  69.338  1.00  0.00     0.119 OA 
HETATM   41  C   UNL     1      -7.546  15.345  69.116  1.00  0.00    -0.198 C  
HETATM   42  O   UNL     1      -5.701  19.817  69.398  1.00  0.00    -0.220 OA 
HETATM   43  O   UNL     1      -7.799  19.749  68.729  1.00  0.00    -0.316 OA 
HETATM   44  O   UNL     1      -8.100  14.648  70.262  1.00  0.00    -0.054 OA 
HETATM   45  H   UNL     1      -9.490  16.849  69.881  1.00  0.00     0.000 HD 
HETATM   46  C   UNL     1      -6.171  14.734  68.745  1.00  0.00    -0.083 C  
HETATM   47  H   UNL     1      -8.088  13.728  70.025  1.00  0.00     0.000 HD 
BRANCH  46  48
HETATM   48  O   UNL     1      -6.307  13.469  68.044  1.00  0.00    -0.104 OA 
BRANCH  48  49
HETATM   49  C   UNL     1      -7.201  12.545  68.706  1.00  0.00    -0.089 C  
HETATM   50  O   UNL     1      -7.725  13.095  69.920  1.00  0.00     1.039 OA 
HETATM   51  C   UNL     1      -8.807  12.269  70.406  1.00  0.00     5.683 C  
HETATM   52  C   UNL     1      -9.598  13.023  71.476  1.00  0.00    13.380 C  
HETATM   53  C   UNL     1      -8.195  10.974  70.936  1.00  0.00     4.409 C  
HETATM   54  O   UNL     1      -9.152  10.025  71.428  1.00  0.00     0.182 OA 
HETATM   55  C   UNL     1      -7.427  10.259  69.812  1.00  0.00    -0.165 C  
HETATM   56  O   UNL     1      -9.111  14.266  71.703  1.00  0.00     4.838 OA 
HETATM   57  O   UNL     1     -10.591  12.593  72.042  1.00  0.00     7.880 OA 
HETATM   58  O   UNL     1      -6.602   9.224  70.368  1.00  0.00    -0.052 OA 
HETATM   59  C   UNL     1      -6.575  11.149  68.883  1.00  0.00    -0.065 C  
HETATM   60  H   UNL     1      -8.771   9.220  71.759  1.00  0.00     0.000 HD 
HETATM   61  H   UNL     1      -6.127   8.783  69.673  1.00  0.00     0.000 HD 
HETATM   62  O   UNL     1      -6.560  10.536  67.560  1.00  0.00    -0.064 OA 
HETATM   63  H   UNL     1      -6.174   9.674  67.669  1.00  0.00     0.000 HD 
ENDBRANCH  48  49
ENDBRANCH  46  48
ENDBRANCH  34  35
ENDBRANCH  25  34
TORSDOF 4
ENDMDL
MODEL      103
REMARK 921   NORMALIZED FREE ENERGY PREDICTED BY IDOCK:  112.14 KCAL/MOL
REMARK 922        TOTAL FREE ENERGY PREDICTED BY IDOCK:  137.46 KCAL/MOL
REMARK 923 INTER-LIGAND FREE ENERGY PREDICTED BY IDOCK:  123.38 KCAL/MOL
REMARK 924 INTRA-LIGAND FREE ENERGY PREDICTED BY IDOCK:   14.08 KCAL/MOL
REMARK 927      BINDING AFFINITY PREDICTED BY RF-SCORE:    0.00 PKD
ROOT
HETATM    1  C   UNL     1     -10.017  18.047  68.922  1.00  0.00    -0.347 C  
HETATM    2  C   UNL     1     -10.979  17.201  69.875  1.00  0.00     0.419 C  
HETATM    3  C   UNL     1     -10.730  17.187  71.403  1.00  0.00     1.892 C  
HETATM    4  C   UNL     1      -9.214  17.108  71.671  1.00  0.00     9.258 C  
HETATM    5  C   UNL     1     -11.421  18.376  72.098  1.00  0.00     4.274 C  
HETATM    6  C   UNL     1     -11.381  15.973  72.113  1.00  0.00    -0.051 C  
HETATM    7  O   UNL     1     -10.800  15.223  72.894  1.00  0.00     0.439 OA 
HETATM    8  O   UNL     1     -12.689  15.806  71.875  1.00  0.00    -0.416 OA 
HETATM    9  C   UNL     1      -8.273  17.874  70.703  1.00  0.00     4.785 C  
HETATM   10  C   UNL     1      -8.555  17.649  69.177  1.00  0.00     0.122 C  
HETATM   11  C   UNL     1      -8.196  16.177  68.885  1.00  0.00    -0.229 C  
HETATM   12  C   UNL     1      -7.723  18.514  68.177  1.00  0.00    -0.302 C  
HETATM   13  C   UNL     1      -7.889  18.068  66.635  1.00  0.00    -0.271 C  
HETATM   14  C   UNL     1      -9.378  18.027  66.088  1.00  0.00    -0.146 C  
HETATM   15  C   UNL     1     -10.364  17.953  67.406  1.00  0.00    -0.383 C  
HETATM   16  C   UNL     1      -9.625  19.516  65.645  1.00  0.00     0.181 C  
HETATM   17  C   UNL     1     -11.576  17.481  67.172  1.00  0.00     1.321 C  
HETATM   18  C   UNL     1     -11.121  16.321  66.401  1.00  0.00     0.131 C  
HETATM   19  C   UNL     1     -11.410  16.447  64.977  1.00  0.00    -0.025 C  
HETATM   20  O   UNL     1     -10.386  15.454  66.870  1.00  0.00    -0.266 OA 
HETATM   21  C   UNL     1     -12.234  15.098  64.693  1.00  0.00    -0.217 C  
HETATM   22  C   UNL     1     -13.187  15.403  63.515  1.00  0.00     2.633 C  
HETATM   23  C   UNL     1     -13.144  14.787  65.945  1.00  0.00     0.745 C  
HETATM   24  C   UNL     1     -13.745  13.417  66.205  1.00  0.00     4.068 C  
HETATM   25  C   UNL     1     -12.810  12.226  65.896  1.00  0.00     1.633 C  
HETATM   26  C   UNL     1     -12.204  12.439  64.424  1.00  0.00    -0.519 C  
HETATM   27  C   UNL     1      -9.227  15.536  64.149  1.00  0.00     6.860 C  
HETATM   28  C   UNL     1     -11.333  13.856  64.448  1.00  0.00    -0.352 C  
HETATM   29  C   UNL     1     -13.466  12.381  63.472  1.00  0.00     0.959 C  
HETATM   30  C   UNL     1     -11.447  11.160  64.020  1.00  0.00     0.193 C  
HETATM   31  C   UNL     1      -9.982  17.774  63.329  1.00  0.00    15.398 C  
HETATM   32  C   UNL     1      -9.933  16.918  64.639  1.00  0.00     2.325 C  
HETATM   33  C   UNL     1     -10.191  14.338  63.491  1.00  0.00     3.908 C  
ENDROOT
BRANCH  25  34
HETATM   34  O   UNL     1     -11.991  11.663  66.997  1.00  0.00    -0.593 OA 
BRANCH  34  35
HETATM   35  C   UNL     1     -10.809  12.355  67.515  1.00  0.00    -0.236 C  
HETATM   36  C   UNL     1      -9.390  10.629  69.434  1.00  0.00    -0.059 C  
HETATM   37  O   UNL     1     -10.868  12.381  68.924  1.00  0.00    -0.230 OA 
HETATM   38  C   UNL     1     -11.343  11.095  71.003  1.00  0.00     0.844 C  
HETATM   39  C   UNL     1     -10.811  11.113  69.535  1.00  0.00    -0.188 C  
HETATM   40  O   UNL     1      -9.312   9.294  69.954  1.00  0.00    -0.171 OA 
HETATM   41  C   UNL     1      -8.910  10.648  67.986  1.00  0.00    -0.130 C  
HETATM   42  O   UNL     1     -11.723  12.030  71.681  1.00  0.00     1.237 OA 
HETATM   43  O   UNL     1     -11.444   9.850  71.527  1.00  0.00    -0.365 OA 
HETATM   44  O   UNL     1      -7.460  10.624  68.064  1.00  0.00    -0.088 OA 
HETATM   45  H   UNL     1      -8.415   8.988  69.890  1.00  0.00     0.000 HD 
HETATM   46  C   UNL     1      -9.367  11.840  67.109  1.00  0.00    -0.177 C  
HETATM   47  H   UNL     1      -7.161  10.636  67.163  1.00  0.00     0.000 HD 
BRANCH  46  48
HETATM   48  O   UNL     1      -9.188  11.577  65.691  1.00  0.00    -0.218 OA 
BRANCH  48  49
HETATM   49  C   UNL     1      -9.624  10.256  65.299  1.00  0.00    -0.264 C  
HETATM   50  O   UNL     1     -11.052  10.167  65.236  1.00  0.00     0.621 OA 
HETATM   51  C   UNL     1     -11.439   8.936  64.588  1.00  0.00    10.814 C  
HETATM   52  C   UNL     1     -12.917   8.996  64.195  1.00  0.00    19.522 C  
HETATM   53  C   UNL     1     -11.139   7.792  65.555  1.00  0.00     5.696 C  
HETATM   54  O   UNL     1     -11.440   6.487  65.040  1.00  0.00     4.818 OA 
HETATM   55  C   UNL     1      -9.640   7.778  65.899  1.00  0.00     0.187 C  
HETATM   56  O   UNL     1     -13.497  10.171  64.533  1.00  0.00     8.155 OA 
HETATM   57  O   UNL     1     -13.516   8.115  63.597  1.00  0.00    16.583 OA 
HETATM   58  O   UNL     1      -9.408   6.922  67.028  1.00  0.00    -0.134 OA 
HETATM   59  C   UNL     1      -8.977   9.148  66.150  1.00  0.00    -0.173 C  
HETATM   60  H   UNL     1     -11.253   5.776  65.642  1.00  0.00     0.000 HD 
HETATM   61  H   UNL     1      -8.482   6.914  67.240  1.00  0.00     0.000 HD 
HETATM   62  O   UNL     1      -7.585   9.062  65.720  1.00  0.00    -0.089 OA 
HETATM   63  H   UNL     1      -7.185   8.377  66.245  1.00  0.00     0.000 HD 
ENDBRANCH  48  49
ENDBRANCH  46  48
ENDBRANCH  34  35
ENDBRANCH  25  34
TORSDOF 4
ENDMDL
MODEL      104
REMARK 921   NORMALIZED FREE ENERGY PREDICTED BY IDOCK:  117.07 KCAL/MOL
REMARK 922        TOTAL FREE ENERGY PREDICTED BY IDOCK:  143.55 KCAL/MOL
REMARK 923 INTER-LIGAND FREE ENERGY PREDICTED BY IDOCK:   64.07 KCAL/MOL
REMARK 924 INTRA-LIGAND FREE ENERGY PREDICTED BY IDOCK:   79.48 KCAL/MOL
REMARK 927      BINDING AFFINITY PREDICTED BY RF-SCORE:    0.00 PKD
ROOT
HETATM    1  C   UNL     1     -11.153  18.468  69.318  1.00  0.00     1.885 C  
HETATM    2  C   UNL     1     -11.288  17.123  70.166  1.00  0.00     1.005 C  
HETATM    3  C   UNL     1     -10.887  17.112  71.662  1.00  0.00     1.850 C  
HETATM    4  C   UNL     1      -9.605  17.946  71.851  1.00  0.00     8.975 C  
HETATM    5  C   UNL     1     -12.055  17.559  72.563  1.00  0.00     2.519 C  
HETATM    6  C   UNL     1     -10.588  15.690  72.200  1.00  0.00     1.376 C  
HETATM    7  O   UNL     1      -9.580  15.376  72.830  1.00  0.00     4.849 OA 
HETATM    8  O   UNL     1     -11.556  14.786  71.994  1.00  0.00    -0.302 OA 
HETATM    9  C   UNL     1      -9.440  19.218  70.976  1.00  0.00     2.810 C  
HETATM   10  C   UNL     1      -9.725  19.020  69.447  1.00  0.00    -0.076 C  
HETATM   11  C   UNL     1      -8.599  18.108  68.913  1.00  0.00    -0.128 C  
HETATM   12  C   UNL     1      -9.709  20.307  68.560  1.00  0.00    -0.170 C  
HETATM   13  C   UNL     1      -9.773  20.007  66.976  1.00  0.00    -0.555 C  
HETATM   14  C   UNL     1     -10.997  19.123  66.492  1.00  0.00    -0.189 C  
HETATM   15  C   UNL     1     -11.566  18.334  67.823  1.00  0.00     1.286 C  
HETATM   16  C   UNL     1     -12.138  20.188  66.297  1.00  0.00     3.145 C  
HETATM   17  C   UNL     1     -12.274  17.248  67.568  1.00  0.00     2.774 C  
HETATM   18  C   UNL     1     -11.321  16.688  66.606  1.00  0.00     0.610 C  
HETATM   19  C   UNL     1     -11.807  16.751  65.234  1.00  0.00     1.593 C  
HETATM   20  O   UNL     1     -10.161  16.406  66.903  1.00  0.00    -0.266 OA 
HETATM   21  C   UNL     1     -11.692  15.216  64.776  1.00  0.00    -0.331 C  
HETATM   22  C   UNL     1     -12.780  14.992  63.701  1.00  0.00     1.021 C  
HETATM   23  C   UNL     1     -12.067  14.293  66.001  1.00  0.00    -0.423 C  
HETATM   24  C   UNL     1     -11.692  12.823  66.069  1.00  0.00    -0.470 C  
HETATM   25  C   UNL     1     -10.281  12.485  65.539  1.00  0.00    -0.275 C  
HETATM   26  C   UNL     1     -10.116  13.168  64.095  1.00  0.00    -0.059 C  
HETATM   27  C   UNL     1      -9.640  17.445  64.183  1.00  0.00     7.935 C  
HETATM   28  C   UNL     1     -10.268  14.811  64.303  1.00  0.00     1.087 C  
HETATM   29  C   UNL     1     -11.203  12.448  63.199  1.00  0.00    -0.191 C  
HETATM   30  C   UNL     1      -8.806  12.661  63.465  1.00  0.00     2.823 C  
HETATM   31  C   UNL     1     -11.678  18.828  63.755  1.00  0.00    10.343 C  
HETATM   32  C   UNL     1     -10.961  18.055  64.911  1.00  0.00     1.352 C  
HETATM   33  C   UNL     1      -9.773  15.980  63.386  1.00  0.00    10.832 C  
ENDROOT
BRANCH  25  34
HETATM   34  O   UNL     1      -9.155  12.432  66.504  1.00  0.00    -0.217 OA 
BRANCH  34  35
HETATM   35  C   UNL     1      -9.235  13.060  67.823  1.00  0.00    -0.200 C  
HETATM   36  C   UNL     1      -6.534  13.400  68.945  1.00  0.00    -0.103 C  
HETATM   37  O   UNL     1      -8.571  12.247  68.765  1.00  0.00    -0.029 OA 
HETATM   38  C   UNL     1      -6.555  10.871  69.258  1.00  0.00    -0.079 C  
HETATM   39  C   UNL     1      -7.187  12.106  68.542  1.00  0.00    -0.102 C  
HETATM   40  O   UNL     1      -5.134  13.333  68.636  1.00  0.00    -0.066 OA 
HETATM   41  C   UNL     1      -7.168  14.581  68.216  1.00  0.00    -0.119 C  
HETATM   42  O   UNL     1      -7.086  10.083  70.017  1.00  0.00    -0.111 OA 
HETATM   43  O   UNL     1      -5.266  10.643  68.908  1.00  0.00    -0.042 OA 
HETATM   44  O   UNL     1      -6.808  15.750  68.999  1.00  0.00    -0.129 OA 
HETATM   45  H   UNL     1      -4.721  14.151  68.891  1.00  0.00     0.000 HD 
HETATM   46  C   UNL     1      -8.704  14.539  68.014  1.00  0.00    -0.167 C  
HETATM   47  H   UNL     1      -7.202  16.486  68.545  1.00  0.00     0.000 HD 
BRANCH  46  48
HETATM   48  O   UNL     1      -9.147  15.485  67.003  1.00  0.00    -0.208 OA 
BRANCH  48  49
HETATM   49  C   UNL     1      -8.348  16.688  66.961  1.00  0.00    -0.187 C  
HETATM   50  O   UNL     1      -9.161  17.859  66.826  1.00  0.00    -0.253 OA 
HETATM   51  C   UNL     1      -8.362  19.040  67.058  1.00  0.00    -0.276 C  
HETATM   52  C   UNL     1      -9.272  20.251  67.274  1.00  0.00    -0.395 C  
HETATM   53  C   UNL     1      -7.435  19.214  65.856  1.00  0.00    -0.238 C  
HETATM   54  O   UNL     1      -6.546  20.335  65.951  1.00  0.00    -0.217 OA 
HETATM   55  C   UNL     1      -6.540  17.973  65.703  1.00  0.00    -0.207 C  
HETATM   56  O   UNL     1     -10.586  19.932  67.206  1.00  0.00    -0.430 OA 
HETATM   57  O   UNL     1      -8.882  21.380  67.528  1.00  0.00     0.086 OA 
HETATM   58  O   UNL     1      -5.900  17.989  64.417  1.00  0.00     0.209 OA 
HETATM   59  C   UNL     1      -7.215  16.602  65.921  1.00  0.00     0.692 C  
HETATM   60  H   UNL     1      -5.970  20.442  65.203  1.00  0.00     0.000 HD 
HETATM   61  H   UNL     1      -5.348  17.223  64.323  1.00  0.00     0.000 HD 
HETATM   62  O   UNL     1      -6.219  15.691  66.473  1.00  0.00     0.219 OA 
HETATM   63  H   UNL     1      -5.520  15.638  65.831  1.00  0.00     0.000 HD 
ENDBRANCH  48  49
ENDBRANCH  46  48
ENDBRANCH  34  35
ENDBRANCH  25  34
TORSDOF 4
ENDMDL
MODEL      105
REMARK 921   NORMALIZED FREE ENERGY PREDICTED BY IDOCK:  131.04 KCAL/MOL
REMARK 922        TOTAL FREE ENERGY PREDICTED BY IDOCK:  160.78 KCAL/MOL
REMARK 923 INTER-LIGAND FREE ENERGY PREDICTED BY IDOCK:  150.87 KCAL/MOL
REMARK 924 INTRA-LIGAND FREE ENERGY PREDICTED BY IDOCK:    9.91 KCAL/MOL
REMARK 927      BINDING AFFINITY PREDICTED BY RF-SCORE:    0.00 PKD
ROOT
HETATM    1  C   UNL     1     -10.126   5.354  71.852  1.00  0.00    -0.246 C  
HETATM    2  C   UNL     1      -8.768   6.189  71.936  1.00  0.00    -0.137 C  
HETATM    3  C   UNL     1      -7.918   6.148  73.229  1.00  0.00    -0.103 C  
HETATM    4  C   UNL     1      -8.853   6.185  74.454  1.00  0.00    -0.139 C  
HETATM    5  C   UNL     1      -6.946   4.952  73.229  1.00  0.00    -0.071 C  
HETATM    6  C   UNL     1      -6.951   7.352  73.359  1.00  0.00    -0.069 C  
HETATM    7  O   UNL     1      -6.846   8.064  74.355  1.00  0.00    -0.113 OA 
HETATM    8  O   UNL     1      -6.146   7.554  72.306  1.00  0.00    -0.040 OA 
HETATM    9  C   UNL     1     -10.206   5.431  74.349  1.00  0.00    -0.299 C  
HETATM   10  C   UNL     1     -11.028   5.712  73.043  1.00  0.00    -0.325 C  
HETATM   11  C   UNL     1     -11.481   7.185  73.128  1.00  0.00    -0.011 C  
HETATM   12  C   UNL     1     -12.323   4.861  72.837  1.00  0.00     0.374 C  
HETATM   13  C   UNL     1     -13.240   5.360  71.607  1.00  0.00     2.937 C  
HETATM   14  C   UNL     1     -12.513   5.451  70.200  1.00  0.00     5.482 C  
HETATM   15  C   UNL     1     -10.894   5.503  70.506  1.00  0.00    -0.266 C  
HETATM   16  C   UNL     1     -12.640   3.983  69.649  1.00  0.00    18.835 C  
HETATM   17  C   UNL     1     -10.158   6.009  69.533  1.00  0.00    -0.246 C  
HETATM   18  C   UNL     1     -11.007   7.183  69.316  1.00  0.00    -0.136 C  
HETATM   19  C   UNL     1     -11.757   7.110  68.069  1.00  0.00     1.135 C  
HETATM   20  O   UNL     1     -11.226   8.019  70.192  1.00  0.00    -0.238 OA 
HETATM   21  C   UNL     1     -11.335   8.484  67.354  1.00  0.00     1.112 C  
HETATM   22  C   UNL     1     -11.431   8.238  65.831  1.00  0.00     5.538 C  
HETATM   23  C   UNL     1      -9.816   8.774  67.672  1.00  0.00    -0.228 C  
HETATM   24  C   UNL     1      -9.189  10.148  67.511  1.00  0.00    -0.150 C  
HETATM   25  C   UNL     1     -10.079  11.328  67.960  1.00  0.00    -0.177 C  
HETATM   26  C   UNL     1     -11.522  11.149  67.279  1.00  0.00    -0.218 C  
HETATM   27  C   UNL     1     -13.920   8.000  68.970  1.00  0.00    11.521 C  
HETATM   28  C   UNL     1     -12.157   9.714  67.831  1.00  0.00     3.185 C  
HETATM   29  C   UNL     1     -11.236  11.265  65.728  1.00  0.00    -0.084 C  
HETATM   30  C   UNL     1     -12.345  12.424  67.542  1.00  0.00     0.536 C  
HETATM   31  C   UNL     1     -13.932   5.806  67.771  1.00  0.00    23.787 C  
HETATM   32  C   UNL     1     -13.078   6.618  68.800  1.00  0.00     8.281 C  
HETATM   33  C   UNL     1     -13.648   9.239  67.880  1.00  0.00    15.971 C  
ENDROOT
BRANCH  25  34
HETATM   34  O   UNL     1      -9.935  11.837  69.347  1.00  0.00     0.195 OA 
BRANCH  34  35
HETATM   35  C   UNL     1      -9.096  11.160  70.337  1.00  0.00     2.926 C  
HETATM   36  C   UNL     1      -6.251  11.612  69.729  1.00  0.00    -0.139 C  
HETATM   37  O   UNL     1      -8.197  10.300  69.674  1.00  0.00    -0.167 OA 
HETATM   38  C   UNL     1      -6.616  10.025  67.769  1.00  0.00    -0.067 C  
HETATM   39  C   UNL     1      -7.270  10.956  68.839  1.00  0.00    -0.095 C  
HETATM   40  O   UNL     1      -5.346  12.378  68.918  1.00  0.00    -0.055 OA 
HETATM   41  C   UNL     1      -6.925  12.523  70.750  1.00  0.00     2.708 C  
HETATM   42  O   UNL     1      -6.756   8.826  67.623  1.00  0.00    -0.064 OA 
HETATM   43  O   UNL     1      -5.857  10.689  66.865  1.00  0.00    -0.053 OA 
HETATM   44  O   UNL     1      -5.941  12.713  71.801  1.00  0.00    -0.210 OA 
HETATM   45  H   UNL     1      -4.703  12.793  69.481  1.00  0.00     0.000 HD 
HETATM   46  C   UNL     1      -8.257  12.025  71.365  1.00  0.00    11.719 C  
HETATM   47  H   UNL     1      -6.360  13.280  72.437  1.00  0.00     0.000 HD 
BRANCH  46  48
HETATM   48  O   UNL     1      -8.996  13.096  72.012  1.00  0.00    14.148 OA 
BRANCH  48  49
HETATM   49  C   UNL     1     -10.421  12.857  72.056  1.00  0.00    10.715 C  
HETATM   50  O   UNL     1     -10.721  11.459  72.138  1.00  0.00     6.201 OA 
HETATM   51  C   UNL     1     -12.120  11.275  72.451  1.00  0.00     2.597 C  
HETATM   52  C   UNL     1     -12.369   9.832  72.893  1.00  0.00     1.605 C  
HETATM   53  C   UNL     1     -12.923  11.652  71.208  1.00  0.00    -0.269 C  
HETATM   54  O   UNL     1     -14.345  11.554  71.369  1.00  0.00     1.949 OA 
HETATM   55  C   UNL     1     -12.639  13.114  70.825  1.00  0.00    -0.260 C  
HETATM   56  O   UNL     1     -11.239   9.086  72.894  1.00  0.00     0.491 OA 
HETATM   57  O   UNL     1     -13.449   9.390  73.255  1.00  0.00     0.169 OA 
HETATM   58  O   UNL     1     -13.136  13.377  69.503  1.00  0.00     0.505 OA 
HETATM   59  C   UNL     1     -11.172  13.581  70.923  1.00  0.00     1.420 C  
HETATM   60  H   UNL     1     -14.845  11.788  70.596  1.00  0.00     0.000 HD 
HETATM   61  H   UNL     1     -12.960  14.280  69.267  1.00  0.00     0.000 HD 
HETATM   62  O   UNL     1     -11.171  14.998  71.270  1.00  0.00    -0.497 OA 
HETATM   63  H   UNL     1     -11.635  15.445  70.571  1.00  0.00     0.000 HD 
ENDBRANCH  48  49
ENDBRANCH  46  48
ENDBRANCH  34  35
ENDBRANCH  25  34
TORSDOF 4
ENDMDL
MODEL      106
REMARK 921   NORMALIZED FREE ENERGY PREDICTED BY IDOCK:  131.24 KCAL/MOL
REMARK 922        TOTAL FREE ENERGY PREDICTED BY IDOCK:  161.03 KCAL/MOL
REMARK 923 INTER-LIGAND FREE ENERGY PREDICTED BY IDOCK:  156.96 KCAL/MOL
REMARK 924 INTRA-LIGAND FREE ENERGY PREDICTED BY IDOCK:    4.07 KCAL/MOL
REMARK 927      BINDING AFFINITY PREDICTED BY RF-SCORE:    0.00 PKD
ROOT
HETATM    1  C   UNL     1     -11.764  17.158  68.126  1.00  0.00     0.865 C  
HETATM    2  C   UNL     1     -11.272  16.771  66.657  1.00  0.00     0.464 C  
HETATM    3  C   UNL     1     -11.999  17.357  65.422  1.00  0.00     3.414 C  
HETATM    4  C   UNL     1     -13.519  17.369  65.684  1.00  0.00    12.687 C  
HETATM    5  C   UNL     1     -11.428  18.734  65.032  1.00  0.00     2.551 C  
HETATM    6  C   UNL     1     -11.767  16.532  64.132  1.00  0.00     0.623 C  
HETATM    7  O   UNL     1     -12.657  16.142  63.378  1.00  0.00     0.209 OA 
HETATM    8  O   UNL     1     -10.483  16.303  63.823  1.00  0.00     1.365 OA 
HETATM    9  C   UNL     1     -13.996  17.677  67.129  1.00  0.00    11.424 C  
HETATM   10  C   UNL     1     -13.268  16.872  68.260  1.00  0.00     5.416 C  
HETATM   11  C   UNL     1     -13.693  15.399  68.083  1.00  0.00     6.441 C  
HETATM   12  C   UNL     1     -13.620  17.261  69.733  1.00  0.00    11.022 C  
HETATM   13  C   UNL     1     -13.023  16.245  70.835  1.00  0.00     1.269 C  
HETATM   14  C   UNL     1     -11.455  16.013  70.777  1.00  0.00    -0.444 C  
HETATM   15  C   UNL     1     -10.962  16.480  69.275  1.00  0.00    -0.302 C  
HETATM   16  C   UNL     1     -10.896  17.209  71.632  1.00  0.00     1.850 C  
HETATM   17  C   UNL     1      -9.808  15.971  68.883  1.00  0.00    -0.232 C  
HETATM   18  C   UNL     1     -10.130  14.594  69.269  1.00  0.00    -0.115 C  
HETATM   19  C   UNL     1      -9.385  14.152  70.441  1.00  0.00     2.521 C  
HETATM   20  O   UNL     1     -11.078  13.971  68.792  1.00  0.00    -0.243 OA 
HETATM   21  C   UNL     1      -8.687  12.812  69.897  1.00  0.00     2.945 C  
HETATM   22  C   UNL     1      -7.375  12.641  70.696  1.00  0.00     3.508 C  
HETATM   23  C   UNL     1      -8.273  13.034  68.389  1.00  0.00    -0.123 C  
HETATM   24  C   UNL     1      -7.963  11.886  67.444  1.00  0.00    -0.162 C  
HETATM   25  C   UNL     1      -8.888  10.656  67.585  1.00  0.00    -0.131 C  
HETATM   26  C   UNL     1      -8.956  10.263  69.141  1.00  0.00    -0.187 C  
HETATM   27  C   UNL     1     -11.280  12.957  71.564  1.00  0.00     3.808 C  
HETATM   28  C   UNL     1      -9.607  11.562  69.952  1.00  0.00     1.592 C  
HETATM   29  C   UNL     1      -7.473   9.852  69.504  1.00  0.00    -0.112 C  
HETATM   30  C   UNL     1      -9.695   8.918  69.269  1.00  0.00    -0.165 C  
HETATM   31  C   UNL     1     -10.032  14.701  72.849  1.00  0.00     5.761 C  
HETATM   32  C   UNL     1     -10.604  14.430  71.418  1.00  0.00     1.998 C  
HETATM   33  C   UNL     1     -10.312  11.610  71.350  1.00  0.00     7.138 C  
ENDROOT
BRANCH  25  34
HETATM   34  O   UNL     1     -10.081  10.562  66.709  1.00  0.00    -0.202 OA 
BRANCH  34  35
HETATM   35  C   UNL     1     -11.294   9.857  67.124  1.00  0.00     0.584 C  
HETATM   36  C   UNL     1     -13.533  10.571  65.350  1.00  0.00    12.183 C  
HETATM   37  O   UNL     1     -12.322  10.796  67.349  1.00  0.00     0.872 OA 
HETATM   38  C   UNL     1     -13.484  12.836  66.517  1.00  0.00     4.644 C  
HETATM   39  C   UNL     1     -12.723  11.509  66.202  1.00  0.00     3.685 C  
HETATM   40  O   UNL     1     -13.874  11.230  64.121  1.00  0.00     1.060 OA 
HETATM   41  C   UNL     1     -12.753   9.294  65.052  1.00  0.00    16.970 C  
HETATM   42  O   UNL     1     -13.821  13.275  67.600  1.00  0.00     5.906 OA 
HETATM   43  O   UNL     1     -13.718  13.599  65.423  1.00  0.00    -0.208 OA 
HETATM   44  O   UNL     1     -13.754   8.319  64.656  1.00  0.00    16.912 OA 
HETATM   45  H   UNL     1     -14.386  10.637  63.583  1.00  0.00     0.000 HD 
HETATM   46  C   UNL     1     -11.885   8.717  66.198  1.00  0.00     6.960 C  
HETATM   47  H   UNL     1     -13.269   7.524  64.470  1.00  0.00     0.000 HD 
BRANCH  46  48
HETATM   48  O   UNL     1     -10.911   7.753  65.714  1.00  0.00     2.136 OA 
BRANCH  48  49
HETATM   49  C   UNL     1      -9.628   7.864  66.371  1.00  0.00    -0.181 C  
HETATM   50  O   UNL     1      -8.581   8.161  65.441  1.00  0.00    -0.160 OA 
HETATM   51  C   UNL     1      -7.380   8.529  66.155  1.00  0.00    -0.081 C  
HETATM   52  C   UNL     1      -6.385   9.186  65.196  1.00  0.00    -0.068 C  
HETATM   53  C   UNL     1      -6.820   7.261  66.798  1.00  0.00    -0.065 C  
HETATM   54  O   UNL     1      -5.634   7.468  67.578  1.00  0.00    -0.031 OA 
HETATM   55  C   UNL     1      -7.860   6.659  67.757  1.00  0.00    -0.112 C  
HETATM   56  O   UNL     1      -6.861   9.274  63.932  1.00  0.00    -0.089 OA 
HETATM   57  O   UNL     1      -5.296   9.634  65.521  1.00  0.00    -0.042 OA 
HETATM   58  O   UNL     1      -7.473   5.324  68.119  1.00  0.00    -0.074 OA 
HETATM   59  C   UNL     1      -9.325   6.653  67.273  1.00  0.00    -0.132 C  
HETATM   60  H   UNL     1      -5.286   6.679  67.978  1.00  0.00     0.000 HD 
HETATM   61  H   UNL     1      -8.116   4.952  68.711  1.00  0.00     0.000 HD 
HETATM   62  O   UNL     1     -10.188   6.786  68.441  1.00  0.00    -0.161 OA 
HETATM   63  H   UNL     1     -10.000   6.038  68.998  1.00  0.00     0.000 HD 
ENDBRANCH  48  49
ENDBRANCH  46  48
ENDBRANCH  34  35
ENDBRANCH  25  34
TORSDOF 4
ENDMDL
MODEL      107
REMARK 921   NORMALIZED FREE ENERGY PREDICTED BY IDOCK:  135.83 KCAL/MOL
REMARK 922        TOTAL FREE ENERGY PREDICTED BY IDOCK:  166.69 KCAL/MOL
REMARK 923 INTER-LIGAND FREE ENERGY PREDICTED BY IDOCK:   77.95 KCAL/MOL
REMARK 924 INTRA-LIGAND FREE ENERGY PREDICTED BY IDOCK:   88.75 KCAL/MOL
REMARK 927      BINDING AFFINITY PREDICTED BY RF-SCORE:    0.00 PKD
ROOT
HETATM    1  C   UNL     1      -8.136  16.399  68.751  1.00  0.00    -0.234 C  
HETATM    2  C   UNL     1      -9.378  15.727  69.497  1.00  0.00    -0.238 C  
HETATM    3  C   UNL     1      -9.842  16.279  70.868  1.00  0.00     2.106 C  
HETATM    4  C   UNL     1      -8.607  16.632  71.719  1.00  0.00    10.221 C  
HETATM    5  C   UNL     1     -10.833  17.447  70.700  1.00  0.00     1.233 C  
HETATM    6  C   UNL     1     -10.678  15.259  71.681  1.00  0.00     0.378 C  
HETATM    7  O   UNL     1     -10.472  14.961  72.856  1.00  0.00     1.787 OA 
HETATM    8  O   UNL     1     -11.729  14.736  71.034  1.00  0.00    -0.306 OA 
HETATM    9  C   UNL     1      -7.372  17.221  70.984  1.00  0.00     4.827 C  
HETATM   10  C   UNL     1      -6.927  16.443  69.698  1.00  0.00    -0.064 C  
HETATM   11  C   UNL     1      -6.397  15.077  70.181  1.00  0.00    -0.150 C  
HETATM   12  C   UNL     1      -5.780  17.088  68.854  1.00  0.00    -0.143 C  
HETATM   13  C   UNL     1      -5.212  16.129  67.687  1.00  0.00    -0.151 C  
HETATM   14  C   UNL     1      -6.291  15.579  66.663  1.00  0.00     1.272 C  
HETATM   15  C   UNL     1      -7.760  15.732  67.396  1.00  0.00    -0.211 C  
HETATM   16  C   UNL     1      -6.391  16.741  65.607  1.00  0.00     1.755 C  
HETATM   17  C   UNL     1      -8.710  14.952  66.911  1.00  0.00    -0.276 C  
HETATM   18  C   UNL     1      -7.897  13.733  66.911  1.00  0.00     0.312 C  
HETATM   19  C   UNL     1      -7.521  13.310  65.567  1.00  0.00     5.767 C  
HETATM   20  O   UNL     1      -7.407  13.257  67.934  1.00  0.00    -0.103 OA 
HETATM   21  C   UNL     1      -8.057  11.797  65.541  1.00  0.00     0.805 C  
HETATM   22  C   UNL     1      -8.394  11.472  64.068  1.00  0.00     0.952 C  
HETATM   23  C   UNL     1      -9.415  11.727  66.343  1.00  0.00    -0.234 C  
HETATM   24  C   UNL     1      -9.996  10.424  66.866  1.00  0.00    -0.254 C  
HETATM   25  C   UNL     1      -8.961   9.437  67.451  1.00  0.00    -0.124 C  
HETATM   26  C   UNL     1      -7.771   9.277  66.385  1.00  0.00    -0.093 C  
HETATM   27  C   UNL     1      -5.155  12.683  66.103  1.00  0.00     2.150 C  
HETATM   28  C   UNL     1      -7.078  10.777  66.186  1.00  0.00    -0.122 C  
HETATM   29  C   UNL     1      -8.464   8.627  65.122  1.00  0.00    -0.197 C  
HETATM   30  C   UNL     1      -6.847   8.138  66.856  1.00  0.00    -0.069 C  
HETATM   31  C   UNL     1      -5.576  14.294  64.238  1.00  0.00    21.945 C  
HETATM   32  C   UNL     1      -6.076  13.957  65.682  1.00  0.00     9.652 C  
HETATM   33  C   UNL     1      -5.655  11.152  65.653  1.00  0.00     0.031 C  
ENDROOT
BRANCH  25  34
HETATM   34  O   UNL     1      -8.696   9.470  68.910  1.00  0.00    -0.127 OA 
BRANCH  34  35
HETATM   35  C   UNL     1      -9.744   9.197  69.894  1.00  0.00    -0.191 C  
HETATM   36  C   UNL     1     -12.333   8.839  68.539  1.00  0.00     4.530 C  
HETATM   37  O   UNL     1     -10.785  10.135  69.736  1.00  0.00    -0.241 OA 
HETATM   38  C   UNL     1     -12.250  11.354  68.133  1.00  0.00     0.299 C  
HETATM   39  C   UNL     1     -11.456  10.060  68.500  1.00  0.00     0.045 C  
HETATM   40  O   UNL     1     -12.957   8.670  67.257  1.00  0.00     9.688 OA 
HETATM   41  C   UNL     1     -11.521   7.595  68.886  1.00  0.00     0.750 C  
HETATM   42  O   UNL     1     -12.410  12.358  68.800  1.00  0.00    -0.048 OA 
HETATM   43  O   UNL     1     -12.753  11.343  66.876  1.00  0.00     1.958 OA 
HETATM   44  O   UNL     1     -12.495   6.620  69.344  1.00  0.00     0.344 OA 
HETATM   45  H   UNL     1     -13.511   7.899  67.281  1.00  0.00     0.000 HD 
HETATM   46  C   UNL     1     -10.405   7.758  69.947  1.00  0.00    -0.223 C  
HETATM   47  H   UNL     1     -11.989   5.845  69.560  1.00  0.00     0.000 HD 
BRANCH  46  48
HETATM   48  O   UNL     1      -9.464   6.651  69.926  1.00  0.00    -0.156 OA 
BRANCH  48  49
HETATM   49  C   UNL     1      -8.241   6.958  69.219  1.00  0.00    -0.125 C  
HETATM   50  O   UNL     1      -8.303   8.241  68.587  1.00  0.00    -0.122 OA 
HETATM   51  C   UNL     1      -6.988   8.626  68.128  1.00  0.00    -0.074 C  
HETATM   52  C   UNL     1      -6.972  10.117  67.786  1.00  0.00    -0.084 C  
HETATM   53  C   UNL     1      -6.645   7.748  66.925  1.00  0.00    -0.059 C  
HETATM   54  O   UNL     1      -5.345   7.987  66.370  1.00  0.00    -0.024 OA 
HETATM   55  C   UNL     1      -6.666   6.267  67.337  1.00  0.00    -0.061 C  
HETATM   56  O   UNL     1      -8.168  10.713  68.000  1.00  0.00    -0.110 OA 
HETATM   57  O   UNL     1      -5.988  10.735  67.407  1.00  0.00    -0.047 OA 
HETATM   58  O   UNL     1      -6.655   5.436  66.166  1.00  0.00    -0.046 OA 
HETATM   59  C   UNL     1      -7.814   5.824  68.268  1.00  0.00    -0.100 C  
HETATM   60  H   UNL     1      -5.132   7.441  65.622  1.00  0.00     0.000 HD 
HETATM   61  H   UNL     1      -6.668   4.521  66.421  1.00  0.00     0.000 HD 
HETATM   62  O   UNL     1      -7.319   4.744  69.114  1.00  0.00    -0.052 OA 
HETATM   63  H   UNL     1      -7.055   4.045  68.527  1.00  0.00     0.000 HD 
ENDBRANCH  48  49
ENDBRANCH  46  48
ENDBRANCH  34  35
ENDBRANCH  25  34
TORSDOF 4
ENDMDL
MODEL      108
REMARK 921   NORMALIZED FREE ENERGY PREDICTED BY IDOCK:  136.18 KCAL/MOL
REMARK 922        TOTAL FREE ENERGY PREDICTED BY IDOCK:  167.13 KCAL/MOL
REMARK 923 INTER-LIGAND FREE ENERGY PREDICTED BY IDOCK:  124.59 KCAL/MOL
REMARK 924 INTRA-LIGAND FREE ENERGY PREDICTED BY IDOCK:   42.54 KCAL/MOL
REMARK 927      BINDING AFFINITY PREDICTED BY RF-SCORE:    0.00 PKD
ROOT
HETATM    1  C   UNL     1     -10.403   9.634  64.955  1.00  0.00     0.702 C  
HETATM    2  C   UNL     1      -8.998   8.916  65.199  1.00  0.00    -0.189 C  
HETATM    3  C   UNL     1      -8.443   7.932  64.140  1.00  0.00     0.153 C  
HETATM    4  C   UNL     1      -9.597   7.071  63.589  1.00  0.00     3.561 C  
HETATM    5  C   UNL     1      -7.646   8.671  63.047  1.00  0.00    -0.111 C  
HETATM    6  C   UNL     1      -7.382   6.959  64.712  1.00  0.00    -0.088 C  
HETATM    7  O   UNL     1      -7.397   5.738  64.563  1.00  0.00    -0.063 OA 
HETATM    8  O   UNL     1      -6.360   7.540  65.356  1.00  0.00    -0.038 OA 
HETATM    9  C   UNL     1     -10.982   7.752  63.417  1.00  0.00    15.246 C  
HETATM   10  C   UNL     1     -11.478   8.580  64.652  1.00  0.00    12.571 C  
HETATM   11  C   UNL     1     -11.755   7.557  65.774  1.00  0.00     6.971 C  
HETATM   12  C   UNL     1     -12.798   9.395  64.462  1.00  0.00    16.431 C  
HETATM   13  C   UNL     1     -13.375  10.028  65.830  1.00  0.00    16.432 C  
HETATM   14  C   UNL     1     -12.370  10.950  66.639  1.00  0.00     3.311 C  
HETATM   15  C   UNL     1     -10.855  10.577  66.109  1.00  0.00    -0.028 C  
HETATM   16  C   UNL     1     -12.561  12.354  65.954  1.00  0.00     0.506 C  
HETATM   17  C   UNL     1      -9.878  10.901  66.937  1.00  0.00    -0.222 C  
HETATM   18  C   UNL     1     -10.514  10.328  68.127  1.00  0.00    -0.190 C  
HETATM   19  C   UNL     1     -10.996  11.347  69.051  1.00  0.00    -0.288 C  
HETATM   20  O   UNL     1     -10.803   9.135  68.220  1.00  0.00    -0.163 OA 
HETATM   21  C   UNL     1     -10.271  10.917  70.417  1.00  0.00     1.024 C  
HETATM   22  C   UNL     1     -10.082  12.209  71.243  1.00  0.00     8.992 C  
HETATM   23  C   UNL     1      -8.825  10.381  70.075  1.00  0.00     0.270 C  
HETATM   24  C   UNL     1      -8.014   9.531  71.038  1.00  0.00     0.104 C  
HETATM   25  C   UNL     1      -8.826   8.467  71.810  1.00  0.00    -0.195 C  
HETATM   26  C   UNL     1     -10.109   9.189  72.450  1.00  0.00     0.472 C  
HETATM   27  C   UNL     1     -13.171  10.235  69.611  1.00  0.00     1.150 C  
HETATM   28  C   UNL     1     -11.015   9.795  71.192  1.00  0.00    -0.386 C  
HETATM   29  C   UNL     1      -9.500  10.232  73.471  1.00  0.00    11.444 C  
HETATM   30  C   UNL     1     -10.805   8.194  73.396  1.00  0.00     0.431 C  
HETATM   31  C   UNL     1     -13.207  12.597  68.791  1.00  0.00     3.379 C  
HETATM   32  C   UNL     1     -12.488  11.233  68.522  1.00  0.00     0.649 C  
HETATM   33  C   UNL     1     -12.532  10.183  71.156  1.00  0.00    -0.490 C  
ENDROOT
BRANCH  25  34
HETATM   34  O   UNL     1      -8.907   7.094  71.252  1.00  0.00    -0.129 OA 
BRANCH  34  35
HETATM   35  C   UNL     1      -7.736   6.413  70.697  1.00  0.00    -0.105 C  
HETATM   36  C   UNL     1      -8.353   3.574  70.219  1.00  0.00    -0.056 C  
HETATM   37  O   UNL     1      -7.419   5.302  71.505  1.00  0.00    -0.090 OA 
HETATM   38  C   UNL     1      -8.291   3.333  72.755  1.00  0.00    -0.080 C  
HETATM   39  C   UNL     1      -8.409   4.300  71.535  1.00  0.00    -0.092 C  
HETATM   40  O   UNL     1      -9.416   2.611  70.170  1.00  0.00    -0.136 OA 
HETATM   41  C   UNL     1      -8.485   4.549  69.052  1.00  0.00    -0.079 C  
HETATM   42  O   UNL     1      -7.431   3.302  73.615  1.00  0.00    -0.054 OA 
HETATM   43  O   UNL     1      -9.336   2.480  72.873  1.00  0.00    -0.086 OA 
HETATM   44  O   UNL     1      -7.962   3.837  67.900  1.00  0.00    -0.083 OA 
HETATM   45  H   UNL     1      -9.381   2.152  69.339  1.00  0.00     0.000 HD 
HETATM   46  C   UNL     1      -7.768   5.915  69.194  1.00  0.00    -0.091 C  
HETATM   47  H   UNL     1      -8.044   4.444  67.173  1.00  0.00     0.000 HD 
BRANCH  46  48
HETATM   48  O   UNL     1      -8.258   6.891  68.235  1.00  0.00    -0.121 OA 
BRANCH  48  49
HETATM   49  C   UNL     1      -8.876   6.288  67.076  1.00  0.00    -0.108 C  
HETATM   50  O   UNL     1     -10.284   6.542  67.034  1.00  0.00    -0.172 OA 
HETATM   51  C   UNL     1     -10.813   6.165  65.743  1.00  0.00     1.387 C  
HETATM   52  C   UNL     1     -12.212   6.757  65.561  1.00  0.00     8.242 C  
HETATM   53  C   UNL     1     -10.812   4.639  65.674  1.00  0.00    -0.055 C  
HETATM   54  O   UNL     1     -11.282   4.103  64.429  1.00  0.00    -0.708 OA 
HETATM   55  C   UNL     1      -9.379   4.109  65.851  1.00  0.00    -0.163 C  
HETATM   56  O   UNL     1     -12.610   7.488  66.628  1.00  0.00     6.223 OA 
HETATM   57  O   UNL     1     -12.894   6.638  64.554  1.00  0.00    10.289 OA 
HETATM   58  O   UNL     1      -9.410   2.695  66.097  1.00  0.00    -0.319 OA 
HETATM   59  C   UNL     1      -8.516   4.798  66.929  1.00  0.00    -0.105 C  
HETATM   60  H   UNL     1     -11.281   3.154  64.386  1.00  0.00     0.000 HD 
HETATM   61  H   UNL     1      -8.525   2.368  66.207  1.00  0.00     0.000 HD 
HETATM   62  O   UNL     1      -7.126   4.753  66.490  1.00  0.00    -0.072 OA 
HETATM   63  H   UNL     1      -6.904   3.833  66.399  1.00  0.00     0.000 HD 
ENDBRANCH  48  49
ENDBRANCH  46  48
ENDBRANCH  34  35
ENDBRANCH  25  34
TORSDOF 4
ENDMDL
MODEL      109
REMARK 921   NORMALIZED FREE ENERGY PREDICTED BY IDOCK:  141.57 KCAL/MOL
REMARK 922        TOTAL FREE ENERGY PREDICTED BY IDOCK:  173.77 KCAL/MOL
REMARK 923 INTER-LIGAND FREE ENERGY PREDICTED BY IDOCK:  160.32 KCAL/MOL
REMARK 924 INTRA-LIGAND FREE ENERGY PREDICTED BY IDOCK:   13.45 KCAL/MOL
REMARK 927      BINDING AFFINITY PREDICTED BY RF-SCORE:    0.00 PKD
ROOT
HETATM    1  C   UNL     1      -9.828  13.786  66.775  1.00  0.00    -0.275 C  
HETATM    2  C   UNL     1      -9.053  12.477  66.291  1.00  0.00    -0.074 C  
HETATM    3  C   UNL     1      -9.183  12.004  64.822  1.00  0.00     0.343 C  
HETATM    4  C   UNL     1     -10.643  12.180  64.358  1.00  0.00    -0.363 C  
HETATM    5  C   UNL     1      -8.155  12.704  63.911  1.00  0.00     5.478 C  
HETATM    6  C   UNL     1      -8.822  10.510  64.631  1.00  0.00    -0.196 C  
HETATM    7  O   UNL     1      -9.520   9.690  64.037  1.00  0.00    -0.177 OA 
HETATM    8  O   UNL     1      -7.624  10.145  65.109  1.00  0.00    -0.134 OA 
HETATM    9  C   UNL     1     -11.420  13.417  64.884  1.00  0.00    -0.346 C  
HETATM   10  C   UNL     1     -11.320  13.662  66.430  1.00  0.00    -0.331 C  
HETATM   11  C   UNL     1     -12.073  12.494  67.101  1.00  0.00    -0.135 C  
HETATM   12  C   UNL     1     -11.969  14.976  66.973  1.00  0.00    -0.017 C  
HETATM   13  C   UNL     1     -12.039  15.050  68.583  1.00  0.00    -0.198 C  
HETATM   14  C   UNL     1     -10.659  14.865  69.341  1.00  0.00    -0.255 C  
HETATM   15  C   UNL     1      -9.631  14.134  68.280  1.00  0.00    -0.226 C  
HETATM   16  C   UNL     1     -10.063  16.321  69.338  1.00  0.00    -0.253 C  
HETATM   17  C   UNL     1      -8.606  13.511  68.834  1.00  0.00     0.209 C  
HETATM   18  C   UNL     1      -9.404  12.811  69.845  1.00  0.00     2.908 C  
HETATM   19  C   UNL     1      -9.199  13.341  71.187  1.00  0.00    10.340 C  
HETATM   20  O   UNL     1     -10.304  12.023  69.556  1.00  0.00     0.214 OA 
HETATM   21  C   UNL     1      -8.780  12.020  71.998  1.00  0.00    19.162 C  
HETATM   22  C   UNL     1      -7.870  12.483  73.158  1.00  0.00    16.643 C  
HETATM   23  C   UNL     1      -7.893  11.110  71.060  1.00  0.00     4.640 C  
HETATM   24  C   UNL     1      -7.655   9.635  71.331  1.00  0.00     0.605 C  
HETATM   25  C   UNL     1      -8.889   8.858  71.842  1.00  0.00    -0.052 C  
HETATM   26  C   UNL     1      -9.525   9.684  73.063  1.00  0.00     4.565 C  
HETATM   27  C   UNL     1     -11.599  13.273  71.904  1.00  0.00     2.483 C  
HETATM   28  C   UNL     1      -9.991  11.167  72.469  1.00  0.00    14.112 C  
HETATM   29  C   UNL     1      -8.397   9.671  74.171  1.00  0.00     3.801 C  
HETATM   30  C   UNL     1     -10.618   8.819  73.718  1.00  0.00     3.754 C  
HETATM   31  C   UNL     1     -10.348  15.429  72.102  1.00  0.00     1.975 C  
HETATM   32  C   UNL     1     -10.522  14.216  71.129  1.00  0.00     2.606 C  
HETATM   33  C   UNL     1     -11.035  12.184  73.041  1.00  0.00    14.078 C  
ENDROOT
BRANCH  25  34
HETATM   34  O   UNL     1      -9.743   8.155  70.854  1.00  0.00    -0.163 OA 
BRANCH  34  35
HETATM   35  C   UNL     1      -9.510   6.758  70.483  1.00  0.00    -0.169 C  
HETATM   36  C   UNL     1     -12.052   5.478  69.727  1.00  0.00     3.625 C  
HETATM   37  O   UNL     1     -10.337   5.927  71.266  1.00  0.00    -0.205 OA 
HETATM   38  C   UNL     1     -12.613   5.565  72.211  1.00  0.00     0.753 C  
HETATM   39  C   UNL     1     -11.717   6.107  71.052  1.00  0.00    -0.118 C  
HETATM   40  O   UNL     1     -13.432   5.731  69.424  1.00  0.00     7.336 OA 
HETATM   41  C   UNL     1     -11.168   6.042  68.618  1.00  0.00    -0.083 C  
HETATM   42  O   UNL     1     -12.271   4.963  73.211  1.00  0.00    -0.000 OA 
HETATM   43  O   UNL     1     -13.921   5.888  72.082  1.00  0.00     0.376 OA 
HETATM   44  O   UNL     1     -11.244   5.071  67.540  1.00  0.00     0.442 OA 
HETATM   45  H   UNL     1     -13.643   5.334  68.587  1.00  0.00     0.000 HD 
HETATM   46  C   UNL     1      -9.685   6.316  68.972  1.00  0.00    -0.130 C  
HETATM   47  H   UNL     1     -10.694   5.422  66.849  1.00  0.00     0.000 HD 
BRANCH  46  48
HETATM   48  O   UNL     1      -9.043   7.185  68.001  1.00  0.00    -0.133 OA 
BRANCH  48  49
HETATM   49  C   UNL     1      -9.768   7.278  66.754  1.00  0.00    -0.198 C  
HETATM   50  O   UNL     1     -10.711   6.210  66.610  1.00  0.00    -0.273 OA 
HETATM   51  C   UNL     1     -11.595   6.482  65.500  1.00  0.00     5.052 C  
HETATM   52  C   UNL     1     -12.808   5.553  65.560  1.00  0.00     6.549 C  
HETATM   53  C   UNL     1     -10.787   6.305  64.215  1.00  0.00     7.142 C  
HETATM   54  O   UNL     1     -11.522   6.575  63.012  1.00  0.00     8.700 OA 
HETATM   55  C   UNL     1      -9.593   7.274  64.211  1.00  0.00     3.128 C  
HETATM   56  O   UNL     1     -12.772   4.719  66.625  1.00  0.00     8.498 OA 
HETATM   57  O   UNL     1     -13.744   5.575  64.774  1.00  0.00     5.624 OA 
HETATM   58  O   UNL     1      -8.670   6.903  63.175  1.00  0.00    -0.233 OA 
HETATM   59  C   UNL     1      -8.831   7.438  65.542  1.00  0.00     0.035 C  
HETATM   60  H   UNL     1     -11.019   6.465  62.214  1.00  0.00     0.000 HD 
HETATM   61  H   UNL     1      -7.932   7.502  63.173  1.00  0.00     0.000 HD 
HETATM   62  O   UNL     1      -8.313   8.800  65.601  1.00  0.00    -0.122 OA 
HETATM   63  H   UNL     1      -7.735   8.899  64.853  1.00  0.00     0.000 HD 
ENDBRANCH  48  49
ENDBRANCH  46  48
ENDBRANCH  34  35
ENDBRANCH  25  34
TORSDOF 4
ENDMDL
MODEL      110
REMARK 921   NORMALIZED FREE ENERGY PREDICTED BY IDOCK:  150.85 KCAL/MOL
REMARK 922        TOTAL FREE ENERGY PREDICTED BY IDOCK:  185.23 KCAL/MOL
REMARK 923 INTER-LIGAND FREE ENERGY PREDICTED BY IDOCK:  161.14 KCAL/MOL
REMARK 924 INTRA-LIGAND FREE ENERGY PREDICTED BY IDOCK:   24.08 KCAL/MOL
REMARK 927      BINDING AFFINITY PREDICTED BY RF-SCORE:    0.00 PKD
ROOT
HETATM    1  C   UNL     1     -10.126   5.354  71.852  1.00  0.00    -0.246 C  
HETATM    2  C   UNL     1      -8.768   6.189  71.936  1.00  0.00    -0.137 C  
HETATM    3  C   UNL     1      -7.918   6.148  73.229  1.00  0.00    -0.103 C  
HETATM    4  C   UNL     1      -8.853   6.185  74.454  1.00  0.00    -0.139 C  
HETATM    5  C   UNL     1      -6.946   4.952  73.229  1.00  0.00    -0.071 C  
HETATM    6  C   UNL     1      -6.951   7.352  73.359  1.00  0.00    -0.069 C  
HETATM    7  O   UNL     1      -6.846   8.064  74.355  1.00  0.00    -0.113 OA 
HETATM    8  O   UNL     1      -6.146   7.554  72.306  1.00  0.00    -0.040 OA 
HETATM    9  C   UNL     1     -10.206   5.431  74.349  1.00  0.00    -0.299 C  
HETATM   10  C   UNL     1     -11.028   5.712  73.043  1.00  0.00    -0.325 C  
HETATM   11  C   UNL     1     -11.481   7.185  73.128  1.00  0.00    -0.011 C  
HETATM   12  C   UNL     1     -12.323   4.861  72.837  1.00  0.00     0.374 C  
HETATM   13  C   UNL     1     -13.240   5.360  71.607  1.00  0.00     2.937 C  
HETATM   14  C   UNL     1     -12.513   5.451  70.200  1.00  0.00     5.482 C  
HETATM   15  C   UNL     1     -10.894   5.503  70.506  1.00  0.00    -0.266 C  
HETATM   16  C   UNL     1     -12.640   3.983  69.649  1.00  0.00    18.835 C  
HETATM   17  C   UNL     1     -10.158   6.009  69.533  1.00  0.00    -0.246 C  
HETATM   18  C   UNL     1     -11.007   7.183  69.316  1.00  0.00    -0.136 C  
HETATM   19  C   UNL     1     -11.757   7.110  68.069  1.00  0.00     1.135 C  
HETATM   20  O   UNL     1     -11.226   8.019  70.192  1.00  0.00    -0.238 OA 
HETATM   21  C   UNL     1     -11.335   8.484  67.354  1.00  0.00     1.112 C  
HETATM   22  C   UNL     1     -11.431   8.238  65.831  1.00  0.00     5.538 C  
HETATM   23  C   UNL     1      -9.816   8.774  67.672  1.00  0.00    -0.228 C  
HETATM   24  C   UNL     1      -9.189  10.148  67.511  1.00  0.00    -0.150 C  
HETATM   25  C   UNL     1     -10.079  11.328  67.960  1.00  0.00    -0.177 C  
HETATM   26  C   UNL     1     -11.522  11.149  67.279  1.00  0.00    -0.218 C  
HETATM   27  C   UNL     1     -13.920   8.000  68.970  1.00  0.00    11.521 C  
HETATM   28  C   UNL     1     -12.157   9.714  67.831  1.00  0.00     3.185 C  
HETATM   29  C   UNL     1     -11.236  11.265  65.728  1.00  0.00    -0.084 C  
HETATM   30  C   UNL     1     -12.345  12.424  67.542  1.00  0.00     0.536 C  
HETATM   31  C   UNL     1     -13.932   5.806  67.771  1.00  0.00    23.787 C  
HETATM   32  C   UNL     1     -13.078   6.618  68.800  1.00  0.00     8.281 C  
HETATM   33  C   UNL     1     -13.648   9.239  67.880  1.00  0.00    15.971 C  
ENDROOT
BRANCH  25  34
HETATM   34  O   UNL     1      -9.935  11.837  69.347  1.00  0.00     0.195 OA 
BRANCH  34  35
HETATM   35  C   UNL     1      -8.846  12.735  69.733  1.00  0.00     2.515 C  
HETATM   36  C   UNL     1      -9.328  15.430  68.649  1.00  0.00    -0.202 C  
HETATM   37  O   UNL     1      -8.296  13.323  68.574  1.00  0.00    -0.148 OA 
HETATM   38  C   UNL     1      -8.761  14.411  66.383  1.00  0.00     0.112 C  
HETATM   39  C   UNL     1      -9.184  14.155  67.864  1.00  0.00    -0.196 C  
HETATM   40  O   UNL     1     -10.306  16.265  68.009  1.00  0.00    -0.261 OA 
HETATM   41  C   UNL     1      -9.756  15.142  70.085  1.00  0.00     0.200 C  
HETATM   42  O   UNL     1      -7.752  14.045  65.811  1.00  0.00     2.762 OA 
HETATM   43  O   UNL     1      -9.697  15.069  65.658  1.00  0.00    -0.339 OA 
HETATM   44  O   UNL     1      -9.413  16.338  70.832  1.00  0.00     2.095 OA 
HETATM   45  H   UNL     1     -10.398  17.070  68.505  1.00  0.00     0.000 HD 
HETATM   46  C   UNL     1      -9.130  13.900  70.768  1.00  0.00     4.934 C  
HETATM   47  H   UNL     1      -9.679  16.159  71.727  1.00  0.00     0.000 HD 
BRANCH  46  48
HETATM   48  O   UNL     1      -9.866  13.499  71.954  1.00  0.00     8.242 OA 
BRANCH  48  49
HETATM   49  C   UNL     1      -9.725  12.094  72.263  1.00  0.00    19.376 C  
HETATM   50  O   UNL     1      -8.450  11.588  71.854  1.00  0.00    11.076 OA 
HETATM   51  C   UNL     1      -8.241  10.273  72.414  1.00  0.00     6.541 C  
HETATM   52  C   UNL     1      -6.767   9.882  72.290  1.00  0.00     1.399 C  
HETATM   53  C   UNL     1      -9.166   9.306  71.677  1.00  0.00     0.165 C  
HETATM   54  O   UNL     1      -9.100   7.951  72.145  1.00  0.00    -0.128 OA 
HETATM   55  C   UNL     1     -10.629   9.746  71.851  1.00  0.00     0.931 C  
HETATM   56  O   UNL     1      -6.021  10.847  71.704  1.00  0.00    -0.192 OA 
HETATM   57  O   UNL     1      -6.284   8.841  72.709  1.00  0.00    -0.126 OA 
HETATM   58  O   UNL     1     -11.464   9.040  70.921  1.00  0.00    -0.272 OA 
HETATM   59  C   UNL     1     -10.912  11.259  71.748  1.00  0.00     4.845 C  
HETATM   60  H   UNL     1      -9.675   7.350  71.686  1.00  0.00     0.000 HD 
HETATM   61  H   UNL     1     -12.367   9.312  71.029  1.00  0.00     0.000 HD 
HETATM   62  O   UNL     1     -12.040  11.568  72.620  1.00  0.00     2.222 OA 
HETATM   63  H   UNL     1     -12.773  11.052  72.303  1.00  0.00     0.000 HD 
ENDBRANCH  48  49
ENDBRANCH  46  48
ENDBRANCH  34  35
ENDBRANCH  25  34
TORSDOF 4
ENDMDL
MODEL      111
REMARK 921   NORMALIZED FREE ENERGY PREDICTED BY IDOCK:  158.98 KCAL/MOL
REMARK 922        TOTAL FREE ENERGY PREDICTED BY IDOCK:  195.25 KCAL/MOL
REMARK 923 INTER-LIGAND FREE ENERGY PREDICTED BY IDOCK:  136.44 KCAL/MOL
REMARK 924 INTRA-LIGAND FREE ENERGY PREDICTED BY IDOCK:   58.81 KCAL/MOL
REMARK 927      BINDING AFFINITY PREDICTED BY RF-SCORE:    0.00 PKD
ROOT
HETATM    1  C   UNL     1     -10.325  18.679  70.061  1.00  0.00     1.171 C  
HETATM    2  C   UNL     1      -8.876  18.312  69.499  1.00  0.00     0.645 C  
HETATM    3  C   UNL     1      -8.150  19.291  68.544  1.00  0.00    -0.401 C  
HETATM    4  C   UNL     1      -9.170  19.883  67.550  1.00  0.00    -0.448 C  
HETATM    5  C   UNL     1      -7.356  20.356  69.324  1.00  0.00     0.298 C  
HETATM    6  C   UNL     1      -7.041  18.610  67.704  1.00  0.00    -0.211 C  
HETATM    7  O   UNL     1      -6.922  18.710  66.485  1.00  0.00    -0.199 OA 
HETATM    8  O   UNL     1      -6.131  17.922  68.409  1.00  0.00    -0.173 OA 
HETATM    9  C   UNL     1     -10.600  20.175  68.078  1.00  0.00    -0.287 C  
HETATM   10  C   UNL     1     -11.264  19.010  68.891  1.00  0.00     1.886 C  
HETATM   11  C   UNL     1     -11.515  17.869  67.883  1.00  0.00     0.841 C  
HETATM   12  C   UNL     1     -12.642  19.322  69.559  1.00  0.00    13.617 C  
HETATM   13  C   UNL     1     -13.376  18.023  70.174  1.00  0.00    18.722 C  
HETATM   14  C   UNL     1     -12.529  17.186  71.222  1.00  0.00     4.409 C  
HETATM   15  C   UNL     1     -10.950  17.597  70.990  1.00  0.00     1.984 C  
HETATM   16  C   UNL     1     -12.811  17.938  72.575  1.00  0.00     8.102 C  
HETATM   17  C   UNL     1     -10.072  16.718  71.440  1.00  0.00     3.631 C  
HETATM   18  C   UNL     1     -10.730  15.553  70.844  1.00  0.00    -0.094 C  
HETATM   19  C   UNL     1     -11.377  14.705  71.838  1.00  0.00     0.274 C  
HETATM   20  O   UNL     1     -10.904  15.431  69.632  1.00  0.00    -0.246 OA 
HETATM   21  C   UNL     1     -10.711  13.277  71.531  1.00  0.00     5.622 C  
HETATM   22  C   UNL     1     -10.713  12.492  72.863  1.00  0.00    14.524 C  
HETATM   23  C   UNL     1      -9.198  13.498  71.136  1.00  0.00     8.848 C  
HETATM   24  C   UNL     1      -8.376  12.450  70.407  1.00  0.00     5.156 C  
HETATM   25  C   UNL     1      -9.130  11.692  69.291  1.00  0.00     0.523 C  
HETATM   26  C   UNL     1     -10.521  11.170  69.898  1.00  0.00     0.264 C  
HETATM   27  C   UNL     1     -13.463  14.248  70.527  1.00  0.00     0.196 C  
HETATM   28  C   UNL     1     -11.392  12.508  70.365  1.00  0.00     0.547 C  
HETATM   29  C   UNL     1     -10.094  10.153  71.031  1.00  0.00     0.717 C  
HETATM   30  C   UNL     1     -11.179  10.233  68.868  1.00  0.00    -0.259 C  
HETATM   31  C   UNL     1     -13.678  15.164  72.843  1.00  0.00    -0.497 C  
HETATM   32  C   UNL     1     -12.809  15.328  71.553  1.00  0.00    -0.469 C  
HETATM   33  C   UNL     1     -12.933  12.663  70.592  1.00  0.00     0.121 C  
ENDROOT
BRANCH  25  34
HETATM   34  O   UNL     1      -9.032  12.198  67.899  1.00  0.00    -0.169 OA 
BRANCH  34  35
HETATM   35  C   UNL     1     -10.184  12.209  66.996  1.00  0.00    -0.207 C  
HETATM   36  C   UNL     1     -12.673  11.875  68.531  1.00  0.00     1.664 C  
HETATM   37  O   UNL     1     -10.939  11.034  67.192  1.00  0.00    -0.268 OA 
HETATM   38  C   UNL     1     -11.927   9.459  68.849  1.00  0.00     1.373 C  
HETATM   39  C   UNL     1     -11.515  10.917  68.472  1.00  0.00    -0.310 C  
HETATM   40  O   UNL     1     -13.225  11.861  69.857  1.00  0.00     0.805 OA 
HETATM   41  C   UNL     1     -12.230  13.290  68.172  1.00  0.00    -0.061 C  
HETATM   42  O   UNL     1     -11.875   8.457  68.161  1.00  0.00     1.814 OA 
HETATM   43  O   UNL     1     -12.324   9.323  70.137  1.00  0.00     0.226 OA 
HETATM   44  O   UNL     1     -13.450  13.991  67.812  1.00  0.00     2.410 OA 
HETATM   45  H   UNL     1     -13.957  12.466  69.894  1.00  0.00     0.000 HD 
HETATM   46  C   UNL     1     -11.189  13.432  67.034  1.00  0.00    -0.305 C  
HETATM   47  H   UNL     1     -13.174  14.873  67.588  1.00  0.00     0.000 HD 
BRANCH  46  48
HETATM   48  O   UNL     1     -10.560  14.742  67.029  1.00  0.00    -0.280 OA 
BRANCH  48  49
HETATM   49  C   UNL     1      -9.341  14.784  66.253  1.00  0.00    -0.278 C  
HETATM   50  O   UNL     1      -8.784  13.478  66.071  1.00  0.00     0.380 OA 
HETATM   51  C   UNL     1      -7.735  13.525  65.079  1.00  0.00     8.455 C  
HETATM   52  C   UNL     1      -7.389  12.107  64.620  1.00  0.00     4.611 C  
HETATM   53  C   UNL     1      -6.541  14.244  65.704  1.00  0.00     9.357 C  
HETATM   54  O   UNL     1      -5.419  14.403  64.825  1.00  0.00    14.462 OA 
HETATM   55  C   UNL     1      -6.951  15.663  66.131  1.00  0.00     2.365 C  
HETATM   56  O   UNL     1      -8.140  11.164  65.234  1.00  0.00     0.067 OA 
HETATM   57  O   UNL     1      -6.564  11.834  63.760  1.00  0.00     2.312 OA 
HETATM   58  O   UNL     1      -5.944  16.224  66.987  1.00  0.00    -0.290 OA 
HETATM   59  C   UNL     1      -8.333  15.811  66.801  1.00  0.00    -0.274 C  
HETATM   60  H   UNL     1      -4.677  14.850  65.214  1.00  0.00     0.000 HD 
HETATM   61  H   UNL     1      -6.198  17.101  67.251  1.00  0.00     0.000 HD 
HETATM   62  O   UNL     1      -8.862  17.127  66.459  1.00  0.00    -0.236 OA 
HETATM   63  H   UNL     1      -8.240  17.762  66.796  1.00  0.00     0.000 HD 
ENDBRANCH  48  49
ENDBRANCH  46  48
ENDBRANCH  34  35
ENDBRANCH  25  34
TORSDOF 4
ENDMDL
MODEL      112
REMARK 921   NORMALIZED FREE ENERGY PREDICTED BY IDOCK:  160.06 KCAL/MOL
REMARK 922        TOTAL FREE ENERGY PREDICTED BY IDOCK:  196.59 KCAL/MOL
REMARK 923 INTER-LIGAND FREE ENERGY PREDICTED BY IDOCK:  179.39 KCAL/MOL
REMARK 924 INTRA-LIGAND FREE ENERGY PREDICTED BY IDOCK:   17.20 KCAL/MOL
REMARK 927      BINDING AFFINITY PREDICTED BY RF-SCORE:    0.00 PKD
ROOT
HETATM    1  C   UNL     1     -11.856   7.078  65.105  1.00  0.00    10.128 C  
HETATM    2  C   UNL     1     -11.531   8.333  66.036  1.00  0.00     4.959 C  
HETATM    3  C   UNL     1     -11.035   9.655  65.401  1.00  0.00     1.975 C  
HETATM    4  C   UNL     1     -10.041   9.333  64.267  1.00  0.00     1.906 C  
HETATM    5  C   UNL     1     -12.212  10.545  64.958  1.00  0.00     4.491 C  
HETATM    6  C   UNL     1     -10.295  10.572  66.407  1.00  0.00    -0.221 C  
HETATM    7  O   UNL     1      -9.196  11.086  66.211  1.00  0.00    -0.171 OA 
HETATM    8  O   UNL     1     -10.970  10.847  67.533  1.00  0.00    -0.254 OA 
HETATM    9  C   UNL     1     -10.319   8.073  63.405  1.00  0.00     8.468 C  
HETATM   10  C   UNL     1     -10.645   6.769  64.211  1.00  0.00     8.152 C  
HETATM   11  C   UNL     1      -9.346   6.380  64.947  1.00  0.00     0.928 C  
HETATM   12  C   UNL     1     -11.071   5.518  63.376  1.00  0.00     4.242 C  
HETATM   13  C   UNL     1     -11.161   4.159  64.239  1.00  0.00     0.311 C  
HETATM   14  C   UNL     1     -12.107   4.213  65.511  1.00  0.00     4.857 C  
HETATM   15  C   UNL     1     -12.322   5.806  65.873  1.00  0.00     4.313 C  
HETATM   16  C   UNL     1     -13.520   3.877  64.907  1.00  0.00    14.662 C  
HETATM   17  C   UNL     1     -12.700   6.051  67.115  1.00  0.00     8.710 C  
HETATM   18  C   UNL     1     -11.698   5.179  67.735  1.00  0.00     4.180 C  
HETATM   19  C   UNL     1     -12.281   3.968  68.299  1.00  0.00    16.566 C  
HETATM   20  O   UNL     1     -10.487   5.347  67.594  1.00  0.00    -0.196 OA 
HETATM   21  C   UNL     1     -11.758   4.030  69.815  1.00  0.00     9.255 C  
HETATM   22  C   UNL     1     -12.810   3.294  70.677  1.00  0.00    19.422 C  
HETATM   23  C   UNL     1     -11.757   5.536  70.289  1.00  0.00     1.366 C  
HETATM   24  C   UNL     1     -10.966   6.020  71.492  1.00  0.00    -0.335 C  
HETATM   25  C   UNL     1      -9.560   5.396  71.642  1.00  0.00    -0.150 C  
HETATM   26  C   UNL     1      -9.709   3.802  71.516  1.00  0.00    -0.241 C  
HETATM   27  C   UNL     1     -10.494   2.389  67.527  1.00  0.00     3.224 C  
HETATM   28  C   UNL     1     -10.317   3.479  70.002  1.00  0.00     1.191 C  
HETATM   29  C   UNL     1     -10.602   3.396  72.756  1.00  0.00    -0.169 C  
HETATM   30  C   UNL     1      -8.358   3.158  71.878  1.00  0.00    -0.070 C  
HETATM   31  C   UNL     1     -12.873   1.888  66.942  1.00  0.00    24.560 C  
HETATM   32  C   UNL     1     -11.879   3.092  67.038  1.00  0.00    13.127 C  
HETATM   33  C   UNL     1     -10.253   2.156  69.166  1.00  0.00     1.164 C  
ENDROOT
BRANCH  25  34
HETATM   34  O   UNL     1      -8.400   6.114  71.060  1.00  0.00    -0.121 OA 
BRANCH  34  35
HETATM   35  C   UNL     1      -8.544   7.032  69.929  1.00  0.00    -0.141 C  
HETATM   36  C   UNL     1      -6.391   9.040  69.978  1.00  0.00    -0.038 C  
HETATM   37  O   UNL     1      -8.595   8.357  70.410  1.00  0.00    -0.127 OA 
HETATM   38  C   UNL     1      -7.622  10.031  71.977  1.00  0.00     2.829 C  
HETATM   39  C   UNL     1      -7.417   8.791  71.049  1.00  0.00    -0.096 C  
HETATM   40  O   UNL     1      -5.142   9.386  70.596  1.00  0.00    -0.023 OA 
HETATM   41  C   UNL     1      -6.207   7.804  69.102  1.00  0.00    -0.035 C  
HETATM   42  O   UNL     1      -8.632  10.685  72.151  1.00  0.00     6.483 OA 
HETATM   43  O   UNL     1      -6.530  10.342  72.715  1.00  0.00     0.991 OA 
HETATM   44  O   UNL     1      -5.589   8.290  67.881  1.00  0.00    -0.033 OA 
HETATM   45  H   UNL     1      -4.494   9.543  69.919  1.00  0.00     0.000 HD 
HETATM   46  C   UNL     1      -7.481   6.992  68.756  1.00  0.00    -0.099 C  
HETATM   47  H   UNL     1      -5.475   7.521  67.335  1.00  0.00     0.000 HD 
BRANCH  46  48
HETATM   48  O   UNL     1      -7.165   5.664  68.260  1.00  0.00    -0.072 OA 
BRANCH  48  49
HETATM   49  C   UNL     1      -7.211   4.648  69.288  1.00  0.00    -0.052 C  
HETATM   50  O   UNL     1      -6.782   5.158  70.555  1.00  0.00    -0.037 OA 
HETATM   51  C   UNL     1      -7.096   4.208  71.598  1.00  0.00    -0.046 C  
HETATM   52  C   UNL     1      -6.979   4.880  72.967  1.00  0.00    -0.074 C  
HETATM   53  C   UNL     1      -6.141   3.026  71.445  1.00  0.00    -0.014 C  
HETATM   54  O   UNL     1      -6.347   1.971  72.395  1.00  0.00    -0.013 OA 
HETATM   55  C   UNL     1      -6.316   2.388  70.057  1.00  0.00    -0.025 C  
HETATM   56  O   UNL     1      -6.627   6.184  72.878  1.00  0.00    -0.063 OA 
HETATM   57  O   UNL     1      -7.220   4.336  74.034  1.00  0.00    -0.065 OA 
HETATM   58  O   UNL     1      -5.225   1.493  69.791  1.00  0.00    -0.007 OA 
HETATM   59  C   UNL     1      -6.484   3.357  68.868  1.00  0.00    -0.030 C  
HETATM   60  H   UNL     1      -5.753   1.236  72.300  1.00  0.00     0.000 HD 
HETATM   61  H   UNL     1      -5.334   1.099  68.933  1.00  0.00     0.000 HD 
HETATM   62  O   UNL     1      -7.337   2.711  67.876  1.00  0.00    -0.052 OA 
HETATM   63  H   UNL     1      -6.889   1.913  67.617  1.00  0.00     0.000 HD 
ENDBRANCH  48  49
ENDBRANCH  46  48
ENDBRANCH  34  35
ENDBRANCH  25  34
TORSDOF 4
ENDMDL
MODEL      113
REMARK 921   NORMALIZED FREE ENERGY PREDICTED BY IDOCK:  160.86 KCAL/MOL
REMARK 922        TOTAL FREE ENERGY PREDICTED BY IDOCK:  197.57 KCAL/MOL
REMARK 923 INTER-LIGAND FREE ENERGY PREDICTED BY IDOCK:   18.47 KCAL/MOL
REMARK 924 INTRA-LIGAND FREE ENERGY PREDICTED BY IDOCK:  179.10 KCAL/MOL
REMARK 927      BINDING AFFINITY PREDICTED BY RF-SCORE:    0.00 PKD
ROOT
HETATM    1  C   UNL     1      -9.809  18.043  68.854  1.00  0.00    -0.321 C  
HETATM    2  C   UNL     1      -8.504  18.101  67.937  1.00  0.00    -0.259 C  
HETATM    3  C   UNL     1      -8.089  19.437  67.273  1.00  0.00    -0.298 C  
HETATM    4  C   UNL     1      -9.349  20.165  66.765  1.00  0.00    -0.513 C  
HETATM    5  C   UNL     1      -7.218  20.290  68.216  1.00  0.00    -0.236 C  
HETATM    6  C   UNL     1      -7.153  19.243  66.054  1.00  0.00    -0.269 C  
HETATM    7  O   UNL     1      -7.323  19.758  64.950  1.00  0.00    -0.228 OA 
HETATM    8  O   UNL     1      -6.058  18.505  66.284  1.00  0.00    -0.157 OA 
HETATM    9  C   UNL     1     -10.639  20.052  67.621  1.00  0.00    -0.414 C  
HETATM   10  C   UNL     1     -11.012  18.599  68.078  1.00  0.00     0.002 C  
HETATM   11  C   UNL     1     -11.402  17.831  66.797  1.00  0.00     0.948 C  
HETATM   12  C   UNL     1     -12.221  18.464  69.059  1.00  0.00     6.950 C  
HETATM   13  C   UNL     1     -12.698  16.942  69.300  1.00  0.00     3.789 C  
HETATM   14  C   UNL     1     -11.575  15.941  69.803  1.00  0.00    -0.340 C  
HETATM   15  C   UNL     1     -10.125  16.634  69.439  1.00  0.00    -0.204 C  
HETATM   16  C   UNL     1     -11.596  16.153  71.362  1.00  0.00    -0.495 C  
HETATM   17  C   UNL     1      -9.106  15.797  69.375  1.00  0.00    -0.254 C  
HETATM   18  C   UNL     1      -9.795  14.810  68.540  1.00  0.00    -0.218 C  
HETATM   19  C   UNL     1     -10.134  13.595  69.271  1.00  0.00     0.279 C  
HETATM   20  O   UNL     1     -10.231  15.071  67.419  1.00  0.00    -0.233 OA 
HETATM   21  C   UNL     1      -9.452  12.464  68.358  1.00  0.00    -0.169 C  
HETATM   22  C   UNL     1      -9.093  11.293  69.300  1.00  0.00     0.237 C  
HETATM   23  C   UNL     1      -8.089  13.025  67.790  1.00  0.00    -0.168 C  
HETATM   24  C   UNL     1      -7.381  12.411  66.596  1.00  0.00     0.364 C  
HETATM   25  C   UNL     1      -8.311  11.961  65.446  1.00  0.00     0.870 C  
HETATM   26  C   UNL     1      -9.485  11.068  66.079  1.00  0.00    -0.235 C  
HETATM   27  C   UNL     1     -12.425  13.293  68.301  1.00  0.00     0.376 C  
HETATM   28  C   UNL     1     -10.323  12.033  67.145  1.00  0.00    -0.235 C  
HETATM   29  C   UNL     1      -8.738   9.809  66.676  1.00  0.00    -0.142 C  
HETATM   30  C   UNL     1     -10.290  10.437  64.927  1.00  0.00    -0.238 C  
HETATM   31  C   UNL     1     -12.173  13.350  70.787  1.00  0.00    -0.409 C  
HETATM   32  C   UNL     1     -11.635  14.058  69.500  1.00  0.00    -0.350 C  
HETATM   33  C   UNL     1     -11.779  11.873  67.699  1.00  0.00    -0.346 C  
ENDROOT
BRANCH  25  34
HETATM   34  O   UNL     1      -8.570  12.907  64.333  1.00  0.00     2.392 OA 
BRANCH  34  35
HETATM   35  C   UNL     1      -9.926  13.203  63.867  1.00  0.00     0.548 C  
HETATM   36  C   UNL     1     -11.810  13.120  66.128  1.00  0.00    -0.401 C  
HETATM   37  O   UNL     1     -10.787  12.153  64.250  1.00  0.00    -0.295 OA 
HETATM   38  C   UNL     1     -11.474  10.595  66.066  1.00  0.00     0.916 C  
HETATM   39  C   UNL     1     -10.935  11.998  65.642  1.00  0.00    -0.297 C  
HETATM   40  O   UNL     1     -11.901  13.055  67.560  1.00  0.00    -0.358 OA 
HETATM   41  C   UNL     1     -11.245  14.474  65.708  1.00  0.00    -0.334 C  
HETATM   42  O   UNL     1     -11.836   9.677  65.355  1.00  0.00     4.422 OA 
HETATM   43  O   UNL     1     -11.457  10.390  67.405  1.00  0.00    -0.354 OA 
HETATM   44  O   UNL     1     -12.359  15.399  65.808  1.00  0.00     0.489 OA 
HETATM   45  H   UNL     1     -12.454  13.765  67.867  1.00  0.00     0.000 HD 
HETATM   46  C   UNL     1     -10.615  14.563  64.295  1.00  0.00     0.403 C  
HETATM   47  H   UNL     1     -12.008  16.243  65.546  1.00  0.00     0.000 HD 
BRANCH  46  48
HETATM   48  O   UNL     1      -9.785  15.746  64.141  1.00  0.00     1.766 OA 
BRANCH  48  49
HETATM   49  C   UNL     1      -9.340  16.296  65.402  1.00  0.00     0.449 C  
HETATM   50  O   UNL     1      -8.001  15.895  65.712  1.00  0.00     0.620 OA 
HETATM   51  C   UNL     1      -7.501  16.671  66.824  1.00  0.00    -0.254 C  
HETATM   52  C   UNL     1      -5.983  16.513  66.928  1.00  0.00    -0.059 C  
HETATM   53  C   UNL     1      -8.225  16.193  68.081  1.00  0.00    -0.157 C  
HETATM   54  O   UNL     1      -7.861  16.895  69.277  1.00  0.00    -0.178 OA 
HETATM   55  C   UNL     1      -9.742  16.390  67.918  1.00  0.00    -0.235 C  
HETATM   56  O   UNL     1      -5.477  15.707  65.966  1.00  0.00     2.274 OA 
HETATM   57  O   UNL     1      -5.278  17.080  67.749  1.00  0.00    -0.108 OA 
HETATM   58  O   UNL     1     -10.440  15.668  68.944  1.00  0.00    -0.206 OA 
HETATM   59  C   UNL     1     -10.341  16.031  66.542  1.00  0.00    -0.299 C  
HETATM   60  H   UNL     1      -8.311  16.598  70.059  1.00  0.00     0.000 HD 
HETATM   61  H   UNL     1     -11.376  15.790  68.843  1.00  0.00     0.000 HD 
HETATM   62  O   UNL     1     -11.479  16.911  66.302  1.00  0.00     0.637 OA 
HETATM   63  H   UNL     1     -12.097  16.748  67.006  1.00  0.00     0.000 HD 
ENDBRANCH  48  49
ENDBRANCH  46  48
ENDBRANCH  34  35
ENDBRANCH  25  34
TORSDOF 4
ENDMDL
MODEL      114
REMARK 921   NORMALIZED FREE ENERGY PREDICTED BY IDOCK:  167.28 KCAL/MOL
REMARK 922        TOTAL FREE ENERGY PREDICTED BY IDOCK:  205.50 KCAL/MOL
REMARK 923 INTER-LIGAND FREE ENERGY PREDICTED BY IDOCK:  122.06 KCAL/MOL
REMARK 924 INTRA-LIGAND FREE ENERGY PREDICTED BY IDOCK:   83.44 KCAL/MOL
REMARK 927      BINDING AFFINITY PREDICTED BY RF-SCORE:    0.00 PKD
ROOT
HETATM    1  C   UNL     1     -10.198  18.442  66.447  1.00  0.00    -0.431 C  
HETATM    2  C   UNL     1     -10.647  18.210  67.961  1.00  0.00    -0.359 C  
HETATM    3  C   UNL     1     -10.302  19.268  69.037  1.00  0.00    -0.105 C  
HETATM    4  C   UNL     1      -8.874  19.797  68.791  1.00  0.00    -0.205 C  
HETATM    5  C   UNL     1     -11.370  20.377  69.102  1.00  0.00     2.169 C  
HETATM    6  C   UNL     1     -10.334  18.701  70.478  1.00  0.00     1.947 C  
HETATM    7  O   UNL     1      -9.437  18.840  71.308  1.00  0.00     3.999 OA 
HETATM    8  O   UNL     1     -11.469  18.075  70.821  1.00  0.00     2.744 OA 
HETATM    9  C   UNL     1      -8.412  19.957  67.318  1.00  0.00    -0.375 C  
HETATM   10  C   UNL     1      -8.688  18.722  66.392  1.00  0.00    -0.294 C  
HETATM   11  C   UNL     1      -7.773  17.588  66.900  1.00  0.00    -0.248 C  
HETATM   12  C   UNL     1      -8.368  18.902  64.873  1.00  0.00     3.072 C  
HETATM   13  C   UNL     1      -8.449  17.533  64.024  1.00  0.00    12.024 C  
HETATM   14  C   UNL     1      -9.822  16.744  64.120  1.00  0.00     5.347 C  
HETATM   15  C   UNL     1     -10.587  17.290  65.474  1.00  0.00    -0.136 C  
HETATM   16  C   UNL     1     -10.698  17.438  63.012  1.00  0.00    11.895 C  
HETATM   17  C   UNL     1     -11.507  16.477  65.962  1.00  0.00     0.792 C  
HETATM   18  C   UNL     1     -10.671  15.275  65.900  1.00  0.00    -0.334 C  
HETATM   19  C   UNL     1     -11.091  14.353  64.852  1.00  0.00    -0.404 C  
HETATM   20  O   UNL     1      -9.609  15.168  66.512  1.00  0.00    -0.239 OA 
HETATM   21  C   UNL     1     -11.299  12.993  65.679  1.00  0.00    -0.330 C  
HETATM   22  C   UNL     1     -12.378  12.180  64.928  1.00  0.00    -0.259 C  
HETATM   23  C   UNL     1     -11.902  13.348  67.094  1.00  0.00    -0.429 C  
HETATM   24  C   UNL     1     -11.857  12.390  68.271  1.00  0.00    -0.364 C  
HETATM   25  C   UNL     1     -10.538  11.598  68.419  1.00  0.00    -0.211 C  
HETATM   26  C   UNL     1     -10.188  10.948  66.993  1.00  0.00    -0.256 C  
HETATM   27  C   UNL     1      -8.796  13.756  64.042  1.00  0.00     6.267 C  
HETATM   28  C   UNL     1      -9.985  12.199  65.914  1.00  0.00    -0.267 C  
HETATM   29  C   UNL     1     -11.379   9.944  66.720  1.00  0.00     0.778 C  
HETATM   30  C   UNL     1      -9.001   9.985  67.177  1.00  0.00    -0.146 C  
HETATM   31  C   UNL     1     -10.471  14.596  62.387  1.00  0.00    12.453 C  
HETATM   32  C   UNL     1      -9.973  14.862  63.846  1.00  0.00     3.832 C  
HETATM   33  C   UNL     1      -9.221  12.219  64.548  1.00  0.00     0.560 C  
ENDROOT
BRANCH  25  34
HETATM   34  O   UNL     1      -9.479  12.144  69.303  1.00  0.00     0.387 OA 
BRANCH  34  35
HETATM   35  C   UNL     1      -8.989  13.516  69.170  1.00  0.00     0.554 C  
HETATM   36  C   UNL     1     -11.256  15.381  68.950  1.00  0.00    -0.292 C  
HETATM   37  O   UNL     1      -9.536  14.093  68.005  1.00  0.00    -0.200 OA 
HETATM   38  C   UNL     1     -11.577  14.414  66.614  1.00  0.00    -0.384 C  
HETATM   39  C   UNL     1     -10.937  14.237  68.028  1.00  0.00    -0.249 C  
HETATM   40  O   UNL     1     -12.681  15.494  69.080  1.00  0.00    -0.467 OA 
HETATM   41  C   UNL     1     -10.628  15.167  70.324  1.00  0.00    -0.166 C  
HETATM   42  O   UNL     1     -11.017  14.510  65.538  1.00  0.00    -0.308 OA 
HETATM   43  O   UNL     1     -12.930  14.383  66.624  1.00  0.00     0.273 OA 
HETATM   44  O   UNL     1     -10.597  16.481  70.939  1.00  0.00     0.367 OA 
HETATM   45  H   UNL     1     -12.883  16.217  69.663  1.00  0.00     0.000 HD 
HETATM   46  C   UNL     1      -9.211  14.539  70.358  1.00  0.00     1.751 C  
HETATM   47  H   UNL     1     -10.206  16.348  71.794  1.00  0.00     0.000 HD 
BRANCH  46  48
HETATM   48  O   UNL     1      -8.870  14.032  71.676  1.00  0.00     6.018 OA 
BRANCH  48  49
HETATM   49  C   UNL     1      -8.367  12.678  71.650  1.00  0.00    15.153 C  
HETATM   50  O   UNL     1      -9.427  11.718  71.725  1.00  0.00    11.601 OA 
HETATM   51  C   UNL     1      -8.918  10.399  71.426  1.00  0.00     4.098 C  
HETATM   52  C   UNL     1     -10.079   9.443  71.149  1.00  0.00    -0.265 C  
HETATM   53  C   UNL     1      -8.066   9.955  72.614  1.00  0.00     4.281 C  
HETATM   54  O   UNL     1      -7.456   8.666  72.455  1.00  0.00    -0.300 OA 
HETATM   55  C   UNL     1      -6.912  10.948  72.830  1.00  0.00     6.393 C  
HETATM   56  O   UNL     1     -11.286  10.050  71.238  1.00  0.00    -0.341 OA 
HETATM   57  O   UNL     1      -9.956   8.269  70.832  1.00  0.00    -0.185 OA 
HETATM   58  O   UNL     1      -6.305  10.716  74.110  1.00  0.00     1.025 OA 
HETATM   59  C   UNL     1      -7.254  12.446  72.689  1.00  0.00    10.868 C  
HETATM   60  H   UNL     1      -6.927   8.390  73.194  1.00  0.00     0.000 HD 
HETATM   61  H   UNL     1      -5.592  11.330  74.244  1.00  0.00     0.000 HD 
HETATM   62  O   UNL     1      -6.071  13.133  72.184  1.00  0.00    -0.041 OA 
HETATM   63  H   UNL     1      -5.384  12.990  72.824  1.00  0.00     0.000 HD 
ENDBRANCH  48  49
ENDBRANCH  46  48
ENDBRANCH  34  35
ENDBRANCH  25  34
TORSDOF 4
ENDMDL
MODEL      115
REMARK 921   NORMALIZED FREE ENERGY PREDICTED BY IDOCK:  168.81 KCAL/MOL
REMARK 922        TOTAL FREE ENERGY PREDICTED BY IDOCK:  207.38 KCAL/MOL
REMARK 923 INTER-LIGAND FREE ENERGY PREDICTED BY IDOCK:  192.52 KCAL/MOL
REMARK 924 INTRA-LIGAND FREE ENERGY PREDICTED BY IDOCK:   14.86 KCAL/MOL
REMARK 927      BINDING AFFINITY PREDICTED BY RF-SCORE:    0.00 PKD
ROOT
HETATM    1  C   UNL     1     -10.398  11.940  73.281  1.00  0.00    21.283 C  
HETATM    2  C   UNL     1     -11.489  11.100  72.473  1.00  0.00     5.769 C  
HETATM    3  C   UNL     1     -12.089   9.816  73.098  1.00  0.00     3.331 C  
HETATM    4  C   UNL     1     -10.974   9.030  73.815  1.00  0.00     5.366 C  
HETATM    5  C   UNL     1     -13.298  10.138  73.998  1.00  0.00     8.659 C  
HETATM    6  C   UNL     1     -12.712   8.864  72.047  1.00  0.00    -0.394 C  
HETATM    7  O   UNL     1     -12.475   7.660  71.962  1.00  0.00    -0.302 OA 
HETATM    8  O   UNL     1     -13.617   9.425  71.232  1.00  0.00    -0.355 OA 
HETATM    9  C   UNL     1      -9.873   9.848  74.543  1.00  0.00    13.110 C  
HETATM   10  C   UNL     1      -9.246  11.017  73.707  1.00  0.00    18.235 C  
HETATM   11  C   UNL     1      -8.455  10.352  72.561  1.00  0.00     8.421 C  
HETATM   12  C   UNL     1      -8.240  11.950  74.456  1.00  0.00    12.503 C  
HETATM   13  C   UNL     1      -7.459  12.976  73.487  1.00  0.00     9.636 C  
HETATM   14  C   UNL     1      -8.376  13.907  72.588  1.00  0.00    10.557 C  
HETATM   15  C   UNL     1      -9.861  13.193  72.528  1.00  0.00    15.773 C  
HETATM   16  C   UNL     1      -8.692  15.113  73.547  1.00  0.00    10.830 C  
HETATM   17  C   UNL     1     -10.616  13.558  71.509  1.00  0.00     5.430 C  
HETATM   18  C   UNL     1      -9.567  13.395  70.498  1.00  0.00     4.874 C  
HETATM   19  C   UNL     1      -9.082  14.669  69.983  1.00  0.00     0.772 C  
HETATM   20  O   UNL     1      -9.012  12.318  70.281  1.00  0.00     3.527 OA 
HETATM   21  C   UNL     1      -9.290  14.481  68.402  1.00  0.00    -0.208 C  
HETATM   22  C   UNL     1      -9.518  15.893  67.816  1.00  0.00    -0.216 C  
HETATM   23  C   UNL     1     -10.621  13.668  68.160  1.00  0.00    -0.255 C  
HETATM   24  C   UNL     1     -10.929  12.966  66.849  1.00  0.00    -0.294 C  
HETATM   25  C   UNL     1      -9.725  12.257  66.190  1.00  0.00    -0.245 C  
HETATM   26  C   UNL     1      -8.504  13.298  66.138  1.00  0.00     0.866 C  
HETATM   27  C   UNL     1      -6.649  14.067  69.946  1.00  0.00    -0.057 C  
HETATM   28  C   UNL     1      -8.135  13.707  67.708  1.00  0.00    -0.173 C  
HETATM   29  C   UNL     1      -9.018  14.454  65.191  1.00  0.00     2.014 C  
HETATM   30  C   UNL     1      -7.374  12.679  65.294  1.00  0.00     5.183 C  
HETATM   31  C   UNL     1      -7.355  16.134  71.161  1.00  0.00     3.719 C  
HETATM   32  C   UNL     1      -7.806  14.654  70.928  1.00  0.00     2.159 C  
HETATM   33  C   UNL     1      -6.809  14.297  68.297  1.00  0.00    -0.109 C  
ENDROOT
BRANCH  25  34
HETATM   34  O   UNL     1      -9.506  10.818  66.477  1.00  0.00    -0.164 OA 
BRANCH  34  35
HETATM   35  C   UNL     1      -9.359  10.314  67.844  1.00  0.00    -0.138 C  
HETATM   36  C   UNL     1     -12.009   9.834  69.033  1.00  0.00     0.744 C  
HETATM   37  O   UNL     1     -10.085  11.143  68.724  1.00  0.00    -0.194 OA 
HETATM   38  C   UNL     1     -12.212  12.373  69.132  1.00  0.00    -0.009 C  
HETATM   39  C   UNL     1     -11.477  11.141  68.513  1.00  0.00    -0.302 C  
HETATM   40  O   UNL     1     -13.413   9.751  68.742  1.00  0.00     3.636 OA 
HETATM   41  C   UNL     1     -11.279   8.656  68.395  1.00  0.00     0.548 C  
HETATM   42  O   UNL     1     -11.746  13.266  69.814  1.00  0.00    -0.298 OA 
HETATM   43  O   UNL     1     -13.518  12.456  68.785  1.00  0.00     3.155 OA 
HETATM   44  O   UNL     1     -11.527   7.531  69.279  1.00  0.00    -0.406 OA 
HETATM   45  H   UNL     1     -13.748   8.925  69.071  1.00  0.00     0.000 HD 
HETATM   46  C   UNL     1      -9.755   8.815  68.166  1.00  0.00    -0.158 C  
HETATM   47  H   UNL     1     -11.072   6.796  68.882  1.00  0.00     0.000 HD 
BRANCH  46  48
HETATM   48  O   UNL     1      -9.237   7.830  67.231  1.00  0.00    -0.133 OA 
BRANCH  48  49
HETATM   49  C   UNL     1      -9.993   6.599  67.227  1.00  0.00    -0.154 C  
HETATM   50  O   UNL     1      -9.743   5.820  68.403  1.00  0.00    -0.123 OA 
HETATM   51  C   UNL     1     -10.705   4.745  68.494  1.00  0.00     0.681 C  
HETATM   52  C   UNL     1     -10.678   4.141  69.899  1.00  0.00     1.799 C  
HETATM   53  C   UNL     1     -10.357   3.724  67.413  1.00  0.00     1.051 C  
HETATM   54  O   UNL     1     -11.248   2.601  67.350  1.00  0.00     5.906 OA 
HETATM   55  C   UNL     1     -10.413   4.389  66.027  1.00  0.00    -0.099 C  
HETATM   56  O   UNL     1      -9.784   4.752  70.711  1.00  0.00    -0.168 OA 
HETATM   57  O   UNL     1     -11.408   3.240  70.284  1.00  0.00     5.100 OA 
HETATM   58  O   UNL     1      -9.795   3.536  65.052  1.00  0.00    -0.243 OA 
HETATM   59  C   UNL     1      -9.818   5.808  65.917  1.00  0.00     0.107 C  
HETATM   60  H   UNL     1     -11.032   1.966  66.678  1.00  0.00     0.000 HD 
HETATM   61  H   UNL     1      -9.830   3.947  64.196  1.00  0.00     0.000 HD 
HETATM   62  O   UNL     1     -10.567   6.534  64.897  1.00  0.00     2.970 OA 
HETATM   63  H   UNL     1     -10.460   6.046  64.089  1.00  0.00     0.000 HD 
ENDBRANCH  48  49
ENDBRANCH  46  48
ENDBRANCH  34  35
ENDBRANCH  25  34
TORSDOF 4
ENDMDL
MODEL      116
REMARK 921   NORMALIZED FREE ENERGY PREDICTED BY IDOCK:  170.26 KCAL/MOL
REMARK 922        TOTAL FREE ENERGY PREDICTED BY IDOCK:  209.18 KCAL/MOL
REMARK 923 INTER-LIGAND FREE ENERGY PREDICTED BY IDOCK:   18.23 KCAL/MOL
REMARK 924 INTRA-LIGAND FREE ENERGY PREDICTED BY IDOCK:  190.95 KCAL/MOL
REMARK 927      BINDING AFFINITY PREDICTED BY RF-SCORE:    0.00 PKD
ROOT
HETATM    1  C   UNL     1     -10.902  12.966  67.387  1.00  0.00    -0.272 C  
HETATM    2  C   UNL     1      -9.679  12.680  66.400  1.00  0.00    -0.259 C  
HETATM    3  C   UNL     1      -9.203  11.225  66.168  1.00  0.00    -0.222 C  
HETATM    4  C   UNL     1      -9.233  10.459  67.505  1.00  0.00    -0.156 C  
HETATM    5  C   UNL     1     -10.007  10.540  65.045  1.00  0.00    -0.388 C  
HETATM    6  C   UNL     1      -7.754  11.139  65.627  1.00  0.00     0.190 C  
HETATM    7  O   UNL     1      -6.870  10.426  66.098  1.00  0.00    -0.109 OA 
HETATM    8  O   UNL     1      -7.510  11.867  64.528  1.00  0.00     2.467 OA 
HETATM    9  C   UNL     1     -10.382  10.788  68.496  1.00  0.00    -0.202 C  
HETATM   10  C   UNL     1     -10.629  12.315  68.751  1.00  0.00    -0.223 C  
HETATM   11  C   UNL     1      -9.388  12.831  69.510  1.00  0.00     1.541 C  
HETATM   12  C   UNL     1     -11.869  12.685  69.628  1.00  0.00    -0.379 C  
HETATM   13  C   UNL     1     -11.928  14.242  70.046  1.00  0.00    -0.396 C  
HETATM   14  C   UNL     1     -11.880  15.279  68.847  1.00  0.00    -0.344 C  
HETATM   15  C   UNL     1     -11.261  14.473  67.549  1.00  0.00    -0.333 C  
HETATM   16  C   UNL     1     -13.389  15.377  68.413  1.00  0.00     3.584 C  
HETATM   17  C   UNL     1     -10.742  15.242  66.609  1.00  0.00    -0.309 C  
HETATM   18  C   UNL     1      -9.960  16.072  67.530  1.00  0.00    -0.240 C  
HETATM   19  C   UNL     1     -10.502  17.418  67.668  1.00  0.00    -0.368 C  
HETATM   20  O   UNL     1      -9.087  15.613  68.265  1.00  0.00    -0.182 OA 
HETATM   21  C   UNL     1      -9.226  18.321  67.302  1.00  0.00    -0.256 C  
HETATM   22  C   UNL     1      -9.773  19.640  66.710  1.00  0.00    -0.487 C  
HETATM   23  C   UNL     1      -8.415  17.609  66.150  1.00  0.00    -0.167 C  
HETATM   24  C   UNL     1      -6.971  17.949  65.828  1.00  0.00    -0.234 C  
HETATM   25  C   UNL     1      -6.070  18.200  67.059  1.00  0.00    -0.156 C  
HETATM   26  C   UNL     1      -6.823  19.244  68.019  1.00  0.00    -0.267 C  
HETATM   27  C   UNL     1     -10.189  17.611  70.147  1.00  0.00     0.988 C  
HETATM   28  C   UNL     1      -8.254  18.540  68.494  1.00  0.00    -0.360 C  
HETATM   29  C   UNL     1      -6.918  20.566  67.157  1.00  0.00    -0.343 C  
HETATM   30  C   UNL     1      -5.849  19.667  69.135  1.00  0.00    -0.275 C  
HETATM   31  C   UNL     1     -12.459  18.034  69.188  1.00  0.00     7.982 C  
HETATM   32  C   UNL     1     -11.239  17.066  69.029  1.00  0.00     0.165 C  
HETATM   33  C   UNL     1      -9.158  18.861  69.731  1.00  0.00     0.793 C  
ENDROOT
BRANCH  25  34
HETATM   34  O   UNL     1      -5.289  17.065  67.609  1.00  0.00    -0.110 OA 
BRANCH  34  35
HETATM   35  C   UNL     1      -5.316  16.723  69.032  1.00  0.00    -0.133 C  
HETATM   36  C   UNL     1      -7.984  17.271  70.151  1.00  0.00     2.287 C  
HETATM   37  O   UNL     1      -5.740  17.847  69.772  1.00  0.00    -0.218 OA 
HETATM   38  C   UNL     1      -7.359  19.732  69.930  1.00  0.00     0.179 C  
HETATM   39  C   UNL     1      -7.058  18.262  69.499  1.00  0.00     0.072 C  
HETATM   40  O   UNL     1      -9.339  17.602  69.810  1.00  0.00     0.595 OA 
HETATM   41  C   UNL     1      -7.670  15.849  69.696  1.00  0.00     0.001 C  
HETATM   42  O   UNL     1      -6.633  20.511  70.518  1.00  0.00    -0.377 OA 
HETATM   43  O   UNL     1      -8.568  20.181  69.518  1.00  0.00     0.332 OA 
HETATM   44  O   UNL     1      -8.269  14.987  70.699  1.00  0.00     0.349 OA 
HETATM   45  H   UNL     1      -9.923  16.977  70.222  1.00  0.00     0.000 HD 
HETATM   46  C   UNL     1      -6.175  15.484  69.517  1.00  0.00    -0.145 C  
HETATM   47  H   UNL     1      -8.074  14.101  70.415  1.00  0.00     0.000 HD 
BRANCH  46  48
HETATM   48  O   UNL     1      -5.998  14.272  68.734  1.00  0.00    -0.080 OA 
BRANCH  48  49
HETATM   49  C   UNL     1      -6.731  14.289  67.489  1.00  0.00    -0.105 C  
HETATM   50  O   UNL     1      -7.521  15.476  67.355  1.00  0.00    -0.167 OA 
HETATM   51  C   UNL     1      -8.016  15.587  66.002  1.00  0.00     1.158 C  
HETATM   52  C   UNL     1      -8.544  17.001  65.755  1.00  0.00     0.224 C  
HETATM   53  C   UNL     1      -9.096  14.521  65.819  1.00  0.00     0.357 C  
HETATM   54  O   UNL     1      -9.669  14.478  64.505  1.00  0.00    -0.468 OA 
HETATM   55  C   UNL     1      -8.500  13.126  66.069  1.00  0.00     1.079 C  
HETATM   56  O   UNL     1      -8.414  17.801  66.839  1.00  0.00    -0.227 OA 
HETATM   57  O   UNL     1      -8.992  17.402  64.691  1.00  0.00     3.373 OA 
HETATM   58  O   UNL     1      -9.556  12.163  66.205  1.00  0.00    -0.229 OA 
HETATM   59  C   UNL     1      -7.528  12.992  67.259  1.00  0.00    -0.074 C  
HETATM   60  H   UNL     1     -10.340  13.816  64.391  1.00  0.00     0.000 HD 
HETATM   61  H   UNL     1      -9.188  11.300  66.360  1.00  0.00     0.000 HD 
HETATM   62  O   UNL     1      -6.549  11.962  66.930  1.00  0.00    -0.232 OA 
HETATM   63  H   UNL     1      -7.040  11.161  66.788  1.00  0.00     0.000 HD 
ENDBRANCH  48  49
ENDBRANCH  46  48
ENDBRANCH  34  35
ENDBRANCH  25  34
TORSDOF 4
ENDMDL
MODEL      117
REMARK 921   NORMALIZED FREE ENERGY PREDICTED BY IDOCK:  175.23 KCAL/MOL
REMARK 922        TOTAL FREE ENERGY PREDICTED BY IDOCK:  215.30 KCAL/MOL
REMARK 923 INTER-LIGAND FREE ENERGY PREDICTED BY IDOCK:   82.43 KCAL/MOL
REMARK 924 INTRA-LIGAND FREE ENERGY PREDICTED BY IDOCK:  132.87 KCAL/MOL
REMARK 927      BINDING AFFINITY PREDICTED BY RF-SCORE:    0.00 PKD
ROOT
HETATM    1  C   UNL     1      -7.748  10.259  68.568  1.00  0.00    -0.091 C  
HETATM    2  C   UNL     1      -7.159  10.601  67.124  1.00  0.00    -0.093 C  
HETATM    3  C   UNL     1      -7.081  12.074  66.654  1.00  0.00     0.145 C  
HETATM    4  C   UNL     1      -8.357  12.818  67.098  1.00  0.00    -0.164 C  
HETATM    5  C   UNL     1      -5.777  12.748  67.123  1.00  0.00     0.127 C  
HETATM    6  C   UNL     1      -6.984  12.216  65.115  1.00  0.00     4.057 C  
HETATM    7  O   UNL     1      -7.694  12.952  64.432  1.00  0.00     6.039 OA 
HETATM    8  O   UNL     1      -5.999  11.514  64.537  1.00  0.00     0.949 OA 
HETATM    9  C   UNL     1      -8.970  12.436  68.472  1.00  0.00    -0.058 C  
HETATM   10  C   UNL     1      -9.135  10.898  68.726  1.00  0.00    -0.174 C  
HETATM   11  C   UNL     1     -10.218  10.412  67.739  1.00  0.00    -0.229 C  
HETATM   12  C   UNL     1      -9.614  10.473  70.152  1.00  0.00     0.460 C  
HETATM   13  C   UNL     1      -9.989   8.908  70.273  1.00  0.00    -0.214 C  
HETATM   14  C   UNL     1      -8.850   7.893  69.842  1.00  0.00    -0.141 C  
HETATM   15  C   UNL     1      -7.792   8.739  68.904  1.00  0.00    -0.104 C  
HETATM   16  C   UNL     1      -7.997   7.750  71.156  1.00  0.00    -0.090 C  
HETATM   17  C   UNL     1      -7.038   8.002  68.108  1.00  0.00    -0.089 C  
HETATM   18  C   UNL     1      -8.142   7.184  67.596  1.00  0.00    -0.114 C  
HETATM   19  C   UNL     1      -8.111   5.819  68.105  1.00  0.00    -0.104 C  
HETATM   20  O   UNL     1      -9.101   7.661  66.990  1.00  0.00    -0.126 OA 
HETATM   21  C   UNL     1      -8.126   4.965  66.746  1.00  0.00    -0.107 C  
HETATM   22  C   UNL     1      -7.394   3.637  67.050  1.00  0.00    -0.068 C  
HETATM   23  C   UNL     1      -7.261   5.721  65.663  1.00  0.00    -0.075 C  
HETATM   24  C   UNL     1      -7.370   5.434  64.176  1.00  0.00    -0.057 C  
HETATM   25  C   UNL     1      -8.808   5.195  63.662  1.00  0.00     0.031 C  
HETATM   26  C   UNL     1      -9.504   4.112  64.621  1.00  0.00    -0.168 C  
HETATM   27  C   UNL     1     -10.573   5.598  68.516  1.00  0.00    -0.259 C  
HETATM   28  C   UNL     1      -9.547   4.760  66.152  1.00  0.00    -0.185 C  
HETATM   29  C   UNL     1      -8.644   2.801  64.414  1.00  0.00    -0.091 C  
HETATM   30  C   UNL     1     -10.852   3.705  63.996  1.00  0.00    -0.185 C  
HETATM   31  C   UNL     1      -8.995   5.115  70.394  1.00  0.00    -0.157 C  
HETATM   32  C   UNL     1      -9.202   6.125  69.217  1.00  0.00    -0.134 C  
HETATM   33  C   UNL     1     -10.468   4.391  67.364  1.00  0.00     0.357 C  
ENDROOT
BRANCH  25  34
HETATM   34  O   UNL     1      -9.566   6.347  63.115  1.00  0.00     1.904 OA 
BRANCH  34  35
HETATM   35  C   UNL     1     -10.412   7.190  63.962  1.00  0.00     9.294 C  
HETATM   36  C   UNL     1     -11.765   5.544  65.994  1.00  0.00     1.801 C  
HETATM   37  O   UNL     1     -11.731   6.690  63.945  1.00  0.00    12.287 OA 
HETATM   38  C   UNL     1     -13.181   4.669  64.064  1.00  0.00     9.956 C  
HETATM   39  C   UNL     1     -11.874   5.403  64.500  1.00  0.00     4.230 C  
HETATM   40  O   UNL     1     -11.803   4.239  66.591  1.00  0.00     3.508 OA 
HETATM   41  C   UNL     1     -10.470   6.252  66.382  1.00  0.00     0.006 C  
HETATM   42  O   UNL     1     -14.094   5.093  63.381  1.00  0.00    11.206 OA 
HETATM   43  O   UNL     1     -13.235   3.376  64.462  1.00  0.00     9.855 OA 
HETATM   44  O   UNL     1     -10.690   6.735  67.733  1.00  0.00    -0.220 OA 
HETATM   45  H   UNL     1     -11.734   4.328  67.535  1.00  0.00     0.000 HD 
HETATM   46  C   UNL     1     -10.010   7.421  65.476  1.00  0.00     1.489 C  
HETATM   47  H   UNL     1      -9.884   7.176  67.975  1.00  0.00     0.000 HD 
BRANCH  46  48
HETATM   48  O   UNL     1      -8.615   7.766  65.694  1.00  0.00    -0.144 OA 
BRANCH  48  49
HETATM   49  C   UNL     1      -8.365   9.188  65.633  1.00  0.00    -0.125 C  
HETATM   50  O   UNL     1      -9.284   9.850  64.756  1.00  0.00    -0.219 OA 
HETATM   51  C   UNL     1      -9.182  11.281  64.928  1.00  0.00    -0.112 C  
HETATM   52  C   UNL     1     -10.384  11.970  64.280  1.00  0.00    -0.322 C  
HETATM   53  C   UNL     1      -7.854  11.725  64.316  1.00  0.00     2.375 C  
HETATM   54  O   UNL     1      -7.587  13.129  64.436  1.00  0.00     7.413 OA 
HETATM   55  C   UNL     1      -6.689  11.008  65.018  1.00  0.00     0.517 C  
HETATM   56  O   UNL     1     -11.246  11.091  63.718  1.00  0.00    -0.147 OA 
HETATM   57  O   UNL     1     -10.590  13.174  64.296  1.00  0.00    -0.403 OA 
HETATM   58  O   UNL     1      -5.484  11.176  64.256  1.00  0.00    -0.461 OA 
HETATM   59  C   UNL     1      -6.889   9.511  65.335  1.00  0.00    -0.086 C  
HETATM   60  H   UNL     1      -6.761  13.405  64.056  1.00  0.00     0.000 HD 
HETATM   61  H   UNL     1      -4.764  10.733  64.690  1.00  0.00     0.000 HD 
HETATM   62  O   UNL     1      -6.149   9.205  66.554  1.00  0.00    -0.061 OA 
HETATM   63  H   UNL     1      -5.238   9.405  66.371  1.00  0.00     0.000 HD 
ENDBRANCH  48  49
ENDBRANCH  46  48
ENDBRANCH  34  35
ENDBRANCH  25  34
TORSDOF 4
ENDMDL
