MODEL        1
REMARK 921   NORMALIZED FREE ENERGY PREDICTED BY IDOCK:   -3.68 KCAL/MOL
REMARK 922        TOTAL FREE ENERGY PREDICTED BY IDOCK:   -3.67 KCAL/MOL
REMARK 923 INTER-LIGAND FREE ENERGY PREDICTED BY IDOCK:   -3.90 KCAL/MOL
REMARK 924 INTRA-LIGAND FREE ENERGY PREDICTED BY IDOCK:    0.23 KCAL/MOL
REMARK 927      BINDING AFFINITY PREDICTED BY RF-SCORE:    0.00 PKD
ROOT
HETATM    1  C   UNL     1     -12.006  14.293  67.027  1.00  0.00    -0.433 C  
HETATM    2  N   UNL     1     -10.646  14.818  66.665  1.00  0.00    -0.293 N  
HETATM    3  C   UNL     1      -9.548  13.931  67.226  1.00  0.00    -0.243 C  
HETATM    4  C   UNL     1     -10.455  16.239  67.169  1.00  0.00    -0.297 C  
ENDROOT
BRANCH   2   5
HETATM    5  C   UNL     1     -10.504  14.836  65.088  1.00  0.00    -0.418 C  
HETATM    6  C   UNL     1     -11.599  15.595  64.292  1.00  0.00    -0.189 C  
HETATM    7  O   UNL     1     -11.372  16.828  64.148  1.00  0.00    -1.194 OA 
HETATM    8  O   UNL     1     -12.613  14.897  64.016  1.00  0.00    -0.832 OA 
ENDBRANCH   2   5
TORSDOF 1
ENDMDL
MODEL        2
REMARK 921   NORMALIZED FREE ENERGY PREDICTED BY IDOCK:   -3.56 KCAL/MOL
REMARK 922        TOTAL FREE ENERGY PREDICTED BY IDOCK:   -3.54 KCAL/MOL
REMARK 923 INTER-LIGAND FREE ENERGY PREDICTED BY IDOCK:   -3.71 KCAL/MOL
REMARK 924 INTRA-LIGAND FREE ENERGY PREDICTED BY IDOCK:    0.17 KCAL/MOL
REMARK 927      BINDING AFFINITY PREDICTED BY RF-SCORE:    0.00 PKD
ROOT
HETATM    1  C   UNL     1     -11.218  15.348  67.139  1.00  0.00    -0.256 C  
HETATM    2  N   UNL     1     -10.816  14.108  66.392  1.00  0.00    -0.301 N  
HETATM    3  C   UNL     1     -11.863  13.016  66.537  1.00  0.00    -0.403 C  
HETATM    4  C   UNL     1      -9.472  13.588  66.875  1.00  0.00    -0.258 C  
ENDROOT
BRANCH   2   5
HETATM    5  C   UNL     1     -10.681  14.456  64.853  1.00  0.00    -0.426 C  
HETATM    6  C   UNL     1     -11.633  15.548  64.293  1.00  0.00    -0.194 C  
HETATM    7  O   UNL     1     -11.195  16.725  64.414  1.00  0.00    -1.112 OA 
HETATM    8  O   UNL     1     -12.754  15.111  63.915  1.00  0.00    -0.759 OA 
ENDBRANCH   2   5
TORSDOF 1
ENDMDL
MODEL        3
REMARK 921   NORMALIZED FREE ENERGY PREDICTED BY IDOCK:   -3.55 KCAL/MOL
REMARK 922        TOTAL FREE ENERGY PREDICTED BY IDOCK:   -3.53 KCAL/MOL
REMARK 923 INTER-LIGAND FREE ENERGY PREDICTED BY IDOCK:   -3.74 KCAL/MOL
REMARK 924 INTRA-LIGAND FREE ENERGY PREDICTED BY IDOCK:    0.21 KCAL/MOL
REMARK 927      BINDING AFFINITY PREDICTED BY RF-SCORE:    0.00 PKD
ROOT
HETATM    1  C   UNL     1     -11.243  12.242  65.894  1.00  0.00    -0.340 C  
HETATM    2  N   UNL     1     -11.763  13.281  64.942  1.00  0.00    -0.329 N  
HETATM    3  C   UNL     1     -12.903  14.071  65.560  1.00  0.00    -0.419 C  
HETATM    4  C   UNL     1     -12.233  12.648  63.642  1.00  0.00    -0.536 C  
ENDROOT
BRANCH   2   5
HETATM    5  C   UNL     1     -10.595  14.294  64.597  1.00  0.00    -0.340 C  
HETATM    6  C   UNL     1     -10.834  15.787  64.951  1.00  0.00    -0.413 C  
HETATM    7  O   UNL     1     -10.512  16.096  66.131  1.00  0.00    -0.314 OA 
HETATM    8  O   UNL     1     -11.428  16.442  64.051  1.00  0.00    -1.048 OA 
ENDBRANCH   2   5
TORSDOF 1
ENDMDL
MODEL        4
REMARK 921   NORMALIZED FREE ENERGY PREDICTED BY IDOCK:   -3.55 KCAL/MOL
REMARK 922        TOTAL FREE ENERGY PREDICTED BY IDOCK:   -3.53 KCAL/MOL
REMARK 923 INTER-LIGAND FREE ENERGY PREDICTED BY IDOCK:   -3.76 KCAL/MOL
REMARK 924 INTRA-LIGAND FREE ENERGY PREDICTED BY IDOCK:    0.23 KCAL/MOL
REMARK 927      BINDING AFFINITY PREDICTED BY RF-SCORE:    0.00 PKD
ROOT
HETATM    1  C   UNL     1      -9.327  14.196  66.671  1.00  0.00    -0.282 C  
HETATM    2  N   UNL     1     -10.610  14.468  65.940  1.00  0.00    -0.297 N  
HETATM    3  C   UNL     1     -10.584  15.833  65.272  1.00  0.00    -0.423 C  
HETATM    4  C   UNL     1     -11.804  14.387  66.878  1.00  0.00    -0.410 C  
ENDROOT
BRANCH   2   5
HETATM    5  C   UNL     1     -10.802  13.374  64.811  1.00  0.00    -0.375 C  
HETATM    6  C   UNL     1     -12.237  13.188  64.249  1.00  0.00    -0.396 C  
HETATM    7  O   UNL     1     -12.522  13.964  63.296  1.00  0.00    -0.817 OA 
HETATM    8  O   UNL     1     -12.948  12.380  64.906  1.00  0.00    -0.762 OA 
ENDBRANCH   2   5
TORSDOF 1
ENDMDL
MODEL        5
REMARK 921   NORMALIZED FREE ENERGY PREDICTED BY IDOCK:   -3.55 KCAL/MOL
REMARK 922        TOTAL FREE ENERGY PREDICTED BY IDOCK:   -3.52 KCAL/MOL
REMARK 923 INTER-LIGAND FREE ENERGY PREDICTED BY IDOCK:   -3.69 KCAL/MOL
REMARK 924 INTRA-LIGAND FREE ENERGY PREDICTED BY IDOCK:    0.17 KCAL/MOL
REMARK 927      BINDING AFFINITY PREDICTED BY RF-SCORE:    0.00 PKD
ROOT
HETATM    1  C   UNL     1     -11.676  14.405  67.033  1.00  0.00    -0.399 C  
HETATM    2  N   UNL     1     -10.426  14.237  66.217  1.00  0.00    -0.285 N  
HETATM    3  C   UNL     1      -9.415  13.360  66.935  1.00  0.00    -0.253 C  
HETATM    4  C   UNL     1      -9.794  15.582  65.899  1.00  0.00    -0.353 C  
ENDROOT
BRANCH   2   5
HETATM    5  C   UNL     1     -10.797  13.535  64.847  1.00  0.00    -0.362 C  
HETATM    6  C   UNL     1     -12.286  13.588  64.410  1.00  0.00    -0.390 C  
HETATM    7  O   UNL     1     -12.596  14.622  63.758  1.00  0.00    -0.820 OA 
HETATM    8  O   UNL     1     -12.994  12.653  64.877  1.00  0.00    -0.830 OA 
ENDBRANCH   2   5
TORSDOF 1
ENDMDL
MODEL        6
REMARK 921   NORMALIZED FREE ENERGY PREDICTED BY IDOCK:   -3.54 KCAL/MOL
REMARK 922        TOTAL FREE ENERGY PREDICTED BY IDOCK:   -3.52 KCAL/MOL
REMARK 923 INTER-LIGAND FREE ENERGY PREDICTED BY IDOCK:   -3.71 KCAL/MOL
REMARK 924 INTRA-LIGAND FREE ENERGY PREDICTED BY IDOCK:    0.19 KCAL/MOL
REMARK 927      BINDING AFFINITY PREDICTED BY RF-SCORE:    0.00 PKD
ROOT
HETATM    1  C   UNL     1     -10.189  15.561  65.734  1.00  0.00    -0.366 C  
HETATM    2  N   UNL     1     -10.633  14.168  66.078  1.00  0.00    -0.290 N  
HETATM    3  C   UNL     1     -11.919  14.185  66.886  1.00  0.00    -0.449 C  
HETATM    4  C   UNL     1      -9.558  13.426  66.854  1.00  0.00    -0.257 C  
ENDROOT
BRANCH   2   5
HETATM    5  C   UNL     1     -10.908  13.369  64.738  1.00  0.00    -0.375 C  
HETATM    6  C   UNL     1     -12.369  13.358  64.214  1.00  0.00    -0.335 C  
HETATM    7  O   UNL     1     -12.661  14.341  63.478  1.00  0.00    -0.814 OA 
HETATM    8  O   UNL     1     -13.085  12.440  64.700  1.00  0.00    -0.825 OA 
ENDBRANCH   2   5
TORSDOF 1
ENDMDL
MODEL        7
REMARK 921   NORMALIZED FREE ENERGY PREDICTED BY IDOCK:   -3.53 KCAL/MOL
REMARK 922        TOTAL FREE ENERGY PREDICTED BY IDOCK:   -3.51 KCAL/MOL
REMARK 923 INTER-LIGAND FREE ENERGY PREDICTED BY IDOCK:   -3.77 KCAL/MOL
REMARK 924 INTRA-LIGAND FREE ENERGY PREDICTED BY IDOCK:    0.26 KCAL/MOL
REMARK 927      BINDING AFFINITY PREDICTED BY RF-SCORE:    0.00 PKD
ROOT
HETATM    1  C   UNL     1      -9.337  13.994  67.115  1.00  0.00    -0.242 C  
HETATM    2  N   UNL     1     -10.551  14.694  66.573  1.00  0.00    -0.294 N  
HETATM    3  C   UNL     1     -10.615  16.133  67.055  1.00  0.00    -0.292 C  
HETATM    4  C   UNL     1     -11.826  13.969  66.972  1.00  0.00    -0.428 C  
ENDROOT
BRANCH   2   5
HETATM    5  C   UNL     1     -10.472  14.710  64.991  1.00  0.00    -0.421 C  
HETATM    6  C   UNL     1     -11.711  15.256  64.232  1.00  0.00    -0.215 C  
HETATM    7  O   UNL     1     -11.706  16.506  64.067  1.00  0.00    -1.111 OA 
HETATM    8  O   UNL     1     -12.599  14.389  64.003  1.00  0.00    -0.764 OA 
ENDBRANCH   2   5
TORSDOF 1
ENDMDL
MODEL        8
REMARK 921   NORMALIZED FREE ENERGY PREDICTED BY IDOCK:   -3.49 KCAL/MOL
REMARK 922        TOTAL FREE ENERGY PREDICTED BY IDOCK:   -3.47 KCAL/MOL
REMARK 923 INTER-LIGAND FREE ENERGY PREDICTED BY IDOCK:   -3.66 KCAL/MOL
REMARK 924 INTRA-LIGAND FREE ENERGY PREDICTED BY IDOCK:    0.19 KCAL/MOL
REMARK 927      BINDING AFFINITY PREDICTED BY RF-SCORE:    0.00 PKD
ROOT
HETATM    1  C   UNL     1     -10.813  11.382  66.355  1.00  0.00    -0.271 C  
HETATM    2  N   UNL     1     -10.821  12.814  65.904  1.00  0.00    -0.265 N  
HETATM    3  C   UNL     1      -9.571  13.543  66.366  1.00  0.00    -0.259 C  
HETATM    4  C   UNL     1     -12.051  13.544  66.418  1.00  0.00    -0.417 C  
ENDROOT
BRANCH   2   5
HETATM    5  C   UNL     1     -10.855  12.855  64.321  1.00  0.00    -0.397 C  
HETATM    6  C   UNL     1     -12.240  13.069  63.653  1.00  0.00    -0.491 C  
HETATM    7  O   UNL     1     -12.565  14.280  63.513  1.00  0.00    -0.814 OA 
HETATM    8  O   UNL     1     -12.891  12.005  63.463  1.00  0.00    -0.749 OA 
ENDBRANCH   2   5
TORSDOF 1
ENDMDL
MODEL        9
REMARK 921   NORMALIZED FREE ENERGY PREDICTED BY IDOCK:   -3.39 KCAL/MOL
REMARK 922        TOTAL FREE ENERGY PREDICTED BY IDOCK:   -3.36 KCAL/MOL
REMARK 923 INTER-LIGAND FREE ENERGY PREDICTED BY IDOCK:   -3.57 KCAL/MOL
REMARK 924 INTRA-LIGAND FREE ENERGY PREDICTED BY IDOCK:    0.21 KCAL/MOL
REMARK 927      BINDING AFFINITY PREDICTED BY RF-SCORE:    0.00 PKD
ROOT
HETATM    1  C   UNL     1     -12.030  14.061  67.422  1.00  0.00    -0.404 C  
HETATM    2  N   UNL     1     -11.294  13.801  66.139  1.00  0.00    -0.308 N  
HETATM    3  C   UNL     1      -9.958  13.126  66.400  1.00  0.00    -0.282 C  
HETATM    4  C   UNL     1     -11.067  15.090  65.365  1.00  0.00    -0.374 C  
ENDROOT
BRANCH   2   5
HETATM    5  C   UNL     1     -12.162  12.834  65.233  1.00  0.00    -0.483 C  
HETATM    6  C   UNL     1     -11.959  12.939  63.698  1.00  0.00    -0.541 C  
HETATM    7  O   UNL     1     -11.021  12.222  63.251  1.00  0.00    -0.432 OA 
HETATM    8  O   UNL     1     -12.675  13.815  63.141  1.00  0.00    -0.743 OA 
ENDBRANCH   2   5
TORSDOF 1
ENDMDL
MODEL       10
REMARK 921   NORMALIZED FREE ENERGY PREDICTED BY IDOCK:   -3.34 KCAL/MOL
REMARK 922        TOTAL FREE ENERGY PREDICTED BY IDOCK:   -3.30 KCAL/MOL
REMARK 923 INTER-LIGAND FREE ENERGY PREDICTED BY IDOCK:   -3.48 KCAL/MOL
REMARK 924 INTRA-LIGAND FREE ENERGY PREDICTED BY IDOCK:    0.18 KCAL/MOL
REMARK 927      BINDING AFFINITY PREDICTED BY RF-SCORE:    0.00 PKD
ROOT
HETATM    1  C   UNL     1     -13.030  13.933  65.500  1.00  0.00    -0.332 C  
HETATM    2  N   UNL     1     -11.828  13.188  64.995  1.00  0.00    -0.336 N  
HETATM    3  C   UNL     1     -12.181  12.319  63.801  1.00  0.00    -0.546 C  
HETATM    4  C   UNL     1     -11.219  12.324  66.088  1.00  0.00    -0.328 C  
ENDROOT
BRANCH   2   5
HETATM    5  C   UNL     1     -10.732  14.234  64.532  1.00  0.00    -0.259 C  
HETATM    6  C   UNL     1     -11.006  15.728  64.852  1.00  0.00    -0.427 C  
HETATM    7  O   UNL     1     -10.613  16.092  65.995  1.00  0.00    -0.323 OA 
HETATM    8  O   UNL     1     -11.691  16.326  63.978  1.00  0.00    -0.930 OA 
ENDBRANCH   2   5
TORSDOF 1
ENDMDL
MODEL       11
REMARK 921   NORMALIZED FREE ENERGY PREDICTED BY IDOCK:   -3.30 KCAL/MOL
REMARK 922        TOTAL FREE ENERGY PREDICTED BY IDOCK:   -3.26 KCAL/MOL
REMARK 923 INTER-LIGAND FREE ENERGY PREDICTED BY IDOCK:   -3.46 KCAL/MOL
REMARK 924 INTRA-LIGAND FREE ENERGY PREDICTED BY IDOCK:    0.19 KCAL/MOL
REMARK 927      BINDING AFFINITY PREDICTED BY RF-SCORE:    0.00 PKD
ROOT
HETATM    1  C   UNL     1      -9.954  15.370  66.145  1.00  0.00    -0.307 C  
HETATM    2  N   UNL     1     -10.916  14.217  66.093  1.00  0.00    -0.308 N  
HETATM    3  C   UNL     1     -11.882  14.254  67.264  1.00  0.00    -0.413 C  
HETATM    4  C   UNL     1     -10.179  12.888  66.086  1.00  0.00    -0.278 C  
ENDROOT
BRANCH   2   5
HETATM    5  C   UNL     1     -11.762  14.314  64.757  1.00  0.00    -0.415 C  
HETATM    6  C   UNL     1     -12.109  12.977  64.048  1.00  0.00    -0.450 C  
HETATM    7  O   UNL     1     -13.166  12.429  64.467  1.00  0.00    -0.834 OA 
HETATM    8  O   UNL     1     -11.222  12.572  63.247  1.00  0.00    -0.452 OA 
ENDBRANCH   2   5
TORSDOF 1
ENDMDL
MODEL       12
REMARK 921   NORMALIZED FREE ENERGY PREDICTED BY IDOCK:   -3.28 KCAL/MOL
REMARK 922        TOTAL FREE ENERGY PREDICTED BY IDOCK:   -3.24 KCAL/MOL
REMARK 923 INTER-LIGAND FREE ENERGY PREDICTED BY IDOCK:   -3.47 KCAL/MOL
REMARK 924 INTRA-LIGAND FREE ENERGY PREDICTED BY IDOCK:    0.23 KCAL/MOL
REMARK 927      BINDING AFFINITY PREDICTED BY RF-SCORE:    0.00 PKD
ROOT
HETATM    1  C   UNL     1     -11.780  14.320  67.567  1.00  0.00    -0.384 C  
HETATM    2  N   UNL     1     -11.434  13.831  66.190  1.00  0.00    -0.328 N  
HETATM    3  C   UNL     1     -12.654  13.831  65.284  1.00  0.00    -0.473 C  
HETATM    4  C   UNL     1     -10.839  12.433  66.237  1.00  0.00    -0.266 C  
ENDROOT
BRANCH   2   5
HETATM    5  C   UNL     1     -10.354  14.801  65.555  1.00  0.00    -0.364 C  
HETATM    6  C   UNL     1     -10.755  16.292  65.399  1.00  0.00    -0.327 C  
HETATM    7  O   UNL     1     -10.527  16.998  66.420  1.00  0.00    -0.309 OA 
HETATM    8  O   UNL     1     -11.363  16.554  64.325  1.00  0.00    -1.020 OA 
ENDBRANCH   2   5
TORSDOF 1
ENDMDL
MODEL       13
REMARK 921   NORMALIZED FREE ENERGY PREDICTED BY IDOCK:   -3.26 KCAL/MOL
REMARK 922        TOTAL FREE ENERGY PREDICTED BY IDOCK:   -3.22 KCAL/MOL
REMARK 923 INTER-LIGAND FREE ENERGY PREDICTED BY IDOCK:   -3.44 KCAL/MOL
REMARK 924 INTRA-LIGAND FREE ENERGY PREDICTED BY IDOCK:    0.22 KCAL/MOL
REMARK 927      BINDING AFFINITY PREDICTED BY RF-SCORE:    0.00 PKD
ROOT
HETATM    1  C   UNL     1     -11.145  16.619  67.956  1.00  0.00    -0.255 C  
HETATM    2  N   UNL     1     -10.019  17.211  67.159  1.00  0.00    -0.275 N  
HETATM    3  C   UNL     1      -8.738  17.269  67.975  1.00  0.00    -0.231 C  
HETATM    4  C   UNL     1     -10.368  18.606  66.666  1.00  0.00    -0.415 C  
ENDROOT
BRANCH   2   5
HETATM    5  C   UNL     1      -9.750  16.298  65.892  1.00  0.00    -0.321 C  
HETATM    6  C   UNL     1     -10.985  15.900  65.039  1.00  0.00    -0.412 C  
HETATM    7  O   UNL     1     -11.290  16.739  64.148  1.00  0.00    -1.194 OA 
HETATM    8  O   UNL     1     -11.577  14.861  65.442  1.00  0.00    -0.339 OA 
ENDBRANCH   2   5
TORSDOF 1
ENDMDL
MODEL       14
REMARK 921   NORMALIZED FREE ENERGY PREDICTED BY IDOCK:   -3.26 KCAL/MOL
REMARK 922        TOTAL FREE ENERGY PREDICTED BY IDOCK:   -3.22 KCAL/MOL
REMARK 923 INTER-LIGAND FREE ENERGY PREDICTED BY IDOCK:   -3.44 KCAL/MOL
REMARK 924 INTRA-LIGAND FREE ENERGY PREDICTED BY IDOCK:    0.22 KCAL/MOL
REMARK 927      BINDING AFFINITY PREDICTED BY RF-SCORE:    0.00 PKD
ROOT
HETATM    1  C   UNL     1      -9.464  14.179  67.052  1.00  0.00    -0.251 C  
HETATM    2  N   UNL     1     -10.622  15.106  66.814  1.00  0.00    -0.292 N  
HETATM    3  C   UNL     1     -10.635  15.612  65.381  1.00  0.00    -0.415 C  
HETATM    4  C   UNL     1     -10.583  16.289  67.768  1.00  0.00    -0.314 C  
ENDROOT
BRANCH   2   5
HETATM    5  C   UNL     1     -11.972  14.319  67.067  1.00  0.00    -0.433 C  
HETATM    6  C   UNL     1     -12.438  13.346  65.950  1.00  0.00    -0.408 C  
HETATM    7  O   UNL     1     -11.953  12.185  66.041  1.00  0.00    -0.578 OA 
HETATM    8  O   UNL     1     -13.131  13.890  65.047  1.00  0.00    -0.749 OA 
ENDBRANCH   2   5
TORSDOF 1
ENDMDL
MODEL       15
REMARK 921   NORMALIZED FREE ENERGY PREDICTED BY IDOCK:   -3.22 KCAL/MOL
REMARK 922        TOTAL FREE ENERGY PREDICTED BY IDOCK:   -3.17 KCAL/MOL
REMARK 923 INTER-LIGAND FREE ENERGY PREDICTED BY IDOCK:   -3.36 KCAL/MOL
REMARK 924 INTRA-LIGAND FREE ENERGY PREDICTED BY IDOCK:    0.19 KCAL/MOL
REMARK 927      BINDING AFFINITY PREDICTED BY RF-SCORE:    0.00 PKD
ROOT
HETATM    1  C   UNL     1      -9.509  13.492  66.662  1.00  0.00    -0.265 C  
HETATM    2  N   UNL     1     -10.762  13.003  65.993  1.00  0.00    -0.272 N  
HETATM    3  C   UNL     1     -11.391  11.861  66.773  1.00  0.00    -0.330 C  
HETATM    4  C   UNL     1     -10.482  12.549  64.569  1.00  0.00    -0.341 C  
ENDROOT
BRANCH   2   5
HETATM    5  C   UNL     1     -11.810  14.189  65.931  1.00  0.00    -0.384 C  
HETATM    6  C   UNL     1     -11.860  15.014  64.617  1.00  0.00    -0.375 C  
HETATM    7  O   UNL     1     -12.622  14.532  63.734  1.00  0.00    -0.825 OA 
HETATM    8  O   UNL     1     -11.040  15.971  64.577  1.00  0.00    -0.572 OA 
ENDBRANCH   2   5
TORSDOF 1
ENDMDL
MODEL       16
REMARK 921   NORMALIZED FREE ENERGY PREDICTED BY IDOCK:   -3.17 KCAL/MOL
REMARK 922        TOTAL FREE ENERGY PREDICTED BY IDOCK:   -3.12 KCAL/MOL
REMARK 923 INTER-LIGAND FREE ENERGY PREDICTED BY IDOCK:   -3.34 KCAL/MOL
REMARK 924 INTRA-LIGAND FREE ENERGY PREDICTED BY IDOCK:    0.21 KCAL/MOL
REMARK 927      BINDING AFFINITY PREDICTED BY RF-SCORE:    0.00 PKD
ROOT
HETATM    1  C   UNL     1      -9.336  11.382  66.115  1.00  0.00    -0.215 C  
HETATM    2  N   UNL     1     -10.173  12.475  65.514  1.00  0.00    -0.273 N  
HETATM    3  C   UNL     1     -10.104  12.449  63.997  1.00  0.00    -0.315 C  
HETATM    4  C   UNL     1      -9.736  13.841  66.018  1.00  0.00    -0.237 C  
ENDROOT
BRANCH   2   5
HETATM    5  C   UNL     1     -11.684  12.258  65.939  1.00  0.00    -0.389 C  
HETATM    6  C   UNL     1     -12.768  12.878  65.017  1.00  0.00    -0.404 C  
HETATM    7  O   UNL     1     -13.118  12.135  64.060  1.00  0.00    -0.723 OA 
HETATM    8  O   UNL     1     -13.049  14.078  65.286  1.00  0.00    -0.782 OA 
ENDBRANCH   2   5
TORSDOF 1
ENDMDL
MODEL       17
REMARK 921   NORMALIZED FREE ENERGY PREDICTED BY IDOCK:   -3.16 KCAL/MOL
REMARK 922        TOTAL FREE ENERGY PREDICTED BY IDOCK:   -3.12 KCAL/MOL
REMARK 923 INTER-LIGAND FREE ENERGY PREDICTED BY IDOCK:   -3.31 KCAL/MOL
REMARK 924 INTRA-LIGAND FREE ENERGY PREDICTED BY IDOCK:    0.19 KCAL/MOL
REMARK 927      BINDING AFFINITY PREDICTED BY RF-SCORE:    0.00 PKD
ROOT
HETATM    1  C   UNL     1     -12.723  13.323  64.894  1.00  0.00    -0.327 C  
HETATM    2  N   UNL     1     -11.407  13.507  65.594  1.00  0.00    -0.297 N  
HETATM    3  C   UNL     1     -10.244  13.318  64.636  1.00  0.00    -0.313 C  
HETATM    4  C   UNL     1     -11.265  12.541  66.759  1.00  0.00    -0.296 C  
ENDROOT
BRANCH   2   5
HETATM    5  C   UNL     1     -11.333  14.981  66.170  1.00  0.00    -0.270 C  
HETATM    6  C   UNL     1     -10.526  16.018  65.342  1.00  0.00    -0.392 C  
HETATM    7  O   UNL     1     -11.197  16.595  64.443  1.00  0.00    -1.033 OA 
HETATM    8  O   UNL     1      -9.293  16.042  65.606  1.00  0.00    -0.385 OA 
ENDBRANCH   2   5
TORSDOF 1
ENDMDL
MODEL       18
REMARK 921   NORMALIZED FREE ENERGY PREDICTED BY IDOCK:   -3.16 KCAL/MOL
REMARK 922        TOTAL FREE ENERGY PREDICTED BY IDOCK:   -3.11 KCAL/MOL
REMARK 923 INTER-LIGAND FREE ENERGY PREDICTED BY IDOCK:   -3.33 KCAL/MOL
REMARK 924 INTRA-LIGAND FREE ENERGY PREDICTED BY IDOCK:    0.22 KCAL/MOL
REMARK 927      BINDING AFFINITY PREDICTED BY RF-SCORE:    0.00 PKD
ROOT
HETATM    1  C   UNL     1      -9.523  19.923  66.461  1.00  0.00    -0.410 C  
HETATM    2  N   UNL     1      -9.489  18.947  67.603  1.00  0.00    -0.297 N  
HETATM    3  C   UNL     1     -10.014  19.579  68.881  1.00  0.00    -0.448 C  
HETATM    4  C   UNL     1      -8.081  18.425  67.837  1.00  0.00    -0.259 C  
ENDROOT
BRANCH   2   5
HETATM    5  C   UNL     1     -10.416  17.711  67.251  1.00  0.00    -0.338 C  
HETATM    6  C   UNL     1     -10.237  17.077  65.845  1.00  0.00    -0.296 C  
HETATM    7  O   UNL     1      -9.340  16.192  65.789  1.00  0.00    -0.396 OA 
HETATM    8  O   UNL     1     -10.925  17.624  64.941  1.00  0.00    -0.886 OA 
ENDBRANCH   2   5
TORSDOF 1
ENDMDL
MODEL       19
REMARK 921   NORMALIZED FREE ENERGY PREDICTED BY IDOCK:   -3.12 KCAL/MOL
REMARK 922        TOTAL FREE ENERGY PREDICTED BY IDOCK:   -3.08 KCAL/MOL
REMARK 923 INTER-LIGAND FREE ENERGY PREDICTED BY IDOCK:   -3.27 KCAL/MOL
REMARK 924 INTRA-LIGAND FREE ENERGY PREDICTED BY IDOCK:    0.19 KCAL/MOL
REMARK 927      BINDING AFFINITY PREDICTED BY RF-SCORE:    0.00 PKD
ROOT
HETATM    1  C   UNL     1     -11.372  15.647  64.800  1.00  0.00    -0.343 C  
HETATM    2  N   UNL     1     -10.678  14.742  65.776  1.00  0.00    -0.310 N  
HETATM    3  C   UNL     1     -11.344  14.791  67.141  1.00  0.00    -0.356 C  
HETATM    4  C   UNL     1      -9.210  15.110  65.917  1.00  0.00    -0.158 C  
ENDROOT
BRANCH   2   5
HETATM    5  C   UNL     1     -10.759  13.252  65.245  1.00  0.00    -0.311 C  
HETATM    6  C   UNL     1     -12.013  12.430  65.649  1.00  0.00    -0.386 C  
HETATM    7  O   UNL     1     -12.996  12.572  64.871  1.00  0.00    -0.821 OA 
HETATM    8  O   UNL     1     -11.908  11.841  66.760  1.00  0.00    -0.586 OA 
ENDBRANCH   2   5
TORSDOF 1
ENDMDL
MODEL       20
REMARK 921   NORMALIZED FREE ENERGY PREDICTED BY IDOCK:   -3.12 KCAL/MOL
REMARK 922        TOTAL FREE ENERGY PREDICTED BY IDOCK:   -3.07 KCAL/MOL
REMARK 923 INTER-LIGAND FREE ENERGY PREDICTED BY IDOCK:   -3.25 KCAL/MOL
REMARK 924 INTRA-LIGAND FREE ENERGY PREDICTED BY IDOCK:    0.18 KCAL/MOL
REMARK 927      BINDING AFFINITY PREDICTED BY RF-SCORE:    0.00 PKD
ROOT
HETATM    1  C   UNL     1     -12.784  14.007  65.402  1.00  0.00    -0.471 C  
HETATM    2  N   UNL     1     -11.292  13.936  65.246  1.00  0.00    -0.306 N  
HETATM    3  C   UNL     1     -10.698  15.314  65.010  1.00  0.00    -0.439 C  
HETATM    4  C   UNL     1     -10.903  13.015  64.100  1.00  0.00    -0.405 C  
ENDROOT
BRANCH   2   5
HETATM    5  C   UNL     1     -10.662  13.352  66.577  1.00  0.00    -0.286 C  
HETATM    6  C   UNL     1     -11.652  12.861  67.666  1.00  0.00    -0.355 C  
HETATM    7  O   UNL     1     -12.020  11.662  67.527  1.00  0.00    -0.622 OA 
HETATM    8  O   UNL     1     -12.041  13.765  68.456  1.00  0.00    -0.363 OA 
ENDBRANCH   2   5
TORSDOF 1
ENDMDL
MODEL       21
REMARK 921   NORMALIZED FREE ENERGY PREDICTED BY IDOCK:   -3.08 KCAL/MOL
REMARK 922        TOTAL FREE ENERGY PREDICTED BY IDOCK:   -3.03 KCAL/MOL
REMARK 923 INTER-LIGAND FREE ENERGY PREDICTED BY IDOCK:   -3.25 KCAL/MOL
REMARK 924 INTRA-LIGAND FREE ENERGY PREDICTED BY IDOCK:    0.22 KCAL/MOL
REMARK 927      BINDING AFFINITY PREDICTED BY RF-SCORE:    0.00 PKD
ROOT
HETATM    1  C   UNL     1      -9.196  12.559  66.497  1.00  0.00    -0.210 C  
HETATM    2  N   UNL     1     -10.505  12.205  65.850  1.00  0.00    -0.246 N  
HETATM    3  C   UNL     1     -11.622  12.130  66.877  1.00  0.00    -0.341 C  
HETATM    4  C   UNL     1     -10.410  10.882  65.109  1.00  0.00    -0.278 C  
ENDROOT
BRANCH   2   5
HETATM    5  C   UNL     1     -10.881  13.329  64.799  1.00  0.00    -0.360 C  
HETATM    6  C   UNL     1     -12.378  13.454  64.410  1.00  0.00    -0.341 C  
HETATM    7  O   UNL     1     -13.051  14.197  65.176  1.00  0.00    -0.757 OA 
HETATM    8  O   UNL     1     -12.730  12.698  63.463  1.00  0.00    -0.719 OA 
ENDBRANCH   2   5
TORSDOF 1
ENDMDL
MODEL       22
REMARK 921   NORMALIZED FREE ENERGY PREDICTED BY IDOCK:   -3.06 KCAL/MOL
REMARK 922        TOTAL FREE ENERGY PREDICTED BY IDOCK:   -3.01 KCAL/MOL
REMARK 923 INTER-LIGAND FREE ENERGY PREDICTED BY IDOCK:   -3.21 KCAL/MOL
REMARK 924 INTRA-LIGAND FREE ENERGY PREDICTED BY IDOCK:    0.20 KCAL/MOL
REMARK 927      BINDING AFFINITY PREDICTED BY RF-SCORE:    0.00 PKD
ROOT
HETATM    1  C   UNL     1     -10.857  12.956  64.046  1.00  0.00    -0.410 C  
HETATM    2  N   UNL     1     -11.161  13.801  65.250  1.00  0.00    -0.300 N  
HETATM    3  C   UNL     1     -12.660  13.938  65.461  1.00  0.00    -0.526 C  
HETATM    4  C   UNL     1     -10.540  15.182  65.123  1.00  0.00    -0.424 C  
ENDROOT
BRANCH   2   5
HETATM    5  C   UNL     1     -10.548  13.106  66.535  1.00  0.00    -0.284 C  
HETATM    6  C   UNL     1     -11.549  12.442  67.519  1.00  0.00    -0.365 C  
HETATM    7  O   UNL     1     -11.840  11.249  67.232  1.00  0.00    -0.562 OA 
HETATM    8  O   UNL     1     -12.018  13.229  68.386  1.00  0.00    -0.340 OA 
ENDBRANCH   2   5
TORSDOF 1
ENDMDL
MODEL       23
REMARK 921   NORMALIZED FREE ENERGY PREDICTED BY IDOCK:   -3.05 KCAL/MOL
REMARK 922        TOTAL FREE ENERGY PREDICTED BY IDOCK:   -3.00 KCAL/MOL
REMARK 923 INTER-LIGAND FREE ENERGY PREDICTED BY IDOCK:   -3.20 KCAL/MOL
REMARK 924 INTRA-LIGAND FREE ENERGY PREDICTED BY IDOCK:    0.19 KCAL/MOL
REMARK 927      BINDING AFFINITY PREDICTED BY RF-SCORE:    0.00 PKD
ROOT
HETATM    1  C   UNL     1     -12.768  15.221  73.436  1.00  0.00    -0.537 C  
HETATM    2  N   UNL     1     -13.033  14.577  72.106  1.00  0.00    -0.328 N  
HETATM    3  C   UNL     1     -14.128  15.309  71.349  1.00  0.00    -0.495 C  
HETATM    4  C   UNL     1     -13.422  13.116  72.271  1.00  0.00    -0.568 C  
ENDROOT
BRANCH   2   5
HETATM    5  C   UNL     1     -11.712  14.635  71.233  1.00  0.00    -0.264 C  
HETATM    6  C   UNL     1     -11.891  14.744  69.695  1.00  0.00    -0.319 C  
HETATM    7  O   UNL     1     -12.009  15.927  69.272  1.00  0.00    -0.356 OA 
HETATM    8  O   UNL     1     -12.017  13.634  69.110  1.00  0.00    -0.329 OA 
ENDBRANCH   2   5
TORSDOF 1
ENDMDL
MODEL       24
REMARK 921   NORMALIZED FREE ENERGY PREDICTED BY IDOCK:   -3.00 KCAL/MOL
REMARK 922        TOTAL FREE ENERGY PREDICTED BY IDOCK:   -2.94 KCAL/MOL
REMARK 923 INTER-LIGAND FREE ENERGY PREDICTED BY IDOCK:   -3.13 KCAL/MOL
REMARK 924 INTRA-LIGAND FREE ENERGY PREDICTED BY IDOCK:    0.19 KCAL/MOL
REMARK 927      BINDING AFFINITY PREDICTED BY RF-SCORE:    0.00 PKD
ROOT
HETATM    1  C   UNL     1     -10.441  14.100  64.707  1.00  0.00    -0.408 C  
HETATM    2  N   UNL     1     -11.279  12.874  64.934  1.00  0.00    -0.292 N  
HETATM    3  C   UNL     1     -10.413  11.671  65.267  1.00  0.00    -0.273 C  
HETATM    4  C   UNL     1     -12.134  12.561  63.717  1.00  0.00    -0.529 C  
ENDROOT
BRANCH   2   5
HETATM    5  C   UNL     1     -12.249  13.133  66.159  1.00  0.00    -0.385 C  
HETATM    6  C   UNL     1     -11.771  12.637  67.550  1.00  0.00    -0.368 C  
HETATM    7  O   UNL     1     -11.053  13.465  68.175  1.00  0.00    -0.240 OA 
HETATM    8  O   UNL     1     -12.065  11.436  67.799  1.00  0.00    -0.637 OA 
ENDBRANCH   2   5
TORSDOF 1
ENDMDL
MODEL       25
REMARK 921   NORMALIZED FREE ENERGY PREDICTED BY IDOCK:   -3.00 KCAL/MOL
REMARK 922        TOTAL FREE ENERGY PREDICTED BY IDOCK:   -2.94 KCAL/MOL
REMARK 923 INTER-LIGAND FREE ENERGY PREDICTED BY IDOCK:   -3.15 KCAL/MOL
REMARK 924 INTRA-LIGAND FREE ENERGY PREDICTED BY IDOCK:    0.20 KCAL/MOL
REMARK 927      BINDING AFFINITY PREDICTED BY RF-SCORE:    0.00 PKD
ROOT
HETATM    1  C   UNL     1     -11.858  12.080  67.750  1.00  0.00    -0.238 C  
HETATM    2  N   UNL     1     -11.454  13.524  67.831  1.00  0.00    -0.298 N  
HETATM    3  C   UNL     1      -9.952  13.684  67.671  1.00  0.00    -0.239 C  
HETATM    4  C   UNL     1     -11.891  14.143  69.149  1.00  0.00    -0.341 C  
ENDROOT
BRANCH   2   5
HETATM    5  C   UNL     1     -12.158  14.323  66.659  1.00  0.00    -0.420 C  
HETATM    6  C   UNL     1     -12.173  13.649  65.260  1.00  0.00    -0.439 C  
HETATM    7  O   UNL     1     -13.147  12.869  65.073  1.00  0.00    -0.794 OA 
HETATM    8  O   UNL     1     -11.147  13.882  64.564  1.00  0.00    -0.377 OA 
ENDBRANCH   2   5
TORSDOF 1
ENDMDL
MODEL       26
REMARK 921   NORMALIZED FREE ENERGY PREDICTED BY IDOCK:   -2.95 KCAL/MOL
REMARK 922        TOTAL FREE ENERGY PREDICTED BY IDOCK:   -2.89 KCAL/MOL
REMARK 923 INTER-LIGAND FREE ENERGY PREDICTED BY IDOCK:   -3.16 KCAL/MOL
REMARK 924 INTRA-LIGAND FREE ENERGY PREDICTED BY IDOCK:    0.26 KCAL/MOL
REMARK 927      BINDING AFFINITY PREDICTED BY RF-SCORE:    0.00 PKD
ROOT
HETATM    1  C   UNL     1      -9.622  14.019  67.686  1.00  0.00    -0.221 C  
HETATM    2  N   UNL     1     -10.588  14.992  67.074  1.00  0.00    -0.287 N  
HETATM    3  C   UNL     1     -11.289  15.817  68.141  1.00  0.00    -0.337 C  
HETATM    4  C   UNL     1     -11.626  14.276  66.226  1.00  0.00    -0.372 C  
ENDROOT
BRANCH   2   5
HETATM    5  C   UNL     1      -9.791  15.986  66.133  1.00  0.00    -0.325 C  
HETATM    6  C   UNL     1     -10.596  17.153  65.500  1.00  0.00    -0.150 C  
HETATM    7  O   UNL     1     -10.671  18.182  66.225  1.00  0.00    -0.306 OA 
HETATM    8  O   UNL     1     -11.162  16.858  64.412  1.00  0.00    -1.159 OA 
ENDBRANCH   2   5
TORSDOF 1
ENDMDL
MODEL       27
REMARK 921   NORMALIZED FREE ENERGY PREDICTED BY IDOCK:   -2.92 KCAL/MOL
REMARK 922        TOTAL FREE ENERGY PREDICTED BY IDOCK:   -2.86 KCAL/MOL
REMARK 923 INTER-LIGAND FREE ENERGY PREDICTED BY IDOCK:   -3.07 KCAL/MOL
REMARK 924 INTRA-LIGAND FREE ENERGY PREDICTED BY IDOCK:    0.21 KCAL/MOL
REMARK 927      BINDING AFFINITY PREDICTED BY RF-SCORE:    0.00 PKD
ROOT
HETATM    1  C   UNL     1     -10.543  15.235  65.256  1.00  0.00    -0.417 C  
HETATM    2  N   UNL     1     -11.193  13.908  65.527  1.00  0.00    -0.303 N  
HETATM    3  C   UNL     1     -10.972  12.943  64.375  1.00  0.00    -0.371 C  
HETATM    4  C   UNL     1     -12.684  14.067  65.776  1.00  0.00    -0.450 C  
ENDROOT
BRANCH   2   5
HETATM    5  C   UNL     1     -10.546  13.274  66.827  1.00  0.00    -0.276 C  
HETATM    6  C   UNL     1     -11.520  12.836  67.954  1.00  0.00    -0.317 C  
HETATM    7  O   UNL     1     -11.968  11.663  67.822  1.00  0.00    -0.608 OA 
HETATM    8  O   UNL     1     -11.818  13.755  68.765  1.00  0.00    -0.325 OA 
ENDBRANCH   2   5
TORSDOF 1
ENDMDL
MODEL       28
REMARK 921   NORMALIZED FREE ENERGY PREDICTED BY IDOCK:   -2.87 KCAL/MOL
REMARK 922        TOTAL FREE ENERGY PREDICTED BY IDOCK:   -2.81 KCAL/MOL
REMARK 923 INTER-LIGAND FREE ENERGY PREDICTED BY IDOCK:   -2.97 KCAL/MOL
REMARK 924 INTRA-LIGAND FREE ENERGY PREDICTED BY IDOCK:    0.16 KCAL/MOL
REMARK 927      BINDING AFFINITY PREDICTED BY RF-SCORE:    0.00 PKD
ROOT
HETATM    1  C   UNL     1      -8.793  16.150  66.108  1.00  0.00    -0.332 C  
HETATM    2  N   UNL     1     -10.009  16.453  66.936  1.00  0.00    -0.262 N  
HETATM    3  C   UNL     1     -10.250  17.950  67.030  1.00  0.00    -0.358 C  
HETATM    4  C   UNL     1      -9.879  15.872  68.335  1.00  0.00    -0.214 C  
ENDROOT
BRANCH   2   5
HETATM    5  C   UNL     1     -11.276  15.795  66.249  1.00  0.00     0.033 C  
HETATM    6  C   UNL     1     -11.201  15.559  64.717  1.00  0.00    -0.390 C  
HETATM    7  O   UNL     1     -10.675  14.460  64.388  1.00  0.00    -0.296 OA 
HETATM    8  O   UNL     1     -11.560  16.550  64.024  1.00  0.00    -1.154 OA 
ENDBRANCH   2   5
TORSDOF 1
ENDMDL
MODEL       29
REMARK 921   NORMALIZED FREE ENERGY PREDICTED BY IDOCK:   -2.87 KCAL/MOL
REMARK 922        TOTAL FREE ENERGY PREDICTED BY IDOCK:   -2.81 KCAL/MOL
REMARK 923 INTER-LIGAND FREE ENERGY PREDICTED BY IDOCK:   -3.00 KCAL/MOL
REMARK 924 INTRA-LIGAND FREE ENERGY PREDICTED BY IDOCK:    0.19 KCAL/MOL
REMARK 927      BINDING AFFINITY PREDICTED BY RF-SCORE:    0.00 PKD
ROOT
HETATM    1  C   UNL     1      -8.197  19.092  68.280  1.00  0.00    -0.334 C  
HETATM    2  N   UNL     1      -7.839  19.583  66.907  1.00  0.00    -0.257 N  
HETATM    3  C   UNL     1      -7.154  18.497  66.096  1.00  0.00    -0.266 C  
HETATM    4  C   UNL     1      -6.938  20.805  66.978  1.00  0.00    -0.325 C  
ENDROOT
BRANCH   2   5
HETATM    5  C   UNL     1      -9.165  19.998  66.146  1.00  0.00    -0.303 C  
HETATM    6  C   UNL     1     -10.406  19.088  66.350  1.00  0.00    -0.448 C  
HETATM    7  O   UNL     1     -11.104  19.384  67.358  1.00  0.00    -0.445 OA 
HETATM    8  O   UNL     1     -10.465  18.111  65.554  1.00  0.00    -0.626 OA 
ENDBRANCH   2   5
TORSDOF 1
ENDMDL
MODEL       30
REMARK 921   NORMALIZED FREE ENERGY PREDICTED BY IDOCK:   -2.85 KCAL/MOL
REMARK 922        TOTAL FREE ENERGY PREDICTED BY IDOCK:   -2.79 KCAL/MOL
REMARK 923 INTER-LIGAND FREE ENERGY PREDICTED BY IDOCK:   -2.95 KCAL/MOL
REMARK 924 INTRA-LIGAND FREE ENERGY PREDICTED BY IDOCK:    0.16 KCAL/MOL
REMARK 927      BINDING AFFINITY PREDICTED BY RF-SCORE:    0.00 PKD
ROOT
HETATM    1  C   UNL     1     -10.222  19.610  66.089  1.00  0.00    -0.508 C  
HETATM    2  N   UNL     1      -9.738  18.996  67.371  1.00  0.00    -0.308 N  
HETATM    3  C   UNL     1     -10.188  17.550  67.491  1.00  0.00    -0.340 C  
HETATM    4  C   UNL     1     -10.229  19.781  68.576  1.00  0.00    -0.433 C  
ENDROOT
BRANCH   2   5
HETATM    5  C   UNL     1      -8.154  19.018  67.386  1.00  0.00    -0.266 C  
HETATM    6  C   UNL     1      -7.439  19.094  66.011  1.00  0.00    -0.265 C  
HETATM    7  O   UNL     1      -7.273  20.267  65.579  1.00  0.00    -0.300 OA 
HETATM    8  O   UNL     1      -7.241  17.971  65.469  1.00  0.00    -0.532 OA 
ENDBRANCH   2   5
TORSDOF 1
ENDMDL
MODEL       31
REMARK 921   NORMALIZED FREE ENERGY PREDICTED BY IDOCK:   -2.85 KCAL/MOL
REMARK 922        TOTAL FREE ENERGY PREDICTED BY IDOCK:   -2.78 KCAL/MOL
REMARK 923 INTER-LIGAND FREE ENERGY PREDICTED BY IDOCK:   -2.98 KCAL/MOL
REMARK 924 INTRA-LIGAND FREE ENERGY PREDICTED BY IDOCK:    0.20 KCAL/MOL
REMARK 927      BINDING AFFINITY PREDICTED BY RF-SCORE:    0.00 PKD
ROOT
HETATM    1  C   UNL     1      -7.806  19.550  68.257  1.00  0.00    -0.327 C  
HETATM    2  N   UNL     1      -8.320  18.274  67.654  1.00  0.00    -0.245 N  
HETATM    3  C   UNL     1      -7.999  17.080  68.537  1.00  0.00    -0.249 C  
HETATM    4  C   UNL     1      -7.737  18.049  66.268  1.00  0.00    -0.258 C  
ENDROOT
BRANCH   2   5
HETATM    5  C   UNL     1      -9.894  18.369  67.513  1.00  0.00    -0.314 C  
HETATM    6  C   UNL     1     -10.459  18.602  66.085  1.00  0.00    -0.430 C  
HETATM    7  O   UNL     1     -10.642  17.544  65.423  1.00  0.00    -0.648 OA 
HETATM    8  O   UNL     1     -10.533  19.816  65.751  1.00  0.00    -0.511 OA 
ENDBRANCH   2   5
TORSDOF 1
ENDMDL
MODEL       32
REMARK 921   NORMALIZED FREE ENERGY PREDICTED BY IDOCK:   -2.84 KCAL/MOL
REMARK 922        TOTAL FREE ENERGY PREDICTED BY IDOCK:   -2.78 KCAL/MOL
REMARK 923 INTER-LIGAND FREE ENERGY PREDICTED BY IDOCK:   -2.98 KCAL/MOL
REMARK 924 INTRA-LIGAND FREE ENERGY PREDICTED BY IDOCK:    0.21 KCAL/MOL
REMARK 927      BINDING AFFINITY PREDICTED BY RF-SCORE:    0.00 PKD
ROOT
HETATM    1  C   UNL     1     -10.144  14.248  65.350  1.00  0.00    -0.351 C  
HETATM    2  N   UNL     1     -11.545  13.807  65.662  1.00  0.00    -0.322 N  
HETATM    3  C   UNL     1     -12.519  14.273  64.594  1.00  0.00    -0.351 C  
HETATM    4  C   UNL     1     -11.994  14.325  67.019  1.00  0.00    -0.433 C  
ENDROOT
BRANCH   2   5
HETATM    5  C   UNL     1     -11.588  12.224  65.706  1.00  0.00    -0.388 C  
HETATM    6  C   UNL     1     -11.155  11.545  67.034  1.00  0.00    -0.307 C  
HETATM    7  O   UNL     1     -12.086  11.416  67.875  1.00  0.00    -0.646 OA 
HETATM    8  O   UNL     1      -9.914  11.338  67.126  1.00  0.00    -0.188 OA 
ENDBRANCH   2   5
TORSDOF 1
ENDMDL
MODEL       33
REMARK 921   NORMALIZED FREE ENERGY PREDICTED BY IDOCK:   -2.79 KCAL/MOL
REMARK 922        TOTAL FREE ENERGY PREDICTED BY IDOCK:   -2.72 KCAL/MOL
REMARK 923 INTER-LIGAND FREE ENERGY PREDICTED BY IDOCK:   -2.90 KCAL/MOL
REMARK 924 INTRA-LIGAND FREE ENERGY PREDICTED BY IDOCK:    0.18 KCAL/MOL
REMARK 927      BINDING AFFINITY PREDICTED BY RF-SCORE:    0.00 PKD
ROOT
HETATM    1  C   UNL     1     -10.157  18.260  68.618  1.00  0.00    -0.385 C  
HETATM    2  N   UNL     1      -8.753  18.367  68.094  1.00  0.00    -0.294 N  
HETATM    3  C   UNL     1      -8.010  17.050  68.241  1.00  0.00    -0.222 C  
HETATM    4  C   UNL     1      -7.983  19.465  68.808  1.00  0.00    -0.356 C  
ENDROOT
BRANCH   2   5
HETATM    5  C   UNL     1      -8.805  18.730  66.553  1.00  0.00    -0.312 C  
HETATM    6  C   UNL     1     -10.200  18.706  65.872  1.00  0.00    -0.253 C  
HETATM    7  O   UNL     1     -10.838  19.791  65.966  1.00  0.00    -0.428 OA 
HETATM    8  O   UNL     1     -10.543  17.573  65.436  1.00  0.00    -0.648 OA 
ENDBRANCH   2   5
TORSDOF 1
ENDMDL
MODEL       34
REMARK 921   NORMALIZED FREE ENERGY PREDICTED BY IDOCK:   -2.77 KCAL/MOL
REMARK 922        TOTAL FREE ENERGY PREDICTED BY IDOCK:   -2.71 KCAL/MOL
REMARK 923 INTER-LIGAND FREE ENERGY PREDICTED BY IDOCK:   -2.97 KCAL/MOL
REMARK 924 INTRA-LIGAND FREE ENERGY PREDICTED BY IDOCK:    0.26 KCAL/MOL
REMARK 927      BINDING AFFINITY PREDICTED BY RF-SCORE:    0.00 PKD
ROOT
HETATM    1  C   UNL     1     -12.265  14.838  68.675  1.00  0.00    -0.077 C  
HETATM    2  N   UNL     1     -12.259  14.609  70.160  1.00  0.00    -0.318 N  
HETATM    3  C   UNL     1     -11.121  15.363  70.827  1.00  0.00    -0.336 C  
HETATM    4  C   UNL     1     -12.147  13.129  70.486  1.00  0.00    -0.306 C  
ENDROOT
BRANCH   2   5
HETATM    5  C   UNL     1     -13.622  15.141  70.768  1.00  0.00    -0.245 C  
HETATM    6  C   UNL     1     -13.873  14.865  72.275  1.00  0.00    -0.483 C  
HETATM    7  O   UNL     1     -13.394  15.741  73.047  1.00  0.00    -0.508 OA 
HETATM    8  O   UNL     1     -14.408  13.748  72.513  1.00  0.00    -0.696 OA 
ENDBRANCH   2   5
TORSDOF 1
ENDMDL
MODEL       35
REMARK 921   NORMALIZED FREE ENERGY PREDICTED BY IDOCK:   -2.73 KCAL/MOL
REMARK 922        TOTAL FREE ENERGY PREDICTED BY IDOCK:   -2.66 KCAL/MOL
REMARK 923 INTER-LIGAND FREE ENERGY PREDICTED BY IDOCK:   -2.83 KCAL/MOL
REMARK 924 INTRA-LIGAND FREE ENERGY PREDICTED BY IDOCK:    0.16 KCAL/MOL
REMARK 927      BINDING AFFINITY PREDICTED BY RF-SCORE:    0.00 PKD
ROOT
HETATM    1  C   UNL     1     -14.193  15.588  71.961  1.00  0.00    -0.506 C  
HETATM    2  N   UNL     1     -12.802  15.539  72.526  1.00  0.00    -0.383 N  
HETATM    3  C   UNL     1     -12.703  16.338  73.814  1.00  0.00    -0.506 C  
HETATM    4  C   UNL     1     -11.785  16.064  71.525  1.00  0.00    -0.484 C  
ENDROOT
BRANCH   2   5
HETATM    5  C   UNL     1     -12.432  14.034  72.854  1.00  0.00     0.054 C  
HETATM    6  C   UNL     1     -13.209  12.935  72.080  1.00  0.00    -0.448 C  
HETATM    7  O   UNL     1     -12.701  12.630  70.967  1.00  0.00    -0.324 OA 
HETATM    8  O   UNL     1     -14.300  12.599  72.618  1.00  0.00    -0.232 OA 
ENDBRANCH   2   5
TORSDOF 1
ENDMDL
MODEL       36
REMARK 921   NORMALIZED FREE ENERGY PREDICTED BY IDOCK:   -2.72 KCAL/MOL
REMARK 922        TOTAL FREE ENERGY PREDICTED BY IDOCK:   -2.65 KCAL/MOL
REMARK 923 INTER-LIGAND FREE ENERGY PREDICTED BY IDOCK:   -2.82 KCAL/MOL
REMARK 924 INTRA-LIGAND FREE ENERGY PREDICTED BY IDOCK:    0.17 KCAL/MOL
REMARK 927      BINDING AFFINITY PREDICTED BY RF-SCORE:    0.00 PKD
ROOT
HETATM    1  C   UNL     1     -12.061  13.180  69.493  1.00  0.00    -0.238 C  
HETATM    2  N   UNL     1     -11.472  14.301  68.686  1.00  0.00    -0.278 N  
HETATM    3  C   UNL     1     -12.025  14.309  67.271  1.00  0.00    -0.405 C  
HETATM    4  C   UNL     1      -9.956  14.205  68.636  1.00  0.00    -0.222 C  
ENDROOT
BRANCH   2   5
HETATM    5  C   UNL     1     -11.851  15.680  69.367  1.00  0.00    -0.375 C  
HETATM    6  C   UNL     1     -12.307  15.629  70.851  1.00  0.00    -0.429 C  
HETATM    7  O   UNL     1     -11.360  15.683  71.683  1.00  0.00    -0.391 OA 
HETATM    8  O   UNL     1     -13.540  15.416  71.005  1.00  0.00    -0.480 OA 
ENDBRANCH   2   5
TORSDOF 1
ENDMDL
MODEL       37
REMARK 921   NORMALIZED FREE ENERGY PREDICTED BY IDOCK:   -2.71 KCAL/MOL
REMARK 922        TOTAL FREE ENERGY PREDICTED BY IDOCK:   -2.64 KCAL/MOL
REMARK 923 INTER-LIGAND FREE ENERGY PREDICTED BY IDOCK:   -2.83 KCAL/MOL
REMARK 924 INTRA-LIGAND FREE ENERGY PREDICTED BY IDOCK:    0.19 KCAL/MOL
REMARK 927      BINDING AFFINITY PREDICTED BY RF-SCORE:    0.00 PKD
ROOT
HETATM    1  C   UNL     1     -11.122  15.451  67.471  1.00  0.00    -0.315 C  
HETATM    2  N   UNL     1     -11.120  14.151  66.718  1.00  0.00    -0.304 N  
HETATM    3  C   UNL     1     -10.229  14.229  65.491  1.00  0.00    -0.357 C  
HETATM    4  C   UNL     1     -12.527  13.757  66.299  1.00  0.00    -0.391 C  
ENDROOT
BRANCH   2   5
HETATM    5  C   UNL     1     -10.555  13.011  67.662  1.00  0.00    -0.224 C  
HETATM    6  C   UNL     1     -11.597  12.099  68.363  1.00  0.00    -0.327 C  
HETATM    7  O   UNL     1     -11.957  11.104  67.676  1.00  0.00    -0.613 OA 
HETATM    8  O   UNL     1     -12.022  12.551  69.461  1.00  0.00    -0.303 OA 
ENDBRANCH   2   5
TORSDOF 1
ENDMDL
MODEL       38
REMARK 921   NORMALIZED FREE ENERGY PREDICTED BY IDOCK:   -2.71 KCAL/MOL
REMARK 922        TOTAL FREE ENERGY PREDICTED BY IDOCK:   -2.64 KCAL/MOL
REMARK 923 INTER-LIGAND FREE ENERGY PREDICTED BY IDOCK:   -2.83 KCAL/MOL
REMARK 924 INTRA-LIGAND FREE ENERGY PREDICTED BY IDOCK:    0.19 KCAL/MOL
REMARK 927      BINDING AFFINITY PREDICTED BY RF-SCORE:    0.00 PKD
ROOT
HETATM    1  C   UNL     1      -9.992  11.915  64.343  1.00  0.00    -0.234 C  
HETATM    2  N   UNL     1     -11.200  12.782  64.554  1.00  0.00    -0.317 N  
HETATM    3  C   UNL     1     -12.234  12.557  63.465  1.00  0.00    -0.558 C  
HETATM    4  C   UNL     1     -10.819  14.253  64.594  1.00  0.00    -0.368 C  
ENDROOT
BRANCH   2   5
HETATM    5  C   UNL     1     -11.863  12.411  65.944  1.00  0.00    -0.405 C  
HETATM    6  C   UNL     1     -11.492  13.302  67.160  1.00  0.00    -0.341 C  
HETATM    7  O   UNL     1     -12.217  14.326  67.290  1.00  0.00    -0.393 OA 
HETATM    8  O   UNL     1     -10.445  12.940  67.764  1.00  0.00    -0.214 OA 
ENDBRANCH   2   5
TORSDOF 1
ENDMDL
MODEL       39
REMARK 921   NORMALIZED FREE ENERGY PREDICTED BY IDOCK:   -2.71 KCAL/MOL
REMARK 922        TOTAL FREE ENERGY PREDICTED BY IDOCK:   -2.64 KCAL/MOL
REMARK 923 INTER-LIGAND FREE ENERGY PREDICTED BY IDOCK:   -2.81 KCAL/MOL
REMARK 924 INTRA-LIGAND FREE ENERGY PREDICTED BY IDOCK:    0.17 KCAL/MOL
REMARK 927      BINDING AFFINITY PREDICTED BY RF-SCORE:    0.00 PKD
ROOT
HETATM    1  C   UNL     1     -10.234  11.027  64.063  1.00  0.00    -0.358 C  
HETATM    2  N   UNL     1     -10.197  11.009  65.564  1.00  0.00    -0.258 N  
HETATM    3  C   UNL     1      -8.888  11.575  66.088  1.00  0.00    -0.167 C  
HETATM    4  C   UNL     1     -10.390   9.600  66.101  1.00  0.00    -0.132 C  
ENDROOT
BRANCH   2   5
HETATM    5  C   UNL     1     -11.377  11.908  66.119  1.00  0.00    -0.324 C  
HETATM    6  C   UNL     1     -12.106  12.820  65.096  1.00  0.00    -0.450 C  
HETATM    7  O   UNL     1     -13.059  12.257  64.491  1.00  0.00    -0.791 OA 
HETATM    8  O   UNL     1     -11.563  13.946  64.929  1.00  0.00    -0.332 OA 
ENDBRANCH   2   5
TORSDOF 1
ENDMDL
MODEL       40
REMARK 921   NORMALIZED FREE ENERGY PREDICTED BY IDOCK:   -2.70 KCAL/MOL
REMARK 922        TOTAL FREE ENERGY PREDICTED BY IDOCK:   -2.63 KCAL/MOL
REMARK 923 INTER-LIGAND FREE ENERGY PREDICTED BY IDOCK:   -2.84 KCAL/MOL
REMARK 924 INTRA-LIGAND FREE ENERGY PREDICTED BY IDOCK:    0.21 KCAL/MOL
REMARK 927      BINDING AFFINITY PREDICTED BY RF-SCORE:    0.00 PKD
ROOT
HETATM    1  C   UNL     1      -6.888  19.757  65.601  1.00  0.00    -0.292 C  
HETATM    2  N   UNL     1      -7.806  19.144  66.620  1.00  0.00    -0.256 N  
HETATM    3  C   UNL     1      -7.207  19.220  68.015  1.00  0.00    -0.258 C  
HETATM    4  C   UNL     1      -8.115  17.696  66.280  1.00  0.00    -0.246 C  
ENDROOT
BRANCH   2   5
HETATM    5  C   UNL     1      -9.172  19.946  66.631  1.00  0.00    -0.385 C  
HETATM    6  C   UNL     1     -10.473  19.118  66.457  1.00  0.00    -0.448 C  
HETATM    7  O   UNL     1     -10.941  18.659  67.535  1.00  0.00    -0.392 OA 
HETATM    8  O   UNL     1     -10.803  18.921  65.255  1.00  0.00    -0.559 OA 
ENDBRANCH   2   5
TORSDOF 1
ENDMDL
MODEL       41
REMARK 921   NORMALIZED FREE ENERGY PREDICTED BY IDOCK:   -2.68 KCAL/MOL
REMARK 922        TOTAL FREE ENERGY PREDICTED BY IDOCK:   -2.61 KCAL/MOL
REMARK 923 INTER-LIGAND FREE ENERGY PREDICTED BY IDOCK:   -2.84 KCAL/MOL
REMARK 924 INTRA-LIGAND FREE ENERGY PREDICTED BY IDOCK:    0.23 KCAL/MOL
REMARK 927      BINDING AFFINITY PREDICTED BY RF-SCORE:    0.00 PKD
ROOT
HETATM    1  C   UNL     1      -7.706  17.616  68.005  1.00  0.00    -0.232 C  
HETATM    2  N   UNL     1      -7.908  19.090  68.205  1.00  0.00    -0.302 N  
HETATM    3  C   UNL     1      -7.666  19.858  66.917  1.00  0.00    -0.286 C  
HETATM    4  C   UNL     1      -6.992  19.626  69.294  1.00  0.00    -0.340 C  
ENDROOT
BRANCH   2   5
HETATM    5  C   UNL     1      -9.404  19.349  68.655  1.00  0.00    -0.390 C  
HETATM    6  C   UNL     1     -10.521  18.849  67.700  1.00  0.00    -0.443 C  
HETATM    7  O   UNL     1     -10.861  17.648  67.887  1.00  0.00    -0.374 OA 
HETATM    8  O   UNL     1     -10.836  19.673  66.798  1.00  0.00    -0.474 OA 
ENDBRANCH   2   5
TORSDOF 1
ENDMDL
MODEL       42
REMARK 921   NORMALIZED FREE ENERGY PREDICTED BY IDOCK:   -2.68 KCAL/MOL
REMARK 922        TOTAL FREE ENERGY PREDICTED BY IDOCK:   -2.60 KCAL/MOL
REMARK 923 INTER-LIGAND FREE ENERGY PREDICTED BY IDOCK:   -2.80 KCAL/MOL
REMARK 924 INTRA-LIGAND FREE ENERGY PREDICTED BY IDOCK:    0.19 KCAL/MOL
REMARK 927      BINDING AFFINITY PREDICTED BY RF-SCORE:    0.00 PKD
ROOT
HETATM    1  C   UNL     1     -11.395   7.270  70.384  1.00  0.00    -0.271 C  
HETATM    2  N   UNL     1     -11.823   7.994  71.628  1.00  0.00    -0.277 N  
HETATM    3  C   UNL     1     -11.147   7.416  72.860  1.00  0.00    -0.349 C  
HETATM    4  C   UNL     1     -13.331   7.938  71.805  1.00  0.00    -0.328 C  
ENDROOT
BRANCH   2   5
HETATM    5  C   UNL     1     -11.402   9.517  71.509  1.00  0.00    -0.385 C  
HETATM    6  C   UNL     1     -12.510  10.522  71.095  1.00  0.00    -0.412 C  
HETATM    7  O   UNL     1     -13.187  10.970  72.061  1.00  0.00    -0.499 OA 
HETATM    8  O   UNL     1     -12.654  10.647  69.848  1.00  0.00    -0.277 OA 
ENDBRANCH   2   5
TORSDOF 1
ENDMDL
MODEL       43
REMARK 921   NORMALIZED FREE ENERGY PREDICTED BY IDOCK:   -2.68 KCAL/MOL
REMARK 922        TOTAL FREE ENERGY PREDICTED BY IDOCK:   -2.60 KCAL/MOL
REMARK 923 INTER-LIGAND FREE ENERGY PREDICTED BY IDOCK:   -2.77 KCAL/MOL
REMARK 924 INTRA-LIGAND FREE ENERGY PREDICTED BY IDOCK:    0.16 KCAL/MOL
REMARK 927      BINDING AFFINITY PREDICTED BY RF-SCORE:    0.00 PKD
ROOT
HETATM    1  C   UNL     1     -13.176   8.115  71.780  1.00  0.00    -0.341 C  
HETATM    2  N   UNL     1     -11.684   8.243  71.661  1.00  0.00    -0.276 N  
HETATM    3  C   UNL     1     -11.170   7.535  70.419  1.00  0.00    -0.253 C  
HETATM    4  C   UNL     1     -10.985   7.683  72.889  1.00  0.00    -0.400 C  
ENDROOT
BRANCH   2   5
HETATM    5  C   UNL     1     -11.307   9.777  71.541  1.00  0.00    -0.275 C  
HETATM    6  C   UNL     1     -12.424  10.739  71.055  1.00  0.00    -0.420 C  
HETATM    7  O   UNL     1     -13.166  11.177  71.977  1.00  0.00    -0.493 OA 
HETATM    8  O   UNL     1     -12.506  10.843  69.800  1.00  0.00    -0.311 OA 
ENDBRANCH   2   5
TORSDOF 1
ENDMDL
MODEL       44
REMARK 921   NORMALIZED FREE ENERGY PREDICTED BY IDOCK:   -2.64 KCAL/MOL
REMARK 922        TOTAL FREE ENERGY PREDICTED BY IDOCK:   -2.56 KCAL/MOL
REMARK 923 INTER-LIGAND FREE ENERGY PREDICTED BY IDOCK:   -2.76 KCAL/MOL
REMARK 924 INTRA-LIGAND FREE ENERGY PREDICTED BY IDOCK:    0.20 KCAL/MOL
REMARK 927      BINDING AFFINITY PREDICTED BY RF-SCORE:    0.00 PKD
ROOT
HETATM    1  C   UNL     1      -9.692  15.373  68.811  1.00  0.00    -0.210 C  
HETATM    2  N   UNL     1      -9.788  15.620  67.333  1.00  0.00    -0.224 N  
HETATM    3  C   UNL     1     -10.340  14.404  66.607  1.00  0.00    -0.275 C  
HETATM    4  C   UNL     1      -8.433  15.986  66.748  1.00  0.00    -0.260 C  
ENDROOT
BRANCH   2   5
HETATM    5  C   UNL     1     -10.774  16.833  67.076  1.00  0.00    -0.161 C  
HETATM    6  C   UNL     1     -10.469  17.739  65.853  1.00  0.00    -0.251 C  
HETATM    7  O   UNL     1     -10.974  17.332  64.770  1.00  0.00    -0.950 OA 
HETATM    8  O   UNL     1      -9.662  18.677  66.094  1.00  0.00    -0.426 OA 
ENDBRANCH   2   5
TORSDOF 1
ENDMDL
MODEL       45
REMARK 921   NORMALIZED FREE ENERGY PREDICTED BY IDOCK:   -2.59 KCAL/MOL
REMARK 922        TOTAL FREE ENERGY PREDICTED BY IDOCK:   -2.51 KCAL/MOL
REMARK 923 INTER-LIGAND FREE ENERGY PREDICTED BY IDOCK:   -2.68 KCAL/MOL
REMARK 924 INTRA-LIGAND FREE ENERGY PREDICTED BY IDOCK:    0.16 KCAL/MOL
REMARK 927      BINDING AFFINITY PREDICTED BY RF-SCORE:    0.00 PKD
ROOT
HETATM    1  C   UNL     1     -10.709  19.511  67.236  1.00  0.00    -0.484 C  
HETATM    2  N   UNL     1     -10.050  18.161  67.222  1.00  0.00    -0.330 N  
HETATM    3  C   UNL     1     -10.429  17.378  65.977  1.00  0.00    -0.276 C  
HETATM    4  C   UNL     1     -10.419  17.357  68.458  1.00  0.00    -0.370 C  
ENDROOT
BRANCH   2   5
HETATM    5  C   UNL     1      -8.478  18.356  67.218  1.00  0.00    -0.254 C  
HETATM    6  C   UNL     1      -7.933  19.683  67.813  1.00  0.00    -0.302 C  
HETATM    7  O   UNL     1      -7.747  19.652  69.060  1.00  0.00    -0.347 OA 
HETATM    8  O   UNL     1      -7.876  20.634  66.986  1.00  0.00    -0.314 OA 
ENDBRANCH   2   5
TORSDOF 1
ENDMDL
MODEL       46
REMARK 921   NORMALIZED FREE ENERGY PREDICTED BY IDOCK:   -2.57 KCAL/MOL
REMARK 922        TOTAL FREE ENERGY PREDICTED BY IDOCK:   -2.49 KCAL/MOL
REMARK 923 INTER-LIGAND FREE ENERGY PREDICTED BY IDOCK:   -2.69 KCAL/MOL
REMARK 924 INTRA-LIGAND FREE ENERGY PREDICTED BY IDOCK:    0.19 KCAL/MOL
REMARK 927      BINDING AFFINITY PREDICTED BY RF-SCORE:    0.00 PKD
ROOT
HETATM    1  C   UNL     1      -9.569   8.604  71.875  1.00  0.00    -0.307 C  
HETATM    2  N   UNL     1     -10.900   8.560  71.181  1.00  0.00    -0.232 N  
HETATM    3  C   UNL     1     -11.057   7.282  70.374  1.00  0.00    -0.268 C  
HETATM    4  C   UNL     1     -11.083   9.761  70.267  1.00  0.00    -0.292 C  
ENDROOT
BRANCH   2   5
HETATM    5  C   UNL     1     -12.050   8.595  72.270  1.00  0.00    -0.373 C  
HETATM    6  C   UNL     1     -13.348   9.359  71.896  1.00  0.00    -0.434 C  
HETATM    7  O   UNL     1     -14.199   8.661  71.280  1.00  0.00    -0.336 OA 
HETATM    8  O   UNL     1     -13.312  10.594  72.151  1.00  0.00    -0.444 OA 
ENDBRANCH   2   5
TORSDOF 1
ENDMDL
MODEL       47
REMARK 921   NORMALIZED FREE ENERGY PREDICTED BY IDOCK:   -2.56 KCAL/MOL
REMARK 922        TOTAL FREE ENERGY PREDICTED BY IDOCK:   -2.48 KCAL/MOL
REMARK 923 INTER-LIGAND FREE ENERGY PREDICTED BY IDOCK:   -2.68 KCAL/MOL
REMARK 924 INTRA-LIGAND FREE ENERGY PREDICTED BY IDOCK:    0.19 KCAL/MOL
REMARK 927      BINDING AFFINITY PREDICTED BY RF-SCORE:    0.00 PKD
ROOT
HETATM    1  C   UNL     1      -8.563  16.814  68.918  1.00  0.00    -0.218 C  
HETATM    2  N   UNL     1      -9.456  17.284  67.806  1.00  0.00    -0.252 N  
HETATM    3  C   UNL     1     -10.904  16.903  68.066  1.00  0.00    -0.338 C  
HETATM    4  C   UNL     1      -9.015  16.712  66.469  1.00  0.00    -0.277 C  
ENDROOT
BRANCH   2   5
HETATM    5  C   UNL     1      -9.375  18.863  67.713  1.00  0.00    -0.293 C  
HETATM    6  C   UNL     1      -9.402  19.485  66.291  1.00  0.00    -0.372 C  
HETATM    7  O   UNL     1     -10.561  19.697  65.842  1.00  0.00    -0.502 OA 
HETATM    8  O   UNL     1      -8.268  19.571  65.744  1.00  0.00    -0.427 OA 
ENDBRANCH   2   5
TORSDOF 1
ENDMDL
MODEL       48
REMARK 921   NORMALIZED FREE ENERGY PREDICTED BY IDOCK:   -2.55 KCAL/MOL
REMARK 922        TOTAL FREE ENERGY PREDICTED BY IDOCK:   -2.47 KCAL/MOL
REMARK 923 INTER-LIGAND FREE ENERGY PREDICTED BY IDOCK:   -2.69 KCAL/MOL
REMARK 924 INTRA-LIGAND FREE ENERGY PREDICTED BY IDOCK:    0.21 KCAL/MOL
REMARK 927      BINDING AFFINITY PREDICTED BY RF-SCORE:    0.00 PKD
ROOT
HETATM    1  C   UNL     1     -10.984  15.232  65.806  1.00  0.00    -0.338 C  
HETATM    2  N   UNL     1     -10.703  15.161  67.280  1.00  0.00    -0.298 N  
HETATM    3  C   UNL     1     -10.776  16.536  67.920  1.00  0.00    -0.337 C  
HETATM    4  C   UNL     1      -9.338  14.549  67.550  1.00  0.00    -0.193 C  
ENDROOT
BRANCH   2   5
HETATM    5  C   UNL     1     -11.795  14.242  67.968  1.00  0.00    -0.344 C  
HETATM    6  C   UNL     1     -11.607  12.707  67.835  1.00  0.00    -0.349 C  
HETATM    7  O   UNL     1     -10.874  12.197  68.726  1.00  0.00    -0.221 OA 
HETATM    8  O   UNL     1     -12.109  12.215  66.787  1.00  0.00    -0.609 OA 
ENDBRANCH   2   5
TORSDOF 1
ENDMDL
MODEL       49
REMARK 921   NORMALIZED FREE ENERGY PREDICTED BY IDOCK:   -2.55 KCAL/MOL
REMARK 922        TOTAL FREE ENERGY PREDICTED BY IDOCK:   -2.47 KCAL/MOL
REMARK 923 INTER-LIGAND FREE ENERGY PREDICTED BY IDOCK:   -2.72 KCAL/MOL
REMARK 924 INTRA-LIGAND FREE ENERGY PREDICTED BY IDOCK:    0.25 KCAL/MOL
REMARK 927      BINDING AFFINITY PREDICTED BY RF-SCORE:    0.00 PKD
ROOT
HETATM    1  C   UNL     1      -9.778  13.336  66.174  1.00  0.00    -0.250 C  
HETATM    2  N   UNL     1     -10.612  14.544  66.491  1.00  0.00    -0.292 N  
HETATM    3  C   UNL     1     -12.086  14.188  66.575  1.00  0.00    -0.454 C  
HETATM    4  C   UNL     1     -10.413  15.636  65.453  1.00  0.00    -0.411 C  
ENDROOT
BRANCH   2   5
HETATM    5  C   UNL     1     -10.167  15.121  67.898  1.00  0.00    -0.232 C  
HETATM    6  C   UNL     1     -11.111  16.159  68.562  1.00  0.00    -0.357 C  
HETATM    7  O   UNL     1     -12.029  15.650  69.261  1.00  0.00    -0.365 OA 
HETATM    8  O   UNL     1     -10.900  17.351  68.205  1.00  0.00    -0.355 OA 
ENDBRANCH   2   5
TORSDOF 1
ENDMDL
MODEL       50
REMARK 921   NORMALIZED FREE ENERGY PREDICTED BY IDOCK:   -2.53 KCAL/MOL
REMARK 922        TOTAL FREE ENERGY PREDICTED BY IDOCK:   -2.45 KCAL/MOL
REMARK 923 INTER-LIGAND FREE ENERGY PREDICTED BY IDOCK:   -2.65 KCAL/MOL
REMARK 924 INTRA-LIGAND FREE ENERGY PREDICTED BY IDOCK:    0.20 KCAL/MOL
REMARK 927      BINDING AFFINITY PREDICTED BY RF-SCORE:    0.00 PKD
ROOT
HETATM    1  C   UNL     1     -10.959   7.086  70.394  1.00  0.00    -0.268 C  
HETATM    2  N   UNL     1     -11.793   7.104  71.643  1.00  0.00    -0.289 N  
HETATM    3  C   UNL     1     -11.309   8.169  72.612  1.00  0.00    -0.381 C  
HETATM    4  C   UNL     1     -11.779   5.749  72.332  1.00  0.00    -0.223 C  
ENDROOT
BRANCH   2   5
HETATM    5  C   UNL     1     -13.292   7.439  71.256  1.00  0.00    -0.271 C  
HETATM    6  C   UNL     1     -13.831   8.833  71.678  1.00  0.00    -0.397 C  
HETATM    7  O   UNL     1     -13.599   9.751  70.844  1.00  0.00    -0.277 OA 
HETATM    8  O   UNL     1     -14.310   8.870  72.845  1.00  0.00    -0.548 OA 
ENDBRANCH   2   5
TORSDOF 1
ENDMDL
MODEL       51
REMARK 921   NORMALIZED FREE ENERGY PREDICTED BY IDOCK:   -2.51 KCAL/MOL
REMARK 922        TOTAL FREE ENERGY PREDICTED BY IDOCK:   -2.43 KCAL/MOL
REMARK 923 INTER-LIGAND FREE ENERGY PREDICTED BY IDOCK:   -2.62 KCAL/MOL
REMARK 924 INTRA-LIGAND FREE ENERGY PREDICTED BY IDOCK:    0.19 KCAL/MOL
REMARK 927      BINDING AFFINITY PREDICTED BY RF-SCORE:    0.00 PKD
ROOT
HETATM    1  C   UNL     1     -10.543  19.627  66.462  1.00  0.00    -0.482 C  
HETATM    2  N   UNL     1      -9.295  19.050  67.066  1.00  0.00    -0.302 N  
HETATM    3  C   UNL     1      -9.163  19.435  68.530  1.00  0.00    -0.375 C  
HETATM    4  C   UNL     1      -8.058  19.505  66.309  1.00  0.00    -0.334 C  
ENDROOT
BRANCH   2   5
HETATM    5  C   UNL     1      -9.365  17.469  66.981  1.00  0.00    -0.259 C  
HETATM    6  C   UNL     1      -9.993  16.728  68.192  1.00  0.00    -0.270 C  
HETATM    7  O   UNL     1     -11.248  16.608  68.129  1.00  0.00    -0.339 OA 
HETATM    8  O   UNL     1      -9.177  16.465  69.117  1.00  0.00    -0.257 OA 
ENDBRANCH   2   5
TORSDOF 1
ENDMDL
MODEL       52
REMARK 921   NORMALIZED FREE ENERGY PREDICTED BY IDOCK:   -2.49 KCAL/MOL
REMARK 922        TOTAL FREE ENERGY PREDICTED BY IDOCK:   -2.41 KCAL/MOL
REMARK 923 INTER-LIGAND FREE ENERGY PREDICTED BY IDOCK:   -2.60 KCAL/MOL
REMARK 924 INTRA-LIGAND FREE ENERGY PREDICTED BY IDOCK:    0.19 KCAL/MOL
REMARK 927      BINDING AFFINITY PREDICTED BY RF-SCORE:    0.00 PKD
ROOT
HETATM    1  C   UNL     1     -10.422  13.438  64.431  1.00  0.00    -0.384 C  
HETATM    2  N   UNL     1     -11.244  12.203  64.662  1.00  0.00    -0.313 N  
HETATM    3  C   UNL     1     -12.407  12.127  63.688  1.00  0.00    -0.568 C  
HETATM    4  C   UNL     1     -11.774  12.155  66.086  1.00  0.00    -0.315 C  
ENDROOT
BRANCH   2   5
HETATM    5  C   UNL     1     -10.333  10.927  64.437  1.00  0.00    -0.361 C  
HETATM    6  C   UNL     1      -9.592  10.365  65.680  1.00  0.00    -0.226 C  
HETATM    7  O   UNL     1     -10.268   9.541  66.355  1.00  0.00    -0.264 OA 
HETATM    8  O   UNL     1      -8.474  10.906  65.903  1.00  0.00    -0.162 OA 
ENDBRANCH   2   5
TORSDOF 1
ENDMDL
MODEL       53
REMARK 921   NORMALIZED FREE ENERGY PREDICTED BY IDOCK:   -2.49 KCAL/MOL
REMARK 922        TOTAL FREE ENERGY PREDICTED BY IDOCK:   -2.40 KCAL/MOL
REMARK 923 INTER-LIGAND FREE ENERGY PREDICTED BY IDOCK:   -2.59 KCAL/MOL
REMARK 924 INTRA-LIGAND FREE ENERGY PREDICTED BY IDOCK:    0.19 KCAL/MOL
REMARK 927      BINDING AFFINITY PREDICTED BY RF-SCORE:    0.00 PKD
ROOT
HETATM    1  C   UNL     1      -9.600  19.215  68.665  1.00  0.00    -0.413 C  
HETATM    2  N   UNL     1      -9.644  18.955  67.187  1.00  0.00    -0.300 N  
HETATM    3  C   UNL     1      -8.246  18.794  66.616  1.00  0.00    -0.289 C  
HETATM    4  C   UNL     1     -10.364  20.076  66.454  1.00  0.00    -0.455 C  
ENDROOT
BRANCH   2   5
HETATM    5  C   UNL     1     -10.438  17.610  66.924  1.00  0.00    -0.290 C  
HETATM    6  C   UNL     1      -9.596  16.314  66.778  1.00  0.00    -0.239 C  
HETATM    7  O   UNL     1      -9.340  15.740  67.872  1.00  0.00    -0.198 OA 
HETATM    8  O   UNL     1      -9.186  16.094  65.606  1.00  0.00    -0.407 OA 
ENDBRANCH   2   5
TORSDOF 1
ENDMDL
MODEL       54
REMARK 921   NORMALIZED FREE ENERGY PREDICTED BY IDOCK:   -2.48 KCAL/MOL
REMARK 922        TOTAL FREE ENERGY PREDICTED BY IDOCK:   -2.39 KCAL/MOL
REMARK 923 INTER-LIGAND FREE ENERGY PREDICTED BY IDOCK:   -2.60 KCAL/MOL
REMARK 924 INTRA-LIGAND FREE ENERGY PREDICTED BY IDOCK:    0.21 KCAL/MOL
REMARK 927      BINDING AFFINITY PREDICTED BY RF-SCORE:    0.00 PKD
ROOT
HETATM    1  C   UNL     1      -9.628   6.751  71.437  1.00  0.00    -0.167 C  
HETATM    2  N   UNL     1     -11.079   6.711  71.819  1.00  0.00    -0.240 N  
HETATM    3  C   UNL     1     -11.393   5.485  72.659  1.00  0.00    -0.291 C  
HETATM    4  C   UNL     1     -11.971   6.723  70.588  1.00  0.00    -0.362 C  
ENDROOT
BRANCH   2   5
HETATM    5  C   UNL     1     -11.420   7.995  72.681  1.00  0.00    -0.402 C  
HETATM    6  C   UNL     1     -12.357   9.049  72.032  1.00  0.00    -0.384 C  
HETATM    7  O   UNL     1     -13.587   8.825  72.207  1.00  0.00    -0.398 OA 
HETATM    8  O   UNL     1     -11.760   9.903  71.320  1.00  0.00    -0.354 OA 
ENDBRANCH   2   5
TORSDOF 1
ENDMDL
MODEL       55
REMARK 921   NORMALIZED FREE ENERGY PREDICTED BY IDOCK:   -2.48 KCAL/MOL
REMARK 922        TOTAL FREE ENERGY PREDICTED BY IDOCK:   -2.39 KCAL/MOL
REMARK 923 INTER-LIGAND FREE ENERGY PREDICTED BY IDOCK:   -2.56 KCAL/MOL
REMARK 924 INTRA-LIGAND FREE ENERGY PREDICTED BY IDOCK:    0.17 KCAL/MOL
REMARK 927      BINDING AFFINITY PREDICTED BY RF-SCORE:    0.00 PKD
ROOT
HETATM    1  C   UNL     1     -10.076  19.452  68.478  1.00  0.00    -0.437 C  
HETATM    2  N   UNL     1      -8.760  18.765  68.250  1.00  0.00    -0.322 N  
HETATM    3  C   UNL     1      -7.656  19.406  69.074  1.00  0.00    -0.334 C  
HETATM    4  C   UNL     1      -8.374  18.791  66.780  1.00  0.00    -0.281 C  
ENDROOT
BRANCH   2   5
HETATM    5  C   UNL     1      -8.886  17.250  68.694  1.00  0.00    -0.261 C  
HETATM    6  C   UNL     1     -10.318  16.654  68.760  1.00  0.00    -0.301 C  
HETATM    7  O   UNL     1     -10.731  16.181  67.665  1.00  0.00    -0.313 OA 
HETATM    8  O   UNL     1     -10.905  16.842  69.860  1.00  0.00    -0.309 OA 
ENDBRANCH   2   5
TORSDOF 1
ENDMDL
MODEL       56
REMARK 921   NORMALIZED FREE ENERGY PREDICTED BY IDOCK:   -2.47 KCAL/MOL
REMARK 922        TOTAL FREE ENERGY PREDICTED BY IDOCK:   -2.38 KCAL/MOL
REMARK 923 INTER-LIGAND FREE ENERGY PREDICTED BY IDOCK:   -2.57 KCAL/MOL
REMARK 924 INTRA-LIGAND FREE ENERGY PREDICTED BY IDOCK:    0.19 KCAL/MOL
REMARK 927      BINDING AFFINITY PREDICTED BY RF-SCORE:    0.00 PKD
ROOT
HETATM    1  C   UNL     1     -12.682  13.730  65.536  1.00  0.00    -0.488 C  
HETATM    2  N   UNL     1     -11.224  13.765  65.178  1.00  0.00    -0.306 N  
HETATM    3  C   UNL     1     -10.757  15.187  64.915  1.00  0.00    -0.398 C  
HETATM    4  C   UNL     1     -10.938  12.905  63.958  1.00  0.00    -0.411 C  
ENDROOT
BRANCH   2   5
HETATM    5  C   UNL     1     -10.381  13.190  66.389  1.00  0.00    -0.287 C  
HETATM    6  C   UNL     1      -9.792  14.222  67.388  1.00  0.00    -0.235 C  
HETATM    7  O   UNL     1     -10.578  14.545  68.321  1.00  0.00    -0.233 OA 
HETATM    8  O   UNL     1      -8.666  14.679  67.053  1.00  0.00    -0.215 OA 
ENDBRANCH   2   5
TORSDOF 1
ENDMDL
MODEL       57
REMARK 921   NORMALIZED FREE ENERGY PREDICTED BY IDOCK:   -2.46 KCAL/MOL
REMARK 922        TOTAL FREE ENERGY PREDICTED BY IDOCK:   -2.38 KCAL/MOL
REMARK 923 INTER-LIGAND FREE ENERGY PREDICTED BY IDOCK:   -2.58 KCAL/MOL
REMARK 924 INTRA-LIGAND FREE ENERGY PREDICTED BY IDOCK:    0.20 KCAL/MOL
REMARK 927      BINDING AFFINITY PREDICTED BY RF-SCORE:    0.00 PKD
ROOT
HETATM    1  C   UNL     1     -10.637  18.133  67.707  1.00  0.00    -0.389 C  
HETATM    2  N   UNL     1     -10.065  16.746  67.776  1.00  0.00    -0.272 N  
HETATM    3  C   UNL     1     -11.157  15.711  67.987  1.00  0.00    -0.335 C  
HETATM    4  C   UNL     1      -9.037  16.632  68.890  1.00  0.00    -0.238 C  
ENDROOT
BRANCH   2   5
HETATM    5  C   UNL     1      -9.340  16.419  66.406  1.00  0.00    -0.292 C  
HETATM    6  C   UNL     1      -7.874  16.908  66.253  1.00  0.00    -0.311 C  
HETATM    7  O   UNL     1      -7.012  16.101  66.697  1.00  0.00    -0.211 OA 
HETATM    8  O   UNL     1      -7.766  18.089  65.825  1.00  0.00    -0.532 OA 
ENDBRANCH   2   5
TORSDOF 1
ENDMDL
MODEL       58
REMARK 921   NORMALIZED FREE ENERGY PREDICTED BY IDOCK:   -2.46 KCAL/MOL
REMARK 922        TOTAL FREE ENERGY PREDICTED BY IDOCK:   -2.38 KCAL/MOL
REMARK 923 INTER-LIGAND FREE ENERGY PREDICTED BY IDOCK:   -2.57 KCAL/MOL
REMARK 924 INTRA-LIGAND FREE ENERGY PREDICTED BY IDOCK:    0.19 KCAL/MOL
REMARK 927      BINDING AFFINITY PREDICTED BY RF-SCORE:    0.00 PKD
ROOT
HETATM    1  C   UNL     1     -11.181  15.418  71.429  1.00  0.00    -0.342 C  
HETATM    2  N   UNL     1     -12.276  15.003  70.489  1.00  0.00    -0.312 N  
HETATM    3  C   UNL     1     -13.645  15.339  71.057  1.00  0.00    -0.419 C  
HETATM    4  C   UNL     1     -12.205  13.515  70.188  1.00  0.00    -0.330 C  
ENDROOT
BRANCH   2   5
HETATM    5  C   UNL     1     -12.107  15.787  69.123  1.00  0.00    -0.198 C  
HETATM    6  C   UNL     1     -11.336  15.061  67.988  1.00  0.00    -0.327 C  
HETATM    7  O   UNL     1     -12.057  14.319  67.266  1.00  0.00    -0.411 OA 
HETATM    8  O   UNL     1     -10.086  15.221  68.030  1.00  0.00    -0.226 OA 
ENDBRANCH   2   5
TORSDOF 1
ENDMDL
MODEL       59
REMARK 921   NORMALIZED FREE ENERGY PREDICTED BY IDOCK:   -2.45 KCAL/MOL
REMARK 922        TOTAL FREE ENERGY PREDICTED BY IDOCK:   -2.36 KCAL/MOL
REMARK 923 INTER-LIGAND FREE ENERGY PREDICTED BY IDOCK:   -2.57 KCAL/MOL
REMARK 924 INTRA-LIGAND FREE ENERGY PREDICTED BY IDOCK:    0.20 KCAL/MOL
REMARK 927      BINDING AFFINITY PREDICTED BY RF-SCORE:    0.00 PKD
ROOT
HETATM    1  C   UNL     1     -10.065  12.562  64.049  1.00  0.00    -0.289 C  
HETATM    2  N   UNL     1     -10.165  11.897  65.392  1.00  0.00    -0.254 N  
HETATM    3  C   UNL     1      -9.144  12.464  66.363  1.00  0.00    -0.149 C  
HETATM    4  C   UNL     1      -9.973  10.394  65.276  1.00  0.00    -0.309 C  
ENDROOT
BRANCH   2   5
HETATM    5  C   UNL     1     -11.609  12.160  65.990  1.00  0.00    -0.358 C  
HETATM    6  C   UNL     1     -11.739  12.161  67.537  1.00  0.00    -0.315 C  
HETATM    7  O   UNL     1     -11.508  13.279  68.074  1.00  0.00    -0.271 OA 
HETATM    8  O   UNL     1     -11.932  11.020  68.039  1.00  0.00    -0.623 OA 
ENDBRANCH   2   5
TORSDOF 1
ENDMDL
MODEL       60
REMARK 921   NORMALIZED FREE ENERGY PREDICTED BY IDOCK:   -2.44 KCAL/MOL
REMARK 922        TOTAL FREE ENERGY PREDICTED BY IDOCK:   -2.36 KCAL/MOL
REMARK 923 INTER-LIGAND FREE ENERGY PREDICTED BY IDOCK:   -2.56 KCAL/MOL
REMARK 924 INTRA-LIGAND FREE ENERGY PREDICTED BY IDOCK:    0.20 KCAL/MOL
REMARK 927      BINDING AFFINITY PREDICTED BY RF-SCORE:    0.00 PKD
ROOT
HETATM    1  C   UNL     1     -10.938   7.655  73.066  1.00  0.00    -0.400 C  
HETATM    2  N   UNL     1     -10.738   7.906  71.599  1.00  0.00    -0.219 N  
HETATM    3  C   UNL     1     -10.373   6.625  70.867  1.00  0.00    -0.208 C  
HETATM    4  C   UNL     1      -9.659   8.949  71.363  1.00  0.00    -0.289 C  
ENDROOT
BRANCH   2   5
HETATM    5  C   UNL     1     -12.090   8.454  70.982  1.00  0.00    -0.198 C  
HETATM    6  C   UNL     1     -12.864   9.512  71.813  1.00  0.00    -0.406 C  
HETATM    7  O   UNL     1     -12.496  10.701  71.606  1.00  0.00    -0.373 OA 
HETATM    8  O   UNL     1     -13.657   9.022  72.663  1.00  0.00    -0.465 OA 
ENDBRANCH   2   5
TORSDOF 1
ENDMDL
MODEL       61
REMARK 921   NORMALIZED FREE ENERGY PREDICTED BY IDOCK:   -2.42 KCAL/MOL
REMARK 922        TOTAL FREE ENERGY PREDICTED BY IDOCK:   -2.33 KCAL/MOL
REMARK 923 INTER-LIGAND FREE ENERGY PREDICTED BY IDOCK:   -2.53 KCAL/MOL
REMARK 924 INTRA-LIGAND FREE ENERGY PREDICTED BY IDOCK:    0.20 KCAL/MOL
REMARK 927      BINDING AFFINITY PREDICTED BY RF-SCORE:    0.00 PKD
ROOT
HETATM    1  C   UNL     1     -12.398   9.411  71.621  1.00  0.00    -0.385 C  
HETATM    2  N   UNL     1     -11.345   8.372  71.361  1.00  0.00    -0.252 N  
HETATM    3  C   UNL     1     -10.532   8.088  72.612  1.00  0.00    -0.339 C  
HETATM    4  C   UNL     1     -10.414   8.802  70.239  1.00  0.00    -0.208 C  
ENDROOT
BRANCH   2   5
HETATM    5  C   UNL     1     -12.051   7.024  70.920  1.00  0.00    -0.357 C  
HETATM    6  C   UNL     1     -11.258   6.097  69.960  1.00  0.00    -0.401 C  
HETATM    7  O   UNL     1     -10.483   5.291  70.543  1.00  0.00    -0.264 OA 
HETATM    8  O   UNL     1     -11.409   6.370  68.737  1.00  0.00    -0.327 OA 
ENDBRANCH   2   5
TORSDOF 1
ENDMDL
MODEL       62
REMARK 921   NORMALIZED FREE ENERGY PREDICTED BY IDOCK:   -2.41 KCAL/MOL
REMARK 922        TOTAL FREE ENERGY PREDICTED BY IDOCK:   -2.32 KCAL/MOL
REMARK 923 INTER-LIGAND FREE ENERGY PREDICTED BY IDOCK:   -2.57 KCAL/MOL
REMARK 924 INTRA-LIGAND FREE ENERGY PREDICTED BY IDOCK:    0.25 KCAL/MOL
REMARK 927      BINDING AFFINITY PREDICTED BY RF-SCORE:    0.00 PKD
ROOT
HETATM    1  C   UNL     1      -8.203   9.748  66.936  1.00  0.00    -0.117 C  
HETATM    2  N   UNL     1      -9.656   9.989  66.641  1.00  0.00    -0.178 N  
HETATM    3  C   UNL     1     -10.527   8.898  67.241  1.00  0.00    -0.277 C  
HETATM    4  C   UNL     1      -9.906  10.071  65.144  1.00  0.00    -0.318 C  
ENDROOT
BRANCH   2   5
HETATM    5  C   UNL     1     -10.089  11.370  67.285  1.00  0.00    -0.192 C  
HETATM    6  C   UNL     1     -11.612  11.668  67.349  1.00  0.00    -0.254 C  
HETATM    7  O   UNL     1     -12.183  11.214  68.378  1.00  0.00    -0.610 OA 
HETATM    8  O   UNL     1     -12.077  12.209  66.309  1.00  0.00    -0.626 OA 
ENDBRANCH   2   5
TORSDOF 1
ENDMDL
MODEL       63
REMARK 921   NORMALIZED FREE ENERGY PREDICTED BY IDOCK:   -2.40 KCAL/MOL
REMARK 922        TOTAL FREE ENERGY PREDICTED BY IDOCK:   -2.31 KCAL/MOL
REMARK 923 INTER-LIGAND FREE ENERGY PREDICTED BY IDOCK:   -2.52 KCAL/MOL
REMARK 924 INTRA-LIGAND FREE ENERGY PREDICTED BY IDOCK:    0.20 KCAL/MOL
REMARK 927      BINDING AFFINITY PREDICTED BY RF-SCORE:    0.00 PKD
ROOT
HETATM    1  C   UNL     1     -12.087  13.955  66.953  1.00  0.00    -0.430 C  
HETATM    2  N   UNL     1     -11.088  13.619  65.883  1.00  0.00    -0.284 N  
HETATM    3  C   UNL     1      -9.705  13.399  66.472  1.00  0.00    -0.282 C  
HETATM    4  C   UNL     1     -11.022  14.714  64.831  1.00  0.00    -0.407 C  
ENDROOT
BRANCH   2   5
HETATM    5  C   UNL     1     -11.534  12.279  65.166  1.00  0.00    -0.341 C  
HETATM    6  C   UNL     1     -10.460  11.165  65.028  1.00  0.00    -0.293 C  
HETATM    7  O   UNL     1     -10.383  10.396  66.025  1.00  0.00    -0.241 OA 
HETATM    8  O   UNL     1      -9.739  11.269  63.998  1.00  0.00    -0.237 OA 
ENDBRANCH   2   5
TORSDOF 1
ENDMDL
MODEL       64
REMARK 921   NORMALIZED FREE ENERGY PREDICTED BY IDOCK:   -2.37 KCAL/MOL
REMARK 922        TOTAL FREE ENERGY PREDICTED BY IDOCK:   -2.28 KCAL/MOL
REMARK 923 INTER-LIGAND FREE ENERGY PREDICTED BY IDOCK:   -2.47 KCAL/MOL
REMARK 924 INTRA-LIGAND FREE ENERGY PREDICTED BY IDOCK:    0.19 KCAL/MOL
REMARK 927      BINDING AFFINITY PREDICTED BY RF-SCORE:    0.00 PKD
ROOT
HETATM    1  C   UNL     1      -7.758  17.697  67.804  1.00  0.00    -0.208 C  
HETATM    2  N   UNL     1      -8.070  19.103  68.231  1.00  0.00    -0.318 N  
HETATM    3  C   UNL     1      -7.090  19.587  69.286  1.00  0.00    -0.337 C  
HETATM    4  C   UNL     1      -9.488  19.211  68.769  1.00  0.00    -0.399 C  
ENDROOT
BRANCH   2   5
HETATM    5  C   UNL     1      -7.951  20.060  66.975  1.00  0.00    -0.314 C  
HETATM    6  C   UNL     1      -6.770  19.798  66.001  1.00  0.00    -0.237 C  
HETATM    7  O   UNL     1      -7.020  18.947  65.104  1.00  0.00    -0.490 OA 
HETATM    8  O   UNL     1      -5.697  20.378  66.324  1.00  0.00    -0.171 OA 
ENDBRANCH   2   5
TORSDOF 1
ENDMDL
MODEL       65
REMARK 921   NORMALIZED FREE ENERGY PREDICTED BY IDOCK:   -2.37 KCAL/MOL
REMARK 922        TOTAL FREE ENERGY PREDICTED BY IDOCK:   -2.28 KCAL/MOL
REMARK 923 INTER-LIGAND FREE ENERGY PREDICTED BY IDOCK:   -2.49 KCAL/MOL
REMARK 924 INTRA-LIGAND FREE ENERGY PREDICTED BY IDOCK:    0.21 KCAL/MOL
REMARK 927      BINDING AFFINITY PREDICTED BY RF-SCORE:    0.00 PKD
ROOT
HETATM    1  C   UNL     1     -10.571  16.146  65.734  1.00  0.00    -0.334 C  
HETATM    2  N   UNL     1      -9.790  16.515  66.962  1.00  0.00    -0.250 N  
HETATM    3  C   UNL     1     -10.201  17.880  67.486  1.00  0.00    -0.363 C  
HETATM    4  C   UNL     1      -8.295  16.509  66.685  1.00  0.00    -0.262 C  
ENDROOT
BRANCH   2   5
HETATM    5  C   UNL     1     -10.080  15.448  68.097  1.00  0.00    -0.222 C  
HETATM    6  C   UNL     1     -11.567  15.077  68.348  1.00  0.00    -0.331 C  
HETATM    7  O   UNL     1     -11.999  14.148  67.612  1.00  0.00    -0.377 OA 
HETATM    8  O   UNL     1     -12.159  15.840  69.160  1.00  0.00    -0.353 OA 
ENDBRANCH   2   5
TORSDOF 1
ENDMDL
MODEL       66
REMARK 921   NORMALIZED FREE ENERGY PREDICTED BY IDOCK:   -2.37 KCAL/MOL
REMARK 922        TOTAL FREE ENERGY PREDICTED BY IDOCK:   -2.28 KCAL/MOL
REMARK 923 INTER-LIGAND FREE ENERGY PREDICTED BY IDOCK:   -2.44 KCAL/MOL
REMARK 924 INTRA-LIGAND FREE ENERGY PREDICTED BY IDOCK:    0.17 KCAL/MOL
REMARK 927      BINDING AFFINITY PREDICTED BY RF-SCORE:    0.00 PKD
ROOT
HETATM    1  C   UNL     1      -9.241  14.156  66.844  1.00  0.00    -0.257 C  
HETATM    2  N   UNL     1     -10.587  13.628  66.435  1.00  0.00    -0.281 N  
HETATM    3  C   UNL     1     -10.782  12.197  66.909  1.00  0.00    -0.236 C  
HETATM    4  C   UNL     1     -10.766  13.691  64.927  1.00  0.00    -0.391 C  
ENDROOT
BRANCH   2   5
HETATM    5  C   UNL     1     -11.714  14.521  67.099  1.00  0.00    -0.399 C  
HETATM    6  C   UNL     1     -11.386  15.155  68.478  1.00  0.00    -0.309 C  
HETATM    7  O   UNL     1     -10.796  16.268  68.408  1.00  0.00    -0.301 OA 
HETATM    8  O   UNL     1     -11.644  14.410  69.463  1.00  0.00    -0.270 OA 
ENDBRANCH   2   5
TORSDOF 1
ENDMDL
MODEL       67
REMARK 921   NORMALIZED FREE ENERGY PREDICTED BY IDOCK:   -2.36 KCAL/MOL
REMARK 922        TOTAL FREE ENERGY PREDICTED BY IDOCK:   -2.27 KCAL/MOL
REMARK 923 INTER-LIGAND FREE ENERGY PREDICTED BY IDOCK:   -2.47 KCAL/MOL
REMARK 924 INTRA-LIGAND FREE ENERGY PREDICTED BY IDOCK:    0.19 KCAL/MOL
REMARK 927      BINDING AFFINITY PREDICTED BY RF-SCORE:    0.00 PKD
ROOT
HETATM    1  C   UNL     1      -9.980  11.314  65.646  1.00  0.00    -0.247 C  
HETATM    2  N   UNL     1     -10.652  11.885  66.862  1.00  0.00    -0.222 N  
HETATM    3  C   UNL     1      -9.685  12.725  67.680  1.00  0.00    -0.205 C  
HETATM    4  C   UNL     1     -11.231  10.785  67.737  1.00  0.00    -0.316 C  
ENDROOT
BRANCH   2   5
HETATM    5  C   UNL     1     -11.844  12.821  66.401  1.00  0.00    -0.408 C  
HETATM    6  C   UNL     1     -11.563  14.347  66.361  1.00  0.00    -0.375 C  
HETATM    7  O   UNL     1     -11.062  14.752  65.276  1.00  0.00    -0.332 OA 
HETATM    8  O   UNL     1     -11.759  14.937  67.459  1.00  0.00    -0.360 OA 
ENDBRANCH   2   5
TORSDOF 1
ENDMDL
MODEL       68
REMARK 921   NORMALIZED FREE ENERGY PREDICTED BY IDOCK:   -2.36 KCAL/MOL
REMARK 922        TOTAL FREE ENERGY PREDICTED BY IDOCK:   -2.27 KCAL/MOL
REMARK 923 INTER-LIGAND FREE ENERGY PREDICTED BY IDOCK:   -2.46 KCAL/MOL
REMARK 924 INTRA-LIGAND FREE ENERGY PREDICTED BY IDOCK:    0.19 KCAL/MOL
REMARK 927      BINDING AFFINITY PREDICTED BY RF-SCORE:    0.00 PKD
ROOT
HETATM    1  C   UNL     1     -10.426  13.275  64.470  1.00  0.00    -0.415 C  
HETATM    2  N   UNL     1     -11.103  13.891  65.661  1.00  0.00    -0.295 N  
HETATM    3  C   UNL     1     -12.608  13.959  65.463  1.00  0.00    -0.526 C  
HETATM    4  C   UNL     1     -10.566  15.286  65.937  1.00  0.00    -0.335 C  
ENDROOT
BRANCH   2   5
HETATM    5  C   UNL     1     -10.816  12.996  66.936  1.00  0.00    -0.264 C  
HETATM    6  C   UNL     1      -9.589  13.382  67.804  1.00  0.00    -0.213 C  
HETATM    7  O   UNL     1      -9.834  14.248  68.688  1.00  0.00    -0.232 OA 
HETATM    8  O   UNL     1      -8.502  12.870  67.418  1.00  0.00    -0.176 OA 
ENDBRANCH   2   5
TORSDOF 1
ENDMDL
MODEL       69
REMARK 921   NORMALIZED FREE ENERGY PREDICTED BY IDOCK:   -2.36 KCAL/MOL
REMARK 922        TOTAL FREE ENERGY PREDICTED BY IDOCK:   -2.27 KCAL/MOL
REMARK 923 INTER-LIGAND FREE ENERGY PREDICTED BY IDOCK:   -2.44 KCAL/MOL
REMARK 924 INTRA-LIGAND FREE ENERGY PREDICTED BY IDOCK:    0.17 KCAL/MOL
REMARK 927      BINDING AFFINITY PREDICTED BY RF-SCORE:    0.00 PKD
ROOT
HETATM    1  C   UNL     1     -12.684   6.972  71.490  1.00  0.00    -0.381 C  
HETATM    2  N   UNL     1     -11.305   7.068  70.902  1.00  0.00    -0.279 N  
HETATM    3  C   UNL     1     -10.826   8.509  70.858  1.00  0.00    -0.232 C  
HETATM    4  C   UNL     1     -11.263   6.478  69.502  1.00  0.00    -0.372 C  
ENDROOT
BRANCH   2   5
HETATM    5  C   UNL     1     -10.300   6.245  71.809  1.00  0.00    -0.206 C  
HETATM    6  C   UNL     1     -10.768   5.910  73.250  1.00  0.00    -0.265 C  
HETATM    7  O   UNL     1     -11.440   4.846  73.341  1.00  0.00    -0.336 OA 
HETATM    8  O   UNL     1     -10.517   6.811  74.097  1.00  0.00    -0.365 OA 
ENDBRANCH   2   5
TORSDOF 1
ENDMDL
MODEL       70
REMARK 921   NORMALIZED FREE ENERGY PREDICTED BY IDOCK:   -2.35 KCAL/MOL
REMARK 922        TOTAL FREE ENERGY PREDICTED BY IDOCK:   -2.26 KCAL/MOL
REMARK 923 INTER-LIGAND FREE ENERGY PREDICTED BY IDOCK:   -2.45 KCAL/MOL
REMARK 924 INTRA-LIGAND FREE ENERGY PREDICTED BY IDOCK:    0.19 KCAL/MOL
REMARK 927      BINDING AFFINITY PREDICTED BY RF-SCORE:    0.00 PKD
ROOT
HETATM    1  C   UNL     1     -10.480  12.165  66.541  1.00  0.00    -0.225 C  
HETATM    2  N   UNL     1     -10.671  13.559  66.016  1.00  0.00    -0.277 N  
HETATM    3  C   UNL     1     -11.731  14.304  66.809  1.00  0.00    -0.405 C  
HETATM    4  C   UNL     1     -11.056  13.544  64.546  1.00  0.00    -0.381 C  
ENDROOT
BRANCH   2   5
HETATM    5  C   UNL     1      -9.308  14.353  66.156  1.00  0.00    -0.189 C  
HETATM    6  C   UNL     1      -9.403  15.842  66.585  1.00  0.00    -0.249 C  
HETATM    7  O   UNL     1      -9.427  16.019  67.834  1.00  0.00    -0.208 OA 
HETATM    8  O   UNL     1      -9.568  16.646  65.626  1.00  0.00    -0.519 OA 
ENDBRANCH   2   5
TORSDOF 1
ENDMDL
MODEL       71
REMARK 921   NORMALIZED FREE ENERGY PREDICTED BY IDOCK:   -2.34 KCAL/MOL
REMARK 922        TOTAL FREE ENERGY PREDICTED BY IDOCK:   -2.25 KCAL/MOL
REMARK 923 INTER-LIGAND FREE ENERGY PREDICTED BY IDOCK:   -2.46 KCAL/MOL
REMARK 924 INTRA-LIGAND FREE ENERGY PREDICTED BY IDOCK:    0.22 KCAL/MOL
REMARK 927      BINDING AFFINITY PREDICTED BY RF-SCORE:    0.00 PKD
ROOT
HETATM    1  C   UNL     1      -7.857  16.759  68.703  1.00  0.00    -0.241 C  
HETATM    2  N   UNL     1      -8.314  16.357  67.330  1.00  0.00    -0.160 N  
HETATM    3  C   UNL     1      -8.102  14.871  67.093  1.00  0.00    -0.209 C  
HETATM    4  C   UNL     1      -7.588  17.150  66.256  1.00  0.00    -0.317 C  
ENDROOT
BRANCH   2   5
HETATM    5  C   UNL     1      -9.864  16.658  67.196  1.00  0.00    -0.257 C  
HETATM    6  C   UNL     1     -10.648  15.843  66.132  1.00  0.00    -0.305 C  
HETATM    7  O   UNL     1     -11.081  14.733  66.547  1.00  0.00    -0.324 OA 
HETATM    8  O   UNL     1     -10.629  16.350  64.977  1.00  0.00    -0.651 OA 
ENDBRANCH   2   5
TORSDOF 1
ENDMDL
MODEL       72
REMARK 921   NORMALIZED FREE ENERGY PREDICTED BY IDOCK:   -2.32 KCAL/MOL
REMARK 922        TOTAL FREE ENERGY PREDICTED BY IDOCK:   -2.23 KCAL/MOL
REMARK 923 INTER-LIGAND FREE ENERGY PREDICTED BY IDOCK:   -2.46 KCAL/MOL
REMARK 924 INTRA-LIGAND FREE ENERGY PREDICTED BY IDOCK:    0.23 KCAL/MOL
REMARK 927      BINDING AFFINITY PREDICTED BY RF-SCORE:    0.00 PKD
ROOT
HETATM    1  C   UNL     1     -12.133  13.540  69.452  1.00  0.00    -0.289 C  
HETATM    2  N   UNL     1     -11.212  13.728  68.281  1.00  0.00    -0.259 N  
HETATM    3  C   UNL     1     -11.979  14.157  67.042  1.00  0.00    -0.439 C  
HETATM    4  C   UNL     1     -10.438  12.455  67.982  1.00  0.00    -0.217 C  
ENDROOT
BRANCH   2   5
HETATM    5  C   UNL     1     -10.166  14.866  68.626  1.00  0.00    -0.236 C  
HETATM    6  C   UNL     1     -10.741  16.234  69.082  1.00  0.00    -0.305 C  
HETATM    7  O   UNL     1     -10.966  16.313  70.321  1.00  0.00    -0.347 OA 
HETATM    8  O   UNL     1     -11.016  17.020  68.134  1.00  0.00    -0.367 OA 
ENDBRANCH   2   5
TORSDOF 1
ENDMDL
MODEL       73
REMARK 921   NORMALIZED FREE ENERGY PREDICTED BY IDOCK:   -2.32 KCAL/MOL
REMARK 922        TOTAL FREE ENERGY PREDICTED BY IDOCK:   -2.23 KCAL/MOL
REMARK 923 INTER-LIGAND FREE ENERGY PREDICTED BY IDOCK:   -2.39 KCAL/MOL
REMARK 924 INTRA-LIGAND FREE ENERGY PREDICTED BY IDOCK:    0.16 KCAL/MOL
REMARK 927      BINDING AFFINITY PREDICTED BY RF-SCORE:    0.00 PKD
ROOT
HETATM    1  C   UNL     1      -9.676  19.387  66.257  1.00  0.00    -0.386 C  
HETATM    2  N   UNL     1      -9.271  18.014  66.711  1.00  0.00    -0.273 N  
HETATM    3  C   UNL     1      -7.854  17.686  66.272  1.00  0.00    -0.273 C  
HETATM    4  C   UNL     1     -10.223  16.956  66.178  1.00  0.00    -0.341 C  
ENDROOT
BRANCH   2   5
HETATM    5  C   UNL     1      -9.317  17.960  68.294  1.00  0.00    -0.286 C  
HETATM    6  C   UNL     1      -9.220  19.315  69.046  1.00  0.00    -0.276 C  
HETATM    7  O   UNL     1     -10.329  19.894  69.211  1.00  0.00    -0.311 OA 
HETATM    8  O   UNL     1      -8.039  19.697  69.270  1.00  0.00    -0.244 OA 
ENDBRANCH   2   5
TORSDOF 1
ENDMDL
MODEL       74
REMARK 921   NORMALIZED FREE ENERGY PREDICTED BY IDOCK:   -2.32 KCAL/MOL
REMARK 922        TOTAL FREE ENERGY PREDICTED BY IDOCK:   -2.23 KCAL/MOL
REMARK 923 INTER-LIGAND FREE ENERGY PREDICTED BY IDOCK:   -2.42 KCAL/MOL
REMARK 924 INTRA-LIGAND FREE ENERGY PREDICTED BY IDOCK:    0.20 KCAL/MOL
REMARK 927      BINDING AFFINITY PREDICTED BY RF-SCORE:    0.00 PKD
ROOT
HETATM    1  C   UNL     1     -11.609  12.700  65.028  1.00  0.00    -0.345 C  
HETATM    2  N   UNL     1     -11.086  13.257  66.321  1.00  0.00    -0.287 N  
HETATM    3  C   UNL     1      -9.573  13.143  66.396  1.00  0.00    -0.255 C  
HETATM    4  C   UNL     1     -11.706  12.548  67.514  1.00  0.00    -0.374 C  
ENDROOT
BRANCH   2   5
HETATM    5  C   UNL     1     -11.467  14.791  66.413  1.00  0.00    -0.319 C  
HETATM    6  C   UNL     1     -10.363  15.761  66.914  1.00  0.00    -0.295 C  
HETATM    7  O   UNL     1      -9.599  16.188  66.005  1.00  0.00    -0.305 OA 
HETATM    8  O   UNL     1     -10.311  15.880  68.169  1.00  0.00    -0.244 OA 
ENDBRANCH   2   5
TORSDOF 1
ENDMDL
MODEL       75
REMARK 921   NORMALIZED FREE ENERGY PREDICTED BY IDOCK:   -2.31 KCAL/MOL
REMARK 922        TOTAL FREE ENERGY PREDICTED BY IDOCK:   -2.22 KCAL/MOL
REMARK 923 INTER-LIGAND FREE ENERGY PREDICTED BY IDOCK:   -2.47 KCAL/MOL
REMARK 924 INTRA-LIGAND FREE ENERGY PREDICTED BY IDOCK:    0.26 KCAL/MOL
REMARK 927      BINDING AFFINITY PREDICTED BY RF-SCORE:    0.00 PKD
ROOT
HETATM    1  C   UNL     1     -11.231  10.433  68.225  1.00  0.00    -0.267 C  
HETATM    2  N   UNL     1     -10.900  11.662  67.427  1.00  0.00    -0.236 N  
HETATM    3  C   UNL     1     -10.879  11.362  65.938  1.00  0.00    -0.234 C  
HETATM    4  C   UNL     1      -9.559  12.243  67.845  1.00  0.00    -0.203 C  
ENDROOT
BRANCH   2   5
HETATM    5  C   UNL     1     -12.011  12.761  67.690  1.00  0.00    -0.273 C  
HETATM    6  C   UNL     1     -11.978  14.023  66.786  1.00  0.00    -0.444 C  
HETATM    7  O   UNL     1     -12.611  13.898  65.702  1.00  0.00    -0.492 OA 
HETATM    8  O   UNL     1     -11.222  14.940  67.209  1.00  0.00    -0.326 OA 
ENDBRANCH   2   5
TORSDOF 1
ENDMDL
MODEL       76
REMARK 921   NORMALIZED FREE ENERGY PREDICTED BY IDOCK:   -2.31 KCAL/MOL
REMARK 922        TOTAL FREE ENERGY PREDICTED BY IDOCK:   -2.22 KCAL/MOL
REMARK 923 INTER-LIGAND FREE ENERGY PREDICTED BY IDOCK:   -2.39 KCAL/MOL
REMARK 924 INTRA-LIGAND FREE ENERGY PREDICTED BY IDOCK:    0.18 KCAL/MOL
REMARK 927      BINDING AFFINITY PREDICTED BY RF-SCORE:    0.00 PKD
ROOT
HETATM    1  C   UNL     1     -10.592   7.545  69.866  1.00  0.00    -0.237 C  
HETATM    2  N   UNL     1     -10.313   9.001  70.106  1.00  0.00    -0.200 N  
HETATM    3  C   UNL     1     -10.670   9.837  68.890  1.00  0.00    -0.217 C  
HETATM    4  C   UNL     1      -8.853   9.227  70.466  1.00  0.00    -0.241 C  
ENDROOT
BRANCH   2   5
HETATM    5  C   UNL     1     -11.198   9.501  71.321  1.00  0.00    -0.382 C  
HETATM    6  C   UNL     1     -11.969   8.417  72.122  1.00  0.00    -0.374 C  
HETATM    7  O   UNL     1     -11.302   7.892  73.056  1.00  0.00    -0.408 OA 
HETATM    8  O   UNL     1     -13.101   8.130  71.645  1.00  0.00    -0.332 OA 
ENDBRANCH   2   5
TORSDOF 1
ENDMDL
MODEL       77
REMARK 921   NORMALIZED FREE ENERGY PREDICTED BY IDOCK:   -2.31 KCAL/MOL
REMARK 922        TOTAL FREE ENERGY PREDICTED BY IDOCK:   -2.21 KCAL/MOL
REMARK 923 INTER-LIGAND FREE ENERGY PREDICTED BY IDOCK:   -2.42 KCAL/MOL
REMARK 924 INTRA-LIGAND FREE ENERGY PREDICTED BY IDOCK:    0.20 KCAL/MOL
REMARK 927      BINDING AFFINITY PREDICTED BY RF-SCORE:    0.00 PKD
ROOT
HETATM    1  C   UNL     1     -10.169  17.085  68.507  1.00  0.00    -0.324 C  
HETATM    2  N   UNL     1      -9.730  15.652  68.616  1.00  0.00    -0.198 N  
HETATM    3  C   UNL     1     -10.861  14.768  69.113  1.00  0.00    -0.260 C  
HETATM    4  C   UNL     1      -8.534  15.513  69.543  1.00  0.00    -0.211 C  
ENDROOT
BRANCH   2   5
HETATM    5  C   UNL     1      -9.299  15.136  67.182  1.00  0.00    -0.212 C  
HETATM    6  C   UNL     1     -10.215  15.525  65.990  1.00  0.00    -0.330 C  
HETATM    7  O   UNL     1      -9.943  16.643  65.473  1.00  0.00    -0.552 OA 
HETATM    8  O   UNL     1     -11.173  14.727  65.795  1.00  0.00    -0.330 OA 
ENDBRANCH   2   5
TORSDOF 1
ENDMDL
MODEL       78
REMARK 921   NORMALIZED FREE ENERGY PREDICTED BY IDOCK:   -2.31 KCAL/MOL
REMARK 922        TOTAL FREE ENERGY PREDICTED BY IDOCK:   -2.21 KCAL/MOL
REMARK 923 INTER-LIGAND FREE ENERGY PREDICTED BY IDOCK:   -2.41 KCAL/MOL
REMARK 924 INTRA-LIGAND FREE ENERGY PREDICTED BY IDOCK:    0.20 KCAL/MOL
REMARK 927      BINDING AFFINITY PREDICTED BY RF-SCORE:    0.00 PKD
ROOT
HETATM    1  C   UNL     1     -12.763   9.393  72.013  1.00  0.00    -0.403 C  
HETATM    2  N   UNL     1     -11.868   8.240  71.662  1.00  0.00    -0.284 N  
HETATM    3  C   UNL     1     -10.976   8.576  70.478  1.00  0.00    -0.241 C  
HETATM    4  C   UNL     1     -12.677   6.993  71.346  1.00  0.00    -0.374 C  
ENDROOT
BRANCH   2   5
HETATM    5  C   UNL     1     -10.935   7.916  72.900  1.00  0.00    -0.388 C  
HETATM    6  C   UNL     1      -9.428   7.686  72.604  1.00  0.00    -0.176 C  
HETATM    7  O   UNL     1      -8.738   8.743  72.589  1.00  0.00    -0.408 OA 
HETATM    8  O   UNL     1      -9.138   6.497  72.300  1.00  0.00    -0.139 OA 
ENDBRANCH   2   5
TORSDOF 1
ENDMDL
MODEL       79
REMARK 921   NORMALIZED FREE ENERGY PREDICTED BY IDOCK:   -2.31 KCAL/MOL
REMARK 922        TOTAL FREE ENERGY PREDICTED BY IDOCK:   -2.21 KCAL/MOL
REMARK 923 INTER-LIGAND FREE ENERGY PREDICTED BY IDOCK:   -2.41 KCAL/MOL
REMARK 924 INTRA-LIGAND FREE ENERGY PREDICTED BY IDOCK:    0.20 KCAL/MOL
REMARK 927      BINDING AFFINITY PREDICTED BY RF-SCORE:    0.00 PKD
ROOT
HETATM    1  C   UNL     1     -10.808   9.103  71.043  1.00  0.00    -0.291 C  
HETATM    2  N   UNL     1     -11.692   8.146  71.789  1.00  0.00    -0.279 N  
HETATM    3  C   UNL     1     -12.074   6.960  70.920  1.00  0.00    -0.373 C  
HETATM    4  C   UNL     1     -12.952   8.836  72.286  1.00  0.00    -0.408 C  
ENDROOT
BRANCH   2   5
HETATM    5  C   UNL     1     -10.907   7.596  73.050  1.00  0.00    -0.400 C  
HETATM    6  C   UNL     1     -10.451   6.112  73.001  1.00  0.00    -0.226 C  
HETATM    7  O   UNL     1      -9.330   5.935  72.449  1.00  0.00    -0.144 OA 
HETATM    8  O   UNL     1     -11.319   5.292  73.405  1.00  0.00    -0.293 OA 
ENDBRANCH   2   5
TORSDOF 1
ENDMDL
MODEL       80
REMARK 921   NORMALIZED FREE ENERGY PREDICTED BY IDOCK:   -2.30 KCAL/MOL
REMARK 922        TOTAL FREE ENERGY PREDICTED BY IDOCK:   -2.21 KCAL/MOL
REMARK 923 INTER-LIGAND FREE ENERGY PREDICTED BY IDOCK:   -2.40 KCAL/MOL
REMARK 924 INTRA-LIGAND FREE ENERGY PREDICTED BY IDOCK:    0.19 KCAL/MOL
REMARK 927      BINDING AFFINITY PREDICTED BY RF-SCORE:    0.00 PKD
ROOT
HETATM    1  C   UNL     1     -10.652   9.539  69.244  1.00  0.00    -0.220 C  
HETATM    2  N   UNL     1     -10.798   8.908  70.598  1.00  0.00    -0.228 N  
HETATM    3  C   UNL     1     -11.814   9.654  71.446  1.00  0.00    -0.406 C  
HETATM    4  C   UNL     1      -9.466   8.862  71.329  1.00  0.00    -0.272 C  
ENDROOT
BRANCH   2   5
HETATM    5  C   UNL     1     -11.308   7.419  70.420  1.00  0.00    -0.249 C  
HETATM    6  C   UNL     1     -12.207   6.845  71.548  1.00  0.00    -0.371 C  
HETATM    7  O   UNL     1     -13.436   7.094  71.405  1.00  0.00    -0.380 OA 
HETATM    8  O   UNL     1     -11.569   6.324  72.503  1.00  0.00    -0.276 OA 
ENDBRANCH   2   5
TORSDOF 1
ENDMDL
MODEL       81
REMARK 921   NORMALIZED FREE ENERGY PREDICTED BY IDOCK:   -2.30 KCAL/MOL
REMARK 922        TOTAL FREE ENERGY PREDICTED BY IDOCK:   -2.20 KCAL/MOL
REMARK 923 INTER-LIGAND FREE ENERGY PREDICTED BY IDOCK:   -2.36 KCAL/MOL
REMARK 924 INTRA-LIGAND FREE ENERGY PREDICTED BY IDOCK:    0.16 KCAL/MOL
REMARK 927      BINDING AFFINITY PREDICTED BY RF-SCORE:    0.00 PKD
ROOT
HETATM    1  C   UNL     1     -10.365   8.459  70.057  1.00  0.00    -0.211 C  
HETATM    2  N   UNL     1     -10.550   6.974  70.191  1.00  0.00    -0.221 N  
HETATM    3  C   UNL     1      -9.234   6.282  70.503  1.00  0.00    -0.158 C  
HETATM    4  C   UNL     1     -11.147   6.379  68.926  1.00  0.00    -0.348 C  
ENDROOT
BRANCH   2   5
HETATM    5  C   UNL     1     -11.550   6.686  71.385  1.00  0.00    -0.313 C  
HETATM    6  C   UNL     1     -11.594   7.731  72.532  1.00  0.00    -0.367 C  
HETATM    7  O   UNL     1     -12.394   8.686  72.329  1.00  0.00    -0.360 OA 
HETATM    8  O   UNL     1     -10.737   7.541  73.437  1.00  0.00    -0.387 OA 
ENDBRANCH   2   5
TORSDOF 1
ENDMDL
MODEL       82
REMARK 921   NORMALIZED FREE ENERGY PREDICTED BY IDOCK:   -2.29 KCAL/MOL
REMARK 922        TOTAL FREE ENERGY PREDICTED BY IDOCK:   -2.20 KCAL/MOL
REMARK 923 INTER-LIGAND FREE ENERGY PREDICTED BY IDOCK:   -2.41 KCAL/MOL
REMARK 924 INTRA-LIGAND FREE ENERGY PREDICTED BY IDOCK:    0.21 KCAL/MOL
REMARK 927      BINDING AFFINITY PREDICTED BY RF-SCORE:    0.00 PKD
ROOT
HETATM    1  C   UNL     1     -10.822   7.690  73.001  1.00  0.00    -0.400 C  
HETATM    2  N   UNL     1     -11.393   8.129  71.684  1.00  0.00    -0.253 N  
HETATM    3  C   UNL     1     -11.947   9.541  71.768  1.00  0.00    -0.371 C  
HETATM    4  C   UNL     1     -12.487   7.183  71.217  1.00  0.00    -0.386 C  
ENDROOT
BRANCH   2   5
HETATM    5  C   UNL     1     -10.242   8.119  70.595  1.00  0.00    -0.196 C  
HETATM    6  C   UNL     1      -9.315   9.364  70.543  1.00  0.00    -0.262 C  
HETATM    7  O   UNL     1      -8.328   9.306  71.327  1.00  0.00    -0.317 OA 
HETATM    8  O   UNL     1      -9.749  10.301  69.819  1.00  0.00    -0.220 OA 
ENDBRANCH   2   5
TORSDOF 1
ENDMDL
MODEL       83
REMARK 921   NORMALIZED FREE ENERGY PREDICTED BY IDOCK:   -2.29 KCAL/MOL
REMARK 922        TOTAL FREE ENERGY PREDICTED BY IDOCK:   -2.19 KCAL/MOL
REMARK 923 INTER-LIGAND FREE ENERGY PREDICTED BY IDOCK:   -2.38 KCAL/MOL
REMARK 924 INTRA-LIGAND FREE ENERGY PREDICTED BY IDOCK:    0.19 KCAL/MOL
REMARK 927      BINDING AFFINITY PREDICTED BY RF-SCORE:    0.00 PKD
ROOT
HETATM    1  C   UNL     1      -8.658  10.899  68.804  1.00  0.00    -0.159 C  
HETATM    2  N   UNL     1      -9.127  11.774  67.677  1.00  0.00    -0.171 N  
HETATM    3  C   UNL     1      -9.546  10.945  66.475  1.00  0.00    -0.194 C  
HETATM    4  C   UNL     1      -8.046  12.759  67.261  1.00  0.00    -0.172 C  
ENDROOT
BRANCH   2   5
HETATM    5  C   UNL     1     -10.385  12.606  68.161  1.00  0.00    -0.234 C  
HETATM    6  C   UNL     1     -11.784  12.040  67.796  1.00  0.00    -0.309 C  
HETATM    7  O   UNL     1     -12.238  11.208  68.630  1.00  0.00    -0.582 OA 
HETATM    8  O   UNL     1     -12.206  12.396  66.662  1.00  0.00    -0.562 OA 
ENDBRANCH   2   5
TORSDOF 1
ENDMDL
MODEL       84
REMARK 921   NORMALIZED FREE ENERGY PREDICTED BY IDOCK:   -2.29 KCAL/MOL
REMARK 922        TOTAL FREE ENERGY PREDICTED BY IDOCK:   -2.19 KCAL/MOL
REMARK 923 INTER-LIGAND FREE ENERGY PREDICTED BY IDOCK:   -2.41 KCAL/MOL
REMARK 924 INTRA-LIGAND FREE ENERGY PREDICTED BY IDOCK:    0.22 KCAL/MOL
REMARK 927      BINDING AFFINITY PREDICTED BY RF-SCORE:    0.00 PKD
ROOT
HETATM    1  C   UNL     1     -11.712   6.831  70.690  1.00  0.00    -0.386 C  
HETATM    2  N   UNL     1     -11.577   7.863  71.773  1.00  0.00    -0.266 N  
HETATM    3  C   UNL     1     -11.048   7.246  73.056  1.00  0.00    -0.317 C  
HETATM    4  C   UNL     1     -12.906   8.545  72.050  1.00  0.00    -0.374 C  
ENDROOT
BRANCH   2   5
HETATM    5  C   UNL     1     -10.548   8.971  71.302  1.00  0.00    -0.308 C  
HETATM    6  C   UNL     1      -9.040   8.607  71.376  1.00  0.00    -0.229 C  
HETATM    7  O   UNL     1      -8.600   8.018  70.351  1.00  0.00    -0.128 OA 
HETATM    8  O   UNL     1      -8.508   8.840  72.496  1.00  0.00    -0.403 OA 
ENDBRANCH   2   5
TORSDOF 1
ENDMDL
MODEL       85
REMARK 921   NORMALIZED FREE ENERGY PREDICTED BY IDOCK:   -2.27 KCAL/MOL
REMARK 922        TOTAL FREE ENERGY PREDICTED BY IDOCK:   -2.17 KCAL/MOL
REMARK 923 INTER-LIGAND FREE ENERGY PREDICTED BY IDOCK:   -2.44 KCAL/MOL
REMARK 924 INTRA-LIGAND FREE ENERGY PREDICTED BY IDOCK:    0.27 KCAL/MOL
REMARK 927      BINDING AFFINITY PREDICTED BY RF-SCORE:    0.00 PKD
ROOT
HETATM    1  C   UNL     1      -8.736  15.925  69.119  1.00  0.00    -0.256 C  
HETATM    2  N   UNL     1     -10.179  15.569  68.905  1.00  0.00    -0.202 N  
HETATM    3  C   UNL     1     -10.894  16.638  68.095  1.00  0.00    -0.348 C  
HETATM    4  C   UNL     1     -10.898  15.372  70.229  1.00  0.00    -0.311 C  
ENDROOT
BRANCH   2   5
HETATM    5  C   UNL     1     -10.259  14.208  68.098  1.00  0.00    -0.241 C  
HETATM    6  C   UNL     1     -11.676  13.629  67.838  1.00  0.00    -0.360 C  
HETATM    7  O   UNL     1     -12.232  14.072  66.796  1.00  0.00    -0.439 OA 
HETATM    8  O   UNL     1     -12.113  12.898  68.769  1.00  0.00    -0.280 OA 
ENDBRANCH   2   5
TORSDOF 1
ENDMDL
MODEL       86
REMARK 921   NORMALIZED FREE ENERGY PREDICTED BY IDOCK:   -2.26 KCAL/MOL
REMARK 922        TOTAL FREE ENERGY PREDICTED BY IDOCK:   -2.16 KCAL/MOL
REMARK 923 INTER-LIGAND FREE ENERGY PREDICTED BY IDOCK:   -2.36 KCAL/MOL
REMARK 924 INTRA-LIGAND FREE ENERGY PREDICTED BY IDOCK:    0.20 KCAL/MOL
REMARK 927      BINDING AFFINITY PREDICTED BY RF-SCORE:    0.00 PKD
ROOT
HETATM    1  C   UNL     1     -10.683  19.112  66.338  1.00  0.00    -0.361 C  
HETATM    2  N   UNL     1      -9.967  18.751  67.608  1.00  0.00    -0.329 N  
HETATM    3  C   UNL     1     -10.446  17.414  68.148  1.00  0.00    -0.389 C  
HETATM    4  C   UNL     1     -10.156  19.823  68.669  1.00  0.00    -0.440 C  
ENDROOT
BRANCH   2   5
HETATM    5  C   UNL     1      -8.416  18.629  67.308  1.00  0.00    -0.266 C  
HETATM    6  C   UNL     1      -7.671  17.421  67.937  1.00  0.00    -0.199 C  
HETATM    7  O   UNL     1      -7.707  16.372  67.238  1.00  0.00    -0.139 OA 
HETATM    8  O   UNL     1      -7.249  17.629  69.107  1.00  0.00    -0.236 OA 
ENDBRANCH   2   5
TORSDOF 1
ENDMDL
MODEL       87
REMARK 921   NORMALIZED FREE ENERGY PREDICTED BY IDOCK:   -2.25 KCAL/MOL
REMARK 922        TOTAL FREE ENERGY PREDICTED BY IDOCK:   -2.16 KCAL/MOL
REMARK 923 INTER-LIGAND FREE ENERGY PREDICTED BY IDOCK:   -2.38 KCAL/MOL
REMARK 924 INTRA-LIGAND FREE ENERGY PREDICTED BY IDOCK:    0.22 KCAL/MOL
REMARK 927      BINDING AFFINITY PREDICTED BY RF-SCORE:    0.00 PKD
ROOT
HETATM    1  C   UNL     1      -8.457  19.141  67.846  1.00  0.00    -0.300 C  
HETATM    2  N   UNL     1      -7.083  18.793  68.343  1.00  0.00    -0.256 N  
HETATM    3  C   UNL     1      -6.988  17.322  68.709  1.00  0.00    -0.230 C  
HETATM    4  C   UNL     1      -6.705  19.640  69.547  1.00  0.00    -0.344 C  
ENDROOT
BRANCH   2   5
HETATM    5  C   UNL     1      -6.032  19.081  67.194  1.00  0.00    -0.166 C  
HETATM    6  C   UNL     1      -5.995  18.078  66.009  1.00  0.00    -0.210 C  
HETATM    7  O   UNL     1      -6.811  18.342  65.083  1.00  0.00    -0.512 OA 
HETATM    8  O   UNL     1      -5.247  17.080  66.200  1.00  0.00    -0.360 OA 
ENDBRANCH   2   5
TORSDOF 1
ENDMDL
MODEL       88
REMARK 921   NORMALIZED FREE ENERGY PREDICTED BY IDOCK:   -2.25 KCAL/MOL
REMARK 922        TOTAL FREE ENERGY PREDICTED BY IDOCK:   -2.15 KCAL/MOL
REMARK 923 INTER-LIGAND FREE ENERGY PREDICTED BY IDOCK:   -2.31 KCAL/MOL
REMARK 924 INTRA-LIGAND FREE ENERGY PREDICTED BY IDOCK:    0.16 KCAL/MOL
REMARK 927      BINDING AFFINITY PREDICTED BY RF-SCORE:    0.00 PKD
ROOT
HETATM    1  C   UNL     1      -9.055   7.267  71.535  1.00  0.00    -0.140 C  
HETATM    2  N   UNL     1     -10.450   7.473  72.051  1.00  0.00    -0.204 N  
HETATM    3  C   UNL     1     -10.961   8.864  71.715  1.00  0.00    -0.361 C  
HETATM    4  C   UNL     1     -10.518   7.259  73.554  1.00  0.00    -0.374 C  
ENDROOT
BRANCH   2   5
HETATM    5  C   UNL     1     -11.413   6.419  71.364  1.00  0.00    -0.308 C  
HETATM    6  C   UNL     1     -10.975   5.863  69.982  1.00  0.00    -0.360 C  
HETATM    7  O   UNL     1     -10.215   4.858  70.048  1.00  0.00    -0.264 OA 
HETATM    8  O   UNL     1     -11.338   6.569  69.003  1.00  0.00    -0.302 OA 
ENDBRANCH   2   5
TORSDOF 1
ENDMDL
MODEL       89
REMARK 921   NORMALIZED FREE ENERGY PREDICTED BY IDOCK:   -2.23 KCAL/MOL
REMARK 922        TOTAL FREE ENERGY PREDICTED BY IDOCK:   -2.14 KCAL/MOL
REMARK 923 INTER-LIGAND FREE ENERGY PREDICTED BY IDOCK:   -2.34 KCAL/MOL
REMARK 924 INTRA-LIGAND FREE ENERGY PREDICTED BY IDOCK:    0.20 KCAL/MOL
REMARK 927      BINDING AFFINITY PREDICTED BY RF-SCORE:    0.00 PKD
ROOT
HETATM    1  C   UNL     1     -11.420  14.671  66.962  1.00  0.00    -0.368 C  
HETATM    2  N   UNL     1     -10.584  15.729  66.301  1.00  0.00    -0.311 N  
HETATM    3  C   UNL     1     -10.730  17.066  67.007  1.00  0.00    -0.149 C  
HETATM    4  C   UNL     1     -10.956  15.887  64.836  1.00  0.00    -0.411 C  
ENDROOT
BRANCH   2   5
HETATM    5  C   UNL     1      -9.060  15.301  66.374  1.00  0.00    -0.312 C  
HETATM    6  C   UNL     1      -8.042  16.397  66.789  1.00  0.00    -0.252 C  
HETATM    7  O   UNL     1      -7.885  16.510  68.036  1.00  0.00    -0.152 OA 
HETATM    8  O   UNL     1      -7.616  17.096  65.830  1.00  0.00    -0.381 OA 
ENDBRANCH   2   5
TORSDOF 1
ENDMDL
MODEL       90
REMARK 921   NORMALIZED FREE ENERGY PREDICTED BY IDOCK:   -2.23 KCAL/MOL
REMARK 922        TOTAL FREE ENERGY PREDICTED BY IDOCK:   -2.13 KCAL/MOL
REMARK 923 INTER-LIGAND FREE ENERGY PREDICTED BY IDOCK:   -2.30 KCAL/MOL
REMARK 924 INTRA-LIGAND FREE ENERGY PREDICTED BY IDOCK:    0.16 KCAL/MOL
REMARK 927      BINDING AFFINITY PREDICTED BY RF-SCORE:    0.00 PKD
ROOT
HETATM    1  C   UNL     1     -11.889   8.210  71.334  1.00  0.00    -0.295 C  
HETATM    2  N   UNL     1     -10.811   7.486  70.579  1.00  0.00    -0.236 N  
HETATM    3  C   UNL     1     -10.075   8.424  69.637  1.00  0.00    -0.199 C  
HETATM    4  C   UNL     1     -11.382   6.321  69.788  1.00  0.00    -0.436 C  
ENDROOT
BRANCH   2   5
HETATM    5  C   UNL     1      -9.759   6.907  71.612  1.00  0.00    -0.161 C  
HETATM    6  C   UNL     1      -9.663   7.616  72.990  1.00  0.00    -0.244 C  
HETATM    7  O   UNL     1     -10.479   7.185  73.851  1.00  0.00    -0.370 OA 
HETATM    8  O   UNL     1      -8.875   8.600  73.010  1.00  0.00    -0.355 OA 
ENDBRANCH   2   5
TORSDOF 1
ENDMDL
MODEL       91
REMARK 921   NORMALIZED FREE ENERGY PREDICTED BY IDOCK:   -2.21 KCAL/MOL
REMARK 922        TOTAL FREE ENERGY PREDICTED BY IDOCK:   -2.11 KCAL/MOL
REMARK 923 INTER-LIGAND FREE ENERGY PREDICTED BY IDOCK:   -2.30 KCAL/MOL
REMARK 924 INTRA-LIGAND FREE ENERGY PREDICTED BY IDOCK:    0.19 KCAL/MOL
REMARK 927      BINDING AFFINITY PREDICTED BY RF-SCORE:    0.00 PKD
ROOT
HETATM    1  C   UNL     1     -10.465  17.863  66.995  1.00  0.00    -0.340 C  
HETATM    2  N   UNL     1      -8.965  17.794  67.014  1.00  0.00    -0.246 N  
HETATM    3  C   UNL     1      -8.350  19.069  66.463  1.00  0.00    -0.305 C  
HETATM    4  C   UNL     1      -8.460  16.603  66.215  1.00  0.00    -0.320 C  
ENDROOT
BRANCH   2   5
HETATM    5  C   UNL     1      -8.476  17.621  68.510  1.00  0.00    -0.289 C  
HETATM    6  C   UNL     1      -7.158  18.339  68.906  1.00  0.00    -0.274 C  
HETATM    7  O   UNL     1      -7.313  19.533  69.283  1.00  0.00    -0.355 OA 
HETATM    8  O   UNL     1      -6.115  17.668  68.675  1.00  0.00    -0.170 OA 
ENDBRANCH   2   5
TORSDOF 1
ENDMDL
MODEL       92
REMARK 921   NORMALIZED FREE ENERGY PREDICTED BY IDOCK:   -2.20 KCAL/MOL
REMARK 922        TOTAL FREE ENERGY PREDICTED BY IDOCK:   -2.10 KCAL/MOL
REMARK 923 INTER-LIGAND FREE ENERGY PREDICTED BY IDOCK:   -2.29 KCAL/MOL
REMARK 924 INTRA-LIGAND FREE ENERGY PREDICTED BY IDOCK:    0.19 KCAL/MOL
REMARK 927      BINDING AFFINITY PREDICTED BY RF-SCORE:    0.00 PKD
ROOT
HETATM    1  C   UNL     1     -11.448  15.225  69.440  1.00  0.00    -0.315 C  
HETATM    2  N   UNL     1     -10.938  15.034  68.040  1.00  0.00    -0.274 N  
HETATM    3  C   UNL     1     -11.968  14.333  67.171  1.00  0.00    -0.417 C  
HETATM    4  C   UNL     1      -9.643  14.239  68.032  1.00  0.00    -0.223 C  
ENDROOT
BRANCH   2   5
HETATM    5  C   UNL     1     -10.643  16.454  67.402  1.00  0.00    -0.306 C  
HETATM    6  C   UNL     1      -9.169  16.941  67.422  1.00  0.00    -0.222 C  
HETATM    7  O   UNL     1      -8.484  16.553  66.436  1.00  0.00    -0.264 OA 
HETATM    8  O   UNL     1      -8.839  17.544  68.480  1.00  0.00    -0.274 OA 
ENDBRANCH   2   5
TORSDOF 1
ENDMDL
MODEL       93
REMARK 921   NORMALIZED FREE ENERGY PREDICTED BY IDOCK:   -2.19 KCAL/MOL
REMARK 922        TOTAL FREE ENERGY PREDICTED BY IDOCK:   -2.09 KCAL/MOL
REMARK 923 INTER-LIGAND FREE ENERGY PREDICTED BY IDOCK:   -2.29 KCAL/MOL
REMARK 924 INTRA-LIGAND FREE ENERGY PREDICTED BY IDOCK:    0.20 KCAL/MOL
REMARK 927      BINDING AFFINITY PREDICTED BY RF-SCORE:    0.00 PKD
ROOT
HETATM    1  C   UNL     1     -12.563   6.739  71.615  1.00  0.00    -0.333 C  
HETATM    2  N   UNL     1     -11.850   8.024  71.923  1.00  0.00    -0.290 N  
HETATM    3  C   UNL     1     -12.791   9.039  72.549  1.00  0.00    -0.338 C  
HETATM    4  C   UNL     1     -11.225   8.618  70.671  1.00  0.00    -0.252 C  
ENDROOT
BRANCH   2   5
HETATM    5  C   UNL     1     -10.687   7.732  72.958  1.00  0.00    -0.384 C  
HETATM    6  C   UNL     1      -9.233   7.795  72.417  1.00  0.00    -0.164 C  
HETATM    7  O   UNL     1      -8.723   8.949  72.442  1.00  0.00    -0.400 OA 
HETATM    8  O   UNL     1      -8.820   6.713  71.917  1.00  0.00    -0.133 OA 
ENDBRANCH   2   5
TORSDOF 1
ENDMDL
MODEL       94
REMARK 921   NORMALIZED FREE ENERGY PREDICTED BY IDOCK:   -2.18 KCAL/MOL
REMARK 922        TOTAL FREE ENERGY PREDICTED BY IDOCK:   -2.08 KCAL/MOL
REMARK 923 INTER-LIGAND FREE ENERGY PREDICTED BY IDOCK:   -2.31 KCAL/MOL
REMARK 924 INTRA-LIGAND FREE ENERGY PREDICTED BY IDOCK:    0.23 KCAL/MOL
REMARK 927      BINDING AFFINITY PREDICTED BY RF-SCORE:    0.00 PKD
ROOT
HETATM    1  C   UNL     1     -10.905   8.519  70.125  1.00  0.00    -0.233 C  
HETATM    2  N   UNL     1     -11.262   7.126  70.556  1.00  0.00    -0.280 N  
HETATM    3  C   UNL     1     -11.255   6.167  69.377  1.00  0.00    -0.396 C  
HETATM    4  C   UNL     1     -12.626   7.092  71.227  1.00  0.00    -0.373 C  
ENDROOT
BRANCH   2   5
HETATM    5  C   UNL     1     -10.189   6.620  71.605  1.00  0.00    -0.192 C  
HETATM    6  C   UNL     1      -9.937   7.523  72.843  1.00  0.00    -0.249 C  
HETATM    7  O   UNL     1     -10.720   7.305  73.808  1.00  0.00    -0.353 OA 
HETATM    8  O   UNL     1      -9.072   8.423  72.658  1.00  0.00    -0.234 OA 
ENDBRANCH   2   5
TORSDOF 1
ENDMDL
MODEL       95
REMARK 921   NORMALIZED FREE ENERGY PREDICTED BY IDOCK:   -2.18 KCAL/MOL
REMARK 922        TOTAL FREE ENERGY PREDICTED BY IDOCK:   -2.07 KCAL/MOL
REMARK 923 INTER-LIGAND FREE ENERGY PREDICTED BY IDOCK:   -2.31 KCAL/MOL
REMARK 924 INTRA-LIGAND FREE ENERGY PREDICTED BY IDOCK:    0.23 KCAL/MOL
REMARK 927      BINDING AFFINITY PREDICTED BY RF-SCORE:    0.00 PKD
ROOT
HETATM    1  C   UNL     1      -9.681   5.635  71.716  1.00  0.00    -0.158 C  
HETATM    2  N   UNL     1     -10.827   5.938  72.639  1.00  0.00    -0.235 N  
HETATM    3  C   UNL     1     -10.406   6.894  73.742  1.00  0.00    -0.376 C  
HETATM    4  C   UNL     1     -11.386   4.667  73.256  1.00  0.00    -0.304 C  
ENDROOT
BRANCH   2   5
HETATM    5  C   UNL     1     -11.986   6.629  71.809  1.00  0.00    -0.345 C  
HETATM    6  C   UNL     1     -11.689   8.036  71.225  1.00  0.00    -0.282 C  
HETATM    7  O   UNL     1     -11.133   8.018  70.093  1.00  0.00    -0.251 OA 
HETATM    8  O   UNL     1     -11.932   8.986  72.019  1.00  0.00    -0.356 OA 
ENDBRANCH   2   5
TORSDOF 1
ENDMDL
MODEL       96
REMARK 921   NORMALIZED FREE ENERGY PREDICTED BY IDOCK:   -2.17 KCAL/MOL
REMARK 922        TOTAL FREE ENERGY PREDICTED BY IDOCK:   -2.07 KCAL/MOL
REMARK 923 INTER-LIGAND FREE ENERGY PREDICTED BY IDOCK:   -2.24 KCAL/MOL
REMARK 924 INTRA-LIGAND FREE ENERGY PREDICTED BY IDOCK:    0.16 KCAL/MOL
REMARK 927      BINDING AFFINITY PREDICTED BY RF-SCORE:    0.00 PKD
ROOT
HETATM    1  C   UNL     1      -8.947   6.451  70.571  1.00  0.00    -0.151 C  
HETATM    2  N   UNL     1     -10.298   6.213  71.183  1.00  0.00    -0.202 N  
HETATM    3  C   UNL     1     -10.355   4.865  71.882  1.00  0.00    -0.190 C  
HETATM    4  C   UNL     1     -11.396   6.286  70.134  1.00  0.00    -0.406 C  
ENDROOT
BRANCH   2   5
HETATM    5  C   UNL     1     -10.579   7.337  72.264  1.00  0.00    -0.224 C  
HETATM    6  C   UNL     1      -9.890   8.710  72.045  1.00  0.00    -0.325 C  
HETATM    7  O   UNL     1     -10.541   9.504  71.311  1.00  0.00    -0.332 OA 
HETATM    8  O   UNL     1      -8.727   8.786  72.526  1.00  0.00    -0.406 OA 
ENDBRANCH   2   5
TORSDOF 1
ENDMDL
MODEL       97
REMARK 921   NORMALIZED FREE ENERGY PREDICTED BY IDOCK:   -2.17 KCAL/MOL
REMARK 922        TOTAL FREE ENERGY PREDICTED BY IDOCK:   -2.07 KCAL/MOL
REMARK 923 INTER-LIGAND FREE ENERGY PREDICTED BY IDOCK:   -2.32 KCAL/MOL
REMARK 924 INTRA-LIGAND FREE ENERGY PREDICTED BY IDOCK:    0.25 KCAL/MOL
REMARK 927      BINDING AFFINITY PREDICTED BY RF-SCORE:    0.00 PKD
ROOT
HETATM    1  C   UNL     1      -9.025  16.746  68.496  1.00  0.00    -0.244 C  
HETATM    2  N   UNL     1      -7.970  17.596  67.846  1.00  0.00    -0.225 N  
HETATM    3  C   UNL     1      -7.065  16.764  66.954  1.00  0.00    -0.223 C  
HETATM    4  C   UNL     1      -7.130  18.318  68.887  1.00  0.00    -0.274 C  
ENDROOT
BRANCH   2   5
HETATM    5  C   UNL     1      -8.675  18.691  66.944  1.00  0.00    -0.286 C  
HETATM    6  C   UNL     1      -7.783  19.846  66.414  1.00  0.00    -0.304 C  
HETATM    7  O   UNL     1      -7.194  19.587  65.329  1.00  0.00    -0.415 OA 
HETATM    8  O   UNL     1      -7.678  20.822  67.206  1.00  0.00    -0.348 OA 
ENDBRANCH   2   5
TORSDOF 1
ENDMDL
MODEL       98
REMARK 921   NORMALIZED FREE ENERGY PREDICTED BY IDOCK:   -2.16 KCAL/MOL
REMARK 922        TOTAL FREE ENERGY PREDICTED BY IDOCK:   -2.06 KCAL/MOL
REMARK 923 INTER-LIGAND FREE ENERGY PREDICTED BY IDOCK:   -2.26 KCAL/MOL
REMARK 924 INTRA-LIGAND FREE ENERGY PREDICTED BY IDOCK:    0.20 KCAL/MOL
REMARK 927      BINDING AFFINITY PREDICTED BY RF-SCORE:    0.00 PKD
ROOT
HETATM    1  C   UNL     1      -7.798  16.745  68.817  1.00  0.00    -0.243 C  
HETATM    2  N   UNL     1      -8.652  16.391  67.634  1.00  0.00    -0.173 N  
HETATM    3  C   UNL     1      -8.832  14.887  67.517  1.00  0.00    -0.188 C  
HETATM    4  C   UNL     1      -8.054  16.930  66.345  1.00  0.00    -0.315 C  
ENDROOT
BRANCH   2   5
HETATM    5  C   UNL     1     -10.083  17.043  67.818  1.00  0.00    -0.302 C  
HETATM    6  C   UNL     1     -11.120  16.239  68.649  1.00  0.00    -0.356 C  
HETATM    7  O   UNL     1     -11.061  16.449  69.891  1.00  0.00    -0.349 OA 
HETATM    8  O   UNL     1     -11.782  15.402  67.976  1.00  0.00    -0.336 OA 
ENDBRANCH   2   5
TORSDOF 1
ENDMDL
MODEL       99
REMARK 921   NORMALIZED FREE ENERGY PREDICTED BY IDOCK:   -2.16 KCAL/MOL
REMARK 922        TOTAL FREE ENERGY PREDICTED BY IDOCK:   -2.06 KCAL/MOL
REMARK 923 INTER-LIGAND FREE ENERGY PREDICTED BY IDOCK:   -2.25 KCAL/MOL
REMARK 924 INTRA-LIGAND FREE ENERGY PREDICTED BY IDOCK:    0.19 KCAL/MOL
REMARK 927      BINDING AFFINITY PREDICTED BY RF-SCORE:    0.00 PKD
ROOT
HETATM    1  C   UNL     1     -10.632  11.193  66.206  1.00  0.00    -0.253 C  
HETATM    2  N   UNL     1      -9.725  12.224  66.813  1.00  0.00    -0.208 N  
HETATM    3  C   UNL     1      -9.916  13.580  66.155  1.00  0.00    -0.304 C  
HETATM    4  C   UNL     1      -8.267  11.808  66.700  1.00  0.00    -0.117 C  
ENDROOT
BRANCH   2   5
HETATM    5  C   UNL     1     -10.072  12.374  68.352  1.00  0.00    -0.217 C  
HETATM    6  C   UNL     1     -11.576  12.344  68.738  1.00  0.00    -0.326 C  
HETATM    7  O   UNL     1     -12.036  11.185  68.930  1.00  0.00    -0.475 OA 
HETATM    8  O   UNL     1     -12.145  13.468  68.682  1.00  0.00    -0.352 OA 
ENDBRANCH   2   5
TORSDOF 1
ENDMDL
MODEL      100
REMARK 921   NORMALIZED FREE ENERGY PREDICTED BY IDOCK:   -2.16 KCAL/MOL
REMARK 922        TOTAL FREE ENERGY PREDICTED BY IDOCK:   -2.06 KCAL/MOL
REMARK 923 INTER-LIGAND FREE ENERGY PREDICTED BY IDOCK:   -2.26 KCAL/MOL
REMARK 924 INTRA-LIGAND FREE ENERGY PREDICTED BY IDOCK:    0.20 KCAL/MOL
REMARK 927      BINDING AFFINITY PREDICTED BY RF-SCORE:    0.00 PKD
ROOT
HETATM    1  C   UNL     1      -8.154  10.293  66.403  1.00  0.00    -0.123 C  
HETATM    2  N   UNL     1      -9.570  10.741  66.177  1.00  0.00    -0.187 N  
HETATM    3  C   UNL     1     -10.015  10.459  64.752  1.00  0.00    -0.339 C  
HETATM    4  C   UNL     1      -9.731  12.223  66.474  1.00  0.00    -0.234 C  
ENDROOT
BRANCH   2   5
HETATM    5  C   UNL     1     -10.525   9.940  67.156  1.00  0.00    -0.242 C  
HETATM    6  C   UNL     1     -11.190  10.747  68.304  1.00  0.00    -0.297 C  
HETATM    7  O   UNL     1     -12.278  11.300  67.983  1.00  0.00    -0.621 OA 
HETATM    8  O   UNL     1     -10.487  10.835  69.347  1.00  0.00    -0.218 OA 
ENDBRANCH   2   5
TORSDOF 1
ENDMDL
MODEL      101
REMARK 921   NORMALIZED FREE ENERGY PREDICTED BY IDOCK:   -2.16 KCAL/MOL
REMARK 922        TOTAL FREE ENERGY PREDICTED BY IDOCK:   -2.06 KCAL/MOL
REMARK 923 INTER-LIGAND FREE ENERGY PREDICTED BY IDOCK:   -2.22 KCAL/MOL
REMARK 924 INTRA-LIGAND FREE ENERGY PREDICTED BY IDOCK:    0.16 KCAL/MOL
REMARK 927      BINDING AFFINITY PREDICTED BY RF-SCORE:    0.00 PKD
ROOT
HETATM    1  C   UNL     1     -12.299   6.845  70.778  1.00  0.00    -0.262 C  
HETATM    2  N   UNL     1     -10.978   6.511  70.146  1.00  0.00    -0.287 N  
HETATM    3  C   UNL     1     -11.135   6.236  68.660  1.00  0.00    -0.325 C  
HETATM    4  C   UNL     1     -10.336   5.309  70.818  1.00  0.00    -0.239 C  
ENDROOT
BRANCH   2   5
HETATM    5  C   UNL     1     -10.000   7.746  70.314  1.00  0.00    -0.189 C  
HETATM    6  C   UNL     1     -10.306   8.730  71.475  1.00  0.00    -0.303 C  
HETATM    7  O   UNL     1      -9.793   8.402  72.580  1.00  0.00    -0.282 OA 
HETATM    8  O   UNL     1     -11.122   9.644  71.175  1.00  0.00    -0.332 OA 
ENDBRANCH   2   5
TORSDOF 1
ENDMDL
MODEL      102
REMARK 921   NORMALIZED FREE ENERGY PREDICTED BY IDOCK:   -2.16 KCAL/MOL
REMARK 922        TOTAL FREE ENERGY PREDICTED BY IDOCK:   -2.05 KCAL/MOL
REMARK 923 INTER-LIGAND FREE ENERGY PREDICTED BY IDOCK:   -2.25 KCAL/MOL
REMARK 924 INTRA-LIGAND FREE ENERGY PREDICTED BY IDOCK:    0.19 KCAL/MOL
REMARK 927      BINDING AFFINITY PREDICTED BY RF-SCORE:    0.00 PKD
ROOT
HETATM    1  C   UNL     1      -8.952  10.721  66.417  1.00  0.00    -0.166 C  
HETATM    2  N   UNL     1      -9.927  11.836  66.661  1.00  0.00    -0.198 N  
HETATM    3  C   UNL     1      -9.217  13.176  66.754  1.00  0.00    -0.230 C  
HETATM    4  C   UNL     1     -10.727  11.598  67.931  1.00  0.00    -0.202 C  
ENDROOT
BRANCH   2   5
HETATM    5  C   UNL     1     -10.945  11.905  65.449  1.00  0.00    -0.301 C  
HETATM    6  C   UNL     1     -10.552  12.813  64.252  1.00  0.00    -0.400 C  
HETATM    7  O   UNL     1      -9.834  12.242  63.385  1.00  0.00    -0.374 OA 
HETATM    8  O   UNL     1     -10.900  14.018  64.383  1.00  0.00    -0.374 OA 
ENDBRANCH   2   5
TORSDOF 1
ENDMDL
MODEL      103
REMARK 921   NORMALIZED FREE ENERGY PREDICTED BY IDOCK:   -2.16 KCAL/MOL
REMARK 922        TOTAL FREE ENERGY PREDICTED BY IDOCK:   -2.05 KCAL/MOL
REMARK 923 INTER-LIGAND FREE ENERGY PREDICTED BY IDOCK:   -2.29 KCAL/MOL
REMARK 924 INTRA-LIGAND FREE ENERGY PREDICTED BY IDOCK:    0.23 KCAL/MOL
REMARK 927      BINDING AFFINITY PREDICTED BY RF-SCORE:    0.00 PKD
ROOT
HETATM    1  C   UNL     1     -12.247   6.546  71.815  1.00  0.00    -0.322 C  
HETATM    2  N   UNL     1     -10.795   6.603  72.194  1.00  0.00    -0.222 N  
HETATM    3  C   UNL     1      -9.905   6.272  71.008  1.00  0.00    -0.181 C  
HETATM    4  C   UNL     1     -10.489   5.651  73.338  1.00  0.00    -0.242 C  
ENDROOT
BRANCH   2   5
HETATM    5  C   UNL     1     -10.445   8.071  72.674  1.00  0.00    -0.339 C  
HETATM    6  C   UNL     1     -10.735   9.224  71.675  1.00  0.00    -0.323 C  
HETATM    7  O   UNL     1     -11.911   9.677  71.736  1.00  0.00    -0.381 OA 
HETATM    8  O   UNL     1      -9.795   9.455  70.866  1.00  0.00    -0.276 OA 
ENDBRANCH   2   5
TORSDOF 1
ENDMDL
MODEL      104
REMARK 921   NORMALIZED FREE ENERGY PREDICTED BY IDOCK:   -2.16 KCAL/MOL
REMARK 922        TOTAL FREE ENERGY PREDICTED BY IDOCK:   -2.05 KCAL/MOL
REMARK 923 INTER-LIGAND FREE ENERGY PREDICTED BY IDOCK:   -2.24 KCAL/MOL
REMARK 924 INTRA-LIGAND FREE ENERGY PREDICTED BY IDOCK:    0.18 KCAL/MOL
REMARK 927      BINDING AFFINITY PREDICTED BY RF-SCORE:    0.00 PKD
ROOT
HETATM    1  C   UNL     1      -9.056   9.828  69.631  1.00  0.00    -0.220 C  
HETATM    2  N   UNL     1     -10.329   9.293  70.221  1.00  0.00    -0.211 N  
HETATM    3  C   UNL     1     -10.147   8.932  71.685  1.00  0.00    -0.341 C  
HETATM    4  C   UNL     1     -10.819   8.074  69.456  1.00  0.00    -0.129 C  
ENDROOT
BRANCH   2   5
HETATM    5  C   UNL     1     -11.449  10.410  70.128  1.00  0.00    -0.319 C  
HETATM    6  C   UNL     1     -11.435  11.315  68.867  1.00  0.00    -0.297 C  
HETATM    7  O   UNL     1     -12.075  10.845  67.887  1.00  0.00    -0.527 OA 
HETATM    8  O   UNL     1     -10.685  12.325  68.964  1.00  0.00    -0.194 OA 
ENDBRANCH   2   5
TORSDOF 1
ENDMDL
MODEL      105
REMARK 921   NORMALIZED FREE ENERGY PREDICTED BY IDOCK:   -2.14 KCAL/MOL
REMARK 922        TOTAL FREE ENERGY PREDICTED BY IDOCK:   -2.03 KCAL/MOL
REMARK 923 INTER-LIGAND FREE ENERGY PREDICTED BY IDOCK:   -2.21 KCAL/MOL
REMARK 924 INTRA-LIGAND FREE ENERGY PREDICTED BY IDOCK:    0.18 KCAL/MOL
REMARK 927      BINDING AFFINITY PREDICTED BY RF-SCORE:    0.00 PKD
ROOT
HETATM    1  C   UNL     1     -11.732  14.417  67.362  1.00  0.00    -0.397 C  
HETATM    2  N   UNL     1     -10.433  14.805  66.716  1.00  0.00    -0.278 N  
HETATM    3  C   UNL     1      -9.805  15.998  67.418  1.00  0.00    -0.236 C  
HETATM    4  C   UNL     1     -10.628  15.130  65.244  1.00  0.00    -0.411 C  
ENDROOT
BRANCH   2   5
HETATM    5  C   UNL     1      -9.423  13.590  66.819  1.00  0.00    -0.269 C  
HETATM    6  C   UNL     1     -10.029  12.163  66.729  1.00  0.00    -0.203 C  
HETATM    7  O   UNL     1     -10.154  11.728  65.552  1.00  0.00    -0.232 OA 
HETATM    8  O   UNL     1     -10.423  11.700  67.835  1.00  0.00    -0.183 OA 
ENDBRANCH   2   5
TORSDOF 1
ENDMDL
MODEL      106
REMARK 921   NORMALIZED FREE ENERGY PREDICTED BY IDOCK:   -2.13 KCAL/MOL
REMARK 922        TOTAL FREE ENERGY PREDICTED BY IDOCK:   -2.03 KCAL/MOL
REMARK 923 INTER-LIGAND FREE ENERGY PREDICTED BY IDOCK:   -2.24 KCAL/MOL
REMARK 924 INTRA-LIGAND FREE ENERGY PREDICTED BY IDOCK:    0.21 KCAL/MOL
REMARK 927      BINDING AFFINITY PREDICTED BY RF-SCORE:    0.00 PKD
ROOT
HETATM    1  C   UNL     1      -7.989  16.887  68.541  1.00  0.00    -0.242 C  
HETATM    2  N   UNL     1      -8.190  16.940  67.054  1.00  0.00    -0.187 N  
HETATM    3  C   UNL     1      -8.708  15.614  66.522  1.00  0.00    -0.307 C  
HETATM    4  C   UNL     1      -6.900  17.303  66.338  1.00  0.00    -0.265 C  
ENDROOT
BRANCH   2   5
HETATM    5  C   UNL     1      -9.265  18.054  66.719  1.00  0.00    -0.280 C  
HETATM    6  C   UNL     1      -9.099  19.425  67.429  1.00  0.00    -0.299 C  
HETATM    7  O   UNL     1      -8.338  20.230  66.825  1.00  0.00    -0.302 OA 
HETATM    8  O   UNL     1      -9.647  19.489  68.563  1.00  0.00    -0.358 OA 
ENDBRANCH   2   5
TORSDOF 1
ENDMDL
MODEL      107
REMARK 921   NORMALIZED FREE ENERGY PREDICTED BY IDOCK:   -2.13 KCAL/MOL
REMARK 922        TOTAL FREE ENERGY PREDICTED BY IDOCK:   -2.02 KCAL/MOL
REMARK 923 INTER-LIGAND FREE ENERGY PREDICTED BY IDOCK:   -2.24 KCAL/MOL
REMARK 924 INTRA-LIGAND FREE ENERGY PREDICTED BY IDOCK:    0.22 KCAL/MOL
REMARK 927      BINDING AFFINITY PREDICTED BY RF-SCORE:    0.00 PKD
ROOT
HETATM    1  C   UNL     1      -7.820  17.202  68.746  1.00  0.00    -0.258 C  
HETATM    2  N   UNL     1      -9.006  18.036  68.353  1.00  0.00    -0.275 N  
HETATM    3  C   UNL     1     -10.272  17.547  69.037  1.00  0.00    -0.314 C  
HETATM    4  C   UNL     1      -9.209  18.027  66.847  1.00  0.00    -0.269 C  
ENDROOT
BRANCH   2   5
HETATM    5  C   UNL     1      -8.754  19.534  68.803  1.00  0.00    -0.300 C  
HETATM    6  C   UNL     1      -7.390  20.164  68.412  1.00  0.00    -0.202 C  
HETATM    7  O   UNL     1      -7.375  20.694  67.267  1.00  0.00    -0.310 OA 
HETATM    8  O   UNL     1      -6.465  19.946  69.241  1.00  0.00    -0.313 OA 
ENDBRANCH   2   5
TORSDOF 1
ENDMDL
MODEL      108
REMARK 921   NORMALIZED FREE ENERGY PREDICTED BY IDOCK:   -2.11 KCAL/MOL
REMARK 922        TOTAL FREE ENERGY PREDICTED BY IDOCK:   -2.00 KCAL/MOL
REMARK 923 INTER-LIGAND FREE ENERGY PREDICTED BY IDOCK:   -2.20 KCAL/MOL
REMARK 924 INTRA-LIGAND FREE ENERGY PREDICTED BY IDOCK:    0.19 KCAL/MOL
REMARK 927      BINDING AFFINITY PREDICTED BY RF-SCORE:    0.00 PKD
ROOT
HETATM    1  C   UNL     1     -12.082   6.745  70.863  1.00  0.00    -0.367 C  
HETATM    2  N   UNL     1     -11.447   7.967  71.462  1.00  0.00    -0.256 N  
HETATM    3  C   UNL     1     -11.028   7.719  72.901  1.00  0.00    -0.407 C  
HETATM    4  C   UNL     1     -12.390   9.158  71.408  1.00  0.00    -0.333 C  
ENDROOT
BRANCH   2   5
HETATM    5  C   UNL     1     -10.150   8.334  70.631  1.00  0.00    -0.191 C  
HETATM    6  C   UNL     1     -10.344   9.249  69.392  1.00  0.00    -0.215 C  
HETATM    7  O   UNL     1     -10.309  10.484  69.652  1.00  0.00    -0.231 OA 
HETATM    8  O   UNL     1     -10.633   8.629  68.332  1.00  0.00    -0.197 OA 
ENDBRANCH   2   5
TORSDOF 1
ENDMDL
MODEL      109
REMARK 921   NORMALIZED FREE ENERGY PREDICTED BY IDOCK:   -2.10 KCAL/MOL
REMARK 922        TOTAL FREE ENERGY PREDICTED BY IDOCK:   -1.99 KCAL/MOL
REMARK 923 INTER-LIGAND FREE ENERGY PREDICTED BY IDOCK:   -2.17 KCAL/MOL
REMARK 924 INTRA-LIGAND FREE ENERGY PREDICTED BY IDOCK:    0.17 KCAL/MOL
REMARK 927      BINDING AFFINITY PREDICTED BY RF-SCORE:    0.00 PKD
ROOT
HETATM    1  C   UNL     1     -10.532   8.780  69.418  1.00  0.00    -0.222 C  
HETATM    2  N   UNL     1     -10.019   8.653  68.012  1.00  0.00    -0.174 N  
HETATM    3  C   UNL     1     -10.649   7.467  67.301  1.00  0.00    -0.324 C  
HETATM    4  C   UNL     1      -8.506   8.510  67.991  1.00  0.00    -0.131 C  
ENDROOT
BRANCH   2   5
HETATM    5  C   UNL     1     -10.397   9.964  67.206  1.00  0.00    -0.245 C  
HETATM    6  C   UNL     1     -10.928  11.167  68.031  1.00  0.00    -0.252 C  
HETATM    7  O   UNL     1     -10.025  11.922  68.484  1.00  0.00    -0.207 OA 
HETATM    8  O   UNL     1     -12.173  11.145  68.232  1.00  0.00    -0.613 OA 
ENDBRANCH   2   5
TORSDOF 1
ENDMDL
MODEL      110
REMARK 921   NORMALIZED FREE ENERGY PREDICTED BY IDOCK:   -2.10 KCAL/MOL
REMARK 922        TOTAL FREE ENERGY PREDICTED BY IDOCK:   -1.99 KCAL/MOL
REMARK 923 INTER-LIGAND FREE ENERGY PREDICTED BY IDOCK:   -2.26 KCAL/MOL
REMARK 924 INTRA-LIGAND FREE ENERGY PREDICTED BY IDOCK:    0.27 KCAL/MOL
REMARK 927      BINDING AFFINITY PREDICTED BY RF-SCORE:    0.00 PKD
ROOT
HETATM    1  C   UNL     1      -5.744  18.962  69.168  1.00  0.00    -0.214 C  
HETATM    2  N   UNL     1      -6.966  18.372  68.524  1.00  0.00    -0.252 N  
HETATM    3  C   UNL     1      -7.221  16.959  69.020  1.00  0.00    -0.232 C  
HETATM    4  C   UNL     1      -6.837  18.361  67.010  1.00  0.00    -0.190 C  
ENDROOT
BRANCH   2   5
HETATM    5  C   UNL     1      -8.224  19.257  68.902  1.00  0.00    -0.309 C  
HETATM    6  C   UNL     1      -9.599  18.797  68.347  1.00  0.00    -0.365 C  
HETATM    7  O   UNL     1     -10.195  17.957  69.076  1.00  0.00    -0.378 OA 
HETATM    8  O   UNL     1      -9.861  19.231  67.192  1.00  0.00    -0.315 OA 
ENDBRANCH   2   5
TORSDOF 1
ENDMDL
MODEL      111
REMARK 921   NORMALIZED FREE ENERGY PREDICTED BY IDOCK:   -2.09 KCAL/MOL
REMARK 922        TOTAL FREE ENERGY PREDICTED BY IDOCK:   -1.98 KCAL/MOL
REMARK 923 INTER-LIGAND FREE ENERGY PREDICTED BY IDOCK:   -2.15 KCAL/MOL
REMARK 924 INTRA-LIGAND FREE ENERGY PREDICTED BY IDOCK:    0.16 KCAL/MOL
REMARK 927      BINDING AFFINITY PREDICTED BY RF-SCORE:    0.00 PKD
ROOT
HETATM    1  C   UNL     1      -8.260  17.766  68.632  1.00  0.00    -0.271 C  
HETATM    2  N   UNL     1      -7.689  16.407  68.343  1.00  0.00    -0.169 N  
HETATM    3  C   UNL     1      -8.274  15.356  69.272  1.00  0.00    -0.252 C  
HETATM    4  C   UNL     1      -6.175  16.409  68.471  1.00  0.00    -0.128 C  
ENDROOT
BRANCH   2   5
HETATM    5  C   UNL     1      -8.053  16.002  66.856  1.00  0.00    -0.247 C  
HETATM    6  C   UNL     1      -9.357  16.603  66.263  1.00  0.00    -0.292 C  
HETATM    7  O   UNL     1      -9.207  17.735  65.728  1.00  0.00    -0.505 OA 
HETATM    8  O   UNL     1     -10.395  15.930  66.512  1.00  0.00    -0.284 OA 
ENDBRANCH   2   5
TORSDOF 1
ENDMDL
MODEL      112
REMARK 921   NORMALIZED FREE ENERGY PREDICTED BY IDOCK:   -2.09 KCAL/MOL
REMARK 922        TOTAL FREE ENERGY PREDICTED BY IDOCK:   -1.98 KCAL/MOL
REMARK 923 INTER-LIGAND FREE ENERGY PREDICTED BY IDOCK:   -2.25 KCAL/MOL
REMARK 924 INTRA-LIGAND FREE ENERGY PREDICTED BY IDOCK:    0.27 KCAL/MOL
REMARK 927      BINDING AFFINITY PREDICTED BY RF-SCORE:    0.00 PKD
ROOT
HETATM    1  C   UNL     1     -10.293   7.260  68.036  1.00  0.00    -0.197 C  
HETATM    2  N   UNL     1     -10.356   7.252  69.536  1.00  0.00    -0.218 N  
HETATM    3  C   UNL     1      -9.069   6.710  70.137  1.00  0.00    -0.155 C  
HETATM    4  C   UNL     1     -11.532   6.426  70.032  1.00  0.00    -0.428 C  
ENDROOT
BRANCH   2   5
HETATM    5  C   UNL     1     -10.550   8.737  70.052  1.00  0.00    -0.223 C  
HETATM    6  C   UNL     1     -10.615   8.943  71.589  1.00  0.00    -0.352 C  
HETATM    7  O   UNL     1      -9.489   9.089  72.139  1.00  0.00    -0.340 OA 
HETATM    8  O   UNL     1     -11.770   8.811  72.079  1.00  0.00    -0.336 OA 
ENDBRANCH   2   5
TORSDOF 1
ENDMDL
MODEL      113
REMARK 921   NORMALIZED FREE ENERGY PREDICTED BY IDOCK:   -2.09 KCAL/MOL
REMARK 922        TOTAL FREE ENERGY PREDICTED BY IDOCK:   -1.98 KCAL/MOL
REMARK 923 INTER-LIGAND FREE ENERGY PREDICTED BY IDOCK:   -2.16 KCAL/MOL
REMARK 924 INTRA-LIGAND FREE ENERGY PREDICTED BY IDOCK:    0.17 KCAL/MOL
REMARK 927      BINDING AFFINITY PREDICTED BY RF-SCORE:    0.00 PKD
ROOT
HETATM    1  C   UNL     1     -10.325   4.816  72.117  1.00  0.00    -0.190 C  
HETATM    2  N   UNL     1      -9.875   6.211  72.445  1.00  0.00    -0.165 N  
HETATM    3  C   UNL     1      -8.369   6.350  72.305  1.00  0.00    -0.107 C  
HETATM    4  C   UNL     1     -10.291   6.606  73.852  1.00  0.00    -0.360 C  
ENDROOT
BRANCH   2   5
HETATM    5  C   UNL     1     -10.556   7.222  71.433  1.00  0.00    -0.211 C  
HETATM    6  C   UNL     1     -11.713   6.668  70.558  1.00  0.00    -0.394 C  
HETATM    7  O   UNL     1     -12.848   6.730  71.105  1.00  0.00    -0.312 OA 
HETATM    8  O   UNL     1     -11.334   6.125  69.485  1.00  0.00    -0.418 OA 
ENDBRANCH   2   5
TORSDOF 1
ENDMDL
MODEL      114
REMARK 921   NORMALIZED FREE ENERGY PREDICTED BY IDOCK:   -2.08 KCAL/MOL
REMARK 922        TOTAL FREE ENERGY PREDICTED BY IDOCK:   -1.98 KCAL/MOL
REMARK 923 INTER-LIGAND FREE ENERGY PREDICTED BY IDOCK:   -2.14 KCAL/MOL
REMARK 924 INTRA-LIGAND FREE ENERGY PREDICTED BY IDOCK:    0.16 KCAL/MOL
REMARK 927      BINDING AFFINITY PREDICTED BY RF-SCORE:    0.00 PKD
ROOT
HETATM    1  C   UNL     1     -11.450   5.730  72.519  1.00  0.00    -0.296 C  
HETATM    2  N   UNL     1     -11.746   6.939  71.678  1.00  0.00    -0.286 N  
HETATM    3  C   UNL     1     -11.126   8.190  72.277  1.00  0.00    -0.344 C  
HETATM    4  C   UNL     1     -13.244   7.143  71.519  1.00  0.00    -0.360 C  
ENDROOT
BRANCH   2   5
HETATM    5  C   UNL     1     -11.126   6.727  70.236  1.00  0.00    -0.310 C  
HETATM    6  C   UNL     1      -9.891   5.793  70.133  1.00  0.00    -0.184 C  
HETATM    7  O   UNL     1     -10.177   4.572  69.993  1.00  0.00    -0.210 OA 
HETATM    8  O   UNL     1      -8.787   6.372  70.330  1.00  0.00    -0.147 OA 
ENDBRANCH   2   5
TORSDOF 1
ENDMDL
MODEL      115
REMARK 921   NORMALIZED FREE ENERGY PREDICTED BY IDOCK:   -2.08 KCAL/MOL
REMARK 922        TOTAL FREE ENERGY PREDICTED BY IDOCK:   -1.97 KCAL/MOL
REMARK 923 INTER-LIGAND FREE ENERGY PREDICTED BY IDOCK:   -2.23 KCAL/MOL
REMARK 924 INTRA-LIGAND FREE ENERGY PREDICTED BY IDOCK:    0.26 KCAL/MOL
REMARK 927      BINDING AFFINITY PREDICTED BY RF-SCORE:    0.00 PKD
ROOT
HETATM    1  C   UNL     1      -8.652   9.556  70.047  1.00  0.00    -0.215 C  
HETATM    2  N   UNL     1     -10.040   9.035  69.805  1.00  0.00    -0.193 N  
HETATM    3  C   UNL     1     -10.278   8.768  68.329  1.00  0.00    -0.201 C  
HETATM    4  C   UNL     1     -11.089  10.007  70.320  1.00  0.00    -0.318 C  
ENDROOT
BRANCH   2   5
HETATM    5  C   UNL     1     -10.218   7.667  70.584  1.00  0.00    -0.199 C  
HETATM    6  C   UNL     1     -11.538   6.886  70.340  1.00  0.00    -0.335 C  
HETATM    7  O   UNL     1     -11.502   6.109  69.346  1.00  0.00    -0.423 OA 
HETATM    8  O   UNL     1     -12.490   7.234  71.091  1.00  0.00    -0.348 OA 
ENDBRANCH   2   5
TORSDOF 1
ENDMDL
MODEL      116
REMARK 921   NORMALIZED FREE ENERGY PREDICTED BY IDOCK:   -2.07 KCAL/MOL
REMARK 922        TOTAL FREE ENERGY PREDICTED BY IDOCK:   -1.97 KCAL/MOL
REMARK 923 INTER-LIGAND FREE ENERGY PREDICTED BY IDOCK:   -2.16 KCAL/MOL
REMARK 924 INTRA-LIGAND FREE ENERGY PREDICTED BY IDOCK:    0.20 KCAL/MOL
REMARK 927      BINDING AFFINITY PREDICTED BY RF-SCORE:    0.00 PKD
ROOT
HETATM    1  C   UNL     1      -8.682   7.184  70.298  1.00  0.00    -0.144 C  
HETATM    2  N   UNL     1      -9.511   8.348  70.761  1.00  0.00    -0.163 N  
HETATM    3  C   UNL     1      -9.047   9.644  70.118  1.00  0.00    -0.240 C  
HETATM    4  C   UNL     1      -9.464   8.488  72.274  1.00  0.00    -0.295 C  
ENDROOT
BRANCH   2   5
HETATM    5  C   UNL     1     -11.019   8.105  70.340  1.00  0.00    -0.247 C  
HETATM    6  C   UNL     1     -11.569   6.662  70.499  1.00  0.00    -0.390 C  
HETATM    7  O   UNL     1     -12.035   6.411  71.644  1.00  0.00    -0.323 OA 
HETATM    8  O   UNL     1     -11.356   5.917  69.504  1.00  0.00    -0.361 OA 
ENDBRANCH   2   5
TORSDOF 1
ENDMDL
MODEL      117
REMARK 921   NORMALIZED FREE ENERGY PREDICTED BY IDOCK:   -2.07 KCAL/MOL
REMARK 922        TOTAL FREE ENERGY PREDICTED BY IDOCK:   -1.97 KCAL/MOL
REMARK 923 INTER-LIGAND FREE ENERGY PREDICTED BY IDOCK:   -2.14 KCAL/MOL
REMARK 924 INTRA-LIGAND FREE ENERGY PREDICTED BY IDOCK:    0.18 KCAL/MOL
REMARK 927      BINDING AFFINITY PREDICTED BY RF-SCORE:    0.00 PKD
ROOT
HETATM    1  C   UNL     1     -10.408   8.676  69.237  1.00  0.00    -0.221 C  
HETATM    2  N   UNL     1      -9.618   8.456  70.496  1.00  0.00    -0.167 N  
HETATM    3  C   UNL     1      -8.339   9.275  70.492  1.00  0.00    -0.205 C  
HETATM    4  C   UNL     1      -9.277   6.986  70.680  1.00  0.00    -0.158 C  
ENDROOT
BRANCH   2   5
HETATM    5  C   UNL     1     -10.489   8.915  71.737  1.00  0.00    -0.360 C  
HETATM    6  C   UNL     1     -11.948   9.360  71.446  1.00  0.00    -0.371 C  
HETATM    7  O   UNL     1     -12.783   8.415  71.436  1.00  0.00    -0.307 OA 
HETATM    8  O   UNL     1     -12.064  10.577  71.138  1.00  0.00    -0.354 OA 
ENDBRANCH   2   5
TORSDOF 1
ENDMDL
MODEL      118
REMARK 921   NORMALIZED FREE ENERGY PREDICTED BY IDOCK:   -2.07 KCAL/MOL
REMARK 922        TOTAL FREE ENERGY PREDICTED BY IDOCK:   -1.96 KCAL/MOL
REMARK 923 INTER-LIGAND FREE ENERGY PREDICTED BY IDOCK:   -2.13 KCAL/MOL
REMARK 924 INTRA-LIGAND FREE ENERGY PREDICTED BY IDOCK:    0.17 KCAL/MOL
REMARK 927      BINDING AFFINITY PREDICTED BY RF-SCORE:    0.00 PKD
ROOT
HETATM    1  C   UNL     1      -8.288  14.746  67.060  1.00  0.00    -0.198 C  
HETATM    2  N   UNL     1      -8.939  16.094  67.178  1.00  0.00    -0.194 N  
HETATM    3  C   UNL     1      -8.245  17.118  66.297  1.00  0.00    -0.271 C  
HETATM    4  C   UNL     1      -8.936  16.581  68.618  1.00  0.00    -0.236 C  
ENDROOT
BRANCH   2   5
HETATM    5  C   UNL     1     -10.446  15.981  66.704  1.00  0.00    -0.304 C  
HETATM    6  C   UNL     1     -11.067  14.559  66.668  1.00  0.00    -0.333 C  
HETATM    7  O   UNL     1     -11.571  14.188  67.763  1.00  0.00    -0.308 OA 
HETATM    8  O   UNL     1     -10.867  13.936  65.590  1.00  0.00    -0.283 OA 
ENDBRANCH   2   5
TORSDOF 1
ENDMDL
MODEL      119
REMARK 921   NORMALIZED FREE ENERGY PREDICTED BY IDOCK:   -2.07 KCAL/MOL
REMARK 922        TOTAL FREE ENERGY PREDICTED BY IDOCK:   -1.96 KCAL/MOL
REMARK 923 INTER-LIGAND FREE ENERGY PREDICTED BY IDOCK:   -2.17 KCAL/MOL
REMARK 924 INTRA-LIGAND FREE ENERGY PREDICTED BY IDOCK:    0.21 KCAL/MOL
REMARK 927      BINDING AFFINITY PREDICTED BY RF-SCORE:    0.00 PKD
ROOT
HETATM    1  C   UNL     1      -8.902   6.816  70.706  1.00  0.00    -0.150 C  
HETATM    2  N   UNL     1      -9.461   8.124  71.186  1.00  0.00    -0.152 N  
HETATM    3  C   UNL     1      -8.713   9.298  70.578  1.00  0.00    -0.236 C  
HETATM    4  C   UNL     1      -9.409   8.220  72.702  1.00  0.00    -0.280 C  
ENDROOT
BRANCH   2   5
HETATM    5  C   UNL     1     -10.978   8.228  70.742  1.00  0.00    -0.243 C  
HETATM    6  C   UNL     1     -11.907   9.113  71.617  1.00  0.00    -0.372 C  
HETATM    7  O   UNL     1     -11.914  10.332  71.293  1.00  0.00    -0.364 OA 
HETATM    8  O   UNL     1     -12.420   8.509  72.599  1.00  0.00    -0.370 OA 
ENDBRANCH   2   5
TORSDOF 1
ENDMDL
MODEL      120
REMARK 921   NORMALIZED FREE ENERGY PREDICTED BY IDOCK:   -2.05 KCAL/MOL
REMARK 922        TOTAL FREE ENERGY PREDICTED BY IDOCK:   -1.94 KCAL/MOL
REMARK 923 INTER-LIGAND FREE ENERGY PREDICTED BY IDOCK:   -2.12 KCAL/MOL
REMARK 924 INTRA-LIGAND FREE ENERGY PREDICTED BY IDOCK:    0.18 KCAL/MOL
REMARK 927      BINDING AFFINITY PREDICTED BY RF-SCORE:    0.00 PKD
ROOT
HETATM    1  C   UNL     1     -11.491  11.921  66.672  1.00  0.00    -0.314 C  
HETATM    2  N   UNL     1     -10.067  12.309  66.954  1.00  0.00    -0.209 N  
HETATM    3  C   UNL     1      -9.111  11.182  66.602  1.00  0.00    -0.170 C  
HETATM    4  C   UNL     1      -9.881  12.693  68.412  1.00  0.00    -0.200 C  
ENDROOT
BRANCH   2   5
HETATM    5  C   UNL     1      -9.691  13.565  66.065  1.00  0.00    -0.218 C  
HETATM    6  C   UNL     1     -10.795  14.115  65.122  1.00  0.00    -0.372 C  
HETATM    7  O   UNL     1     -11.566  14.954  65.664  1.00  0.00    -0.329 OA 
HETATM    8  O   UNL     1     -10.837  13.552  63.994  1.00  0.00    -0.308 OA 
ENDBRANCH   2   5
TORSDOF 1
ENDMDL
MODEL      121
REMARK 921   NORMALIZED FREE ENERGY PREDICTED BY IDOCK:   -2.05 KCAL/MOL
REMARK 922        TOTAL FREE ENERGY PREDICTED BY IDOCK:   -1.94 KCAL/MOL
REMARK 923 INTER-LIGAND FREE ENERGY PREDICTED BY IDOCK:   -2.11 KCAL/MOL
REMARK 924 INTRA-LIGAND FREE ENERGY PREDICTED BY IDOCK:    0.18 KCAL/MOL
REMARK 927      BINDING AFFINITY PREDICTED BY RF-SCORE:    0.00 PKD
ROOT
HETATM    1  C   UNL     1      -8.879  18.183  66.303  1.00  0.00    -0.174 C  
HETATM    2  N   UNL     1      -9.047  18.001  67.784  1.00  0.00    -0.259 N  
HETATM    3  C   UNL     1     -10.511  18.065  68.183  1.00  0.00    -0.361 C  
HETATM    4  C   UNL     1      -8.265  19.050  68.558  1.00  0.00    -0.355 C  
ENDROOT
BRANCH   2   5
HETATM    5  C   UNL     1      -8.490  16.576  68.194  1.00  0.00    -0.191 C  
HETATM    6  C   UNL     1      -7.842  15.725  67.069  1.00  0.00    -0.236 C  
HETATM    7  O   UNL     1      -6.614  15.955  66.890  1.00  0.00    -0.282 OA 
HETATM    8  O   UNL     1      -8.661  15.021  66.417  1.00  0.00    -0.256 OA 
ENDBRANCH   2   5
TORSDOF 1
ENDMDL
MODEL      122
REMARK 921   NORMALIZED FREE ENERGY PREDICTED BY IDOCK:   -2.03 KCAL/MOL
REMARK 922        TOTAL FREE ENERGY PREDICTED BY IDOCK:   -1.93 KCAL/MOL
REMARK 923 INTER-LIGAND FREE ENERGY PREDICTED BY IDOCK:   -2.12 KCAL/MOL
REMARK 924 INTRA-LIGAND FREE ENERGY PREDICTED BY IDOCK:    0.20 KCAL/MOL
REMARK 927      BINDING AFFINITY PREDICTED BY RF-SCORE:    0.00 PKD
ROOT
HETATM    1  C   UNL     1     -11.044  14.425  68.115  1.00  0.00    -0.264 C  
HETATM    2  N   UNL     1     -11.338  13.483  66.982  1.00  0.00    -0.312 N  
HETATM    3  C   UNL     1     -12.527  13.960  66.165  1.00  0.00    -0.436 C  
HETATM    4  C   UNL     1     -11.606  12.077  67.493  1.00  0.00    -0.330 C  
ENDROOT
BRANCH   2   5
HETATM    5  C   UNL     1     -10.078  13.422  66.024  1.00  0.00    -0.304 C  
HETATM    6  C   UNL     1      -8.968  12.400  66.387  1.00  0.00    -0.100 C  
HETATM    7  O   UNL     1      -9.157  11.244  65.918  1.00  0.00    -0.200 OA 
HETATM    8  O   UNL     1      -8.108  12.839  67.199  1.00  0.00    -0.176 OA 
ENDBRANCH   2   5
TORSDOF 1
ENDMDL
MODEL      123
REMARK 921   NORMALIZED FREE ENERGY PREDICTED BY IDOCK:   -2.03 KCAL/MOL
REMARK 922        TOTAL FREE ENERGY PREDICTED BY IDOCK:   -1.92 KCAL/MOL
REMARK 923 INTER-LIGAND FREE ENERGY PREDICTED BY IDOCK:   -2.13 KCAL/MOL
REMARK 924 INTRA-LIGAND FREE ENERGY PREDICTED BY IDOCK:    0.20 KCAL/MOL
REMARK 927      BINDING AFFINITY PREDICTED BY RF-SCORE:    0.00 PKD
ROOT
HETATM    1  C   UNL     1      -6.061  18.222  68.750  1.00  0.00    -0.207 C  
HETATM    2  N   UNL     1      -7.516  18.064  68.415  1.00  0.00    -0.269 N  
HETATM    3  C   UNL     1      -8.330  19.238  68.932  1.00  0.00    -0.303 C  
HETATM    4  C   UNL     1      -8.073  16.771  68.987  1.00  0.00    -0.179 C  
ENDROOT
BRANCH   2   5
HETATM    5  C   UNL     1      -7.679  18.012  66.840  1.00  0.00    -0.223 C  
HETATM    6  C   UNL     1      -8.368  19.228  66.164  1.00  0.00    -0.273 C  
HETATM    7  O   UNL     1      -7.581  20.170  65.872  1.00  0.00    -0.311 OA 
HETATM    8  O   UNL     1      -9.626  19.150  66.120  1.00  0.00    -0.363 OA 
ENDBRANCH   2   5
TORSDOF 1
ENDMDL
MODEL      124
REMARK 921   NORMALIZED FREE ENERGY PREDICTED BY IDOCK:   -2.03 KCAL/MOL
REMARK 922        TOTAL FREE ENERGY PREDICTED BY IDOCK:   -1.92 KCAL/MOL
REMARK 923 INTER-LIGAND FREE ENERGY PREDICTED BY IDOCK:   -2.17 KCAL/MOL
REMARK 924 INTRA-LIGAND FREE ENERGY PREDICTED BY IDOCK:    0.25 KCAL/MOL
REMARK 927      BINDING AFFINITY PREDICTED BY RF-SCORE:    0.00 PKD
ROOT
HETATM    1  C   UNL     1     -10.000  19.012  67.272  1.00  0.00    -0.344 C  
HETATM    2  N   UNL     1      -8.504  19.012  67.144  1.00  0.00    -0.275 N  
HETATM    3  C   UNL     1      -7.837  18.744  68.482  1.00  0.00    -0.336 C  
HETATM    4  C   UNL     1      -8.001  20.333  66.584  1.00  0.00    -0.252 C  
ENDROOT
BRANCH   2   5
HETATM    5  C   UNL     1      -8.073  17.862  66.143  1.00  0.00    -0.173 C  
HETATM    6  C   UNL     1      -6.606  17.886  65.636  1.00  0.00    -0.159 C  
HETATM    7  O   UNL     1      -5.789  17.290  66.390  1.00  0.00    -0.193 OA 
HETATM    8  O   UNL     1      -6.425  18.601  64.612  1.00  0.00    -0.437 OA 
ENDBRANCH   2   5
TORSDOF 1
ENDMDL
MODEL      125
REMARK 921   NORMALIZED FREE ENERGY PREDICTED BY IDOCK:   -2.02 KCAL/MOL
REMARK 922        TOTAL FREE ENERGY PREDICTED BY IDOCK:   -1.91 KCAL/MOL
REMARK 923 INTER-LIGAND FREE ENERGY PREDICTED BY IDOCK:   -2.12 KCAL/MOL
REMARK 924 INTRA-LIGAND FREE ENERGY PREDICTED BY IDOCK:    0.21 KCAL/MOL
REMARK 927      BINDING AFFINITY PREDICTED BY RF-SCORE:    0.00 PKD
ROOT
HETATM    1  C   UNL     1     -11.193  13.989  68.716  1.00  0.00    -0.271 C  
HETATM    2  N   UNL     1     -11.107  13.138  67.481  1.00  0.00    -0.262 N  
HETATM    3  C   UNL     1      -9.700  13.143  66.907  1.00  0.00    -0.243 C  
HETATM    4  C   UNL     1     -12.088  13.611  66.420  1.00  0.00    -0.433 C  
ENDROOT
BRANCH   2   5
HETATM    5  C   UNL     1     -11.477  11.645  67.857  1.00  0.00    -0.311 C  
HETATM    6  C   UNL     1     -10.363  10.578  67.676  1.00  0.00    -0.217 C  
HETATM    7  O   UNL     1      -9.601  10.452  68.673  1.00  0.00    -0.152 OA 
HETATM    8  O   UNL     1     -10.305  10.085  66.516  1.00  0.00    -0.232 OA 
ENDBRANCH   2   5
TORSDOF 1
ENDMDL
MODEL      126
REMARK 921   NORMALIZED FREE ENERGY PREDICTED BY IDOCK:   -2.01 KCAL/MOL
REMARK 922        TOTAL FREE ENERGY PREDICTED BY IDOCK:   -1.90 KCAL/MOL
REMARK 923 INTER-LIGAND FREE ENERGY PREDICTED BY IDOCK:   -2.17 KCAL/MOL
REMARK 924 INTRA-LIGAND FREE ENERGY PREDICTED BY IDOCK:    0.26 KCAL/MOL
REMARK 927      BINDING AFFINITY PREDICTED BY RF-SCORE:    0.00 PKD
ROOT
HETATM    1  C   UNL     1      -9.780   4.468  70.574  1.00  0.00    -0.220 C  
HETATM    2  N   UNL     1     -10.233   5.900  70.552  1.00  0.00    -0.199 N  
HETATM    3  C   UNL     1     -11.232   6.143  69.434  1.00  0.00    -0.396 C  
HETATM    4  C   UNL     1      -9.055   6.846  70.393  1.00  0.00    -0.156 C  
ENDROOT
BRANCH   2   5
HETATM    5  C   UNL     1     -10.946   6.235  71.927  1.00  0.00    -0.256 C  
HETATM    6  C   UNL     1     -11.557   7.654  72.074  1.00  0.00    -0.291 C  
HETATM    7  O   UNL     1     -12.738   7.755  71.642  1.00  0.00    -0.318 OA 
HETATM    8  O   UNL     1     -10.744   8.526  72.486  1.00  0.00    -0.332 OA 
ENDBRANCH   2   5
TORSDOF 1
ENDMDL
MODEL      127
REMARK 921   NORMALIZED FREE ENERGY PREDICTED BY IDOCK:   -2.01 KCAL/MOL
REMARK 922        TOTAL FREE ENERGY PREDICTED BY IDOCK:   -1.90 KCAL/MOL
REMARK 923 INTER-LIGAND FREE ENERGY PREDICTED BY IDOCK:   -2.09 KCAL/MOL
REMARK 924 INTRA-LIGAND FREE ENERGY PREDICTED BY IDOCK:    0.19 KCAL/MOL
REMARK 927      BINDING AFFINITY PREDICTED BY RF-SCORE:    0.00 PKD
ROOT
HETATM    1  C   UNL     1      -5.176  18.453  68.241  1.00  0.00    -0.168 C  
HETATM    2  N   UNL     1      -6.587  18.112  67.854  1.00  0.00    -0.192 N  
HETATM    3  C   UNL     1      -7.246  17.232  68.902  1.00  0.00    -0.243 C  
HETATM    4  C   UNL     1      -6.632  17.412  66.505  1.00  0.00    -0.247 C  
ENDROOT
BRANCH   2   5
HETATM    5  C   UNL     1      -7.427  19.450  67.739  1.00  0.00    -0.261 C  
HETATM    6  C   UNL     1      -8.484  19.520  66.603  1.00  0.00    -0.327 C  
HETATM    7  O   UNL     1      -9.611  19.050  66.918  1.00  0.00    -0.300 OA 
HETATM    8  O   UNL     1      -8.027  19.920  65.497  1.00  0.00    -0.353 OA 
ENDBRANCH   2   5
TORSDOF 1
ENDMDL
MODEL      128
REMARK 921   NORMALIZED FREE ENERGY PREDICTED BY IDOCK:   -1.97 KCAL/MOL
REMARK 922        TOTAL FREE ENERGY PREDICTED BY IDOCK:   -1.86 KCAL/MOL
REMARK 923 INTER-LIGAND FREE ENERGY PREDICTED BY IDOCK:   -2.02 KCAL/MOL
REMARK 924 INTRA-LIGAND FREE ENERGY PREDICTED BY IDOCK:    0.16 KCAL/MOL
REMARK 927      BINDING AFFINITY PREDICTED BY RF-SCORE:    0.00 PKD
ROOT
HETATM    1  C   UNL     1     -10.119  12.245  66.010  1.00  0.00    -0.248 C  
HETATM    2  N   UNL     1      -9.422  12.476  67.321  1.00  0.00    -0.188 N  
HETATM    3  C   UNL     1      -7.917  12.557  67.136  1.00  0.00    -0.140 C  
HETATM    4  C   UNL     1      -9.752  11.377  68.318  1.00  0.00    -0.202 C  
ENDROOT
BRANCH   2   5
HETATM    5  C   UNL     1      -9.915  13.853  67.930  1.00  0.00    -0.242 C  
HETATM    6  C   UNL     1     -11.330  14.339  67.514  1.00  0.00    -0.326 C  
HETATM    7  O   UNL     1     -12.263  13.890  68.235  1.00  0.00    -0.332 OA 
HETATM    8  O   UNL     1     -11.352  15.007  66.444  1.00  0.00    -0.341 OA 
ENDBRANCH   2   5
TORSDOF 1
ENDMDL
MODEL      129
REMARK 921   NORMALIZED FREE ENERGY PREDICTED BY IDOCK:   -1.97 KCAL/MOL
REMARK 922        TOTAL FREE ENERGY PREDICTED BY IDOCK:   -1.85 KCAL/MOL
REMARK 923 INTER-LIGAND FREE ENERGY PREDICTED BY IDOCK:   -2.05 KCAL/MOL
REMARK 924 INTRA-LIGAND FREE ENERGY PREDICTED BY IDOCK:    0.19 KCAL/MOL
REMARK 927      BINDING AFFINITY PREDICTED BY RF-SCORE:    0.00 PKD
ROOT
HETATM    1  C   UNL     1      -8.456  16.556  68.508  1.00  0.00    -0.226 C  
HETATM    2  N   UNL     1      -8.476  17.913  67.863  1.00  0.00    -0.246 N  
HETATM    3  C   UNL     1      -9.261  18.907  68.701  1.00  0.00    -0.356 C  
HETATM    4  C   UNL     1      -9.070  17.848  66.466  1.00  0.00    -0.261 C  
ENDROOT
BRANCH   2   5
HETATM    5  C   UNL     1      -6.989  18.445  67.737  1.00  0.00    -0.213 C  
HETATM    6  C   UNL     1      -6.216  18.070  66.444  1.00  0.00    -0.201 C  
HETATM    7  O   UNL     1      -6.394  18.872  65.486  1.00  0.00    -0.229 OA 
HETATM    8  O   UNL     1      -5.626  16.957  66.500  1.00  0.00    -0.314 OA 
ENDBRANCH   2   5
TORSDOF 1
ENDMDL
MODEL      130
REMARK 921   NORMALIZED FREE ENERGY PREDICTED BY IDOCK:   -1.97 KCAL/MOL
REMARK 922        TOTAL FREE ENERGY PREDICTED BY IDOCK:   -1.85 KCAL/MOL
REMARK 923 INTER-LIGAND FREE ENERGY PREDICTED BY IDOCK:   -2.06 KCAL/MOL
REMARK 924 INTRA-LIGAND FREE ENERGY PREDICTED BY IDOCK:    0.21 KCAL/MOL
REMARK 927      BINDING AFFINITY PREDICTED BY RF-SCORE:    0.00 PKD
ROOT
HETATM    1  C   UNL     1      -7.630  14.489  67.551  1.00  0.00    -0.190 C  
HETATM    2  N   UNL     1      -8.412  15.600  68.191  1.00  0.00    -0.146 N  
HETATM    3  C   UNL     1      -7.507  16.756  68.579  1.00  0.00    -0.213 C  
HETATM    4  C   UNL     1      -9.159  15.107  69.420  1.00  0.00    -0.180 C  
ENDROOT
BRANCH   2   5
HETATM    5  C   UNL     1      -9.481  16.141  67.155  1.00  0.00    -0.223 C  
HETATM    6  C   UNL     1      -9.458  17.664  66.852  1.00  0.00    -0.276 C  
HETATM    7  O   UNL     1      -8.661  17.995  65.932  1.00  0.00    -0.506 OA 
HETATM    8  O   UNL     1     -10.141  18.359  67.652  1.00  0.00    -0.326 OA 
ENDBRANCH   2   5
TORSDOF 1
ENDMDL
MODEL      131
REMARK 921   NORMALIZED FREE ENERGY PREDICTED BY IDOCK:   -1.96 KCAL/MOL
REMARK 922        TOTAL FREE ENERGY PREDICTED BY IDOCK:   -1.84 KCAL/MOL
REMARK 923 INTER-LIGAND FREE ENERGY PREDICTED BY IDOCK:   -2.00 KCAL/MOL
REMARK 924 INTRA-LIGAND FREE ENERGY PREDICTED BY IDOCK:    0.16 KCAL/MOL
REMARK 927      BINDING AFFINITY PREDICTED BY RF-SCORE:    0.00 PKD
ROOT
HETATM    1  C   UNL     1      -9.867  12.736  67.927  1.00  0.00    -0.223 C  
HETATM    2  N   UNL     1      -9.289  11.396  67.574  1.00  0.00    -0.162 N  
HETATM    3  C   UNL     1      -8.002  11.133  68.337  1.00  0.00    -0.137 C  
HETATM    4  C   UNL     1      -9.023  11.289  66.081  1.00  0.00    -0.202 C  
ENDROOT
BRANCH   2   5
HETATM    5  C   UNL     1     -10.329  10.267  67.966  1.00  0.00    -0.181 C  
HETATM    6  C   UNL     1     -11.318  10.594  69.118  1.00  0.00    -0.273 C  
HETATM    7  O   UNL     1     -12.369  11.183  68.745  1.00  0.00    -0.539 OA 
HETATM    8  O   UNL     1     -10.872  10.336  70.270  1.00  0.00    -0.288 OA 
ENDBRANCH   2   5
TORSDOF 1
ENDMDL
MODEL      132
REMARK 921   NORMALIZED FREE ENERGY PREDICTED BY IDOCK:   -1.95 KCAL/MOL
REMARK 922        TOTAL FREE ENERGY PREDICTED BY IDOCK:   -1.83 KCAL/MOL
REMARK 923 INTER-LIGAND FREE ENERGY PREDICTED BY IDOCK:   -2.02 KCAL/MOL
REMARK 924 INTRA-LIGAND FREE ENERGY PREDICTED BY IDOCK:    0.19 KCAL/MOL
REMARK 927      BINDING AFFINITY PREDICTED BY RF-SCORE:    0.00 PKD
ROOT
HETATM    1  C   UNL     1      -9.437   9.738  68.524  1.00  0.00    -0.145 C  
HETATM    2  N   UNL     1      -9.417  10.749  67.413  1.00  0.00    -0.154 N  
HETATM    3  C   UNL     1      -9.919  10.145  66.112  1.00  0.00    -0.246 C  
HETATM    4  C   UNL     1      -8.018  11.307  67.204  1.00  0.00    -0.151 C  
ENDROOT
BRANCH   2   5
HETATM    5  C   UNL     1     -10.372  11.953  67.794  1.00  0.00    -0.198 C  
HETATM    6  C   UNL     1     -11.175  12.607  66.637  1.00  0.00    -0.300 C  
HETATM    7  O   UNL     1     -12.277  12.045  66.392  1.00  0.00    -0.551 OA 
HETATM    8  O   UNL     1     -10.554  13.523  66.032  1.00  0.00    -0.278 OA 
ENDBRANCH   2   5
TORSDOF 1
ENDMDL
MODEL      133
REMARK 921   NORMALIZED FREE ENERGY PREDICTED BY IDOCK:   -1.91 KCAL/MOL
REMARK 922        TOTAL FREE ENERGY PREDICTED BY IDOCK:   -1.79 KCAL/MOL
REMARK 923 INTER-LIGAND FREE ENERGY PREDICTED BY IDOCK:   -1.96 KCAL/MOL
REMARK 924 INTRA-LIGAND FREE ENERGY PREDICTED BY IDOCK:    0.17 KCAL/MOL
REMARK 927      BINDING AFFINITY PREDICTED BY RF-SCORE:    0.00 PKD
ROOT
HETATM    1  C   UNL     1      -9.981   8.729  70.691  1.00  0.00    -0.198 C  
HETATM    2  N   UNL     1      -9.256   7.551  71.274  1.00  0.00    -0.149 N  
HETATM    3  C   UNL     1      -8.791   7.838  72.692  1.00  0.00    -0.159 C  
HETATM    4  C   UNL     1      -8.060   7.164  70.418  1.00  0.00    -0.118 C  
ENDROOT
BRANCH   2   5
HETATM    5  C   UNL     1     -10.242   6.312  71.324  1.00  0.00    -0.200 C  
HETATM    6  C   UNL     1     -11.486   6.367  70.397  1.00  0.00    -0.393 C  
HETATM    7  O   UNL     1     -11.281   5.930  69.231  1.00  0.00    -0.363 OA 
HETATM    8  O   UNL     1     -12.481   6.955  70.903  1.00  0.00    -0.378 OA 
ENDBRANCH   2   5
TORSDOF 1
ENDMDL
MODEL      134
REMARK 921   NORMALIZED FREE ENERGY PREDICTED BY IDOCK:   -1.88 KCAL/MOL
REMARK 922        TOTAL FREE ENERGY PREDICTED BY IDOCK:   -1.76 KCAL/MOL
REMARK 923 INTER-LIGAND FREE ENERGY PREDICTED BY IDOCK:   -1.94 KCAL/MOL
REMARK 924 INTRA-LIGAND FREE ENERGY PREDICTED BY IDOCK:    0.17 KCAL/MOL
REMARK 927      BINDING AFFINITY PREDICTED BY RF-SCORE:    0.00 PKD
ROOT
HETATM    1  C   UNL     1      -9.864  15.563  66.050  1.00  0.00    -0.335 C  
HETATM    2  N   UNL     1      -9.942  15.052  67.460  1.00  0.00    -0.225 N  
HETATM    3  C   UNL     1      -9.924  13.534  67.496  1.00  0.00    -0.230 C  
HETATM    4  C   UNL     1     -11.193  15.560  68.159  1.00  0.00    -0.343 C  
ENDROOT
BRANCH   2   5
HETATM    5  C   UNL     1      -8.684  15.577  68.267  1.00  0.00    -0.170 C  
HETATM    6  C   UNL     1      -7.363  15.753  67.472  1.00  0.00    -0.178 C  
HETATM    7  O   UNL     1      -7.245  16.876  66.909  1.00  0.00    -0.171 OA 
HETATM    8  O   UNL     1      -6.660  14.708  67.401  1.00  0.00    -0.283 OA 
ENDBRANCH   2   5
TORSDOF 1
ENDMDL
MODEL      135
REMARK 921   NORMALIZED FREE ENERGY PREDICTED BY IDOCK:   -1.85 KCAL/MOL
REMARK 922        TOTAL FREE ENERGY PREDICTED BY IDOCK:   -1.73 KCAL/MOL
REMARK 923 INTER-LIGAND FREE ENERGY PREDICTED BY IDOCK:   -1.92 KCAL/MOL
REMARK 924 INTRA-LIGAND FREE ENERGY PREDICTED BY IDOCK:    0.19 KCAL/MOL
REMARK 927      BINDING AFFINITY PREDICTED BY RF-SCORE:    0.00 PKD
ROOT
HETATM    1  C   UNL     1     -11.638  12.278  66.343  1.00  0.00    -0.383 C  
HETATM    2  N   UNL     1     -10.494  11.443  66.843  1.00  0.00    -0.230 N  
HETATM    3  C   UNL     1     -10.822  10.808  68.184  1.00  0.00    -0.236 C  
HETATM    4  C   UNL     1      -9.226  12.271  66.972  1.00  0.00    -0.205 C  
ENDROOT
BRANCH   2   5
HETATM    5  C   UNL     1     -10.214  10.279  65.806  1.00  0.00    -0.219 C  
HETATM    6  C   UNL     1      -9.753   8.916  66.388  1.00  0.00    -0.262 C  
HETATM    7  O   UNL     1     -10.698   8.150  66.721  1.00  0.00    -0.278 OA 
HETATM    8  O   UNL     1      -8.506   8.823  66.559  1.00  0.00    -0.111 OA 
ENDBRANCH   2   5
TORSDOF 1
ENDMDL
MODEL      136
REMARK 921   NORMALIZED FREE ENERGY PREDICTED BY IDOCK:   -1.84 KCAL/MOL
REMARK 922        TOTAL FREE ENERGY PREDICTED BY IDOCK:   -1.72 KCAL/MOL
REMARK 923 INTER-LIGAND FREE ENERGY PREDICTED BY IDOCK:   -1.98 KCAL/MOL
REMARK 924 INTRA-LIGAND FREE ENERGY PREDICTED BY IDOCK:    0.25 KCAL/MOL
REMARK 927      BINDING AFFINITY PREDICTED BY RF-SCORE:    0.00 PKD
ROOT
HETATM    1  C   UNL     1     -12.988   7.090  71.491  1.00  0.00    -0.359 C  
HETATM    2  N   UNL     1     -11.540   6.754  71.271  1.00  0.00    -0.301 N  
HETATM    3  C   UNL     1     -10.639   7.894  71.714  1.00  0.00    -0.226 C  
HETATM    4  C   UNL     1     -11.267   6.431  69.811  1.00  0.00    -0.419 C  
ENDROOT
BRANCH   2   5
HETATM    5  C   UNL     1     -11.171   5.477  72.132  1.00  0.00    -0.183 C  
HETATM    6  C   UNL     1      -9.799   4.810  71.847  1.00  0.00    -0.176 C  
HETATM    7  O   UNL     1      -8.839   5.305  72.498  1.00  0.00    -0.126 OA 
HETATM    8  O   UNL     1      -9.823   3.958  70.916  1.00  0.00    -0.186 OA 
ENDBRANCH   2   5
TORSDOF 1
ENDMDL
MODEL      137
REMARK 921   NORMALIZED FREE ENERGY PREDICTED BY IDOCK:   -1.82 KCAL/MOL
REMARK 922        TOTAL FREE ENERGY PREDICTED BY IDOCK:   -1.70 KCAL/MOL
REMARK 923 INTER-LIGAND FREE ENERGY PREDICTED BY IDOCK:   -1.97 KCAL/MOL
REMARK 924 INTRA-LIGAND FREE ENERGY PREDICTED BY IDOCK:    0.27 KCAL/MOL
REMARK 927      BINDING AFFINITY PREDICTED BY RF-SCORE:    0.00 PKD
ROOT
HETATM    1  C   UNL     1      -8.490   8.765  71.225  1.00  0.00    -0.186 C  
HETATM    2  N   UNL     1      -9.697   7.936  70.888  1.00  0.00    -0.164 N  
HETATM    3  C   UNL     1      -9.319   6.482  70.664  1.00  0.00    -0.162 C  
HETATM    4  C   UNL     1     -10.404   8.471  69.654  1.00  0.00    -0.218 C  
ENDROOT
BRANCH   2   5
HETATM    5  C   UNL     1     -10.716   7.995  72.099  1.00  0.00    -0.276 C  
HETATM    6  C   UNL     1     -12.043   7.204  71.940  1.00  0.00    -0.321 C  
HETATM    7  O   UNL     1     -11.968   5.995  72.295  1.00  0.00    -0.318 OA 
HETATM    8  O   UNL     1     -12.962   7.848  71.365  1.00  0.00    -0.322 OA 
ENDBRANCH   2   5
TORSDOF 1
ENDMDL
MODEL      138
REMARK 921   NORMALIZED FREE ENERGY PREDICTED BY IDOCK:   -1.80 KCAL/MOL
REMARK 922        TOTAL FREE ENERGY PREDICTED BY IDOCK:   -1.68 KCAL/MOL
REMARK 923 INTER-LIGAND FREE ENERGY PREDICTED BY IDOCK:   -1.90 KCAL/MOL
REMARK 924 INTRA-LIGAND FREE ENERGY PREDICTED BY IDOCK:    0.22 KCAL/MOL
REMARK 927      BINDING AFFINITY PREDICTED BY RF-SCORE:    0.00 PKD
ROOT
HETATM    1  C   UNL     1      -8.804   9.668  68.340  1.00  0.00    -0.123 C  
HETATM    2  N   UNL     1     -10.137   9.494  69.010  1.00  0.00    -0.186 N  
HETATM    3  C   UNL     1     -10.653   8.074  68.847  1.00  0.00    -0.140 C  
HETATM    4  C   UNL     1     -11.161  10.471  68.457  1.00  0.00    -0.274 C  
ENDROOT
BRANCH   2   5
HETATM    5  C   UNL     1      -9.975   9.780  70.559  1.00  0.00    -0.193 C  
HETATM    6  C   UNL     1     -11.053   9.179  71.501  1.00  0.00    -0.365 C  
HETATM    7  O   UNL     1     -10.810   7.999  71.876  1.00  0.00    -0.232 OA 
HETATM    8  O   UNL     1     -12.071   9.908  71.653  1.00  0.00    -0.389 OA 
ENDBRANCH   2   5
TORSDOF 1
ENDMDL
MODEL      139
REMARK 921   NORMALIZED FREE ENERGY PREDICTED BY IDOCK:   -1.80 KCAL/MOL
REMARK 922        TOTAL FREE ENERGY PREDICTED BY IDOCK:   -1.67 KCAL/MOL
REMARK 923 INTER-LIGAND FREE ENERGY PREDICTED BY IDOCK:   -1.87 KCAL/MOL
REMARK 924 INTRA-LIGAND FREE ENERGY PREDICTED BY IDOCK:    0.20 KCAL/MOL
REMARK 927      BINDING AFFINITY PREDICTED BY RF-SCORE:    0.00 PKD
ROOT
HETATM    1  C   UNL     1     -11.208   6.504  71.908  1.00  0.00    -0.272 C  
HETATM    2  N   UNL     1     -10.342   7.268  70.947  1.00  0.00    -0.201 N  
HETATM    3  C   UNL     1     -10.905   7.212  69.537  1.00  0.00    -0.225 C  
HETATM    4  C   UNL     1      -8.919   6.733  70.946  1.00  0.00    -0.150 C  
ENDROOT
BRANCH   2   5
HETATM    5  C   UNL     1     -10.293   8.787  71.394  1.00  0.00    -0.278 C  
HETATM    6  C   UNL     1     -10.363   9.853  70.268  1.00  0.00    -0.281 C  
HETATM    7  O   UNL     1     -11.537  10.175  69.934  1.00  0.00    -0.253 OA 
HETATM    8  O   UNL     1      -9.244  10.148  69.766  1.00  0.00    -0.208 OA 
ENDBRANCH   2   5
TORSDOF 1
ENDMDL
MODEL      140
REMARK 921   NORMALIZED FREE ENERGY PREDICTED BY IDOCK:   -1.79 KCAL/MOL
REMARK 922        TOTAL FREE ENERGY PREDICTED BY IDOCK:   -1.67 KCAL/MOL
REMARK 923 INTER-LIGAND FREE ENERGY PREDICTED BY IDOCK:   -1.86 KCAL/MOL
REMARK 924 INTRA-LIGAND FREE ENERGY PREDICTED BY IDOCK:    0.19 KCAL/MOL
REMARK 927      BINDING AFFINITY PREDICTED BY RF-SCORE:    0.00 PKD
ROOT
HETATM    1  C   UNL     1     -10.854   7.162  67.182  1.00  0.00    -0.333 C  
HETATM    2  N   UNL     1      -9.693   7.878  67.809  1.00  0.00    -0.150 N  
HETATM    3  C   UNL     1      -9.836   9.384  67.672  1.00  0.00    -0.174 C  
HETATM    4  C   UNL     1      -8.377   7.436  67.190  1.00  0.00    -0.118 C  
ENDROOT
BRANCH   2   5
HETATM    5  C   UNL     1      -9.647   7.530  69.354  1.00  0.00    -0.155 C  
HETATM    6  C   UNL     1     -11.009   7.413  70.089  1.00  0.00    -0.255 C  
HETATM    7  O   UNL     1     -11.532   6.267  70.029  1.00  0.00    -0.412 OA 
HETATM    8  O   UNL     1     -11.454   8.509  70.529  1.00  0.00    -0.260 OA 
ENDBRANCH   2   5
TORSDOF 1
ENDMDL
MODEL      141
REMARK 921   NORMALIZED FREE ENERGY PREDICTED BY IDOCK:   -1.79 KCAL/MOL
REMARK 922        TOTAL FREE ENERGY PREDICTED BY IDOCK:   -1.67 KCAL/MOL
REMARK 923 INTER-LIGAND FREE ENERGY PREDICTED BY IDOCK:   -1.88 KCAL/MOL
REMARK 924 INTRA-LIGAND FREE ENERGY PREDICTED BY IDOCK:    0.21 KCAL/MOL
REMARK 927      BINDING AFFINITY PREDICTED BY RF-SCORE:    0.00 PKD
ROOT
HETATM    1  C   UNL     1      -9.793  10.023  69.189  1.00  0.00    -0.205 C  
HETATM    2  N   UNL     1      -9.873   8.881  70.161  1.00  0.00    -0.171 N  
HETATM    3  C   UNL     1     -11.257   8.782  70.780  1.00  0.00    -0.266 C  
HETATM    4  C   UNL     1      -8.835   9.024  71.262  1.00  0.00    -0.189 C  
ENDROOT
BRANCH   2   5
HETATM    5  C   UNL     1      -9.584   7.527  69.390  1.00  0.00    -0.155 C  
HETATM    6  C   UNL     1     -10.766   6.904  68.599  1.00  0.00    -0.216 C  
HETATM    7  O   UNL     1     -10.886   7.340  67.422  1.00  0.00    -0.274 OA 
HETATM    8  O   UNL     1     -11.505   6.148  69.287  1.00  0.00    -0.404 OA 
ENDBRANCH   2   5
TORSDOF 1
ENDMDL
MODEL      142
REMARK 921   NORMALIZED FREE ENERGY PREDICTED BY IDOCK:   -1.76 KCAL/MOL
REMARK 922        TOTAL FREE ENERGY PREDICTED BY IDOCK:   -1.63 KCAL/MOL
REMARK 923 INTER-LIGAND FREE ENERGY PREDICTED BY IDOCK:   -1.80 KCAL/MOL
REMARK 924 INTRA-LIGAND FREE ENERGY PREDICTED BY IDOCK:    0.17 KCAL/MOL
REMARK 927      BINDING AFFINITY PREDICTED BY RF-SCORE:    0.00 PKD
ROOT
HETATM    1  C   UNL     1     -10.673   6.952  70.017  1.00  0.00    -0.243 C  
HETATM    2  N   UNL     1     -10.201   8.336  69.675  1.00  0.00    -0.204 N  
HETATM    3  C   UNL     1      -8.745   8.532  70.063  1.00  0.00    -0.136 C  
HETATM    4  C   UNL     1     -11.054   9.391  70.360  1.00  0.00    -0.261 C  
ENDROOT
BRANCH   2   5
HETATM    5  C   UNL     1     -10.323   8.550  68.110  1.00  0.00    -0.206 C  
HETATM    6  C   UNL     1     -10.154   7.293  67.214  1.00  0.00    -0.225 C  
HETATM    7  O   UNL     1     -11.220   6.644  67.029  1.00  0.00    -0.404 OA 
HETATM    8  O   UNL     1      -8.958   7.036  66.908  1.00  0.00    -0.119 OA 
ENDBRANCH   2   5
TORSDOF 1
ENDMDL
MODEL      143
REMARK 921   NORMALIZED FREE ENERGY PREDICTED BY IDOCK:   -1.76 KCAL/MOL
REMARK 922        TOTAL FREE ENERGY PREDICTED BY IDOCK:   -1.63 KCAL/MOL
REMARK 923 INTER-LIGAND FREE ENERGY PREDICTED BY IDOCK:   -1.82 KCAL/MOL
REMARK 924 INTRA-LIGAND FREE ENERGY PREDICTED BY IDOCK:    0.19 KCAL/MOL
REMARK 927      BINDING AFFINITY PREDICTED BY RF-SCORE:    0.00 PKD
ROOT
HETATM    1  C   UNL     1     -11.513   9.171  71.593  1.00  0.00    -0.381 C  
HETATM    2  N   UNL     1     -10.960   7.921  70.971  1.00  0.00    -0.240 N  
HETATM    3  C   UNL     1     -12.005   6.820  70.927  1.00  0.00    -0.383 C  
HETATM    4  C   UNL     1      -9.736   7.427  71.725  1.00  0.00    -0.153 C  
ENDROOT
BRANCH   2   5
HETATM    5  C   UNL     1     -10.520   8.238  69.482  1.00  0.00    -0.227 C  
HETATM    6  C   UNL     1      -9.042   8.656  69.260  1.00  0.00    -0.149 C  
HETATM    7  O   UNL     1      -8.250   7.687  69.098  1.00  0.00    -0.126 OA 
HETATM    8  O   UNL     1      -8.828   9.892  69.399  1.00  0.00    -0.160 OA 
ENDBRANCH   2   5
TORSDOF 1
ENDMDL
MODEL      144
REMARK 921   NORMALIZED FREE ENERGY PREDICTED BY IDOCK:   -1.75 KCAL/MOL
REMARK 922        TOTAL FREE ENERGY PREDICTED BY IDOCK:   -1.62 KCAL/MOL
REMARK 923 INTER-LIGAND FREE ENERGY PREDICTED BY IDOCK:   -1.82 KCAL/MOL
REMARK 924 INTRA-LIGAND FREE ENERGY PREDICTED BY IDOCK:    0.20 KCAL/MOL
REMARK 927      BINDING AFFINITY PREDICTED BY RF-SCORE:    0.00 PKD
ROOT
HETATM    1  C   UNL     1     -10.373   7.997  72.399  1.00  0.00    -0.289 C  
HETATM    2  N   UNL     1      -9.431   7.149  73.204  1.00  0.00    -0.154 N  
HETATM    3  C   UNL     1      -8.444   8.008  73.977  1.00  0.00    -0.252 C  
HETATM    4  C   UNL     1      -8.670   6.179  72.315  1.00  0.00    -0.137 C  
ENDROOT
BRANCH   2   5
HETATM    5  C   UNL     1     -10.266   6.302  74.249  1.00  0.00    -0.335 C  
HETATM    6  C   UNL     1     -10.847   4.950  73.753  1.00  0.00    -0.310 C  
HETATM    7  O   UNL     1     -10.054   3.975  73.866  1.00  0.00    -0.122 OA 
HETATM    8  O   UNL     1     -11.975   5.046  73.197  1.00  0.00    -0.222 OA 
ENDBRANCH   2   5
TORSDOF 1
ENDMDL
MODEL      145
REMARK 921   NORMALIZED FREE ENERGY PREDICTED BY IDOCK:   -1.73 KCAL/MOL
REMARK 922        TOTAL FREE ENERGY PREDICTED BY IDOCK:   -1.61 KCAL/MOL
REMARK 923 INTER-LIGAND FREE ENERGY PREDICTED BY IDOCK:   -1.80 KCAL/MOL
REMARK 924 INTRA-LIGAND FREE ENERGY PREDICTED BY IDOCK:    0.19 KCAL/MOL
REMARK 927      BINDING AFFINITY PREDICTED BY RF-SCORE:    0.00 PKD
ROOT
HETATM    1  C   UNL     1     -11.113  15.828  64.947  1.00  0.00    -0.399 C  
HETATM    2  N   UNL     1     -10.947  14.918  66.129  1.00  0.00    -0.330 N  
HETATM    3  C   UNL     1     -10.352  13.582  65.715  1.00  0.00    -0.292 C  
HETATM    4  C   UNL     1     -12.274  14.684  66.833  1.00  0.00    -0.085 C  
ENDROOT
BRANCH   2   5
HETATM    5  C   UNL     1      -9.958  15.594  67.165  1.00  0.00    -0.240 C  
HETATM    6  C   UNL     1      -8.988  14.652  67.929  1.00  0.00    -0.174 C  
HETATM    7  O   UNL     1      -7.908  14.420  67.320  1.00  0.00    -0.195 OA 
HETATM    8  O   UNL     1      -9.473  14.158  68.983  1.00  0.00    -0.084 OA 
ENDBRANCH   2   5
TORSDOF 1
ENDMDL
MODEL      146
REMARK 921   NORMALIZED FREE ENERGY PREDICTED BY IDOCK:   -1.71 KCAL/MOL
REMARK 922        TOTAL FREE ENERGY PREDICTED BY IDOCK:   -1.58 KCAL/MOL
REMARK 923 INTER-LIGAND FREE ENERGY PREDICTED BY IDOCK:   -1.75 KCAL/MOL
REMARK 924 INTRA-LIGAND FREE ENERGY PREDICTED BY IDOCK:    0.17 KCAL/MOL
REMARK 927      BINDING AFFINITY PREDICTED BY RF-SCORE:    0.00 PKD
ROOT
HETATM    1  C   UNL     1     -11.550  12.211  66.635  1.00  0.00    -0.350 C  
HETATM    2  N   UNL     1     -10.541  12.509  67.708  1.00  0.00    -0.215 N  
HETATM    3  C   UNL     1     -11.197  12.568  69.077  1.00  0.00    -0.268 C  
HETATM    4  C   UNL     1      -9.821  13.819  67.435  1.00  0.00    -0.238 C  
ENDROOT
BRANCH   2   5
HETATM    5  C   UNL     1      -9.459  11.352  67.732  1.00  0.00    -0.165 C  
HETATM    6  C   UNL     1      -9.166  10.636  66.386  1.00  0.00    -0.168 C  
HETATM    7  O   UNL     1      -8.284  11.201  65.682  1.00  0.00    -0.088 OA 
HETATM    8  O   UNL     1      -9.936   9.669  66.138  1.00  0.00    -0.256 OA 
ENDBRANCH   2   5
TORSDOF 1
ENDMDL
MODEL      147
REMARK 921   NORMALIZED FREE ENERGY PREDICTED BY IDOCK:   -1.69 KCAL/MOL
REMARK 922        TOTAL FREE ENERGY PREDICTED BY IDOCK:   -1.56 KCAL/MOL
REMARK 923 INTER-LIGAND FREE ENERGY PREDICTED BY IDOCK:   -1.79 KCAL/MOL
REMARK 924 INTRA-LIGAND FREE ENERGY PREDICTED BY IDOCK:    0.22 KCAL/MOL
REMARK 927      BINDING AFFINITY PREDICTED BY RF-SCORE:    0.00 PKD
ROOT
HETATM    1  C   UNL     1     -11.300  10.339  70.600  1.00  0.00    -0.347 C  
HETATM    2  N   UNL     1     -10.602   9.446  69.614  1.00  0.00    -0.218 N  
HETATM    3  C   UNL     1     -10.885   7.982  69.903  1.00  0.00    -0.217 C  
HETATM    4  C   UNL     1      -9.101   9.684  69.626  1.00  0.00    -0.210 C  
ENDROOT
BRANCH   2   5
HETATM    5  C   UNL     1     -11.137   9.770  68.159  1.00  0.00    -0.110 C  
HETATM    6  C   UNL     1     -10.227   9.360  66.969  1.00  0.00    -0.255 C  
HETATM    7  O   UNL     1     -10.397   8.174  66.574  1.00  0.00    -0.273 OA 
HETATM    8  O   UNL     1      -9.367  10.227  66.655  1.00  0.00    -0.156 OA 
ENDBRANCH   2   5
TORSDOF 1
ENDMDL
MODEL      148
REMARK 921   NORMALIZED FREE ENERGY PREDICTED BY IDOCK:   -1.69 KCAL/MOL
REMARK 922        TOTAL FREE ENERGY PREDICTED BY IDOCK:   -1.56 KCAL/MOL
REMARK 923 INTER-LIGAND FREE ENERGY PREDICTED BY IDOCK:   -1.73 KCAL/MOL
REMARK 924 INTRA-LIGAND FREE ENERGY PREDICTED BY IDOCK:    0.18 KCAL/MOL
REMARK 927      BINDING AFFINITY PREDICTED BY RF-SCORE:    0.00 PKD
ROOT
HETATM    1  C   UNL     1      -8.865   8.932  71.356  1.00  0.00    -0.213 C  
HETATM    2  N   UNL     1     -10.053   9.221  70.484  1.00  0.00    -0.235 N  
HETATM    3  C   UNL     1      -9.694  10.185  69.366  1.00  0.00    -0.229 C  
HETATM    4  C   UNL     1     -11.203   9.795  71.297  1.00  0.00    -0.347 C  
ENDROOT
BRANCH   2   5
HETATM    5  C   UNL     1     -10.549   7.869  69.824  1.00  0.00    -0.242 C  
HETATM    6  C   UNL     1      -9.706   6.597  70.110  1.00  0.00    -0.164 C  
HETATM    7  O   UNL     1     -10.030   5.991  71.168  1.00  0.00    -0.179 OA 
HETATM    8  O   UNL     1      -8.743   6.427  69.314  1.00  0.00    -0.124 OA 
ENDBRANCH   2   5
TORSDOF 1
ENDMDL
MODEL      149
REMARK 921   NORMALIZED FREE ENERGY PREDICTED BY IDOCK:   -1.68 KCAL/MOL
REMARK 922        TOTAL FREE ENERGY PREDICTED BY IDOCK:   -1.55 KCAL/MOL
REMARK 923 INTER-LIGAND FREE ENERGY PREDICTED BY IDOCK:   -1.79 KCAL/MOL
REMARK 924 INTRA-LIGAND FREE ENERGY PREDICTED BY IDOCK:    0.23 KCAL/MOL
REMARK 927      BINDING AFFINITY PREDICTED BY RF-SCORE:    0.00 PKD
ROOT
HETATM    1  C   UNL     1     -10.483  10.850  64.865  1.00  0.00    -0.282 C  
HETATM    2  N   UNL     1      -9.807  10.473  66.152  1.00  0.00    -0.208 N  
HETATM    3  C   UNL     1      -8.296  10.557  66.025  1.00  0.00    -0.158 C  
HETATM    4  C   UNL     1     -10.201   9.071  66.589  1.00  0.00    -0.263 C  
ENDROOT
BRANCH   2   5
HETATM    5  C   UNL     1     -10.259  11.482  67.286  1.00  0.00    -0.202 C  
HETATM    6  C   UNL     1      -9.824  12.964  67.122  1.00  0.00    -0.225 C  
HETATM    7  O   UNL     1     -10.618  13.662  66.433  1.00  0.00    -0.279 OA 
HETATM    8  O   UNL     1      -8.683  13.222  67.594  1.00  0.00    -0.171 OA 
ENDBRANCH   2   5
TORSDOF 1
ENDMDL
MODEL      150
REMARK 921   NORMALIZED FREE ENERGY PREDICTED BY IDOCK:   -1.68 KCAL/MOL
REMARK 922        TOTAL FREE ENERGY PREDICTED BY IDOCK:   -1.55 KCAL/MOL
REMARK 923 INTER-LIGAND FREE ENERGY PREDICTED BY IDOCK:   -1.72 KCAL/MOL
REMARK 924 INTRA-LIGAND FREE ENERGY PREDICTED BY IDOCK:    0.17 KCAL/MOL
REMARK 927      BINDING AFFINITY PREDICTED BY RF-SCORE:    0.00 PKD
ROOT
HETATM    1  C   UNL     1     -10.618   7.973  72.601  1.00  0.00    -0.350 C  
HETATM    2  N   UNL     1     -10.908   6.723  71.820  1.00  0.00    -0.225 N  
HETATM    3  C   UNL     1     -12.022   6.951  70.812  1.00  0.00    -0.373 C  
HETATM    4  C   UNL     1     -11.287   5.575  72.741  1.00  0.00    -0.303 C  
ENDROOT
BRANCH   2   5
HETATM    5  C   UNL     1      -9.606   6.300  71.023  1.00  0.00    -0.175 C  
HETATM    6  C   UNL     1      -8.263   6.924  71.490  1.00  0.00    -0.110 C  
HETATM    7  O   UNL     1      -7.690   6.283  72.413  1.00  0.00    -0.101 OA 
HETATM    8  O   UNL     1      -8.005   8.043  70.968  1.00  0.00    -0.085 OA 
ENDBRANCH   2   5
TORSDOF 1
ENDMDL
MODEL      151
REMARK 921   NORMALIZED FREE ENERGY PREDICTED BY IDOCK:   -1.66 KCAL/MOL
REMARK 922        TOTAL FREE ENERGY PREDICTED BY IDOCK:   -1.53 KCAL/MOL
REMARK 923 INTER-LIGAND FREE ENERGY PREDICTED BY IDOCK:   -1.73 KCAL/MOL
REMARK 924 INTRA-LIGAND FREE ENERGY PREDICTED BY IDOCK:    0.19 KCAL/MOL
REMARK 927      BINDING AFFINITY PREDICTED BY RF-SCORE:    0.00 PKD
ROOT
HETATM    1  C   UNL     1     -10.069   8.287  68.175  1.00  0.00    -0.200 C  
HETATM    2  N   UNL     1      -9.187   8.270  69.391  1.00  0.00    -0.154 N  
HETATM    3  C   UNL     1      -7.888   9.015  69.138  1.00  0.00    -0.093 C  
HETATM    4  C   UNL     1      -8.878   6.847  69.825  1.00  0.00    -0.141 C  
ENDROOT
BRANCH   2   5
HETATM    5  C   UNL     1      -9.940   8.991  70.583  1.00  0.00    -0.233 C  
HETATM    6  C   UNL     1      -9.745   8.392  72.002  1.00  0.00    -0.283 C  
HETATM    7  O   UNL     1      -8.732   8.830  72.613  1.00  0.00    -0.408 OA 
HETATM    8  O   UNL     1     -10.553   7.465  72.286  1.00  0.00    -0.215 OA 
ENDBRANCH   2   5
TORSDOF 1
ENDMDL
MODEL      152
REMARK 921   NORMALIZED FREE ENERGY PREDICTED BY IDOCK:   -1.66 KCAL/MOL
REMARK 922        TOTAL FREE ENERGY PREDICTED BY IDOCK:   -1.53 KCAL/MOL
REMARK 923 INTER-LIGAND FREE ENERGY PREDICTED BY IDOCK:   -1.74 KCAL/MOL
REMARK 924 INTRA-LIGAND FREE ENERGY PREDICTED BY IDOCK:    0.20 KCAL/MOL
REMARK 927      BINDING AFFINITY PREDICTED BY RF-SCORE:    0.00 PKD
ROOT
HETATM    1  C   UNL     1      -6.970  11.482  66.950  1.00  0.00    -0.134 C  
HETATM    2  N   UNL     1      -8.344  11.882  67.404  1.00  0.00    -0.155 N  
HETATM    3  C   UNL     1      -8.422  13.377  67.668  1.00  0.00    -0.187 C  
HETATM    4  C   UNL     1      -8.751  11.126  68.658  1.00  0.00    -0.153 C  
ENDROOT
BRANCH   2   5
HETATM    5  C   UNL     1      -9.386  11.532  66.264  1.00  0.00    -0.213 C  
HETATM    6  C   UNL     1     -10.388  10.382  66.556  1.00  0.00    -0.224 C  
HETATM    7  O   UNL     1     -11.436  10.751  67.153  1.00  0.00    -0.400 OA 
HETATM    8  O   UNL     1      -9.953   9.234  66.268  1.00  0.00    -0.269 OA 
ENDBRANCH   2   5
TORSDOF 1
ENDMDL
MODEL      153
REMARK 921   NORMALIZED FREE ENERGY PREDICTED BY IDOCK:   -1.66 KCAL/MOL
REMARK 922        TOTAL FREE ENERGY PREDICTED BY IDOCK:   -1.52 KCAL/MOL
REMARK 923 INTER-LIGAND FREE ENERGY PREDICTED BY IDOCK:   -1.73 KCAL/MOL
REMARK 924 INTRA-LIGAND FREE ENERGY PREDICTED BY IDOCK:    0.20 KCAL/MOL
REMARK 927      BINDING AFFINITY PREDICTED BY RF-SCORE:    0.00 PKD
ROOT
HETATM    1  C   UNL     1     -11.003   7.066  67.102  1.00  0.00    -0.323 C  
HETATM    2  N   UNL     1     -10.302   7.380  68.392  1.00  0.00    -0.191 N  
HETATM    3  C   UNL     1     -10.459   8.845  68.761  1.00  0.00    -0.200 C  
HETATM    4  C   UNL     1      -8.824   7.034  68.312  1.00  0.00    -0.126 C  
ENDROOT
BRANCH   2   5
HETATM    5  C   UNL     1     -10.945   6.512  69.551  1.00  0.00    -0.340 C  
HETATM    6  C   UNL     1     -10.066   5.383  70.154  1.00  0.00    -0.252 C  
HETATM    7  O   UNL     1      -9.315   5.760  71.095  1.00  0.00    -0.151 OA 
HETATM    8  O   UNL     1     -10.137   4.287  69.534  1.00  0.00    -0.147 OA 
ENDBRANCH   2   5
TORSDOF 1
ENDMDL
MODEL      154
REMARK 921   NORMALIZED FREE ENERGY PREDICTED BY IDOCK:   -1.62 KCAL/MOL
REMARK 922        TOTAL FREE ENERGY PREDICTED BY IDOCK:   -1.49 KCAL/MOL
REMARK 923 INTER-LIGAND FREE ENERGY PREDICTED BY IDOCK:   -1.75 KCAL/MOL
REMARK 924 INTRA-LIGAND FREE ENERGY PREDICTED BY IDOCK:    0.26 KCAL/MOL
REMARK 927      BINDING AFFINITY PREDICTED BY RF-SCORE:    0.00 PKD
ROOT
HETATM    1  C   UNL     1     -11.765   9.769  70.525  1.00  0.00    -0.268 C  
HETATM    2  N   UNL     1     -10.428   9.229  70.107  1.00  0.00    -0.214 N  
HETATM    3  C   UNL     1      -9.699  10.208  69.201  1.00  0.00    -0.215 C  
HETATM    4  C   UNL     1     -10.572   7.893  69.396  1.00  0.00    -0.205 C  
ENDROOT
BRANCH   2   5
HETATM    5  C   UNL     1      -9.538   9.002  71.397  1.00  0.00    -0.285 C  
HETATM    6  C   UNL     1      -8.038   8.674  71.167  1.00  0.00    -0.146 C  
HETATM    7  O   UNL     1      -7.298   9.690  71.055  1.00  0.00    -0.321 OA 
HETATM    8  O   UNL     1      -7.797   7.447  71.001  1.00  0.00    -0.090 OA 
ENDBRANCH   2   5
TORSDOF 1
ENDMDL
MODEL      155
REMARK 921   NORMALIZED FREE ENERGY PREDICTED BY IDOCK:   -1.62 KCAL/MOL
REMARK 922        TOTAL FREE ENERGY PREDICTED BY IDOCK:   -1.49 KCAL/MOL
REMARK 923 INTER-LIGAND FREE ENERGY PREDICTED BY IDOCK:   -1.70 KCAL/MOL
REMARK 924 INTRA-LIGAND FREE ENERGY PREDICTED BY IDOCK:    0.22 KCAL/MOL
REMARK 927      BINDING AFFINITY PREDICTED BY RF-SCORE:    0.00 PKD
ROOT
HETATM    1  C   UNL     1      -9.350   8.428  66.219  1.00  0.00    -0.219 C  
HETATM    2  N   UNL     1      -9.381   8.491  67.719  1.00  0.00    -0.137 N  
HETATM    3  C   UNL     1     -10.652   9.160  68.215  1.00  0.00    -0.174 C  
HETATM    4  C   UNL     1      -8.172   9.234  68.263  1.00  0.00    -0.115 C  
ENDROOT
BRANCH   2   5
HETATM    5  C   UNL     1      -9.348   7.016  68.297  1.00  0.00    -0.126 C  
HETATM    6  C   UNL     1     -10.683   6.224  68.276  1.00  0.00    -0.288 C  
HETATM    7  O   UNL     1     -10.901   5.605  67.198  1.00  0.00    -0.263 OA 
HETATM    8  O   UNL     1     -11.412   6.414  69.288  1.00  0.00    -0.381 OA 
ENDBRANCH   2   5
TORSDOF 1
ENDMDL
MODEL      156
REMARK 921   NORMALIZED FREE ENERGY PREDICTED BY IDOCK:   -1.61 KCAL/MOL
REMARK 922        TOTAL FREE ENERGY PREDICTED BY IDOCK:   -1.48 KCAL/MOL
REMARK 923 INTER-LIGAND FREE ENERGY PREDICTED BY IDOCK:   -1.68 KCAL/MOL
REMARK 924 INTRA-LIGAND FREE ENERGY PREDICTED BY IDOCK:    0.20 KCAL/MOL
REMARK 927      BINDING AFFINITY PREDICTED BY RF-SCORE:    0.00 PKD
ROOT
HETATM    1  C   UNL     1     -10.081   8.761  69.059  1.00  0.00    -0.198 C  
HETATM    2  N   UNL     1      -9.659   8.883  67.622  1.00  0.00    -0.144 N  
HETATM    3  C   UNL     1      -9.795   7.556  66.895  1.00  0.00    -0.226 C  
HETATM    4  C   UNL     1      -8.226   9.377  67.511  1.00  0.00    -0.117 C  
ENDROOT
BRANCH   2   5
HETATM    5  C   UNL     1     -10.596   9.936  66.899  1.00  0.00    -0.178 C  
HETATM    6  C   UNL     1      -9.986  10.713  65.701  1.00  0.00    -0.268 C  
HETATM    7  O   UNL     1     -10.096  10.121  64.592  1.00  0.00    -0.321 OA 
HETATM    8  O   UNL     1      -9.362  11.759  66.029  1.00  0.00    -0.226 OA 
ENDBRANCH   2   5
TORSDOF 1
ENDMDL
MODEL      157
REMARK 921   NORMALIZED FREE ENERGY PREDICTED BY IDOCK:   -1.61 KCAL/MOL
REMARK 922        TOTAL FREE ENERGY PREDICTED BY IDOCK:   -1.47 KCAL/MOL
REMARK 923 INTER-LIGAND FREE ENERGY PREDICTED BY IDOCK:   -1.65 KCAL/MOL
REMARK 924 INTRA-LIGAND FREE ENERGY PREDICTED BY IDOCK:    0.17 KCAL/MOL
REMARK 927      BINDING AFFINITY PREDICTED BY RF-SCORE:    0.00 PKD
ROOT
HETATM    1  C   UNL     1      -8.093   9.581  67.222  1.00  0.00    -0.110 C  
HETATM    2  N   UNL     1      -9.338  10.250  66.712  1.00  0.00    -0.157 N  
HETATM    3  C   UNL     1      -9.615   9.869  65.268  1.00  0.00    -0.295 C  
HETATM    4  C   UNL     1      -9.233  11.762  66.825  1.00  0.00    -0.194 C  
ENDROOT
BRANCH   2   5
HETATM    5  C   UNL     1     -10.571   9.779  67.588  1.00  0.00    -0.276 C  
HETATM    6  C   UNL     1     -10.249   9.027  68.907  1.00  0.00    -0.208 C  
HETATM    7  O   UNL     1     -10.062   9.783  69.900  1.00  0.00    -0.220 OA 
HETATM    8  O   UNL     1     -10.098   7.782  68.768  1.00  0.00    -0.185 OA 
ENDBRANCH   2   5
TORSDOF 1
ENDMDL
MODEL      158
REMARK 921   NORMALIZED FREE ENERGY PREDICTED BY IDOCK:   -1.60 KCAL/MOL
REMARK 922        TOTAL FREE ENERGY PREDICTED BY IDOCK:   -1.47 KCAL/MOL
REMARK 923 INTER-LIGAND FREE ENERGY PREDICTED BY IDOCK:   -1.64 KCAL/MOL
REMARK 924 INTRA-LIGAND FREE ENERGY PREDICTED BY IDOCK:    0.17 KCAL/MOL
REMARK 927      BINDING AFFINITY PREDICTED BY RF-SCORE:    0.00 PKD
ROOT
HETATM    1  C   UNL     1      -9.515   6.438  70.469  1.00  0.00    -0.162 C  
HETATM    2  N   UNL     1      -9.307   7.018  69.100  1.00  0.00    -0.141 N  
HETATM    3  C   UNL     1     -10.552   6.866  68.243  1.00  0.00    -0.215 C  
HETATM    4  C   UNL     1      -8.128   6.362  68.400  1.00  0.00    -0.113 C  
ENDROOT
BRANCH   2   5
HETATM    5  C   UNL     1      -8.994   8.565  69.238  1.00  0.00    -0.146 C  
HETATM    6  C   UNL     1      -9.256   9.213  70.624  1.00  0.00    -0.258 C  
HETATM    7  O   UNL     1      -8.286   9.128  71.426  1.00  0.00    -0.316 OA 
HETATM    8  O   UNL     1     -10.439   9.618  70.788  1.00  0.00    -0.290 OA 
ENDBRANCH   2   5
TORSDOF 1
ENDMDL
MODEL      159
REMARK 921   NORMALIZED FREE ENERGY PREDICTED BY IDOCK:   -1.59 KCAL/MOL
REMARK 922        TOTAL FREE ENERGY PREDICTED BY IDOCK:   -1.46 KCAL/MOL
REMARK 923 INTER-LIGAND FREE ENERGY PREDICTED BY IDOCK:   -1.62 KCAL/MOL
REMARK 924 INTRA-LIGAND FREE ENERGY PREDICTED BY IDOCK:    0.16 KCAL/MOL
REMARK 927      BINDING AFFINITY PREDICTED BY RF-SCORE:    0.00 PKD
ROOT
HETATM    1  C   UNL     1      -8.124   5.748  68.573  1.00  0.00    -0.108 C  
HETATM    2  N   UNL     1      -8.423   7.202  68.803  1.00  0.00    -0.125 N  
HETATM    3  C   UNL     1      -7.478   8.089  68.011  1.00  0.00    -0.097 C  
HETATM    4  C   UNL     1      -8.329   7.554  70.279  1.00  0.00    -0.133 C  
ENDROOT
BRANCH   2   5
HETATM    5  C   UNL     1      -9.901   7.506  68.321  1.00  0.00    -0.163 C  
HETATM    6  C   UNL     1     -10.898   6.316  68.321  1.00  0.00    -0.319 C  
HETATM    7  O   UNL     1     -11.486   6.134  69.422  1.00  0.00    -0.423 OA 
HETATM    8  O   UNL     1     -10.883   5.630  67.262  1.00  0.00    -0.250 OA 
ENDBRANCH   2   5
TORSDOF 1
ENDMDL
MODEL      160
REMARK 921   NORMALIZED FREE ENERGY PREDICTED BY IDOCK:   -1.58 KCAL/MOL
REMARK 922        TOTAL FREE ENERGY PREDICTED BY IDOCK:   -1.45 KCAL/MOL
REMARK 923 INTER-LIGAND FREE ENERGY PREDICTED BY IDOCK:   -1.64 KCAL/MOL
REMARK 924 INTRA-LIGAND FREE ENERGY PREDICTED BY IDOCK:    0.19 KCAL/MOL
REMARK 927      BINDING AFFINITY PREDICTED BY RF-SCORE:    0.00 PKD
ROOT
HETATM    1  C   UNL     1      -7.541   9.817  70.222  1.00  0.00    -0.172 C  
HETATM    2  N   UNL     1      -8.526   8.693  70.376  1.00  0.00    -0.129 N  
HETATM    3  C   UNL     1      -8.444   8.077  71.762  1.00  0.00    -0.129 C  
HETATM    4  C   UNL     1      -8.297   7.616  69.329  1.00  0.00    -0.134 C  
ENDROOT
BRANCH   2   5
HETATM    5  C   UNL     1      -9.991   9.262  70.179  1.00  0.00    -0.215 C  
HETATM    6  C   UNL     1     -11.124   8.581  70.993  1.00  0.00    -0.260 C  
HETATM    7  O   UNL     1     -11.287   9.057  72.150  1.00  0.00    -0.357 OA 
HETATM    8  O   UNL     1     -11.630   7.573  70.428  1.00  0.00    -0.246 OA 
ENDBRANCH   2   5
TORSDOF 1
ENDMDL
MODEL      161
REMARK 921   NORMALIZED FREE ENERGY PREDICTED BY IDOCK:   -1.57 KCAL/MOL
REMARK 922        TOTAL FREE ENERGY PREDICTED BY IDOCK:   -1.43 KCAL/MOL
REMARK 923 INTER-LIGAND FREE ENERGY PREDICTED BY IDOCK:   -1.64 KCAL/MOL
REMARK 924 INTRA-LIGAND FREE ENERGY PREDICTED BY IDOCK:    0.21 KCAL/MOL
REMARK 927      BINDING AFFINITY PREDICTED BY RF-SCORE:    0.00 PKD
ROOT
HETATM    1  C   UNL     1     -10.841   8.557  72.091  1.00  0.00    -0.357 C  
HETATM    2  N   UNL     1      -9.640   8.016  71.369  1.00  0.00    -0.150 N  
HETATM    3  C   UNL     1      -8.357   8.347  72.112  1.00  0.00    -0.164 C  
HETATM    4  C   UNL     1      -9.560   8.563  69.953  1.00  0.00    -0.171 C  
ENDROOT
BRANCH   2   5
HETATM    5  C   UNL     1      -9.761   6.440  71.277  1.00  0.00    -0.174 C  
HETATM    6  C   UNL     1      -9.835   5.822  69.855  1.00  0.00    -0.179 C  
HETATM    7  O   UNL     1      -8.710   5.587  69.334  1.00  0.00    -0.106 OA 
HETATM    8  O   UNL     1     -11.001   5.762  69.379  1.00  0.00    -0.342 OA 
ENDBRANCH   2   5
TORSDOF 1
ENDMDL
MODEL      162
REMARK 921   NORMALIZED FREE ENERGY PREDICTED BY IDOCK:   -1.56 KCAL/MOL
REMARK 922        TOTAL FREE ENERGY PREDICTED BY IDOCK:   -1.42 KCAL/MOL
REMARK 923 INTER-LIGAND FREE ENERGY PREDICTED BY IDOCK:   -1.68 KCAL/MOL
REMARK 924 INTRA-LIGAND FREE ENERGY PREDICTED BY IDOCK:    0.26 KCAL/MOL
REMARK 927      BINDING AFFINITY PREDICTED BY RF-SCORE:    0.00 PKD
ROOT
HETATM    1  C   UNL     1     -10.673   6.952  70.017  1.00  0.00    -0.243 C  
HETATM    2  N   UNL     1     -10.201   8.336  69.675  1.00  0.00    -0.204 N  
HETATM    3  C   UNL     1      -8.745   8.532  70.063  1.00  0.00    -0.136 C  
HETATM    4  C   UNL     1     -11.054   9.391  70.360  1.00  0.00    -0.261 C  
ENDROOT
BRANCH   2   5
HETATM    5  C   UNL     1     -10.323   8.550  68.110  1.00  0.00    -0.206 C  
HETATM    6  C   UNL     1     -10.108   9.993  67.580  1.00  0.00    -0.198 C  
HETATM    7  O   UNL     1      -8.903  10.282  67.345  1.00  0.00    -0.131 OA 
HETATM    8  O   UNL     1     -11.150  10.703  67.580  1.00  0.00    -0.299 OA 
ENDBRANCH   2   5
TORSDOF 1
ENDMDL
MODEL      163
REMARK 921   NORMALIZED FREE ENERGY PREDICTED BY IDOCK:   -1.56 KCAL/MOL
REMARK 922        TOTAL FREE ENERGY PREDICTED BY IDOCK:   -1.42 KCAL/MOL
REMARK 923 INTER-LIGAND FREE ENERGY PREDICTED BY IDOCK:   -1.62 KCAL/MOL
REMARK 924 INTRA-LIGAND FREE ENERGY PREDICTED BY IDOCK:    0.20 KCAL/MOL
REMARK 927      BINDING AFFINITY PREDICTED BY RF-SCORE:    0.00 PKD
ROOT
HETATM    1  C   UNL     1      -9.710   7.690  71.500  1.00  0.00    -0.165 C  
HETATM    2  N   UNL     1     -10.131   6.367  70.928  1.00  0.00    -0.185 N  
HETATM    3  C   UNL     1      -8.986   5.701  70.183  1.00  0.00    -0.138 C  
HETATM    4  C   UNL     1     -11.319   6.525  69.994  1.00  0.00    -0.410 C  
ENDROOT
BRANCH   2   5
HETATM    5  C   UNL     1     -10.565   5.409  72.113  1.00  0.00    -0.227 C  
HETATM    6  C   UNL     1      -9.685   5.430  73.392  1.00  0.00    -0.150 C  
HETATM    7  O   UNL     1     -10.010   6.317  74.228  1.00  0.00    -0.242 OA 
HETATM    8  O   UNL     1      -8.700   4.643  73.353  1.00  0.00    -0.101 OA 
ENDBRANCH   2   5
TORSDOF 1
ENDMDL
MODEL      164
REMARK 921   NORMALIZED FREE ENERGY PREDICTED BY IDOCK:   -1.56 KCAL/MOL
REMARK 922        TOTAL FREE ENERGY PREDICTED BY IDOCK:   -1.42 KCAL/MOL
REMARK 923 INTER-LIGAND FREE ENERGY PREDICTED BY IDOCK:   -1.58 KCAL/MOL
REMARK 924 INTRA-LIGAND FREE ENERGY PREDICTED BY IDOCK:    0.16 KCAL/MOL
REMARK 927      BINDING AFFINITY PREDICTED BY RF-SCORE:    0.00 PKD
ROOT
HETATM    1  C   UNL     1      -9.427   8.767  66.179  1.00  0.00    -0.247 C  
HETATM    2  N   UNL     1      -9.576   9.307  67.572  1.00  0.00    -0.145 N  
HETATM    3  C   UNL     1     -10.367  10.604  67.577  1.00  0.00    -0.214 C  
HETATM    4  C   UNL     1      -8.221   9.538  68.220  1.00  0.00    -0.113 C  
ENDROOT
BRANCH   2   5
HETATM    5  C   UNL     1     -10.364   8.250  68.452  1.00  0.00    -0.199 C  
HETATM    6  C   UNL     1     -10.276   6.764  68.011  1.00  0.00    -0.171 C  
HETATM    7  O   UNL     1      -9.281   6.145  68.479  1.00  0.00    -0.117 OA 
HETATM    8  O   UNL     1     -11.137   6.428  67.153  1.00  0.00    -0.377 OA 
ENDBRANCH   2   5
TORSDOF 1
ENDMDL
MODEL      165
REMARK 921   NORMALIZED FREE ENERGY PREDICTED BY IDOCK:   -1.56 KCAL/MOL
REMARK 922        TOTAL FREE ENERGY PREDICTED BY IDOCK:   -1.42 KCAL/MOL
REMARK 923 INTER-LIGAND FREE ENERGY PREDICTED BY IDOCK:   -1.59 KCAL/MOL
REMARK 924 INTRA-LIGAND FREE ENERGY PREDICTED BY IDOCK:    0.17 KCAL/MOL
REMARK 927      BINDING AFFINITY PREDICTED BY RF-SCORE:    0.00 PKD
ROOT
HETATM    1  C   UNL     1     -10.082   6.846  70.677  1.00  0.00    -0.194 C  
HETATM    2  N   UNL     1      -9.044   7.875  71.025  1.00  0.00    -0.142 N  
HETATM    3  C   UNL     1      -9.412   9.238  70.463  1.00  0.00    -0.264 C  
HETATM    4  C   UNL     1      -7.674   7.468  70.509  1.00  0.00    -0.094 C  
ENDROOT
BRANCH   2   5
HETATM    5  C   UNL     1      -8.954   8.004  72.601  1.00  0.00    -0.218 C  
HETATM    6  C   UNL     1      -9.677   6.913  73.437  1.00  0.00    -0.200 C  
HETATM    7  O   UNL     1      -8.978   5.886  73.660  1.00  0.00    -0.128 OA 
HETATM    8  O   UNL     1     -10.893   7.158  73.664  1.00  0.00    -0.352 OA 
ENDBRANCH   2   5
TORSDOF 1
ENDMDL
MODEL      166
REMARK 921   NORMALIZED FREE ENERGY PREDICTED BY IDOCK:   -1.54 KCAL/MOL
REMARK 922        TOTAL FREE ENERGY PREDICTED BY IDOCK:   -1.40 KCAL/MOL
REMARK 923 INTER-LIGAND FREE ENERGY PREDICTED BY IDOCK:   -1.60 KCAL/MOL
REMARK 924 INTRA-LIGAND FREE ENERGY PREDICTED BY IDOCK:    0.20 KCAL/MOL
REMARK 927      BINDING AFFINITY PREDICTED BY RF-SCORE:    0.00 PKD
ROOT
HETATM    1  C   UNL     1     -10.379  10.828  64.687  1.00  0.00    -0.324 C  
HETATM    2  N   UNL     1     -10.188  10.604  66.160  1.00  0.00    -0.247 N  
HETATM    3  C   UNL     1     -11.161  11.439  66.974  1.00  0.00    -0.303 C  
HETATM    4  C   UNL     1      -8.765  10.928  66.584  1.00  0.00    -0.155 C  
ENDROOT
BRANCH   2   5
HETATM    5  C   UNL     1     -10.459   9.078  66.488  1.00  0.00    -0.122 C  
HETATM    6  C   UNL     1      -9.217   8.178  66.724  1.00  0.00    -0.164 C  
HETATM    7  O   UNL     1      -8.800   8.175  67.915  1.00  0.00    -0.130 OA 
HETATM    8  O   UNL     1      -8.730   7.682  65.671  1.00  0.00    -0.151 OA 
ENDBRANCH   2   5
TORSDOF 1
ENDMDL
MODEL      167
REMARK 921   NORMALIZED FREE ENERGY PREDICTED BY IDOCK:   -1.53 KCAL/MOL
REMARK 922        TOTAL FREE ENERGY PREDICTED BY IDOCK:   -1.40 KCAL/MOL
REMARK 923 INTER-LIGAND FREE ENERGY PREDICTED BY IDOCK:   -1.56 KCAL/MOL
REMARK 924 INTRA-LIGAND FREE ENERGY PREDICTED BY IDOCK:    0.17 KCAL/MOL
REMARK 927      BINDING AFFINITY PREDICTED BY RF-SCORE:    0.00 PKD
ROOT
HETATM    1  C   UNL     1      -9.984   9.395  66.185  1.00  0.00    -0.281 C  
HETATM    2  N   UNL     1      -9.988  10.715  66.902  1.00  0.00    -0.195 N  
HETATM    3  C   UNL     1     -11.167  11.571  66.471  1.00  0.00    -0.259 C  
HETATM    4  C   UNL     1      -8.694  11.476  66.659  1.00  0.00    -0.182 C  
ENDROOT
BRANCH   2   5
HETATM    5  C   UNL     1     -10.116  10.455  68.459  1.00  0.00    -0.171 C  
HETATM    6  C   UNL     1      -9.795   9.021  68.960  1.00  0.00    -0.175 C  
HETATM    7  O   UNL     1      -8.574   8.822  69.208  1.00  0.00    -0.127 OA 
HETATM    8  O   UNL     1     -10.777   8.230  68.926  1.00  0.00    -0.175 OA 
ENDBRANCH   2   5
TORSDOF 1
ENDMDL
MODEL      168
REMARK 921   NORMALIZED FREE ENERGY PREDICTED BY IDOCK:   -1.52 KCAL/MOL
REMARK 922        TOTAL FREE ENERGY PREDICTED BY IDOCK:   -1.38 KCAL/MOL
REMARK 923 INTER-LIGAND FREE ENERGY PREDICTED BY IDOCK:   -1.57 KCAL/MOL
REMARK 924 INTRA-LIGAND FREE ENERGY PREDICTED BY IDOCK:    0.19 KCAL/MOL
REMARK 927      BINDING AFFINITY PREDICTED BY RF-SCORE:    0.00 PKD
ROOT
HETATM    1  C   UNL     1     -11.099   7.237  70.227  1.00  0.00    -0.266 C  
HETATM    2  N   UNL     1     -10.260   6.367  69.336  1.00  0.00    -0.182 N  
HETATM    3  C   UNL     1     -10.867   6.255  67.948  1.00  0.00    -0.333 C  
HETATM    4  C   UNL     1     -10.090   4.977  69.927  1.00  0.00    -0.274 C  
ENDROOT
BRANCH   2   5
HETATM    5  C   UNL     1      -8.822   7.015  69.190  1.00  0.00    -0.135 C  
HETATM    6  C   UNL     1      -8.620   8.021  68.024  1.00  0.00    -0.129 C  
HETATM    7  O   UNL     1      -8.931   9.210  68.308  1.00  0.00    -0.129 OA 
HETATM    8  O   UNL     1      -8.295   7.483  66.930  1.00  0.00    -0.120 OA 
ENDBRANCH   2   5
TORSDOF 1
ENDMDL
MODEL      169
REMARK 921   NORMALIZED FREE ENERGY PREDICTED BY IDOCK:   -1.51 KCAL/MOL
REMARK 922        TOTAL FREE ENERGY PREDICTED BY IDOCK:   -1.37 KCAL/MOL
REMARK 923 INTER-LIGAND FREE ENERGY PREDICTED BY IDOCK:   -1.57 KCAL/MOL
REMARK 924 INTRA-LIGAND FREE ENERGY PREDICTED BY IDOCK:    0.20 KCAL/MOL
REMARK 927      BINDING AFFINITY PREDICTED BY RF-SCORE:    0.00 PKD
ROOT
HETATM    1  C   UNL     1     -10.961   6.702  67.087  1.00  0.00    -0.408 C  
HETATM    2  N   UNL     1      -9.951   7.789  67.316  1.00  0.00    -0.189 N  
HETATM    3  C   UNL     1     -10.589   9.164  67.207  1.00  0.00    -0.233 C  
HETATM    4  C   UNL     1      -8.800   7.686  66.329  1.00  0.00    -0.156 C  
ENDROOT
BRANCH   2   5
HETATM    5  C   UNL     1      -9.356   7.641  68.777  1.00  0.00    -0.148 C  
HETATM    6  C   UNL     1      -8.899   8.944  69.485  1.00  0.00    -0.144 C  
HETATM    7  O   UNL     1      -9.818   9.540  70.113  1.00  0.00    -0.212 OA 
HETATM    8  O   UNL     1      -7.712   9.283  69.227  1.00  0.00    -0.077 OA 
ENDBRANCH   2   5
TORSDOF 1
ENDMDL
MODEL      170
REMARK 921   NORMALIZED FREE ENERGY PREDICTED BY IDOCK:   -1.50 KCAL/MOL
REMARK 922        TOTAL FREE ENERGY PREDICTED BY IDOCK:   -1.36 KCAL/MOL
REMARK 923 INTER-LIGAND FREE ENERGY PREDICTED BY IDOCK:   -1.56 KCAL/MOL
REMARK 924 INTRA-LIGAND FREE ENERGY PREDICTED BY IDOCK:    0.20 KCAL/MOL
REMARK 927      BINDING AFFINITY PREDICTED BY RF-SCORE:    0.00 PKD
ROOT
HETATM    1  C   UNL     1      -8.913   5.735  68.531  1.00  0.00    -0.112 C  
HETATM    2  N   UNL     1      -9.765   6.071  69.721  1.00  0.00    -0.155 N  
HETATM    3  C   UNL     1     -11.216   6.276  69.317  1.00  0.00    -0.389 C  
HETATM    4  C   UNL     1      -9.256   7.317  70.427  1.00  0.00    -0.158 C  
ENDROOT
BRANCH   2   5
HETATM    5  C   UNL     1      -9.709   4.869  70.751  1.00  0.00    -0.198 C  
HETATM    6  C   UNL     1      -9.925   5.217  72.249  1.00  0.00    -0.180 C  
HETATM    7  O   UNL     1     -11.135   5.232  72.606  1.00  0.00    -0.251 OA 
HETATM    8  O   UNL     1      -8.872   5.554  72.857  1.00  0.00    -0.119 OA 
ENDBRANCH   2   5
TORSDOF 1
ENDMDL
MODEL      171
REMARK 921   NORMALIZED FREE ENERGY PREDICTED BY IDOCK:   -1.48 KCAL/MOL
REMARK 922        TOTAL FREE ENERGY PREDICTED BY IDOCK:   -1.34 KCAL/MOL
REMARK 923 INTER-LIGAND FREE ENERGY PREDICTED BY IDOCK:   -1.53 KCAL/MOL
REMARK 924 INTRA-LIGAND FREE ENERGY PREDICTED BY IDOCK:    0.19 KCAL/MOL
REMARK 927      BINDING AFFINITY PREDICTED BY RF-SCORE:    0.00 PKD
ROOT
HETATM    1  C   UNL     1     -10.343   6.805  69.357  1.00  0.00    -0.199 C  
HETATM    2  N   UNL     1      -9.740   6.634  67.992  1.00  0.00    -0.123 N  
HETATM    3  C   UNL     1      -9.907   5.209  67.491  1.00  0.00    -0.162 C  
HETATM    4  C   UNL     1      -8.265   6.999  67.994  1.00  0.00    -0.119 C  
ENDROOT
BRANCH   2   5
HETATM    5  C   UNL     1     -10.481   7.599  66.978  1.00  0.00    -0.349 C  
HETATM    6  C   UNL     1      -9.874   9.015  66.785  1.00  0.00    -0.234 C  
HETATM    7  O   UNL     1      -8.972   9.074  65.904  1.00  0.00    -0.164 OA 
HETATM    8  O   UNL     1     -10.280   9.869  67.619  1.00  0.00    -0.182 OA 
ENDBRANCH   2   5
TORSDOF 1
ENDMDL
MODEL      172
REMARK 921   NORMALIZED FREE ENERGY PREDICTED BY IDOCK:   -1.47 KCAL/MOL
REMARK 922        TOTAL FREE ENERGY PREDICTED BY IDOCK:   -1.33 KCAL/MOL
REMARK 923 INTER-LIGAND FREE ENERGY PREDICTED BY IDOCK:   -1.54 KCAL/MOL
REMARK 924 INTRA-LIGAND FREE ENERGY PREDICTED BY IDOCK:    0.21 KCAL/MOL
REMARK 927      BINDING AFFINITY PREDICTED BY RF-SCORE:    0.00 PKD
ROOT
HETATM    1  C   UNL     1      -8.203   8.402  67.618  1.00  0.00    -0.126 C  
HETATM    2  N   UNL     1      -9.386   9.119  68.203  1.00  0.00    -0.138 N  
HETATM    3  C   UNL     1     -10.308   9.638  67.112  1.00  0.00    -0.254 C  
HETATM    4  C   UNL     1      -8.947  10.275  69.086  1.00  0.00    -0.180 C  
ENDROOT
BRANCH   2   5
HETATM    5  C   UNL     1     -10.211   8.106  69.099  1.00  0.00    -0.214 C  
HETATM    6  C   UNL     1     -10.489   8.532  70.566  1.00  0.00    -0.204 C  
HETATM    7  O   UNL     1     -11.529   9.230  70.713  1.00  0.00    -0.268 OA 
HETATM    8  O   UNL     1      -9.571   8.225  71.375  1.00  0.00    -0.156 OA 
ENDBRANCH   2   5
TORSDOF 1
ENDMDL
MODEL      173
REMARK 921   NORMALIZED FREE ENERGY PREDICTED BY IDOCK:   -1.47 KCAL/MOL
REMARK 922        TOTAL FREE ENERGY PREDICTED BY IDOCK:   -1.33 KCAL/MOL
REMARK 923 INTER-LIGAND FREE ENERGY PREDICTED BY IDOCK:   -1.55 KCAL/MOL
REMARK 924 INTRA-LIGAND FREE ENERGY PREDICTED BY IDOCK:    0.22 KCAL/MOL
REMARK 927      BINDING AFFINITY PREDICTED BY RF-SCORE:    0.00 PKD
ROOT
HETATM    1  C   UNL     1      -7.609   6.158  72.596  1.00  0.00    -0.101 C  
HETATM    2  N   UNL     1      -8.887   6.903  72.857  1.00  0.00    -0.126 N  
HETATM    3  C   UNL     1      -8.730   8.384  72.560  1.00  0.00    -0.206 C  
HETATM    4  C   UNL     1      -9.343   6.721  74.296  1.00  0.00    -0.233 C  
ENDROOT
BRANCH   2   5
HETATM    5  C   UNL     1     -10.019   6.330  71.909  1.00  0.00    -0.172 C  
HETATM    6  C   UNL     1     -10.656   4.974  72.315  1.00  0.00    -0.206 C  
HETATM    7  O   UNL     1     -11.626   5.077  73.114  1.00  0.00    -0.328 OA 
HETATM    8  O   UNL     1     -10.034   3.963  71.887  1.00  0.00    -0.174 OA 
ENDBRANCH   2   5
TORSDOF 1
ENDMDL
MODEL      174
REMARK 921   NORMALIZED FREE ENERGY PREDICTED BY IDOCK:   -1.47 KCAL/MOL
REMARK 922        TOTAL FREE ENERGY PREDICTED BY IDOCK:   -1.32 KCAL/MOL
REMARK 923 INTER-LIGAND FREE ENERGY PREDICTED BY IDOCK:   -1.50 KCAL/MOL
REMARK 924 INTRA-LIGAND FREE ENERGY PREDICTED BY IDOCK:    0.18 KCAL/MOL
REMARK 927      BINDING AFFINITY PREDICTED BY RF-SCORE:    0.00 PKD
ROOT
HETATM    1  C   UNL     1      -8.893   5.217  69.837  1.00  0.00    -0.112 C  
HETATM    2  N   UNL     1      -9.335   5.523  68.434  1.00  0.00    -0.109 N  
HETATM    3  C   UNL     1      -9.641   4.249  67.665  1.00  0.00    -0.165 C  
HETATM    4  C   UNL     1      -8.280   6.324  67.688  1.00  0.00    -0.117 C  
ENDROOT
BRANCH   2   5
HETATM    5  C   UNL     1     -10.659   6.391  68.490  1.00  0.00    -0.252 C  
HETATM    6  C   UNL     1     -11.091   6.925  69.882  1.00  0.00    -0.288 C  
HETATM    7  O   UNL     1     -10.566   8.029  70.197  1.00  0.00    -0.228 OA 
HETATM    8  O   UNL     1     -11.801   6.122  70.545  1.00  0.00    -0.227 OA 
ENDBRANCH   2   5
TORSDOF 1
ENDMDL
MODEL      175
REMARK 921   NORMALIZED FREE ENERGY PREDICTED BY IDOCK:   -1.44 KCAL/MOL
REMARK 922        TOTAL FREE ENERGY PREDICTED BY IDOCK:   -1.30 KCAL/MOL
REMARK 923 INTER-LIGAND FREE ENERGY PREDICTED BY IDOCK:   -1.46 KCAL/MOL
REMARK 924 INTRA-LIGAND FREE ENERGY PREDICTED BY IDOCK:    0.16 KCAL/MOL
REMARK 927      BINDING AFFINITY PREDICTED BY RF-SCORE:    0.00 PKD
ROOT
HETATM    1  C   UNL     1      -9.301  12.078  66.385  1.00  0.00    -0.228 C  
HETATM    2  N   UNL     1      -8.925  10.700  65.919  1.00  0.00    -0.169 N  
HETATM    3  C   UNL     1      -7.420  10.567  65.757  1.00  0.00    -0.139 C  
HETATM    4  C   UNL     1      -9.608  10.359  64.605  1.00  0.00    -0.300 C  
ENDROOT
BRANCH   2   5
HETATM    5  C   UNL     1      -9.396   9.644  67.002  1.00  0.00    -0.147 C  
HETATM    6  C   UNL     1      -9.537  10.151  68.463  1.00  0.00    -0.154 C  
HETATM    7  O   UNL     1     -10.662  10.657  68.727  1.00  0.00    -0.188 OA 
HETATM    8  O   UNL     1      -8.470  10.098  69.133  1.00  0.00    -0.133 OA 
ENDBRANCH   2   5
TORSDOF 1
ENDMDL
MODEL      176
REMARK 921   NORMALIZED FREE ENERGY PREDICTED BY IDOCK:   -1.43 KCAL/MOL
REMARK 922        TOTAL FREE ENERGY PREDICTED BY IDOCK:   -1.28 KCAL/MOL
REMARK 923 INTER-LIGAND FREE ENERGY PREDICTED BY IDOCK:   -1.48 KCAL/MOL
REMARK 924 INTRA-LIGAND FREE ENERGY PREDICTED BY IDOCK:    0.20 KCAL/MOL
REMARK 927      BINDING AFFINITY PREDICTED BY RF-SCORE:    0.00 PKD
ROOT
HETATM    1  C   UNL     1      -7.906   7.615  64.089  1.00  0.00    -0.133 C  
HETATM    2  N   UNL     1      -7.752   9.063  63.721  1.00  0.00    -0.119 N  
HETATM    3  C   UNL     1      -8.714   9.453  62.611  1.00  0.00    -0.232 C  
HETATM    4  C   UNL     1      -6.328   9.371  63.288  1.00  0.00    -0.093 C  
ENDROOT
BRANCH   2   5
HETATM    5  C   UNL     1      -8.081   9.954  64.988  1.00  0.00    -0.140 C  
HETATM    6  C   UNL     1      -9.572  10.312  65.228  1.00  0.00    -0.264 C  
HETATM    7  O   UNL     1     -10.209   9.449  65.892  1.00  0.00    -0.259 OA 
HETATM    8  O   UNL     1      -9.959  11.347  64.620  1.00  0.00    -0.242 OA 
ENDBRANCH   2   5
TORSDOF 1
ENDMDL
MODEL      177
REMARK 921   NORMALIZED FREE ENERGY PREDICTED BY IDOCK:   -1.42 KCAL/MOL
REMARK 922        TOTAL FREE ENERGY PREDICTED BY IDOCK:   -1.28 KCAL/MOL
REMARK 923 INTER-LIGAND FREE ENERGY PREDICTED BY IDOCK:   -1.47 KCAL/MOL
REMARK 924 INTRA-LIGAND FREE ENERGY PREDICTED BY IDOCK:    0.20 KCAL/MOL
REMARK 927      BINDING AFFINITY PREDICTED BY RF-SCORE:    0.00 PKD
ROOT
HETATM    1  C   UNL     1      -8.873   5.095  65.311  1.00  0.00    -0.152 C  
HETATM    2  N   UNL     1      -9.014   5.968  66.525  1.00  0.00    -0.129 N  
HETATM    3  C   UNL     1      -8.940   7.440  66.155  1.00  0.00    -0.149 C  
HETATM    4  C   UNL     1      -7.944   5.651  67.556  1.00  0.00    -0.102 C  
ENDROOT
BRANCH   2   5
HETATM    5  C   UNL     1     -10.427   5.701  67.190  1.00  0.00    -0.270 C  
HETATM    6  C   UNL     1     -10.514   5.838  68.734  1.00  0.00    -0.242 C  
HETATM    7  O   UNL     1     -10.746   7.011  69.136  1.00  0.00    -0.219 OA 
HETATM    8  O   UNL     1     -10.217   4.785  69.362  1.00  0.00    -0.210 OA 
ENDBRANCH   2   5
TORSDOF 1
ENDMDL
MODEL      178
REMARK 921   NORMALIZED FREE ENERGY PREDICTED BY IDOCK:   -1.42 KCAL/MOL
REMARK 922        TOTAL FREE ENERGY PREDICTED BY IDOCK:   -1.28 KCAL/MOL
REMARK 923 INTER-LIGAND FREE ENERGY PREDICTED BY IDOCK:   -1.44 KCAL/MOL
REMARK 924 INTRA-LIGAND FREE ENERGY PREDICTED BY IDOCK:    0.16 KCAL/MOL
REMARK 927      BINDING AFFINITY PREDICTED BY RF-SCORE:    0.00 PKD
ROOT
HETATM    1  C   UNL     1     -10.427   5.496  69.181  1.00  0.00    -0.244 C  
HETATM    2  N   UNL     1      -9.665   6.722  68.766  1.00  0.00    -0.132 N  
HETATM    3  C   UNL     1      -8.240   6.688  69.293  1.00  0.00    -0.124 C  
HETATM    4  C   UNL     1     -10.353   7.987  69.252  1.00  0.00    -0.220 C  
ENDROOT
BRANCH   2   5
HETATM    5  C   UNL     1      -9.600   6.778  67.184  1.00  0.00    -0.144 C  
HETATM    6  C   UNL     1      -9.684   5.423  66.430  1.00  0.00    -0.166 C  
HETATM    7  O   UNL     1     -10.861   5.038  66.190  1.00  0.00    -0.294 OA 
HETATM    8  O   UNL     1      -8.572   4.848  66.278  1.00  0.00    -0.114 OA 
ENDBRANCH   2   5
TORSDOF 1
ENDMDL
MODEL      179
REMARK 921   NORMALIZED FREE ENERGY PREDICTED BY IDOCK:   -1.42 KCAL/MOL
REMARK 922        TOTAL FREE ENERGY PREDICTED BY IDOCK:   -1.27 KCAL/MOL
REMARK 923 INTER-LIGAND FREE ENERGY PREDICTED BY IDOCK:   -1.47 KCAL/MOL
REMARK 924 INTRA-LIGAND FREE ENERGY PREDICTED BY IDOCK:    0.19 KCAL/MOL
REMARK 927      BINDING AFFINITY PREDICTED BY RF-SCORE:    0.00 PKD
ROOT
HETATM    1  C   UNL     1     -10.176   4.530  72.693  1.00  0.00    -0.179 C  
HETATM    2  N   UNL     1      -9.796   5.943  73.033  1.00  0.00    -0.166 N  
HETATM    3  C   UNL     1      -8.297   6.074  73.239  1.00  0.00    -0.115 C  
HETATM    4  C   UNL     1     -10.522   6.421  74.280  1.00  0.00    -0.196 C  
ENDROOT
BRANCH   2   5
HETATM    5  C   UNL     1     -10.210   6.890  71.833  1.00  0.00    -0.188 C  
HETATM    6  C   UNL     1      -9.221   8.028  71.463  1.00  0.00    -0.147 C  
HETATM    7  O   UNL     1      -8.321   7.686  70.648  1.00  0.00    -0.121 OA 
HETATM    8  O   UNL     1      -9.385   9.090  72.125  1.00  0.00    -0.356 OA 
ENDBRANCH   2   5
TORSDOF 1
ENDMDL
MODEL      180
REMARK 921   NORMALIZED FREE ENERGY PREDICTED BY IDOCK:   -1.41 KCAL/MOL
REMARK 922        TOTAL FREE ENERGY PREDICTED BY IDOCK:   -1.27 KCAL/MOL
REMARK 923 INTER-LIGAND FREE ENERGY PREDICTED BY IDOCK:   -1.46 KCAL/MOL
REMARK 924 INTRA-LIGAND FREE ENERGY PREDICTED BY IDOCK:    0.20 KCAL/MOL
REMARK 927      BINDING AFFINITY PREDICTED BY RF-SCORE:    0.00 PKD
ROOT
HETATM    1  C   UNL     1     -11.634   6.399  69.965  1.00  0.00    -0.377 C  
HETATM    2  N   UNL     1     -10.356   7.179  69.845  1.00  0.00    -0.207 N  
HETATM    3  C   UNL     1     -10.138   8.066  71.059  1.00  0.00    -0.186 C  
HETATM    4  C   UNL     1     -10.350   8.033  68.588  1.00  0.00    -0.200 C  
ENDROOT
BRANCH   2   5
HETATM    5  C   UNL     1      -9.141   6.167  69.754  1.00  0.00    -0.141 C  
HETATM    6  C   UNL     1      -8.781   5.627  68.344  1.00  0.00    -0.109 C  
HETATM    7  O   UNL     1      -7.985   6.361  67.697  1.00  0.00    -0.111 OA 
HETATM    8  O   UNL     1      -9.432   4.601  68.002  1.00  0.00    -0.132 OA 
ENDBRANCH   2   5
TORSDOF 1
ENDMDL
MODEL      181
REMARK 921   NORMALIZED FREE ENERGY PREDICTED BY IDOCK:   -1.41 KCAL/MOL
REMARK 922        TOTAL FREE ENERGY PREDICTED BY IDOCK:   -1.26 KCAL/MOL
REMARK 923 INTER-LIGAND FREE ENERGY PREDICTED BY IDOCK:   -1.47 KCAL/MOL
REMARK 924 INTRA-LIGAND FREE ENERGY PREDICTED BY IDOCK:    0.21 KCAL/MOL
REMARK 927      BINDING AFFINITY PREDICTED BY RF-SCORE:    0.00 PKD
ROOT
HETATM    1  C   UNL     1      -8.615   6.464  66.493  1.00  0.00    -0.125 C  
HETATM    2  N   UNL     1      -9.850   5.724  66.919  1.00  0.00    -0.145 N  
HETATM    3  C   UNL     1     -10.225   4.653  65.909  1.00  0.00    -0.276 C  
HETATM    4  C   UNL     1     -11.022   6.674  67.107  1.00  0.00    -0.408 C  
ENDROOT
BRANCH   2   5
HETATM    5  C   UNL     1      -9.571   5.012  68.306  1.00  0.00    -0.140 C  
HETATM    6  C   UNL     1      -8.835   3.646  68.259  1.00  0.00    -0.115 C  
HETATM    7  O   UNL     1      -7.577   3.738  68.257  1.00  0.00    -0.061 OA 
HETATM    8  O   UNL     1      -9.598   2.654  68.104  1.00  0.00    -0.199 OA 
ENDBRANCH   2   5
TORSDOF 1
ENDMDL
MODEL      182
REMARK 921   NORMALIZED FREE ENERGY PREDICTED BY IDOCK:   -1.39 KCAL/MOL
REMARK 922        TOTAL FREE ENERGY PREDICTED BY IDOCK:   -1.24 KCAL/MOL
REMARK 923 INTER-LIGAND FREE ENERGY PREDICTED BY IDOCK:   -1.46 KCAL/MOL
REMARK 924 INTRA-LIGAND FREE ENERGY PREDICTED BY IDOCK:    0.22 KCAL/MOL
REMARK 927      BINDING AFFINITY PREDICTED BY RF-SCORE:    0.00 PKD
ROOT
HETATM    1  C   UNL     1      -8.131   7.818  67.641  1.00  0.00    -0.124 C  
HETATM    2  N   UNL     1      -9.410   8.583  67.827  1.00  0.00    -0.137 N  
HETATM    3  C   UNL     1      -9.885   9.185  66.515  1.00  0.00    -0.264 C  
HETATM    4  C   UNL     1      -9.243   9.687  68.859  1.00  0.00    -0.147 C  
ENDROOT
BRANCH   2   5
HETATM    5  C   UNL     1     -10.532   7.594  68.347  1.00  0.00    -0.169 C  
HETATM    6  C   UNL     1     -10.448   7.155  69.834  1.00  0.00    -0.223 C  
HETATM    7  O   UNL     1     -11.021   7.942  70.637  1.00  0.00    -0.238 OA 
HETATM    8  O   UNL     1      -9.716   6.148  70.035  1.00  0.00    -0.161 OA 
ENDBRANCH   2   5
TORSDOF 1
ENDMDL
MODEL      183
REMARK 921   NORMALIZED FREE ENERGY PREDICTED BY IDOCK:   -1.39 KCAL/MOL
REMARK 922        TOTAL FREE ENERGY PREDICTED BY IDOCK:   -1.24 KCAL/MOL
REMARK 923 INTER-LIGAND FREE ENERGY PREDICTED BY IDOCK:   -1.47 KCAL/MOL
REMARK 924 INTRA-LIGAND FREE ENERGY PREDICTED BY IDOCK:    0.23 KCAL/MOL
REMARK 927      BINDING AFFINITY PREDICTED BY RF-SCORE:    0.00 PKD
ROOT
HETATM    1  C   UNL     1     -10.035   2.651  71.973  1.00  0.00    -0.153 C  
HETATM    2  N   UNL     1      -9.841   3.788  72.934  1.00  0.00    -0.134 N  
HETATM    3  C   UNL     1      -8.367   4.025  73.215  1.00  0.00    -0.089 C  
HETATM    4  C   UNL     1     -10.571   3.532  74.243  1.00  0.00    -0.195 C  
ENDROOT
BRANCH   2   5
HETATM    5  C   UNL     1     -10.435   5.110  72.294  1.00  0.00    -0.219 C  
HETATM    6  C   UNL     1      -9.924   6.459  72.868  1.00  0.00    -0.174 C  
HETATM    7  O   UNL     1      -8.868   6.885  72.325  1.00  0.00    -0.134 OA 
HETATM    8  O   UNL     1     -10.567   6.868  73.874  1.00  0.00    -0.369 OA 
ENDBRANCH   2   5
TORSDOF 1
ENDMDL
MODEL      184
REMARK 921   NORMALIZED FREE ENERGY PREDICTED BY IDOCK:   -1.39 KCAL/MOL
REMARK 922        TOTAL FREE ENERGY PREDICTED BY IDOCK:   -1.24 KCAL/MOL
REMARK 923 INTER-LIGAND FREE ENERGY PREDICTED BY IDOCK:   -1.43 KCAL/MOL
REMARK 924 INTRA-LIGAND FREE ENERGY PREDICTED BY IDOCK:    0.19 KCAL/MOL
REMARK 927      BINDING AFFINITY PREDICTED BY RF-SCORE:    0.00 PKD
ROOT
HETATM    1  C   UNL     1     -10.976   4.762  73.089  1.00  0.00    -0.300 C  
HETATM    2  N   UNL     1     -10.183   5.586  72.115  1.00  0.00    -0.193 N  
HETATM    3  C   UNL     1      -9.370   6.651  72.831  1.00  0.00    -0.135 C  
HETATM    4  C   UNL     1     -11.089   6.245  71.088  1.00  0.00    -0.298 C  
ENDROOT
BRANCH   2   5
HETATM    5  C   UNL     1      -9.176   4.640  71.341  1.00  0.00    -0.142 C  
HETATM    6  C   UNL     1      -8.885   4.988  69.856  1.00  0.00    -0.102 C  
HETATM    7  O   UNL     1      -7.949   5.818  69.694  1.00  0.00    -0.096 OA 
HETATM    8  O   UNL     1      -9.706   4.488  69.038  1.00  0.00    -0.166 OA 
ENDBRANCH   2   5
TORSDOF 1
ENDMDL
MODEL      185
REMARK 921   NORMALIZED FREE ENERGY PREDICTED BY IDOCK:   -1.38 KCAL/MOL
REMARK 922        TOTAL FREE ENERGY PREDICTED BY IDOCK:   -1.23 KCAL/MOL
REMARK 923 INTER-LIGAND FREE ENERGY PREDICTED BY IDOCK:   -1.43 KCAL/MOL
REMARK 924 INTRA-LIGAND FREE ENERGY PREDICTED BY IDOCK:    0.20 KCAL/MOL
REMARK 927      BINDING AFFINITY PREDICTED BY RF-SCORE:    0.00 PKD
ROOT
HETATM    1  C   UNL     1     -11.023   6.292  67.764  1.00  0.00    -0.332 C  
HETATM    2  N   UNL     1     -10.156   7.459  68.142  1.00  0.00    -0.173 N  
HETATM    3  C   UNL     1     -10.511   7.982  69.524  1.00  0.00    -0.226 C  
HETATM    4  C   UNL     1     -10.279   8.586  67.129  1.00  0.00    -0.284 C  
ENDROOT
BRANCH   2   5
HETATM    5  C   UNL     1      -8.644   6.990  68.170  1.00  0.00    -0.128 C  
HETATM    6  C   UNL     1      -7.787   7.450  69.380  1.00  0.00    -0.122 C  
HETATM    7  O   UNL     1      -7.856   6.685  70.381  1.00  0.00    -0.102 OA 
HETATM    8  O   UNL     1      -7.249   8.581  69.231  1.00  0.00    -0.061 OA 
ENDBRANCH   2   5
TORSDOF 1
ENDMDL
MODEL      186
REMARK 921   NORMALIZED FREE ENERGY PREDICTED BY IDOCK:   -1.38 KCAL/MOL
REMARK 922        TOTAL FREE ENERGY PREDICTED BY IDOCK:   -1.23 KCAL/MOL
REMARK 923 INTER-LIGAND FREE ENERGY PREDICTED BY IDOCK:   -1.41 KCAL/MOL
REMARK 924 INTRA-LIGAND FREE ENERGY PREDICTED BY IDOCK:    0.18 KCAL/MOL
REMARK 927      BINDING AFFINITY PREDICTED BY RF-SCORE:    0.00 PKD
ROOT
HETATM    1  C   UNL     1      -8.699   5.753  70.147  1.00  0.00    -0.139 C  
HETATM    2  N   UNL     1      -9.964   6.495  70.471  1.00  0.00    -0.183 N  
HETATM    3  C   UNL     1     -10.374   6.278  71.917  1.00  0.00    -0.204 C  
HETATM    4  C   UNL     1     -11.100   6.069  69.554  1.00  0.00    -0.398 C  
ENDROOT
BRANCH   2   5
HETATM    5  C   UNL     1      -9.721   8.045  70.258  1.00  0.00    -0.175 C  
HETATM    6  C   UNL     1      -8.302   8.477  69.799  1.00  0.00    -0.124 C  
HETATM    7  O   UNL     1      -8.137   8.462  68.548  1.00  0.00    -0.119 OA 
HETATM    8  O   UNL     1      -7.486   8.658  70.744  1.00  0.00    -0.063 OA 
ENDBRANCH   2   5
TORSDOF 1
ENDMDL
MODEL      187
REMARK 921   NORMALIZED FREE ENERGY PREDICTED BY IDOCK:   -1.37 KCAL/MOL
REMARK 922        TOTAL FREE ENERGY PREDICTED BY IDOCK:   -1.23 KCAL/MOL
REMARK 923 INTER-LIGAND FREE ENERGY PREDICTED BY IDOCK:   -1.43 KCAL/MOL
REMARK 924 INTRA-LIGAND FREE ENERGY PREDICTED BY IDOCK:    0.20 KCAL/MOL
REMARK 927      BINDING AFFINITY PREDICTED BY RF-SCORE:    0.00 PKD
ROOT
HETATM    1  C   UNL     1     -11.015  10.094  68.830  1.00  0.00    -0.223 C  
HETATM    2  N   UNL     1     -10.022   9.124  69.403  1.00  0.00    -0.185 N  
HETATM    3  C   UNL     1      -9.939   9.250  70.915  1.00  0.00    -0.297 C  
HETATM    4  C   UNL     1      -8.642   9.332  68.801  1.00  0.00    -0.131 C  
ENDROOT
BRANCH   2   5
HETATM    5  C   UNL     1     -10.487   7.649  69.061  1.00  0.00    -0.205 C  
HETATM    6  C   UNL     1      -9.374   6.574  68.929  1.00  0.00    -0.131 C  
HETATM    7  O   UNL     1      -9.051   6.028  70.019  1.00  0.00    -0.143 OA 
HETATM    8  O   UNL     1      -8.868   6.494  67.776  1.00  0.00    -0.115 OA 
ENDBRANCH   2   5
TORSDOF 1
ENDMDL
MODEL      188
REMARK 921   NORMALIZED FREE ENERGY PREDICTED BY IDOCK:   -1.37 KCAL/MOL
REMARK 922        TOTAL FREE ENERGY PREDICTED BY IDOCK:   -1.22 KCAL/MOL
REMARK 923 INTER-LIGAND FREE ENERGY PREDICTED BY IDOCK:   -1.41 KCAL/MOL
REMARK 924 INTRA-LIGAND FREE ENERGY PREDICTED BY IDOCK:    0.19 KCAL/MOL
REMARK 927      BINDING AFFINITY PREDICTED BY RF-SCORE:    0.00 PKD
ROOT
HETATM    1  C   UNL     1     -11.010   6.465  66.971  1.00  0.00    -0.389 C  
HETATM    2  N   UNL     1      -9.911   7.464  67.194  1.00  0.00    -0.193 N  
HETATM    3  C   UNL     1     -10.447   8.886  67.161  1.00  0.00    -0.274 C  
HETATM    4  C   UNL     1      -8.813   7.313  66.154  1.00  0.00    -0.158 C  
ENDROOT
BRANCH   2   5
HETATM    5  C   UNL     1      -9.271   7.215  68.621  1.00  0.00    -0.135 C  
HETATM    6  C   UNL     1      -8.052   6.255  68.686  1.00  0.00    -0.109 C  
HETATM    7  O   UNL     1      -6.941   6.817  68.483  1.00  0.00    -0.071 OA 
HETATM    8  O   UNL     1      -8.360   5.038  68.808  1.00  0.00    -0.084 OA 
ENDBRANCH   2   5
TORSDOF 1
ENDMDL
MODEL      189
REMARK 921   NORMALIZED FREE ENERGY PREDICTED BY IDOCK:   -1.37 KCAL/MOL
REMARK 922        TOTAL FREE ENERGY PREDICTED BY IDOCK:   -1.22 KCAL/MOL
REMARK 923 INTER-LIGAND FREE ENERGY PREDICTED BY IDOCK:   -1.41 KCAL/MOL
REMARK 924 INTRA-LIGAND FREE ENERGY PREDICTED BY IDOCK:    0.19 KCAL/MOL
REMARK 927      BINDING AFFINITY PREDICTED BY RF-SCORE:    0.00 PKD
ROOT
HETATM    1  C   UNL     1     -10.760   3.831  63.862  1.00  0.00    -0.243 C  
HETATM    2  N   UNL     1      -9.683   4.053  64.885  1.00  0.00    -0.183 N  
HETATM    3  C   UNL     1      -8.572   4.928  64.331  1.00  0.00    -0.142 C  
HETATM    4  C   UNL     1      -9.098   2.734  65.361  1.00  0.00    -0.145 C  
ENDROOT
BRANCH   2   5
HETATM    5  C   UNL     1     -10.308   4.791  66.139  1.00  0.00    -0.300 C  
HETATM    6  C   UNL     1      -9.390   5.786  66.899  1.00  0.00    -0.127 C  
HETATM    7  O   UNL     1      -9.397   6.957  66.431  1.00  0.00    -0.169 OA 
HETATM    8  O   UNL     1      -8.677   5.250  67.792  1.00  0.00    -0.105 OA 
ENDBRANCH   2   5
TORSDOF 1
ENDMDL
MODEL      190
REMARK 921   NORMALIZED FREE ENERGY PREDICTED BY IDOCK:   -1.37 KCAL/MOL
REMARK 922        TOTAL FREE ENERGY PREDICTED BY IDOCK:   -1.22 KCAL/MOL
REMARK 923 INTER-LIGAND FREE ENERGY PREDICTED BY IDOCK:   -1.42 KCAL/MOL
REMARK 924 INTRA-LIGAND FREE ENERGY PREDICTED BY IDOCK:    0.20 KCAL/MOL
REMARK 927      BINDING AFFINITY PREDICTED BY RF-SCORE:    0.00 PKD
ROOT
HETATM    1  C   UNL     1      -7.748   4.158  65.297  1.00  0.00    -0.085 C  
HETATM    2  N   UNL     1      -9.127   4.436  65.825  1.00  0.00    -0.128 N  
HETATM    3  C   UNL     1      -9.391   3.659  67.104  1.00  0.00    -0.200 C  
HETATM    4  C   UNL     1     -10.189   4.091  64.795  1.00  0.00    -0.212 C  
ENDROOT
BRANCH   2   5
HETATM    5  C   UNL     1      -9.250   5.980  66.156  1.00  0.00    -0.138 C  
HETATM    6  C   UNL     1     -10.200   6.376  67.318  1.00  0.00    -0.187 C  
HETATM    7  O   UNL     1      -9.659   6.358  68.457  1.00  0.00    -0.124 OA 
HETATM    8  O   UNL     1     -11.402   6.535  66.970  1.00  0.00    -0.342 OA 
ENDBRANCH   2   5
TORSDOF 1
ENDMDL
MODEL      191
REMARK 921   NORMALIZED FREE ENERGY PREDICTED BY IDOCK:   -1.37 KCAL/MOL
REMARK 922        TOTAL FREE ENERGY PREDICTED BY IDOCK:   -1.22 KCAL/MOL
REMARK 923 INTER-LIGAND FREE ENERGY PREDICTED BY IDOCK:   -1.45 KCAL/MOL
REMARK 924 INTRA-LIGAND FREE ENERGY PREDICTED BY IDOCK:    0.23 KCAL/MOL
REMARK 927      BINDING AFFINITY PREDICTED BY RF-SCORE:    0.00 PKD
ROOT
HETATM    1  C   UNL     1      -7.939  10.059  66.003  1.00  0.00    -0.118 C  
HETATM    2  N   UNL     1      -7.853   8.640  66.486  1.00  0.00    -0.098 N  
HETATM    3  C   UNL     1      -6.476   8.333  67.049  1.00  0.00    -0.057 C  
HETATM    4  C   UNL     1      -8.174   7.659  65.370  1.00  0.00    -0.136 C  
ENDROOT
BRANCH   2   5
HETATM    5  C   UNL     1      -8.914   8.425  67.643  1.00  0.00    -0.135 C  
HETATM    6  C   UNL     1     -10.412   8.477  67.241  1.00  0.00    -0.296 C  
HETATM    7  O   UNL     1     -10.881   7.373  66.851  1.00  0.00    -0.357 OA 
HETATM    8  O   UNL     1     -10.907   9.638  67.244  1.00  0.00    -0.254 OA 
ENDBRANCH   2   5
TORSDOF 1
ENDMDL
MODEL      192
REMARK 921   NORMALIZED FREE ENERGY PREDICTED BY IDOCK:   -1.37 KCAL/MOL
REMARK 922        TOTAL FREE ENERGY PREDICTED BY IDOCK:   -1.22 KCAL/MOL
REMARK 923 INTER-LIGAND FREE ENERGY PREDICTED BY IDOCK:   -1.43 KCAL/MOL
REMARK 924 INTRA-LIGAND FREE ENERGY PREDICTED BY IDOCK:    0.21 KCAL/MOL
REMARK 927      BINDING AFFINITY PREDICTED BY RF-SCORE:    0.00 PKD
ROOT
HETATM    1  C   UNL     1     -12.222  13.127  69.862  1.00  0.00    -0.225 C  
HETATM    2  N   UNL     1     -11.543  14.463  69.757  1.00  0.00    -0.284 N  
HETATM    3  C   UNL     1     -10.032  14.316  69.790  1.00  0.00     0.563 C  
HETATM    4  C   UNL     1     -11.985  15.393  70.876  1.00  0.00    -0.359 C  
ENDROOT
BRANCH   2   5
HETATM    5  C   UNL     1     -11.940  15.135  68.379  1.00  0.00    -0.187 C  
HETATM    6  C   UNL     1     -11.168  14.660  67.118  1.00  0.00    -0.344 C  
HETATM    7  O   UNL     1     -11.666  13.643  66.561  1.00  0.00    -0.345 OA 
HETATM    8  O   UNL     1     -10.090  15.280  66.908  1.00  0.00    -0.249 OA 
ENDBRANCH   2   5
TORSDOF 1
ENDMDL
MODEL      193
REMARK 921   NORMALIZED FREE ENERGY PREDICTED BY IDOCK:   -1.37 KCAL/MOL
REMARK 922        TOTAL FREE ENERGY PREDICTED BY IDOCK:   -1.22 KCAL/MOL
REMARK 923 INTER-LIGAND FREE ENERGY PREDICTED BY IDOCK:   -1.44 KCAL/MOL
REMARK 924 INTRA-LIGAND FREE ENERGY PREDICTED BY IDOCK:    0.23 KCAL/MOL
REMARK 927      BINDING AFFINITY PREDICTED BY RF-SCORE:    0.00 PKD
ROOT
HETATM    1  C   UNL     1      -8.258   8.909  69.734  1.00  0.00    -0.119 C  
HETATM    2  N   UNL     1      -8.951   7.586  69.569  1.00  0.00    -0.144 N  
HETATM    3  C   UNL     1      -9.054   6.851  70.894  1.00  0.00    -0.153 C  
HETATM    4  C   UNL     1      -8.229   6.710  68.558  1.00  0.00    -0.119 C  
ENDROOT
BRANCH   2   5
HETATM    5  C   UNL     1     -10.421   7.839  69.033  1.00  0.00    -0.205 C  
HETATM    6  C   UNL     1     -10.564   8.719  67.763  1.00  0.00    -0.191 C  
HETATM    7  O   UNL     1     -10.471   8.080  66.679  1.00  0.00    -0.303 OA 
HETATM    8  O   UNL     1     -10.626   9.957  67.997  1.00  0.00    -0.211 OA 
ENDBRANCH   2   5
TORSDOF 1
ENDMDL
MODEL      194
REMARK 921   NORMALIZED FREE ENERGY PREDICTED BY IDOCK:   -1.36 KCAL/MOL
REMARK 922        TOTAL FREE ENERGY PREDICTED BY IDOCK:   -1.22 KCAL/MOL
REMARK 923 INTER-LIGAND FREE ENERGY PREDICTED BY IDOCK:   -1.38 KCAL/MOL
REMARK 924 INTRA-LIGAND FREE ENERGY PREDICTED BY IDOCK:    0.16 KCAL/MOL
REMARK 927      BINDING AFFINITY PREDICTED BY RF-SCORE:    0.00 PKD
ROOT
HETATM    1  C   UNL     1      -8.397  11.309  68.819  1.00  0.00    -0.120 C  
HETATM    2  N   UNL     1      -7.444  12.282  68.188  1.00  0.00    -0.103 N  
HETATM    3  C   UNL     1      -6.784  11.685  66.956  1.00  0.00    -0.145 C  
HETATM    4  C   UNL     1      -6.373  12.721  69.173  1.00  0.00    -0.106 C  
ENDROOT
BRANCH   2   5
HETATM    5  C   UNL     1      -8.248  13.570  67.736  1.00  0.00    -0.176 C  
HETATM    6  C   UNL     1      -9.756  13.381  67.418  1.00  0.00    -0.221 C  
HETATM    7  O   UNL     1     -10.512  13.481  68.424  1.00  0.00    -0.236 OA 
HETATM    8  O   UNL     1      -9.993  13.032  66.229  1.00  0.00    -0.271 OA 
ENDBRANCH   2   5
TORSDOF 1
ENDMDL
MODEL      195
REMARK 921   NORMALIZED FREE ENERGY PREDICTED BY IDOCK:   -1.36 KCAL/MOL
REMARK 922        TOTAL FREE ENERGY PREDICTED BY IDOCK:   -1.21 KCAL/MOL
REMARK 923 INTER-LIGAND FREE ENERGY PREDICTED BY IDOCK:   -1.42 KCAL/MOL
REMARK 924 INTRA-LIGAND FREE ENERGY PREDICTED BY IDOCK:    0.21 KCAL/MOL
REMARK 927      BINDING AFFINITY PREDICTED BY RF-SCORE:    0.00 PKD
ROOT
HETATM    1  C   UNL     1      -8.781   9.129  70.697  1.00  0.00    -0.229 C  
HETATM    2  N   UNL     1      -9.508   8.012  70.003  1.00  0.00    -0.160 N  
HETATM    3  C   UNL     1      -8.536   7.062  69.324  1.00  0.00    -0.133 C  
HETATM    4  C   UNL     1     -10.489   8.552  68.975  1.00  0.00    -0.200 C  
ENDROOT
BRANCH   2   5
HETATM    5  C   UNL     1     -10.329   7.187  71.077  1.00  0.00    -0.196 C  
HETATM    6  C   UNL     1      -9.959   5.689  71.245  1.00  0.00    -0.195 C  
HETATM    7  O   UNL     1      -9.022   5.478  72.063  1.00  0.00    -0.134 OA 
HETATM    8  O   UNL     1     -10.561   4.916  70.451  1.00  0.00    -0.175 OA 
ENDBRANCH   2   5
TORSDOF 1
ENDMDL
MODEL      196
REMARK 921   NORMALIZED FREE ENERGY PREDICTED BY IDOCK:   -1.34 KCAL/MOL
REMARK 922        TOTAL FREE ENERGY PREDICTED BY IDOCK:   -1.19 KCAL/MOL
REMARK 923 INTER-LIGAND FREE ENERGY PREDICTED BY IDOCK:   -1.38 KCAL/MOL
REMARK 924 INTRA-LIGAND FREE ENERGY PREDICTED BY IDOCK:    0.19 KCAL/MOL
REMARK 927      BINDING AFFINITY PREDICTED BY RF-SCORE:    0.00 PKD
ROOT
HETATM    1  C   UNL     1      -8.740   9.777  67.036  1.00  0.00    -0.135 C  
HETATM    2  N   UNL     1      -8.802   8.494  67.814  1.00  0.00    -0.136 N  
HETATM    3  C   UNL     1      -7.877   8.537  69.019  1.00  0.00    -0.104 C  
HETATM    4  C   UNL     1      -8.440   7.304  66.941  1.00  0.00    -0.119 C  
ENDROOT
BRANCH   2   5
HETATM    5  C   UNL     1     -10.281   8.282  68.340  1.00  0.00    -0.209 C  
HETATM    6  C   UNL     1     -10.595   8.784  69.776  1.00  0.00    -0.224 C  
HETATM    7  O   UNL     1     -10.938   9.996  69.835  1.00  0.00    -0.253 OA 
HETATM    8  O   UNL     1     -10.340   7.945  70.683  1.00  0.00    -0.200 OA 
ENDBRANCH   2   5
TORSDOF 1
ENDMDL
MODEL      197
REMARK 921   NORMALIZED FREE ENERGY PREDICTED BY IDOCK:   -1.34 KCAL/MOL
REMARK 922        TOTAL FREE ENERGY PREDICTED BY IDOCK:   -1.19 KCAL/MOL
REMARK 923 INTER-LIGAND FREE ENERGY PREDICTED BY IDOCK:   -1.37 KCAL/MOL
REMARK 924 INTRA-LIGAND FREE ENERGY PREDICTED BY IDOCK:    0.18 KCAL/MOL
REMARK 927      BINDING AFFINITY PREDICTED BY RF-SCORE:    0.00 PKD
ROOT
HETATM    1  C   UNL     1      -8.507   7.304  65.617  1.00  0.00    -0.131 C  
HETATM    2  N   UNL     1      -9.414   7.366  66.812  1.00  0.00    -0.168 N  
HETATM    3  C   UNL     1     -10.231   8.647  66.815  1.00  0.00    -0.291 C  
HETATM    4  C   UNL     1      -8.625   7.266  68.106  1.00  0.00    -0.122 C  
ENDROOT
BRANCH   2   5
HETATM    5  C   UNL     1     -10.421   6.144  66.757  1.00  0.00    -0.252 C  
HETATM    6  C   UNL     1      -9.882   4.817  66.159  1.00  0.00    -0.219 C  
HETATM    7  O   UNL     1      -9.302   4.071  66.995  1.00  0.00    -0.155 OA 
HETATM    8  O   UNL     1      -9.992   4.734  64.905  1.00  0.00    -0.031 OA 
ENDBRANCH   2   5
TORSDOF 1
ENDMDL
MODEL      198
REMARK 921   NORMALIZED FREE ENERGY PREDICTED BY IDOCK:   -1.34 KCAL/MOL
REMARK 922        TOTAL FREE ENERGY PREDICTED BY IDOCK:   -1.19 KCAL/MOL
REMARK 923 INTER-LIGAND FREE ENERGY PREDICTED BY IDOCK:   -1.40 KCAL/MOL
REMARK 924 INTRA-LIGAND FREE ENERGY PREDICTED BY IDOCK:    0.21 KCAL/MOL
REMARK 927      BINDING AFFINITY PREDICTED BY RF-SCORE:    0.00 PKD
ROOT
HETATM    1  C   UNL     1      -7.718  11.085  68.810  1.00  0.00    -0.135 C  
HETATM    2  N   UNL     1      -7.867  11.704  67.449  1.00  0.00    -0.139 N  
HETATM    3  C   UNL     1      -6.887  11.098  66.460  1.00  0.00    -0.126 C  
HETATM    4  C   UNL     1      -7.664  13.209  67.506  1.00  0.00    -0.166 C  
ENDROOT
BRANCH   2   5
HETATM    5  C   UNL     1      -9.334  11.429  66.917  1.00  0.00    -0.181 C  
HETATM    6  C   UNL     1      -9.470  10.493  65.686  1.00  0.00    -0.210 C  
HETATM    7  O   UNL     1      -9.537   9.266  65.974  1.00  0.00    -0.230 OA 
HETATM    8  O   UNL     1      -9.367  11.082  64.575  1.00  0.00    -0.209 OA 
ENDBRANCH   2   5
TORSDOF 1
ENDMDL
MODEL      199
REMARK 921   NORMALIZED FREE ENERGY PREDICTED BY IDOCK:   -1.34 KCAL/MOL
REMARK 922        TOTAL FREE ENERGY PREDICTED BY IDOCK:   -1.19 KCAL/MOL
REMARK 923 INTER-LIGAND FREE ENERGY PREDICTED BY IDOCK:   -1.39 KCAL/MOL
REMARK 924 INTRA-LIGAND FREE ENERGY PREDICTED BY IDOCK:    0.20 KCAL/MOL
REMARK 927      BINDING AFFINITY PREDICTED BY RF-SCORE:    0.00 PKD
ROOT
HETATM    1  C   UNL     1      -8.163   5.764  68.585  1.00  0.00    -0.105 C  
HETATM    2  N   UNL     1      -8.575   7.164  68.939  1.00  0.00    -0.129 N  
HETATM    3  C   UNL     1      -7.728   8.189  68.204  1.00  0.00    -0.110 C  
HETATM    4  C   UNL     1      -8.474   7.404  70.437  1.00  0.00    -0.142 C  
ENDROOT
BRANCH   2   5
HETATM    5  C   UNL     1     -10.085   7.380  68.511  1.00  0.00    -0.175 C  
HETATM    6  C   UNL     1     -10.400   8.636  67.656  1.00  0.00    -0.254 C  
HETATM    7  O   UNL     1     -10.260   8.464  66.414  1.00  0.00    -0.265 OA 
HETATM    8  O   UNL     1     -10.628   9.677  68.332  1.00  0.00    -0.214 OA 
ENDBRANCH   2   5
TORSDOF 1
ENDMDL
MODEL      200
REMARK 921   NORMALIZED FREE ENERGY PREDICTED BY IDOCK:   -1.34 KCAL/MOL
REMARK 922        TOTAL FREE ENERGY PREDICTED BY IDOCK:   -1.19 KCAL/MOL
REMARK 923 INTER-LIGAND FREE ENERGY PREDICTED BY IDOCK:   -1.39 KCAL/MOL
REMARK 924 INTRA-LIGAND FREE ENERGY PREDICTED BY IDOCK:    0.20 KCAL/MOL
REMARK 927      BINDING AFFINITY PREDICTED BY RF-SCORE:    0.00 PKD
ROOT
HETATM    1  C   UNL     1     -10.696   7.356  69.884  1.00  0.00    -0.243 C  
HETATM    2  N   UNL     1     -10.022   8.137  70.975  1.00  0.00    -0.185 N  
HETATM    3  C   UNL     1     -11.034   8.674  71.973  1.00  0.00    -0.362 C  
HETATM    4  C   UNL     1      -9.213   9.291  70.405  1.00  0.00    -0.247 C  
ENDROOT
BRANCH   2   5
HETATM    5  C   UNL     1      -9.027   7.181  71.753  1.00  0.00    -0.128 C  
HETATM    6  C   UNL     1      -7.508   7.417  71.533  1.00  0.00    -0.080 C  
HETATM    7  O   UNL     1      -7.002   8.277  72.305  1.00  0.00    -0.083 OA 
HETATM    8  O   UNL     1      -7.031   6.810  70.535  1.00  0.00    -0.060 OA 
ENDBRANCH   2   5
TORSDOF 1
ENDMDL
MODEL      201
REMARK 921   NORMALIZED FREE ENERGY PREDICTED BY IDOCK:   -1.34 KCAL/MOL
REMARK 922        TOTAL FREE ENERGY PREDICTED BY IDOCK:   -1.19 KCAL/MOL
REMARK 923 INTER-LIGAND FREE ENERGY PREDICTED BY IDOCK:   -1.38 KCAL/MOL
REMARK 924 INTRA-LIGAND FREE ENERGY PREDICTED BY IDOCK:    0.19 KCAL/MOL
REMARK 927      BINDING AFFINITY PREDICTED BY RF-SCORE:    0.00 PKD
ROOT
HETATM    1  C   UNL     1      -8.610   7.133  70.246  1.00  0.00    -0.143 C  
HETATM    2  N   UNL     1      -8.622   8.266  71.232  1.00  0.00    -0.135 N  
HETATM    3  C   UNL     1      -7.269   8.955  71.291  1.00  0.00    -0.097 C  
HETATM    4  C   UNL     1      -9.004   7.781  72.620  1.00  0.00    -0.169 C  
ENDROOT
BRANCH   2   5
HETATM    5  C   UNL     1      -9.697   9.335  70.774  1.00  0.00    -0.282 C  
HETATM    6  C   UNL     1      -9.787   9.635  69.254  1.00  0.00    -0.189 C  
HETATM    7  O   UNL     1     -10.552   8.858  68.619  1.00  0.00    -0.209 OA 
HETATM    8  O   UNL     1      -8.989  10.528  68.856  1.00  0.00    -0.156 OA 
ENDBRANCH   2   5
TORSDOF 1
ENDMDL
MODEL      202
REMARK 921   NORMALIZED FREE ENERGY PREDICTED BY IDOCK:   -1.33 KCAL/MOL
REMARK 922        TOTAL FREE ENERGY PREDICTED BY IDOCK:   -1.18 KCAL/MOL
REMARK 923 INTER-LIGAND FREE ENERGY PREDICTED BY IDOCK:   -1.42 KCAL/MOL
REMARK 924 INTRA-LIGAND FREE ENERGY PREDICTED BY IDOCK:    0.24 KCAL/MOL
REMARK 927      BINDING AFFINITY PREDICTED BY RF-SCORE:    0.00 PKD
ROOT
HETATM    1  C   UNL     1      -8.264   3.801  63.110  1.00  0.00    -0.084 C  
HETATM    2  N   UNL     1      -9.154   3.437  64.264  1.00  0.00    -0.120 N  
HETATM    3  C   UNL     1      -8.905   2.010  64.720  1.00  0.00    -0.116 C  
HETATM    4  C   UNL     1     -10.620   3.604  63.899  1.00  0.00    -0.277 C  
ENDROOT
BRANCH   2   5
HETATM    5  C   UNL     1      -8.840   4.402  65.481  1.00  0.00    -0.127 C  
HETATM    6  C   UNL     1      -9.887   4.450  66.626  1.00  0.00    -0.226 C  
HETATM    7  O   UNL     1      -9.722   3.569  67.514  1.00  0.00    -0.178 OA 
HETATM    8  O   UNL     1     -10.819   5.279  66.439  1.00  0.00    -0.292 OA 
ENDBRANCH   2   5
TORSDOF 1
ENDMDL
MODEL      203
REMARK 921   NORMALIZED FREE ENERGY PREDICTED BY IDOCK:   -1.32 KCAL/MOL
REMARK 922        TOTAL FREE ENERGY PREDICTED BY IDOCK:   -1.17 KCAL/MOL
REMARK 923 INTER-LIGAND FREE ENERGY PREDICTED BY IDOCK:   -1.34 KCAL/MOL
REMARK 924 INTRA-LIGAND FREE ENERGY PREDICTED BY IDOCK:    0.17 KCAL/MOL
REMARK 927      BINDING AFFINITY PREDICTED BY RF-SCORE:    0.00 PKD
ROOT
HETATM    1  C   UNL     1     -10.499   4.759  66.231  1.00  0.00    -0.269 C  
HETATM    2  N   UNL     1      -9.067   5.139  66.479  1.00  0.00    -0.123 N  
HETATM    3  C   UNL     1      -8.340   5.424  65.176  1.00  0.00    -0.144 C  
HETATM    4  C   UNL     1      -8.333   4.045  67.239  1.00  0.00    -0.099 C  
ENDROOT
BRANCH   2   5
HETATM    5  C   UNL     1      -9.028   6.455  67.360  1.00  0.00    -0.109 C  
HETATM    6  C   UNL     1     -10.311   7.330  67.372  1.00  0.00    -0.260 C  
HETATM    7  O   UNL     1     -11.161   6.989  68.239  1.00  0.00    -0.122 OA 
HETATM    8  O   UNL     1     -10.370   8.171  66.433  1.00  0.00    -0.210 OA 
ENDBRANCH   2   5
TORSDOF 1
ENDMDL
MODEL      204
REMARK 921   NORMALIZED FREE ENERGY PREDICTED BY IDOCK:   -1.32 KCAL/MOL
REMARK 922        TOTAL FREE ENERGY PREDICTED BY IDOCK:   -1.17 KCAL/MOL
REMARK 923 INTER-LIGAND FREE ENERGY PREDICTED BY IDOCK:   -1.36 KCAL/MOL
REMARK 924 INTRA-LIGAND FREE ENERGY PREDICTED BY IDOCK:    0.19 KCAL/MOL
REMARK 927      BINDING AFFINITY PREDICTED BY RF-SCORE:    0.00 PKD
ROOT
HETATM    1  C   UNL     1      -9.724   6.790  69.238  1.00  0.00    -0.151 C  
HETATM    2  N   UNL     1      -9.661   6.307  67.817  1.00  0.00    -0.117 N  
HETATM    3  C   UNL     1     -10.821   6.851  67.000  1.00  0.00    -0.366 C  
HETATM    4  C   UNL     1      -9.664   4.789  67.752  1.00  0.00    -0.156 C  
ENDROOT
BRANCH   2   5
HETATM    5  C   UNL     1      -8.315   6.821  67.158  1.00  0.00    -0.121 C  
HETATM    6  C   UNL     1      -8.388   7.275  65.675  1.00  0.00    -0.140 C  
HETATM    7  O   UNL     1      -8.715   8.483  65.520  1.00  0.00    -0.171 OA 
HETATM    8  O   UNL     1      -8.232   6.341  64.842  1.00  0.00    -0.140 OA 
ENDBRANCH   2   5
TORSDOF 1
ENDMDL
MODEL      205
REMARK 921   NORMALIZED FREE ENERGY PREDICTED BY IDOCK:   -1.31 KCAL/MOL
REMARK 922        TOTAL FREE ENERGY PREDICTED BY IDOCK:   -1.16 KCAL/MOL
REMARK 923 INTER-LIGAND FREE ENERGY PREDICTED BY IDOCK:   -1.33 KCAL/MOL
REMARK 924 INTRA-LIGAND FREE ENERGY PREDICTED BY IDOCK:    0.17 KCAL/MOL
REMARK 927      BINDING AFFINITY PREDICTED BY RF-SCORE:    0.00 PKD
ROOT
HETATM    1  C   UNL     1      -8.654   6.470  66.562  1.00  0.00    -0.123 C  
HETATM    2  N   UNL     1      -9.800   5.675  67.121  1.00  0.00    -0.137 N  
HETATM    3  C   UNL     1     -10.061   4.429  66.292  1.00  0.00    -0.225 C  
HETATM    4  C   UNL     1     -11.066   6.512  67.190  1.00  0.00    -0.360 C  
ENDROOT
BRANCH   2   5
HETATM    5  C   UNL     1      -9.437   5.217  68.594  1.00  0.00    -0.133 C  
HETATM    6  C   UNL     1      -8.539   6.171  69.426  1.00  0.00    -0.123 C  
HETATM    7  O   UNL     1      -9.175   7.063  70.052  1.00  0.00    -0.148 OA 
HETATM    8  O   UNL     1      -7.302   5.994  69.256  1.00  0.00    -0.079 OA 
ENDBRANCH   2   5
TORSDOF 1
ENDMDL
MODEL      206
REMARK 921   NORMALIZED FREE ENERGY PREDICTED BY IDOCK:   -1.29 KCAL/MOL
REMARK 922        TOTAL FREE ENERGY PREDICTED BY IDOCK:   -1.13 KCAL/MOL
REMARK 923 INTER-LIGAND FREE ENERGY PREDICTED BY IDOCK:   -1.33 KCAL/MOL
REMARK 924 INTRA-LIGAND FREE ENERGY PREDICTED BY IDOCK:    0.20 KCAL/MOL
REMARK 927      BINDING AFFINITY PREDICTED BY RF-SCORE:    0.00 PKD
ROOT
HETATM    1  C   UNL     1     -10.748  11.211  63.918  1.00  0.00    -0.337 C  
HETATM    2  N   UNL     1     -10.283  11.762  65.235  1.00  0.00    -0.256 N  
HETATM    3  C   UNL     1     -11.447  11.960  66.191  1.00  0.00    -0.288 C  
HETATM    4  C   UNL     1      -9.551  13.082  65.051  1.00  0.00     0.229 C  
ENDROOT
BRANCH   2   5
HETATM    5  C   UNL     1      -9.276  10.734  65.897  1.00  0.00    -0.190 C  
HETATM    6  C   UNL     1      -9.429  10.482  67.421  1.00  0.00    -0.153 C  
HETATM    7  O   UNL     1     -10.262   9.581  67.714  1.00  0.00    -0.188 OA 
HETATM    8  O   UNL     1      -8.794  11.298  68.145  1.00  0.00    -0.145 OA 
ENDBRANCH   2   5
TORSDOF 1
ENDMDL
MODEL      207
REMARK 921   NORMALIZED FREE ENERGY PREDICTED BY IDOCK:   -1.28 KCAL/MOL
REMARK 922        TOTAL FREE ENERGY PREDICTED BY IDOCK:   -1.13 KCAL/MOL
REMARK 923 INTER-LIGAND FREE ENERGY PREDICTED BY IDOCK:   -1.30 KCAL/MOL
REMARK 924 INTRA-LIGAND FREE ENERGY PREDICTED BY IDOCK:    0.17 KCAL/MOL
REMARK 927      BINDING AFFINITY PREDICTED BY RF-SCORE:    0.00 PKD
ROOT
HETATM    1  C   UNL     1      -7.918   9.876  66.927  1.00  0.00    -0.109 C  
HETATM    2  N   UNL     1      -8.604   8.604  67.334  1.00  0.00    -0.133 N  
HETATM    3  C   UNL     1      -7.783   7.387  66.944  1.00  0.00    -0.110 C  
HETATM    4  C   UNL     1      -9.987   8.503  66.711  1.00  0.00    -0.281 C  
ENDROOT
BRANCH   2   5
HETATM    5  C   UNL     1      -8.776   8.594  68.909  1.00  0.00    -0.131 C  
HETATM    6  C   UNL     1      -8.688   9.963  69.635  1.00  0.00    -0.204 C  
HETATM    7  O   UNL     1      -9.783  10.586  69.698  1.00  0.00    -0.176 OA 
HETATM    8  O   UNL     1      -7.514  10.309  69.942  1.00  0.00    -0.155 OA 
ENDBRANCH   2   5
TORSDOF 1
ENDMDL
MODEL      208
REMARK 921   NORMALIZED FREE ENERGY PREDICTED BY IDOCK:   -1.28 KCAL/MOL
REMARK 922        TOTAL FREE ENERGY PREDICTED BY IDOCK:   -1.13 KCAL/MOL
REMARK 923 INTER-LIGAND FREE ENERGY PREDICTED BY IDOCK:   -1.33 KCAL/MOL
REMARK 924 INTRA-LIGAND FREE ENERGY PREDICTED BY IDOCK:    0.21 KCAL/MOL
REMARK 927      BINDING AFFINITY PREDICTED BY RF-SCORE:    0.00 PKD
ROOT
HETATM    1  C   UNL     1      -7.409   5.303  69.596  1.00  0.00    -0.064 C  
HETATM    2  N   UNL     1      -8.435   4.867  70.602  1.00  0.00    -0.103 N  
HETATM    3  C   UNL     1      -7.813   3.993  71.678  1.00  0.00    -0.070 C  
HETATM    4  C   UNL     1      -9.574   4.115  69.935  1.00  0.00    -0.211 C  
ENDROOT
BRANCH   2   5
HETATM    5  C   UNL     1      -9.042   6.150  71.305  1.00  0.00    -0.143 C  
HETATM    6  C   UNL     1     -10.561   6.407  71.108  1.00  0.00    -0.236 C  
HETATM    7  O   UNL     1     -11.297   5.819  71.946  1.00  0.00    -0.266 OA 
HETATM    8  O   UNL     1     -10.842   7.062  70.067  1.00  0.00    -0.242 OA 
ENDBRANCH   2   5
TORSDOF 1
ENDMDL
MODEL      209
REMARK 921   NORMALIZED FREE ENERGY PREDICTED BY IDOCK:   -1.27 KCAL/MOL
REMARK 922        TOTAL FREE ENERGY PREDICTED BY IDOCK:   -1.12 KCAL/MOL
REMARK 923 INTER-LIGAND FREE ENERGY PREDICTED BY IDOCK:   -1.35 KCAL/MOL
REMARK 924 INTRA-LIGAND FREE ENERGY PREDICTED BY IDOCK:    0.23 KCAL/MOL
REMARK 927      BINDING AFFINITY PREDICTED BY RF-SCORE:    0.00 PKD
ROOT
HETATM    1  C   UNL     1      -9.215   8.843  65.267  1.00  0.00    -0.091 C  
HETATM    2  N   UNL     1      -8.762  10.132  64.644  1.00  0.00    -0.175 N  
HETATM    3  C   UNL     1      -9.427  10.355  63.296  1.00  0.00    -0.323 C  
HETATM    4  C   UNL     1      -7.252  10.158  64.474  1.00  0.00    -0.119 C  
ENDROOT
BRANCH   2   5
HETATM    5  C   UNL     1      -9.167  11.333  65.594  1.00  0.00    -0.213 C  
HETATM    6  C   UNL     1      -8.575  11.324  67.029  1.00  0.00    -0.148 C  
HETATM    7  O   UNL     1      -7.441  11.867  67.123  1.00  0.00    -0.139 OA 
HETATM    8  O   UNL     1      -9.256  10.667  67.864  1.00  0.00    -0.145 OA 
ENDBRANCH   2   5
TORSDOF 1
ENDMDL
MODEL      210
REMARK 921   NORMALIZED FREE ENERGY PREDICTED BY IDOCK:   -1.26 KCAL/MOL
REMARK 922        TOTAL FREE ENERGY PREDICTED BY IDOCK:   -1.10 KCAL/MOL
REMARK 923 INTER-LIGAND FREE ENERGY PREDICTED BY IDOCK:   -1.30 KCAL/MOL
REMARK 924 INTRA-LIGAND FREE ENERGY PREDICTED BY IDOCK:    0.19 KCAL/MOL
REMARK 927      BINDING AFFINITY PREDICTED BY RF-SCORE:    0.00 PKD
ROOT
HETATM    1  C   UNL     1     -10.702   6.483  67.834  1.00  0.00    -0.287 C  
HETATM    2  N   UNL     1     -10.044   7.812  68.068  1.00  0.00    -0.178 N  
HETATM    3  C   UNL     1     -10.244   8.280  69.500  1.00  0.00    -0.210 C  
HETATM    4  C   UNL     1     -10.579   8.866  67.112  1.00  0.00    -0.231 C  
ENDROOT
BRANCH   2   5
HETATM    5  C   UNL     1      -8.487   7.667  67.814  1.00  0.00    -0.122 C  
HETATM    6  C   UNL     1      -7.760   8.889  67.190  1.00  0.00    -0.095 C  
HETATM    7  O   UNL     1      -7.363   9.739  68.033  1.00  0.00    -0.080 OA 
HETATM    8  O   UNL     1      -7.785   8.914  65.929  1.00  0.00    -0.095 OA 
ENDBRANCH   2   5
TORSDOF 1
ENDMDL
MODEL      211
REMARK 921   NORMALIZED FREE ENERGY PREDICTED BY IDOCK:   -1.24 KCAL/MOL
REMARK 922        TOTAL FREE ENERGY PREDICTED BY IDOCK:   -1.09 KCAL/MOL
REMARK 923 INTER-LIGAND FREE ENERGY PREDICTED BY IDOCK:   -1.27 KCAL/MOL
REMARK 924 INTRA-LIGAND FREE ENERGY PREDICTED BY IDOCK:    0.18 KCAL/MOL
REMARK 927      BINDING AFFINITY PREDICTED BY RF-SCORE:    0.00 PKD
ROOT
HETATM    1  C   UNL     1     -10.920   4.696  73.034  1.00  0.00    -0.251 C  
HETATM    2  N   UNL     1     -10.081   5.391  72.000  1.00  0.00    -0.184 N  
HETATM    3  C   UNL     1      -9.201   6.456  72.633  1.00  0.00    -0.138 C  
HETATM    4  C   UNL     1     -10.948   6.025  70.925  1.00  0.00    -0.289 C  
ENDROOT
BRANCH   2   5
HETATM    5  C   UNL     1      -9.137   4.327  71.303  1.00  0.00    -0.127 C  
HETATM    6  C   UNL     1      -9.187   2.876  71.852  1.00  0.00    -0.106 C  
HETATM    7  O   UNL     1     -10.084   2.158  71.331  1.00  0.00    -0.104 OA 
HETATM    8  O   UNL     1      -8.411   2.665  72.824  1.00  0.00    -0.069 OA 
ENDBRANCH   2   5
TORSDOF 1
ENDMDL
MODEL      212
REMARK 921   NORMALIZED FREE ENERGY PREDICTED BY IDOCK:   -1.24 KCAL/MOL
REMARK 922        TOTAL FREE ENERGY PREDICTED BY IDOCK:   -1.09 KCAL/MOL
REMARK 923 INTER-LIGAND FREE ENERGY PREDICTED BY IDOCK:   -1.28 KCAL/MOL
REMARK 924 INTRA-LIGAND FREE ENERGY PREDICTED BY IDOCK:    0.20 KCAL/MOL
REMARK 927      BINDING AFFINITY PREDICTED BY RF-SCORE:    0.00 PKD
ROOT
HETATM    1  C   UNL     1      -8.103  10.121  69.802  1.00  0.00    -0.154 C  
HETATM    2  N   UNL     1      -8.041   9.185  68.629  1.00  0.00    -0.101 N  
HETATM    3  C   UNL     1      -8.248   7.744  69.063  1.00  0.00    -0.126 C  
HETATM    4  C   UNL     1      -6.713   9.308  67.899  1.00  0.00    -0.071 C  
ENDROOT
BRANCH   2   5
HETATM    5  C   UNL     1      -9.194   9.559  67.610  1.00  0.00    -0.124 C  
HETATM    6  C   UNL     1      -9.788   8.401  66.763  1.00  0.00    -0.259 C  
HETATM    7  O   UNL     1     -10.731   7.780  67.327  1.00  0.00    -0.307 OA 
HETATM    8  O   UNL     1      -9.160   8.170  65.694  1.00  0.00    -0.142 OA 
ENDBRANCH   2   5
TORSDOF 1
ENDMDL
MODEL      213
REMARK 921   NORMALIZED FREE ENERGY PREDICTED BY IDOCK:   -1.24 KCAL/MOL
REMARK 922        TOTAL FREE ENERGY PREDICTED BY IDOCK:   -1.08 KCAL/MOL
REMARK 923 INTER-LIGAND FREE ENERGY PREDICTED BY IDOCK:   -1.32 KCAL/MOL
REMARK 924 INTRA-LIGAND FREE ENERGY PREDICTED BY IDOCK:    0.23 KCAL/MOL
REMARK 927      BINDING AFFINITY PREDICTED BY RF-SCORE:    0.00 PKD
ROOT
HETATM    1  C   UNL     1     -11.221   8.289  70.474  1.00  0.00    -0.239 C  
HETATM    2  N   UNL     1     -10.146   7.264  70.695  1.00  0.00    -0.194 N  
HETATM    3  C   UNL     1     -10.492   6.346  71.855  1.00  0.00    -0.209 C  
HETATM    4  C   UNL     1      -8.803   7.925  70.956  1.00  0.00    -0.141 C  
ENDROOT
BRANCH   2   5
HETATM    5  C   UNL     1     -10.007   6.374  69.391  1.00  0.00    -0.158 C  
HETATM    6  C   UNL     1      -9.276   5.013  69.545  1.00  0.00    -0.119 C  
HETATM    7  O   UNL     1     -10.026   4.062  69.898  1.00  0.00    -0.186 OA 
HETATM    8  O   UNL     1      -8.023   5.083  69.417  1.00  0.00    -0.074 OA 
ENDBRANCH   2   5
TORSDOF 1
ENDMDL
MODEL      214
REMARK 921   NORMALIZED FREE ENERGY PREDICTED BY IDOCK:   -1.24 KCAL/MOL
REMARK 922        TOTAL FREE ENERGY PREDICTED BY IDOCK:   -1.08 KCAL/MOL
REMARK 923 INTER-LIGAND FREE ENERGY PREDICTED BY IDOCK:   -1.28 KCAL/MOL
REMARK 924 INTRA-LIGAND FREE ENERGY PREDICTED BY IDOCK:    0.20 KCAL/MOL
REMARK 927      BINDING AFFINITY PREDICTED BY RF-SCORE:    0.00 PKD
ROOT
HETATM    1  C   UNL     1     -10.892   2.495  63.176  1.00  0.00    -0.238 C  
HETATM    2  N   UNL     1      -9.473   2.942  63.388  1.00  0.00    -0.095 N  
HETATM    3  C   UNL     1      -9.203   4.263  62.687  1.00  0.00    -0.123 C  
HETATM    4  C   UNL     1      -8.489   1.896  62.892  1.00  0.00    -0.072 C  
ENDROOT
BRANCH   2   5
HETATM    5  C   UNL     1      -9.225   3.151  64.938  1.00  0.00    -0.147 C  
HETATM    6  C   UNL     1      -9.627   4.527  65.535  1.00  0.00    -0.185 C  
HETATM    7  O   UNL     1     -10.832   4.599  65.900  1.00  0.00    -0.274 OA 
HETATM    8  O   UNL     1      -8.728   5.408  65.452  1.00  0.00    -0.150 OA 
ENDBRANCH   2   5
TORSDOF 1
ENDMDL
MODEL      215
REMARK 921   NORMALIZED FREE ENERGY PREDICTED BY IDOCK:   -1.21 KCAL/MOL
REMARK 922        TOTAL FREE ENERGY PREDICTED BY IDOCK:   -1.05 KCAL/MOL
REMARK 923 INTER-LIGAND FREE ENERGY PREDICTED BY IDOCK:   -1.22 KCAL/MOL
REMARK 924 INTRA-LIGAND FREE ENERGY PREDICTED BY IDOCK:    0.18 KCAL/MOL
REMARK 927      BINDING AFFINITY PREDICTED BY RF-SCORE:    0.00 PKD
ROOT
HETATM    1  C   UNL     1      -8.140  12.627  68.758  1.00  0.00     0.096 C  
HETATM    2  N   UNL     1      -9.210  13.556  68.260  1.00  0.00    -0.200 N  
HETATM    3  C   UNL     1      -8.932  13.998  66.833  1.00  0.00    -0.227 C  
HETATM    4  C   UNL     1      -9.334  14.780  69.153  1.00  0.00    -0.101 C  
ENDROOT
BRANCH   2   5
HETATM    5  C   UNL     1     -10.600  12.797  68.276  1.00  0.00    -0.238 C  
HETATM    6  C   UNL     1     -10.566  11.277  68.590  1.00  0.00    -0.202 C  
HETATM    7  O   UNL     1     -10.605  11.003  69.821  1.00  0.00    -0.156 OA 
HETATM    8  O   UNL     1     -10.379  10.545  67.579  1.00  0.00    -0.198 OA 
ENDBRANCH   2   5
TORSDOF 1
ENDMDL
MODEL      216
REMARK 921   NORMALIZED FREE ENERGY PREDICTED BY IDOCK:   -1.20 KCAL/MOL
REMARK 922        TOTAL FREE ENERGY PREDICTED BY IDOCK:   -1.05 KCAL/MOL
REMARK 923 INTER-LIGAND FREE ENERGY PREDICTED BY IDOCK:   -1.28 KCAL/MOL
REMARK 924 INTRA-LIGAND FREE ENERGY PREDICTED BY IDOCK:    0.23 KCAL/MOL
REMARK 927      BINDING AFFINITY PREDICTED BY RF-SCORE:    0.00 PKD
ROOT
HETATM    1  C   UNL     1      -8.219   4.623  68.945  1.00  0.00    -0.081 C  
HETATM    2  N   UNL     1      -7.947   4.607  67.468  1.00  0.00    -0.096 N  
HETATM    3  C   UNL     1      -8.328   3.271  66.853  1.00  0.00    -0.097 C  
HETATM    4  C   UNL     1      -6.484   4.899  67.176  1.00  0.00    -0.049 C  
ENDROOT
BRANCH   2   5
HETATM    5  C   UNL     1      -8.818   5.732  66.773  1.00  0.00    -0.117 C  
HETATM    6  C   UNL     1     -10.361   5.600  66.891  1.00  0.00    -0.259 C  
HETATM    7  O   UNL     1     -10.845   6.121  67.934  1.00  0.00    -0.279 OA 
HETATM    8  O   UNL     1     -10.888   4.886  65.995  1.00  0.00    -0.301 OA 
ENDBRANCH   2   5
TORSDOF 1
ENDMDL
MODEL      217
REMARK 921   NORMALIZED FREE ENERGY PREDICTED BY IDOCK:   -1.17 KCAL/MOL
REMARK 922        TOTAL FREE ENERGY PREDICTED BY IDOCK:   -1.01 KCAL/MOL
REMARK 923 INTER-LIGAND FREE ENERGY PREDICTED BY IDOCK:   -1.17 KCAL/MOL
REMARK 924 INTRA-LIGAND FREE ENERGY PREDICTED BY IDOCK:    0.16 KCAL/MOL
REMARK 927      BINDING AFFINITY PREDICTED BY RF-SCORE:    0.00 PKD
ROOT
HETATM    1  C   UNL     1     -10.101   9.049  67.073  1.00  0.00    -0.250 C  
HETATM    2  N   UNL     1      -8.908   9.898  67.408  1.00  0.00    -0.132 N  
HETATM    3  C   UNL     1      -9.142  10.700  68.677  1.00  0.00    -0.170 C  
HETATM    4  C   UNL     1      -8.570  10.844  66.267  1.00  0.00    -0.164 C  
ENDROOT
BRANCH   2   5
HETATM    5  C   UNL     1      -7.657   8.956  67.648  1.00  0.00    -0.093 C  
HETATM    6  C   UNL     1      -7.948   7.513  68.141  1.00  0.00    -0.123 C  
HETATM    7  O   UNL     1      -8.168   6.685  67.214  1.00  0.00    -0.118 OA 
HETATM    8  O   UNL     1      -8.047   7.406  69.394  1.00  0.00    -0.124 OA 
ENDBRANCH   2   5
TORSDOF 1
ENDMDL
MODEL      218
REMARK 921   NORMALIZED FREE ENERGY PREDICTED BY IDOCK:   -1.17 KCAL/MOL
REMARK 922        TOTAL FREE ENERGY PREDICTED BY IDOCK:   -1.01 KCAL/MOL
REMARK 923 INTER-LIGAND FREE ENERGY PREDICTED BY IDOCK:   -1.17 KCAL/MOL
REMARK 924 INTRA-LIGAND FREE ENERGY PREDICTED BY IDOCK:    0.16 KCAL/MOL
REMARK 927      BINDING AFFINITY PREDICTED BY RF-SCORE:    0.00 PKD
ROOT
HETATM    1  C   UNL     1      -8.151   9.789  66.552  1.00  0.00    -0.116 C  
HETATM    2  N   UNL     1      -8.301  10.037  68.025  1.00  0.00    -0.116 N  
HETATM    3  C   UNL     1      -6.953  10.023  68.725  1.00  0.00    -0.062 C  
HETATM    4  C   UNL     1      -9.214   9.004  68.665  1.00  0.00    -0.136 C  
ENDROOT
BRANCH   2   5
HETATM    5  C   UNL     1      -8.951  11.465  68.244  1.00  0.00    -0.175 C  
HETATM    6  C   UNL     1      -8.783  12.496  67.095  1.00  0.00    -0.200 C  
HETATM    7  O   UNL     1      -9.673  12.425  66.204  1.00  0.00    -0.242 OA 
HETATM    8  O   UNL     1      -7.717  13.167  67.156  1.00  0.00    -0.127 OA 
ENDBRANCH   2   5
TORSDOF 1
ENDMDL
MODEL      219
REMARK 921   NORMALIZED FREE ENERGY PREDICTED BY IDOCK:   -1.16 KCAL/MOL
REMARK 922        TOTAL FREE ENERGY PREDICTED BY IDOCK:   -1.00 KCAL/MOL
REMARK 923 INTER-LIGAND FREE ENERGY PREDICTED BY IDOCK:   -1.21 KCAL/MOL
REMARK 924 INTRA-LIGAND FREE ENERGY PREDICTED BY IDOCK:    0.21 KCAL/MOL
REMARK 927      BINDING AFFINITY PREDICTED BY RF-SCORE:    0.00 PKD
ROOT
HETATM    1  C   UNL     1      -8.749   7.912  67.155  1.00  0.00    -0.131 C  
HETATM    2  N   UNL     1      -8.064   9.083  67.801  1.00  0.00    -0.109 N  
HETATM    3  C   UNL     1      -9.056  10.185  68.131  1.00  0.00    -0.128 C  
HETATM    4  C   UNL     1      -6.969   9.639  66.906  1.00  0.00    -0.085 C  
ENDROOT
BRANCH   2   5
HETATM    5  C   UNL     1      -7.394   8.605  69.154  1.00  0.00    -0.076 C  
HETATM    6  C   UNL     1      -7.753   9.405  70.436  1.00  0.00    -0.153 C  
HETATM    7  O   UNL     1      -8.797   9.003  71.020  1.00  0.00    -0.203 OA 
HETATM    8  O   UNL     1      -7.023  10.413  70.637  1.00  0.00    -0.324 OA 
ENDBRANCH   2   5
TORSDOF 1
ENDMDL
MODEL      220
REMARK 921   NORMALIZED FREE ENERGY PREDICTED BY IDOCK:   -1.16 KCAL/MOL
REMARK 922        TOTAL FREE ENERGY PREDICTED BY IDOCK:   -1.00 KCAL/MOL
REMARK 923 INTER-LIGAND FREE ENERGY PREDICTED BY IDOCK:   -1.25 KCAL/MOL
REMARK 924 INTRA-LIGAND FREE ENERGY PREDICTED BY IDOCK:    0.25 KCAL/MOL
REMARK 927      BINDING AFFINITY PREDICTED BY RF-SCORE:    0.00 PKD
ROOT
HETATM    1  C   UNL     1      -7.332   4.686  68.682  1.00  0.00    -0.061 C  
HETATM    2  N   UNL     1      -8.740   5.080  69.028  1.00  0.00    -0.088 N  
HETATM    3  C   UNL     1      -8.952   5.093  70.533  1.00  0.00    -0.134 C  
HETATM    4  C   UNL     1      -9.747   4.143  68.383  1.00  0.00    -0.081 C  
ENDROOT
BRANCH   2   5
HETATM    5  C   UNL     1      -9.014   6.542  68.483  1.00  0.00    -0.126 C  
HETATM    6  C   UNL     1     -10.487   7.033  68.500  1.00  0.00    -0.200 C  
HETATM    7  O   UNL     1     -10.841   7.565  69.588  1.00  0.00    -0.243 OA 
HETATM    8  O   UNL     1     -11.148   6.717  67.473  1.00  0.00    -0.321 OA 
ENDBRANCH   2   5
TORSDOF 1
ENDMDL
MODEL      221
REMARK 921   NORMALIZED FREE ENERGY PREDICTED BY IDOCK:   -1.15 KCAL/MOL
REMARK 922        TOTAL FREE ENERGY PREDICTED BY IDOCK:   -0.99 KCAL/MOL
REMARK 923 INTER-LIGAND FREE ENERGY PREDICTED BY IDOCK:   -1.16 KCAL/MOL
REMARK 924 INTRA-LIGAND FREE ENERGY PREDICTED BY IDOCK:    0.17 KCAL/MOL
REMARK 927      BINDING AFFINITY PREDICTED BY RF-SCORE:    0.00 PKD
ROOT
HETATM    1  C   UNL     1      -8.582   4.665  64.044  1.00  0.00    -0.136 C  
HETATM    2  N   UNL     1      -9.697   3.887  64.683  1.00  0.00    -0.175 N  
HETATM    3  C   UNL     1     -10.777   3.543  63.672  1.00  0.00    -0.260 C  
HETATM    4  C   UNL     1     -10.313   4.659  65.839  1.00  0.00    -0.283 C  
ENDROOT
BRANCH   2   5
HETATM    5  C   UNL     1      -9.115   2.531  65.257  1.00  0.00    -0.127 C  
HETATM    6  C   UNL     1      -7.588   2.483  65.536  1.00  0.00    -0.076 C  
HETATM    7  O   UNL     1      -7.259   2.901  66.680  1.00  0.00    -0.059 OA 
HETATM    8  O   UNL     1      -6.892   2.154  64.537  1.00  0.00    -0.039 OA 
ENDBRANCH   2   5
TORSDOF 1
ENDMDL
MODEL      222
REMARK 921   NORMALIZED FREE ENERGY PREDICTED BY IDOCK:   -1.13 KCAL/MOL
REMARK 922        TOTAL FREE ENERGY PREDICTED BY IDOCK:   -0.97 KCAL/MOL
REMARK 923 INTER-LIGAND FREE ENERGY PREDICTED BY IDOCK:   -1.17 KCAL/MOL
REMARK 924 INTRA-LIGAND FREE ENERGY PREDICTED BY IDOCK:    0.20 KCAL/MOL
REMARK 927      BINDING AFFINITY PREDICTED BY RF-SCORE:    0.00 PKD
ROOT
HETATM    1  C   UNL     1      -9.829   7.762  69.272  1.00  0.00    -0.173 C  
HETATM    2  N   UNL     1      -9.475   9.187  69.588  1.00  0.00    -0.165 N  
HETATM    3  C   UNL     1      -8.594   9.273  70.823  1.00  0.00    -0.203 C  
HETATM    4  C   UNL     1     -10.723  10.028  69.798  1.00  0.00    -0.271 C  
ENDROOT
BRANCH   2   5
HETATM    5  C   UNL     1      -8.671   9.800  68.369  1.00  0.00    -0.120 C  
HETATM    6  C   UNL     1      -7.341  10.529  68.700  1.00  0.00    -0.091 C  
HETATM    7  O   UNL     1      -6.335   9.770  68.750  1.00  0.00    -0.046 OA 
HETATM    8  O   UNL     1      -7.480  11.748  68.993  1.00  0.00    -0.104 OA 
ENDBRANCH   2   5
TORSDOF 1
ENDMDL
MODEL      223
REMARK 921   NORMALIZED FREE ENERGY PREDICTED BY IDOCK:   -1.12 KCAL/MOL
REMARK 922        TOTAL FREE ENERGY PREDICTED BY IDOCK:   -0.95 KCAL/MOL
REMARK 923 INTER-LIGAND FREE ENERGY PREDICTED BY IDOCK:   -1.13 KCAL/MOL
REMARK 924 INTRA-LIGAND FREE ENERGY PREDICTED BY IDOCK:    0.18 KCAL/MOL
REMARK 927      BINDING AFFINITY PREDICTED BY RF-SCORE:    0.00 PKD
ROOT
HETATM    1  C   UNL     1     -10.086   4.364  65.755  1.00  0.00    -0.245 C  
HETATM    2  N   UNL     1      -8.658   4.042  66.093  1.00  0.00    -0.109 N  
HETATM    3  C   UNL     1      -7.699   4.737  65.142  1.00  0.00    -0.086 C  
HETATM    4  C   UNL     1      -8.410   2.543  66.056  1.00  0.00    -0.093 C  
ENDROOT
BRANCH   2   5
HETATM    5  C   UNL     1      -8.348   4.552  67.560  1.00  0.00    -0.100 C  
HETATM    6  C   UNL     1      -9.508   4.478  68.589  1.00  0.00    -0.158 C  
HETATM    7  O   UNL     1      -9.599   3.371  69.186  1.00  0.00    -0.167 OA 
HETATM    8  O   UNL     1     -10.264   5.488  68.587  1.00  0.00    -0.173 OA 
ENDBRANCH   2   5
TORSDOF 1
ENDMDL
MODEL      224
REMARK 921   NORMALIZED FREE ENERGY PREDICTED BY IDOCK:   -1.11 KCAL/MOL
REMARK 922        TOTAL FREE ENERGY PREDICTED BY IDOCK:   -0.95 KCAL/MOL
REMARK 923 INTER-LIGAND FREE ENERGY PREDICTED BY IDOCK:   -1.18 KCAL/MOL
REMARK 924 INTRA-LIGAND FREE ENERGY PREDICTED BY IDOCK:    0.23 KCAL/MOL
REMARK 927      BINDING AFFINITY PREDICTED BY RF-SCORE:    0.00 PKD
ROOT
HETATM    1  C   UNL     1     -11.853   6.411  70.129  1.00  0.00    -0.184 C  
HETATM    2  N   UNL     1     -10.367   6.212  70.208  1.00  0.00    -0.201 N  
HETATM    3  C   UNL     1      -9.713   6.409  68.851  1.00  0.00    -0.126 C  
HETATM    4  C   UNL     1     -10.025   4.830  70.739  1.00  0.00    -0.221 C  
ENDROOT
BRANCH   2   5
HETATM    5  C   UNL     1      -9.757   7.283  71.204  1.00  0.00    -0.171 C  
HETATM    6  C   UNL     1      -8.232   7.556  71.094  1.00  0.00    -0.101 C  
HETATM    7  O   UNL     1      -7.926   8.436  70.244  1.00  0.00    -0.095 OA 
HETATM    8  O   UNL     1      -7.517   6.773  71.777  1.00  0.00    -0.085 OA 
ENDBRANCH   2   5
TORSDOF 1
ENDMDL
MODEL      225
REMARK 921   NORMALIZED FREE ENERGY PREDICTED BY IDOCK:   -1.09 KCAL/MOL
REMARK 922        TOTAL FREE ENERGY PREDICTED BY IDOCK:   -0.93 KCAL/MOL
REMARK 923 INTER-LIGAND FREE ENERGY PREDICTED BY IDOCK:   -1.13 KCAL/MOL
REMARK 924 INTRA-LIGAND FREE ENERGY PREDICTED BY IDOCK:    0.21 KCAL/MOL
REMARK 927      BINDING AFFINITY PREDICTED BY RF-SCORE:    0.00 PKD
ROOT
HETATM    1  C   UNL     1      -6.680   4.907  69.188  1.00  0.00    -0.049 C  
HETATM    2  N   UNL     1      -8.121   4.699  68.816  1.00  0.00    -0.082 N  
HETATM    3  C   UNL     1      -8.368   3.273  68.355  1.00  0.00    -0.077 C  
HETATM    4  C   UNL     1      -8.551   5.666  67.725  1.00  0.00    -0.101 C  
ENDROOT
BRANCH   2   5
HETATM    5  C   UNL     1      -9.024   4.965  70.089  1.00  0.00    -0.107 C  
HETATM    6  C   UNL     1      -9.980   6.187  70.029  1.00  0.00    -0.173 C  
HETATM    7  O   UNL     1     -11.102   5.940  69.507  1.00  0.00    -0.381 OA 
HETATM    8  O   UNL     1      -9.453   7.273  70.395  1.00  0.00    -0.165 OA 
ENDBRANCH   2   5
TORSDOF 1
ENDMDL
MODEL      226
REMARK 921   NORMALIZED FREE ENERGY PREDICTED BY IDOCK:   -1.07 KCAL/MOL
REMARK 922        TOTAL FREE ENERGY PREDICTED BY IDOCK:   -0.91 KCAL/MOL
REMARK 923 INTER-LIGAND FREE ENERGY PREDICTED BY IDOCK:   -1.10 KCAL/MOL
REMARK 924 INTRA-LIGAND FREE ENERGY PREDICTED BY IDOCK:    0.19 KCAL/MOL
REMARK 927      BINDING AFFINITY PREDICTED BY RF-SCORE:    0.00 PKD
ROOT
HETATM    1  C   UNL     1      -9.537   4.415  72.021  1.00  0.00    -0.151 C  
HETATM    2  N   UNL     1      -8.325   5.042  72.649  1.00  0.00    -0.116 N  
HETATM    3  C   UNL     1      -7.070   4.245  72.338  1.00  0.00    -0.061 C  
HETATM    4  C   UNL     1      -8.488   5.161  74.156  1.00  0.00    -0.108 C  
ENDROOT
BRANCH   2   5
HETATM    5  C   UNL     1      -8.137   6.501  72.061  1.00  0.00    -0.107 C  
HETATM    6  C   UNL     1      -8.782   7.667  72.857  1.00  0.00    -0.153 C  
HETATM    7  O   UNL     1      -8.050   8.135  73.772  1.00  0.00    -0.195 OA 
HETATM    8  O   UNL     1      -9.986   7.893  72.556  1.00  0.00    -0.204 OA 
ENDBRANCH   2   5
TORSDOF 1
ENDMDL
MODEL      227
REMARK 921   NORMALIZED FREE ENERGY PREDICTED BY IDOCK:   -1.05 KCAL/MOL
REMARK 922        TOTAL FREE ENERGY PREDICTED BY IDOCK:   -0.89 KCAL/MOL
REMARK 923 INTER-LIGAND FREE ENERGY PREDICTED BY IDOCK:   -1.06 KCAL/MOL
REMARK 924 INTRA-LIGAND FREE ENERGY PREDICTED BY IDOCK:    0.18 KCAL/MOL
REMARK 927      BINDING AFFINITY PREDICTED BY RF-SCORE:    0.00 PKD
ROOT
HETATM    1  C   UNL     1     -10.136   5.464  69.577  1.00  0.00    -0.240 C  
HETATM    2  N   UNL     1      -9.128   5.625  70.678  1.00  0.00    -0.148 N  
HETATM    3  C   UNL     1      -8.879   4.308  71.393  1.00  0.00    -0.113 C  
HETATM    4  C   UNL     1      -9.577   6.671  71.685  1.00  0.00    -0.162 C  
ENDROOT
BRANCH   2   5
HETATM    5  C   UNL     1      -7.755   6.108  70.052  1.00  0.00    -0.097 C  
HETATM    6  C   UNL     1      -7.739   6.386  68.524  1.00  0.00    -0.104 C  
HETATM    7  O   UNL     1      -8.090   7.556  68.208  1.00  0.00    -0.121 OA 
HETATM    8  O   UNL     1      -7.500   5.369  67.817  1.00  0.00    -0.078 OA 
ENDBRANCH   2   5
TORSDOF 1
ENDMDL
MODEL      228
REMARK 921   NORMALIZED FREE ENERGY PREDICTED BY IDOCK:   -1.04 KCAL/MOL
REMARK 922        TOTAL FREE ENERGY PREDICTED BY IDOCK:   -0.87 KCAL/MOL
REMARK 923 INTER-LIGAND FREE ENERGY PREDICTED BY IDOCK:   -1.04 KCAL/MOL
REMARK 924 INTRA-LIGAND FREE ENERGY PREDICTED BY IDOCK:    0.17 KCAL/MOL
REMARK 927      BINDING AFFINITY PREDICTED BY RF-SCORE:    0.00 PKD
ROOT
HETATM    1  C   UNL     1      -9.963   7.652  69.426  1.00  0.00    -0.180 C  
HETATM    2  N   UNL     1      -8.561   8.184  69.517  1.00  0.00    -0.133 N  
HETATM    3  C   UNL     1      -8.412   9.143  70.686  1.00  0.00    -0.209 C  
HETATM    4  C   UNL     1      -8.157   8.887  68.231  1.00  0.00    -0.109 C  
ENDROOT
BRANCH   2   5
HETATM    5  C   UNL     1      -7.565   6.974  69.746  1.00  0.00    -0.104 C  
HETATM    6  C   UNL     1      -8.180   5.648  70.271  1.00  0.00    -0.104 C  
HETATM    7  O   UNL     1      -8.614   4.886  69.364  1.00  0.00    -0.086 OA 
HETATM    8  O   UNL     1      -8.269   5.583  71.528  1.00  0.00    -0.115 OA 
ENDBRANCH   2   5
TORSDOF 1
ENDMDL
MODEL      229
REMARK 921   NORMALIZED FREE ENERGY PREDICTED BY IDOCK:   -1.04 KCAL/MOL
REMARK 922        TOTAL FREE ENERGY PREDICTED BY IDOCK:   -0.87 KCAL/MOL
REMARK 923 INTER-LIGAND FREE ENERGY PREDICTED BY IDOCK:   -1.09 KCAL/MOL
REMARK 924 INTRA-LIGAND FREE ENERGY PREDICTED BY IDOCK:    0.23 KCAL/MOL
REMARK 927      BINDING AFFINITY PREDICTED BY RF-SCORE:    0.00 PKD
ROOT
HETATM    1  C   UNL     1     -10.770   5.665  68.501  1.00  0.00    -0.162 C  
HETATM    2  N   UNL     1      -9.625   5.195  67.651  1.00  0.00    -0.134 N  
HETATM    3  C   UNL     1     -10.063   4.970  66.214  1.00  0.00    -0.247 C  
HETATM    4  C   UNL     1      -9.021   3.914  68.202  1.00  0.00    -0.121 C  
ENDROOT
BRANCH   2   5
HETATM    5  C   UNL     1      -8.495   6.306  67.649  1.00  0.00    -0.116 C  
HETATM    6  C   UNL     1      -8.003   6.809  69.033  1.00  0.00    -0.116 C  
HETATM    7  O   UNL     1      -7.073   6.118  69.532  1.00  0.00    -0.065 OA 
HETATM    8  O   UNL     1      -8.686   7.756  69.511  1.00  0.00    -0.134 OA 
ENDBRANCH   2   5
TORSDOF 1
ENDMDL
MODEL      230
REMARK 921   NORMALIZED FREE ENERGY PREDICTED BY IDOCK:   -1.03 KCAL/MOL
REMARK 922        TOTAL FREE ENERGY PREDICTED BY IDOCK:   -0.86 KCAL/MOL
REMARK 923 INTER-LIGAND FREE ENERGY PREDICTED BY IDOCK:   -1.09 KCAL/MOL
REMARK 924 INTRA-LIGAND FREE ENERGY PREDICTED BY IDOCK:    0.22 KCAL/MOL
REMARK 927      BINDING AFFINITY PREDICTED BY RF-SCORE:    0.00 PKD
ROOT
HETATM    1  C   UNL     1      -8.803  11.174  62.726  1.00  0.00    -0.239 C  
HETATM    2  N   UNL     1      -8.250  10.006  63.491  1.00  0.00    -0.154 N  
HETATM    3  C   UNL     1      -9.153   9.636  64.656  1.00  0.00    -0.235 C  
HETATM    4  C   UNL     1      -6.852  10.301  64.009  1.00  0.00    -0.054 C  
ENDROOT
BRANCH   2   5
HETATM    5  C   UNL     1      -8.160   8.754  62.525  1.00  0.00    -0.162 C  
HETATM    6  C   UNL     1      -7.168   7.629  62.925  1.00  0.00    -0.086 C  
HETATM    7  O   UNL     1      -7.653   6.765  63.707  1.00  0.00    -0.091 OA 
HETATM    8  O   UNL     1      -5.989   7.809  62.513  1.00  0.00    -0.066 OA 
ENDBRANCH   2   5
TORSDOF 1
ENDMDL
MODEL      231
REMARK 921   NORMALIZED FREE ENERGY PREDICTED BY IDOCK:   -0.97 KCAL/MOL
REMARK 922        TOTAL FREE ENERGY PREDICTED BY IDOCK:   -0.79 KCAL/MOL
REMARK 923 INTER-LIGAND FREE ENERGY PREDICTED BY IDOCK:   -0.96 KCAL/MOL
REMARK 924 INTRA-LIGAND FREE ENERGY PREDICTED BY IDOCK:    0.17 KCAL/MOL
REMARK 927      BINDING AFFINITY PREDICTED BY RF-SCORE:    0.00 PKD
ROOT
HETATM    1  C   UNL     1      -9.728   7.923  67.581  1.00  0.00    -0.156 C  
HETATM    2  N   UNL     1      -8.268   7.692  67.845  1.00  0.00    -0.122 N  
HETATM    3  C   UNL     1      -7.818   8.405  69.109  1.00  0.00    -0.105 C  
HETATM    4  C   UNL     1      -7.418   8.157  66.673  1.00  0.00    -0.089 C  
ENDROOT
BRANCH   2   5
HETATM    5  C   UNL     1      -8.019   6.141  68.043  1.00  0.00    -0.110 C  
HETATM    6  C   UNL     1      -8.940   5.175  67.249  1.00  0.00    -0.112 C  
HETATM    7  O   UNL     1      -8.530   4.910  66.086  1.00  0.00    -0.111 OA 
HETATM    8  O   UNL     1     -10.022   4.897  67.834  1.00  0.00    -0.158 OA 
ENDBRANCH   2   5
TORSDOF 1
ENDMDL
MODEL      232
REMARK 921   NORMALIZED FREE ENERGY PREDICTED BY IDOCK:   -0.96 KCAL/MOL
REMARK 922        TOTAL FREE ENERGY PREDICTED BY IDOCK:   -0.79 KCAL/MOL
REMARK 923 INTER-LIGAND FREE ENERGY PREDICTED BY IDOCK:   -1.02 KCAL/MOL
REMARK 924 INTRA-LIGAND FREE ENERGY PREDICTED BY IDOCK:    0.23 KCAL/MOL
REMARK 927      BINDING AFFINITY PREDICTED BY RF-SCORE:    0.00 PKD
ROOT
HETATM    1  C   UNL     1      -9.895   4.370  67.025  1.00  0.00    -0.194 C  
HETATM    2  N   UNL     1      -8.906   4.050  65.940  1.00  0.00    -0.119 N  
HETATM    3  C   UNL     1      -9.535   4.192  64.565  1.00  0.00    -0.165 C  
HETATM    4  C   UNL     1      -8.351   2.645  66.100  1.00  0.00    -0.092 C  
ENDROOT
BRANCH   2   5
HETATM    5  C   UNL     1      -7.695   5.067  66.031  1.00  0.00    -0.091 C  
HETATM    6  C   UNL     1      -8.030   6.575  65.868  1.00  0.00    -0.115 C  
HETATM    7  O   UNL     1      -8.361   7.150  66.941  1.00  0.00    -0.115 OA 
HETATM    8  O   UNL     1      -8.044   6.973  64.671  1.00  0.00    -0.130 OA 
ENDBRANCH   2   5
TORSDOF 1
ENDMDL
MODEL      233
REMARK 921   NORMALIZED FREE ENERGY PREDICTED BY IDOCK:   -0.96 KCAL/MOL
REMARK 922        TOTAL FREE ENERGY PREDICTED BY IDOCK:   -0.78 KCAL/MOL
REMARK 923 INTER-LIGAND FREE ENERGY PREDICTED BY IDOCK:   -0.98 KCAL/MOL
REMARK 924 INTRA-LIGAND FREE ENERGY PREDICTED BY IDOCK:    0.19 KCAL/MOL
REMARK 927      BINDING AFFINITY PREDICTED BY RF-SCORE:    0.00 PKD
ROOT
HETATM    1  C   UNL     1      -7.569  11.678  69.058  1.00  0.00    -0.027 C  
HETATM    2  N   UNL     1      -6.555  12.293  68.136  1.00  0.00    -0.061 N  
HETATM    3  C   UNL     1      -6.162  11.328  67.030  1.00  0.00    -0.108 C  
HETATM    4  C   UNL     1      -5.311  12.723  68.897  1.00  0.00    -0.067 C  
ENDROOT
BRANCH   2   5
HETATM    5  C   UNL     1      -7.185  13.580  67.462  1.00  0.00    -0.154 C  
HETATM    6  C   UNL     1      -6.767  14.956  68.049  1.00  0.00    -0.141 C  
HETATM    7  O   UNL     1      -5.710  15.430  67.549  1.00  0.00    -0.286 OA 
HETATM    8  O   UNL     1      -7.472  15.337  69.023  1.00  0.00    -0.135 OA 
ENDBRANCH   2   5
TORSDOF 1
ENDMDL
MODEL      234
REMARK 921   NORMALIZED FREE ENERGY PREDICTED BY IDOCK:   -0.95 KCAL/MOL
REMARK 922        TOTAL FREE ENERGY PREDICTED BY IDOCK:   -0.77 KCAL/MOL
REMARK 923 INTER-LIGAND FREE ENERGY PREDICTED BY IDOCK:   -0.98 KCAL/MOL
REMARK 924 INTRA-LIGAND FREE ENERGY PREDICTED BY IDOCK:    0.21 KCAL/MOL
REMARK 927      BINDING AFFINITY PREDICTED BY RF-SCORE:    0.00 PKD
ROOT
HETATM    1  C   UNL     1      -8.225   6.939  64.882  1.00  0.00    -0.074 C  
HETATM    2  N   UNL     1      -7.931   7.940  65.963  1.00  0.00    -0.098 N  
HETATM    3  C   UNL     1      -8.860   9.138  65.870  1.00  0.00    -0.175 C  
HETATM    4  C   UNL     1      -6.488   8.413  65.894  1.00  0.00    -0.053 C  
ENDROOT
BRANCH   2   5
HETATM    5  C   UNL     1      -8.154   7.255  67.373  1.00  0.00    -0.113 C  
HETATM    6  C   UNL     1      -9.312   7.807  68.247  1.00  0.00    -0.143 C  
HETATM    7  O   UNL     1     -10.433   7.278  68.013  1.00  0.00    -0.188 OA 
HETATM    8  O   UNL     1      -8.989   8.788  68.972  1.00  0.00    -0.136 OA 
ENDBRANCH   2   5
TORSDOF 1
ENDMDL
MODEL      235
REMARK 921   NORMALIZED FREE ENERGY PREDICTED BY IDOCK:   -0.94 KCAL/MOL
REMARK 922        TOTAL FREE ENERGY PREDICTED BY IDOCK:   -0.76 KCAL/MOL
REMARK 923 INTER-LIGAND FREE ENERGY PREDICTED BY IDOCK:   -0.98 KCAL/MOL
REMARK 924 INTRA-LIGAND FREE ENERGY PREDICTED BY IDOCK:    0.22 KCAL/MOL
REMARK 927      BINDING AFFINITY PREDICTED BY RF-SCORE:    0.00 PKD
ROOT
HETATM    1  C   UNL     1      -8.699  14.392  66.726  1.00  0.00    -0.159 C  
HETATM    2  N   UNL     1      -8.374  14.237  68.184  1.00  0.00    -0.152 N  
HETATM    3  C   UNL     1      -9.508  14.747  69.057  1.00  0.00    -0.167 C  
HETATM    4  C   UNL     1      -7.092  14.971  68.541  1.00  0.00    -0.110 C  
ENDROOT
BRANCH   2   5
HETATM    5  C   UNL     1      -8.164  12.700  68.503  1.00  0.00    -0.074 C  
HETATM    6  C   UNL     1      -7.213  11.911  67.563  1.00  0.00    -0.125 C  
HETATM    7  O   UNL     1      -5.997  11.963  67.896  1.00  0.00    -0.045 OA 
HETATM    8  O   UNL     1      -7.776  11.439  66.538  1.00  0.00    -0.149 OA 
ENDBRANCH   2   5
TORSDOF 1
ENDMDL
MODEL      236
REMARK 921   NORMALIZED FREE ENERGY PREDICTED BY IDOCK:   -0.91 KCAL/MOL
REMARK 922        TOTAL FREE ENERGY PREDICTED BY IDOCK:   -0.73 KCAL/MOL
REMARK 923 INTER-LIGAND FREE ENERGY PREDICTED BY IDOCK:   -0.93 KCAL/MOL
REMARK 924 INTRA-LIGAND FREE ENERGY PREDICTED BY IDOCK:    0.20 KCAL/MOL
REMARK 927      BINDING AFFINITY PREDICTED BY RF-SCORE:    0.00 PKD
ROOT
HETATM    1  C   UNL     1      -9.105   4.697  70.155  1.00  0.00    -0.098 C  
HETATM    2  N   UNL     1      -8.717   5.333  68.850  1.00  0.00    -0.090 N  
HETATM    3  C   UNL     1      -8.760   4.326  67.714  1.00  0.00    -0.106 C  
HETATM    4  C   UNL     1      -7.328   5.946  68.931  1.00  0.00    -0.084 C  
ENDROOT
BRANCH   2   5
HETATM    5  C   UNL     1      -9.743   6.492  68.517  1.00  0.00    -0.129 C  
HETATM    6  C   UNL     1      -9.227   7.949  68.654  1.00  0.00    -0.142 C  
HETATM    7  O   UNL     1      -8.661   8.396  67.618  1.00  0.00    -0.128 OA 
HETATM    8  O   UNL     1      -9.336   8.428  69.816  1.00  0.00    -0.156 OA 
ENDBRANCH   2   5
TORSDOF 1
ENDMDL
MODEL      237
REMARK 921   NORMALIZED FREE ENERGY PREDICTED BY IDOCK:   -0.88 KCAL/MOL
REMARK 922        TOTAL FREE ENERGY PREDICTED BY IDOCK:   -0.70 KCAL/MOL
REMARK 923 INTER-LIGAND FREE ENERGY PREDICTED BY IDOCK:   -0.90 KCAL/MOL
REMARK 924 INTRA-LIGAND FREE ENERGY PREDICTED BY IDOCK:    0.20 KCAL/MOL
REMARK 927      BINDING AFFINITY PREDICTED BY RF-SCORE:    0.00 PKD
ROOT
HETATM    1  C   UNL     1     -10.133   5.463  69.576  1.00  0.00    -0.240 C  
HETATM    2  N   UNL     1      -9.120   5.622  70.674  1.00  0.00    -0.148 N  
HETATM    3  C   UNL     1      -8.872   4.304  71.387  1.00  0.00    -0.113 C  
HETATM    4  C   UNL     1      -9.565   6.668  71.684  1.00  0.00    -0.162 C  
ENDROOT
BRANCH   2   5
HETATM    5  C   UNL     1      -7.749   6.103  70.044  1.00  0.00    -0.097 C  
HETATM    6  C   UNL     1      -6.828   6.971  70.944  1.00  0.00    -0.054 C  
HETATM    7  O   UNL     1      -6.050   6.304  71.680  1.00  0.00    -0.038 OA 
HETATM    8  O   UNL     1      -7.079   8.206  70.900  1.00  0.00    -0.047 OA 
ENDBRANCH   2   5
TORSDOF 1
ENDMDL
MODEL      238
REMARK 921   NORMALIZED FREE ENERGY PREDICTED BY IDOCK:   -0.87 KCAL/MOL
REMARK 922        TOTAL FREE ENERGY PREDICTED BY IDOCK:   -0.69 KCAL/MOL
REMARK 923 INTER-LIGAND FREE ENERGY PREDICTED BY IDOCK:   -0.89 KCAL/MOL
REMARK 924 INTRA-LIGAND FREE ENERGY PREDICTED BY IDOCK:    0.20 KCAL/MOL
REMARK 927      BINDING AFFINITY PREDICTED BY RF-SCORE:    0.00 PKD
ROOT
HETATM    1  C   UNL     1     -10.098   8.253  70.287  1.00  0.00    -0.192 C  
HETATM    2  N   UNL     1      -9.327   7.101  69.707  1.00  0.00    -0.147 N  
HETATM    3  C   UNL     1      -9.012   7.335  68.240  1.00  0.00    -0.125 C  
HETATM    4  C   UNL     1     -10.092   5.797  69.859  1.00  0.00    -0.209 C  
ENDROOT
BRANCH   2   5
HETATM    5  C   UNL     1      -7.955   6.957  70.485  1.00  0.00    -0.114 C  
HETATM    6  C   UNL     1      -6.679   7.461  69.759  1.00  0.00    -0.044 C  
HETATM    7  O   UNL     1      -6.439   8.688  69.926  1.00  0.00    -0.034 OA 
HETATM    8  O   UNL     1      -6.140   6.602  69.008  1.00  0.00    -0.024 OA 
ENDBRANCH   2   5
TORSDOF 1
ENDMDL
MODEL      239
REMARK 921   NORMALIZED FREE ENERGY PREDICTED BY IDOCK:   -0.86 KCAL/MOL
REMARK 922        TOTAL FREE ENERGY PREDICTED BY IDOCK:   -0.68 KCAL/MOL
REMARK 923 INTER-LIGAND FREE ENERGY PREDICTED BY IDOCK:   -0.87 KCAL/MOL
REMARK 924 INTRA-LIGAND FREE ENERGY PREDICTED BY IDOCK:    0.19 KCAL/MOL
REMARK 927      BINDING AFFINITY PREDICTED BY RF-SCORE:    0.00 PKD
ROOT
HETATM    1  C   UNL     1      -8.910   6.084  69.057  1.00  0.00    -0.121 C  
HETATM    2  N   UNL     1      -8.553   4.765  69.679  1.00  0.00    -0.081 N  
HETATM    3  C   UNL     1      -7.122   4.373  69.352  1.00  0.00    -0.050 C  
HETATM    4  C   UNL     1      -9.496   3.666  69.217  1.00  0.00    -0.174 C  
ENDROOT
BRANCH   2   5
HETATM    5  C   UNL     1      -8.678   4.887  71.253  1.00  0.00    -0.128 C  
HETATM    6  C   UNL     1      -8.229   6.229  71.892  1.00  0.00    -0.110 C  
HETATM    7  O   UNL     1      -9.131   7.110  71.931  1.00  0.00    -0.135 OA 
HETATM    8  O   UNL     1      -6.998   6.284  72.163  1.00  0.00    -0.071 OA 
ENDBRANCH   2   5
TORSDOF 1
ENDMDL
MODEL      240
REMARK 921   NORMALIZED FREE ENERGY PREDICTED BY IDOCK:   -0.86 KCAL/MOL
REMARK 922        TOTAL FREE ENERGY PREDICTED BY IDOCK:   -0.68 KCAL/MOL
REMARK 923 INTER-LIGAND FREE ENERGY PREDICTED BY IDOCK:   -0.88 KCAL/MOL
REMARK 924 INTRA-LIGAND FREE ENERGY PREDICTED BY IDOCK:    0.20 KCAL/MOL
REMARK 927      BINDING AFFINITY PREDICTED BY RF-SCORE:    0.00 PKD
ROOT
HETATM    1  C   UNL     1      -7.350   7.253  70.502  1.00  0.00    -0.074 C  
HETATM    2  N   UNL     1      -8.197   6.313  69.694  1.00  0.00    -0.122 N  
HETATM    3  C   UNL     1      -9.635   6.308  70.186  1.00  0.00    -0.162 C  
HETATM    4  C   UNL     1      -7.642   4.899  69.736  1.00  0.00    -0.056 C  
ENDROOT
BRANCH   2   5
HETATM    5  C   UNL     1      -8.199   6.792  68.184  1.00  0.00    -0.114 C  
HETATM    6  C   UNL     1      -8.302   8.320  67.931  1.00  0.00    -0.128 C  
HETATM    7  O   UNL     1      -7.191   8.919  67.933  1.00  0.00    -0.081 OA 
HETATM    8  O   UNL     1      -9.484   8.758  67.886  1.00  0.00    -0.140 OA 
ENDBRANCH   2   5
TORSDOF 1
ENDMDL
MODEL      241
REMARK 921   NORMALIZED FREE ENERGY PREDICTED BY IDOCK:   -0.84 KCAL/MOL
REMARK 922        TOTAL FREE ENERGY PREDICTED BY IDOCK:   -0.67 KCAL/MOL
REMARK 923 INTER-LIGAND FREE ENERGY PREDICTED BY IDOCK:   -0.87 KCAL/MOL
REMARK 924 INTRA-LIGAND FREE ENERGY PREDICTED BY IDOCK:    0.20 KCAL/MOL
REMARK 927      BINDING AFFINITY PREDICTED BY RF-SCORE:    0.00 PKD
ROOT
HETATM    1  C   UNL     1      -9.908   4.389  66.911  1.00  0.00    -0.207 C  
HETATM    2  N   UNL     1      -9.194   3.719  65.772  1.00  0.00    -0.149 N  
HETATM    3  C   UNL     1     -10.011   3.792  64.493  1.00  0.00    -0.201 C  
HETATM    4  C   UNL     1      -8.887   2.266  66.095  1.00  0.00    -0.124 C  
ENDROOT
BRANCH   2   5
HETATM    5  C   UNL     1      -7.819   4.464  65.518  1.00  0.00    -0.094 C  
HETATM    6  C   UNL     1      -6.574   3.573  65.264  1.00  0.00    -0.040 C  
HETATM    7  O   UNL     1      -6.413   3.242  64.057  1.00  0.00    -0.029 OA 
HETATM    8  O   UNL     1      -5.979   3.207  66.315  1.00  0.00    -0.022 OA 
ENDBRANCH   2   5
TORSDOF 1
ENDMDL
MODEL      242
REMARK 921   NORMALIZED FREE ENERGY PREDICTED BY IDOCK:   -0.83 KCAL/MOL
REMARK 922        TOTAL FREE ENERGY PREDICTED BY IDOCK:   -0.65 KCAL/MOL
REMARK 923 INTER-LIGAND FREE ENERGY PREDICTED BY IDOCK:   -0.82 KCAL/MOL
REMARK 924 INTRA-LIGAND FREE ENERGY PREDICTED BY IDOCK:    0.17 KCAL/MOL
REMARK 927      BINDING AFFINITY PREDICTED BY RF-SCORE:    0.00 PKD
ROOT
HETATM    1  C   UNL     1      -8.367   6.611  66.739  1.00  0.00    -0.115 C  
HETATM    2  N   UNL     1      -7.527   7.610  67.481  1.00  0.00    -0.102 N  
HETATM    3  C   UNL     1      -6.111   7.097  67.682  1.00  0.00    -0.037 C  
HETATM    4  C   UNL     1      -8.139   7.947  68.831  1.00  0.00    -0.125 C  
ENDROOT
BRANCH   2   5
HETATM    5  C   UNL     1      -7.448   8.946  66.634  1.00  0.00    -0.086 C  
HETATM    6  C   UNL     1      -7.799   8.843  65.125  1.00  0.00    -0.106 C  
HETATM    7  O   UNL     1      -9.029   8.966  64.872  1.00  0.00    -0.176 OA 
HETATM    8  O   UNL     1      -6.825   8.527  64.389  1.00  0.00    -0.069 OA 
ENDBRANCH   2   5
TORSDOF 1
ENDMDL
MODEL      243
REMARK 921   NORMALIZED FREE ENERGY PREDICTED BY IDOCK:   -0.76 KCAL/MOL
REMARK 922        TOTAL FREE ENERGY PREDICTED BY IDOCK:   -0.57 KCAL/MOL
REMARK 923 INTER-LIGAND FREE ENERGY PREDICTED BY IDOCK:   -0.78 KCAL/MOL
REMARK 924 INTRA-LIGAND FREE ENERGY PREDICTED BY IDOCK:    0.21 KCAL/MOL
REMARK 927      BINDING AFFINITY PREDICTED BY RF-SCORE:    0.00 PKD
ROOT
HETATM    1  C   UNL     1      -7.905   6.988  66.486  1.00  0.00    -0.106 C  
HETATM    2  N   UNL     1      -6.853   7.993  66.113  1.00  0.00    -0.057 N  
HETATM    3  C   UNL     1      -5.458   7.427  66.312  1.00  0.00    -0.024 C  
HETATM    4  C   UNL     1      -7.002   9.270  66.924  1.00  0.00    -0.081 C  
ENDROOT
BRANCH   2   5
HETATM    5  C   UNL     1      -7.017   8.365  64.582  1.00  0.00    -0.073 C  
HETATM    6  C   UNL     1      -7.060   9.876  64.227  1.00  0.00    -0.131 C  
HETATM    7  O   UNL     1      -5.925  10.397  64.049  1.00  0.00    -0.142 OA 
HETATM    8  O   UNL     1      -8.211  10.389  64.293  1.00  0.00    -0.164 OA 
ENDBRANCH   2   5
TORSDOF 1
ENDMDL
MODEL      244
REMARK 921   NORMALIZED FREE ENERGY PREDICTED BY IDOCK:   -0.74 KCAL/MOL
REMARK 922        TOTAL FREE ENERGY PREDICTED BY IDOCK:   -0.56 KCAL/MOL
REMARK 923 INTER-LIGAND FREE ENERGY PREDICTED BY IDOCK:   -0.77 KCAL/MOL
REMARK 924 INTRA-LIGAND FREE ENERGY PREDICTED BY IDOCK:    0.21 KCAL/MOL
REMARK 927      BINDING AFFINITY PREDICTED BY RF-SCORE:    0.00 PKD
ROOT
HETATM    1  C   UNL     1      -6.175   4.744  69.129  1.00  0.00    -0.030 C  
HETATM    2  N   UNL     1      -7.378   5.566  68.764  1.00  0.00    -0.073 N  
HETATM    3  C   UNL     1      -8.613   4.694  68.609  1.00  0.00    -0.089 C  
HETATM    4  C   UNL     1      -7.143   6.342  67.479  1.00  0.00    -0.080 C  
ENDROOT
BRANCH   2   5
HETATM    5  C   UNL     1      -7.658   6.610  69.922  1.00  0.00    -0.100 C  
HETATM    6  C   UNL     1      -8.419   6.087  71.170  1.00  0.00    -0.125 C  
HETATM    7  O   UNL     1      -7.674   5.579  72.053  1.00  0.00    -0.098 OA 
HETATM    8  O   UNL     1      -9.675   6.133  71.066  1.00  0.00    -0.174 OA 
ENDBRANCH   2   5
TORSDOF 1
ENDMDL
MODEL      245
REMARK 921   NORMALIZED FREE ENERGY PREDICTED BY IDOCK:   -0.74 KCAL/MOL
REMARK 922        TOTAL FREE ENERGY PREDICTED BY IDOCK:   -0.55 KCAL/MOL
REMARK 923 INTER-LIGAND FREE ENERGY PREDICTED BY IDOCK:   -0.77 KCAL/MOL
REMARK 924 INTRA-LIGAND FREE ENERGY PREDICTED BY IDOCK:    0.22 KCAL/MOL
REMARK 927      BINDING AFFINITY PREDICTED BY RF-SCORE:    0.00 PKD
ROOT
HETATM    1  C   UNL     1     -12.049  11.909  70.821  1.00  0.00    -0.226 C  
HETATM    2  N   UNL     1     -12.505  10.512  71.132  1.00  0.00    -0.373 N  
HETATM    3  C   UNL     1     -13.146   9.861  69.918  1.00  0.00     0.870 C  
HETATM    4  C   UNL     1     -13.488  10.501  72.290  1.00  0.00    -0.035 C  
ENDROOT
BRANCH   2   5
HETATM    5  C   UNL     1     -11.249   9.641  71.549  1.00  0.00    -0.307 C  
HETATM    6  C   UNL     1     -10.339   9.126  70.401  1.00  0.00    -0.223 C  
HETATM    7  O   UNL     1      -9.437   9.937  70.053  1.00  0.00    -0.231 OA 
HETATM    8  O   UNL     1     -10.711   8.030  69.900  1.00  0.00    -0.244 OA 
ENDBRANCH   2   5
TORSDOF 1
ENDMDL
MODEL      246
REMARK 921   NORMALIZED FREE ENERGY PREDICTED BY IDOCK:   -0.58 KCAL/MOL
REMARK 922        TOTAL FREE ENERGY PREDICTED BY IDOCK:   -0.38 KCAL/MOL
REMARK 923 INTER-LIGAND FREE ENERGY PREDICTED BY IDOCK:   -0.59 KCAL/MOL
REMARK 924 INTRA-LIGAND FREE ENERGY PREDICTED BY IDOCK:    0.21 KCAL/MOL
REMARK 927      BINDING AFFINITY PREDICTED BY RF-SCORE:    0.00 PKD
ROOT
HETATM    1  C   UNL     1      -9.573   5.427  68.477  1.00  0.00    -0.129 C  
HETATM    2  N   UNL     1      -8.443   4.667  69.111  1.00  0.00    -0.079 N  
HETATM    3  C   UNL     1      -7.101   5.292  68.769  1.00  0.00    -0.061 C  
HETATM    4  C   UNL     1      -8.448   3.211  68.677  1.00  0.00    -0.075 C  
ENDROOT
BRANCH   2   5
HETATM    5  C   UNL     1      -8.614   4.709  70.685  1.00  0.00    -0.099 C  
HETATM    6  C   UNL     1      -7.971   3.549  71.493  1.00  0.00    -0.061 C  
HETATM    7  O   UNL     1      -6.763   3.741  71.799  1.00  0.00    -0.021 OA 
HETATM    8  O   UNL     1      -8.711   2.534  71.616  1.00  0.00    -0.066 OA 
ENDBRANCH   2   5
TORSDOF 1
ENDMDL
