MODEL        1
REMARK 921   NORMALIZED FREE ENERGY PREDICTED BY IDOCK:   -5.83 KCAL/MOL
REMARK 922        TOTAL FREE ENERGY PREDICTED BY IDOCK:   -8.75 KCAL/MOL
REMARK 923 INTER-LIGAND FREE ENERGY PREDICTED BY IDOCK:   -8.22 KCAL/MOL
REMARK 924 INTRA-LIGAND FREE ENERGY PREDICTED BY IDOCK:   -0.53 KCAL/MOL
REMARK 927      BINDING AFFINITY PREDICTED BY RF-SCORE:    0.00 PKD
ROOT
HETATM    1  C   UNL     1      -8.821   9.441  65.381  1.00  0.00    -0.184 C  
HETATM    2  O   UNL     1      -8.689   9.243  63.983  1.00  0.00    -0.205 OA 
ENDROOT
BRANCH   2   3
HETATM    3  C   UNL     1      -8.852  10.454  63.241  1.00  0.00    -0.216 C  
BRANCH   3   4
HETATM    4  C   UNL     1     -10.276  10.939  63.481  1.00  0.00    -0.317 C  
BRANCH   4   5
HETATM    5  O   UNL     1     -10.362  12.367  63.516  1.00  0.00    -0.425 OA 
BRANCH   5   6
HETATM    6  C   UNL     1     -10.896  12.867  64.670  1.00  0.00    -0.342 A  
HETATM    7  C   UNL     1     -11.570  12.157  65.645  1.00  0.00    -0.351 A  
HETATM    8  N   UNL     1     -12.062  12.699  66.774  1.00  0.00    -0.518 NA 
HETATM    9  C   UNL     1     -11.875  14.007  66.912  1.00  0.00    -0.430 A  
HETATM   10  C   UNL     1     -10.774  14.218  64.937  1.00  0.00    -0.432 A  
HETATM   11  N   UNL     1     -11.262  14.824  66.050  1.00  0.00    -0.341 NA 
BRANCH   9  12
HETATM   12  N   UNL     1     -12.324  14.572  68.102  1.00  0.00    -0.588 N  
HETATM   13  H   UNL     1     -13.312  14.658  68.340  1.00  0.00     0.000 HD 
BRANCH  12  14
HETATM   14  S   UNL     1     -11.090  15.101  69.110  1.00  0.00    -0.276 S  
HETATM   15  O   UNL     1     -10.788  16.500  68.887  1.00  0.00    -0.304 OA 
HETATM   16  O   UNL     1     -10.047  14.101  69.038  1.00  0.00    -0.193 OA 
BRANCH  14  17
HETATM   17  C   UNL     1     -11.799  14.962  70.745  1.00  0.00    -0.312 A  
HETATM   18  C   UNL     1     -11.573  15.976  71.680  1.00  0.00    -0.538 A  
HETATM   19  C   UNL     1     -12.134  15.872  72.953  1.00  0.00    -0.612 A  
HETATM   20  C   UNL     1     -12.922  14.767  73.282  1.00  0.00    -0.608 A  
HETATM   21  C   UNL     1     -13.169  13.773  72.336  1.00  0.00    -0.580 A  
HETATM   22  C   UNL     1     -12.621  13.875  71.056  1.00  0.00    -0.444 A  
ENDBRANCH  14  17
ENDBRANCH  12  14
ENDBRANCH   9  12
ENDBRANCH   5   6
ENDBRANCH   4   5
ENDBRANCH   3   4
ENDBRANCH   2   3
TORSDOF 7
ENDMDL
MODEL        2
REMARK 921   NORMALIZED FREE ENERGY PREDICTED BY IDOCK:   -5.75 KCAL/MOL
REMARK 922        TOTAL FREE ENERGY PREDICTED BY IDOCK:   -8.63 KCAL/MOL
REMARK 923 INTER-LIGAND FREE ENERGY PREDICTED BY IDOCK:   -8.26 KCAL/MOL
REMARK 924 INTRA-LIGAND FREE ENERGY PREDICTED BY IDOCK:   -0.38 KCAL/MOL
REMARK 927      BINDING AFFINITY PREDICTED BY RF-SCORE:    0.00 PKD
ROOT
HETATM    1  C   UNL     1      -6.841  19.679  69.248  1.00  0.00    -0.355 C  
HETATM    2  O   UNL     1      -8.148  19.467  68.738  1.00  0.00    -0.359 OA 
ENDROOT
BRANCH   2   3
HETATM    3  C   UNL     1      -8.326  20.033  67.437  1.00  0.00    -0.334 C  
BRANCH   3   4
HETATM    4  C   UNL     1      -9.778  19.798  67.040  1.00  0.00    -0.381 C  
BRANCH   4   5
HETATM    5  O   UNL     1     -10.325  18.630  67.662  1.00  0.00    -0.369 OA 
BRANCH   5   6
HETATM    6  C   UNL     1     -10.394  17.540  66.841  1.00  0.00    -0.315 A  
HETATM    7  C   UNL     1     -10.047  16.241  67.158  1.00  0.00    -0.268 A  
HETATM    8  N   UNL     1     -10.151  15.200  66.312  1.00  0.00    -0.268 NA 
HETATM    9  C   UNL     1     -10.614  15.489  65.101  1.00  0.00    -0.431 A  
HETATM   10  C   UNL     1     -10.858  17.702  65.548  1.00  0.00     0.056 A  
HETATM   11  N   UNL     1     -10.971  16.693  64.646  1.00  0.00    -0.836 NA 
BRANCH   9  12
HETATM   12  N   UNL     1     -10.787  14.413  64.234  1.00  0.00    -0.561 N  
HETATM   13  H   UNL     1     -10.157  14.218  63.456  1.00  0.00     0.000 HD 
BRANCH  12  14
HETATM   14  S   UNL     1     -12.128  13.467  64.585  1.00  0.00    -0.419 S  
HETATM   15  O   UNL     1     -12.653  12.829  63.395  1.00  0.00    -0.701 OA 
HETATM   16  O   UNL     1     -12.986  14.272  65.428  1.00  0.00    -0.654 OA 
BRANCH  14  17
HETATM   17  C   UNL     1     -11.467  12.180  65.634  1.00  0.00    -0.355 A  
HETATM   18  C   UNL     1     -10.588  11.237  65.093  1.00  0.00    -0.343 A  
HETATM   19  C   UNL     1     -10.064  10.238  65.913  1.00  0.00    -0.319 A  
HETATM   20  C   UNL     1     -10.411  10.190  67.265  1.00  0.00    -0.313 A  
HETATM   21  C   UNL     1     -11.266  11.151  67.807  1.00  0.00    -0.359 A  
HETATM   22  C   UNL     1     -11.785  12.161  66.995  1.00  0.00    -0.373 A  
ENDBRANCH  14  17
ENDBRANCH  12  14
ENDBRANCH   9  12
ENDBRANCH   5   6
ENDBRANCH   4   5
ENDBRANCH   3   4
ENDBRANCH   2   3
TORSDOF 7
ENDMDL
MODEL        3
REMARK 921   NORMALIZED FREE ENERGY PREDICTED BY IDOCK:   -5.68 KCAL/MOL
REMARK 922        TOTAL FREE ENERGY PREDICTED BY IDOCK:   -8.54 KCAL/MOL
REMARK 923 INTER-LIGAND FREE ENERGY PREDICTED BY IDOCK:   -7.97 KCAL/MOL
REMARK 924 INTRA-LIGAND FREE ENERGY PREDICTED BY IDOCK:   -0.57 KCAL/MOL
REMARK 927      BINDING AFFINITY PREDICTED BY RF-SCORE:    0.00 PKD
ROOT
HETATM    1  C   UNL     1      -8.418  10.115  66.045  1.00  0.00    -0.131 C  
HETATM    2  O   UNL     1      -8.307   9.498  64.772  1.00  0.00    -0.131 OA 
ENDROOT
BRANCH   2   3
HETATM    3  C   UNL     1      -8.356  10.443  63.700  1.00  0.00    -0.153 C  
BRANCH   3   4
HETATM    4  C   UNL     1      -9.824  10.645  63.346  1.00  0.00    -0.321 C  
BRANCH   4   5
HETATM    5  O   UNL     1     -10.144  12.024  63.138  1.00  0.00    -0.414 OA 
BRANCH   5   6
HETATM    6  C   UNL     1     -10.679  12.645  64.232  1.00  0.00    -0.382 A  
HETATM    7  C   UNL     1     -10.515  13.967  64.596  1.00  0.00    -0.396 A  
HETATM    8  N   UNL     1     -11.080  14.531  65.679  1.00  0.00    -0.317 NA 
HETATM    9  C   UNL     1     -11.828  13.724  66.423  1.00  0.00    -0.404 A  
HETATM   10  C   UNL     1     -11.478  11.916  65.093  1.00  0.00    -0.243 A  
HETATM   11  N   UNL     1     -12.062  12.426  66.208  1.00  0.00    -0.630 NA 
BRANCH   9  12
HETATM   12  N   UNL     1     -12.470  14.307  67.512  1.00  0.00    -0.524 N  
HETATM   13  H   UNL     1     -13.481  14.425  67.564  1.00  0.00     0.000 HD 
BRANCH  12  14
HETATM   14  S   UNL     1     -11.427  14.797  68.732  1.00  0.00    -0.318 S  
HETATM   15  O   UNL     1     -11.168  16.221  68.667  1.00  0.00    -0.341 OA 
HETATM   16  O   UNL     1     -10.333  13.849  68.740  1.00  0.00    -0.237 OA 
BRANCH  14  17
HETATM   17  C   UNL     1     -12.359  14.491  70.225  1.00  0.00    -0.349 A  
HETATM   18  C   UNL     1     -12.448  13.189  70.726  1.00  0.00    -0.389 A  
HETATM   19  C   UNL     1     -13.167  12.952  71.897  1.00  0.00    -0.521 A  
HETATM   20  C   UNL     1     -13.785  14.011  72.565  1.00  0.00    -0.651 A  
HETATM   21  C   UNL     1     -13.669  15.313  72.078  1.00  0.00    -0.596 A  
HETATM   22  C   UNL     1     -12.941  15.561  70.913  1.00  0.00    -0.526 A  
ENDBRANCH  14  17
ENDBRANCH  12  14
ENDBRANCH   9  12
ENDBRANCH   5   6
ENDBRANCH   4   5
ENDBRANCH   3   4
ENDBRANCH   2   3
TORSDOF 7
ENDMDL
MODEL        4
REMARK 921   NORMALIZED FREE ENERGY PREDICTED BY IDOCK:   -5.66 KCAL/MOL
REMARK 922        TOTAL FREE ENERGY PREDICTED BY IDOCK:   -8.51 KCAL/MOL
REMARK 923 INTER-LIGAND FREE ENERGY PREDICTED BY IDOCK:   -8.02 KCAL/MOL
REMARK 924 INTRA-LIGAND FREE ENERGY PREDICTED BY IDOCK:   -0.49 KCAL/MOL
REMARK 927      BINDING AFFINITY PREDICTED BY RF-SCORE:    0.00 PKD
ROOT
HETATM    1  C   UNL     1     -10.476  19.763  65.713  1.00  0.00    -0.445 C  
HETATM    2  O   UNL     1      -9.111  20.036  65.984  1.00  0.00    -0.361 OA 
ENDROOT
BRANCH   2   3
HETATM    3  C   UNL     1      -8.873  20.312  67.367  1.00  0.00    -0.344 C  
BRANCH   3   4
HETATM    4  C   UNL     1      -9.914  19.537  68.165  1.00  0.00    -0.418 C  
BRANCH   4   5
HETATM    5  O   UNL     1      -9.361  18.370  68.783  1.00  0.00    -0.326 OA 
BRANCH   5   6
HETATM    6  C   UNL     1     -10.115  17.242  68.624  1.00  0.00    -0.341 A  
HETATM    7  C   UNL     1     -10.808  16.564  69.608  1.00  0.00    -0.322 A  
HETATM    8  N   UNL     1     -11.552  15.464  69.391  1.00  0.00    -0.317 NA 
HETATM    9  C   UNL     1     -11.583  15.031  68.135  1.00  0.00    -0.340 A  
HETATM   10  C   UNL     1     -10.231  16.684  67.364  1.00  0.00    -0.286 A  
HETATM   11  N   UNL     1     -10.953  15.568  67.087  1.00  0.00    -0.317 NA 
BRANCH   9  12
HETATM   12  N   UNL     1     -12.398  13.930  67.883  1.00  0.00    -0.453 N  
HETATM   13  H   UNL     1     -13.404  14.004  67.738  1.00  0.00     0.000 HD 
BRANCH  12  14
HETATM   14  S   UNL     1     -11.571  12.470  67.839  1.00  0.00    -0.359 S  
HETATM   15  O   UNL     1     -12.363  11.397  68.406  1.00  0.00    -0.505 OA 
HETATM   16  O   UNL     1     -10.238  12.741  68.331  1.00  0.00    -0.234 OA 
BRANCH  14  17
HETATM   17  C   UNL     1     -11.398  12.141  66.092  1.00  0.00    -0.361 A  
HETATM   18  C   UNL     1     -12.300  12.716  65.191  1.00  0.00    -0.547 A  
HETATM   19  C   UNL     1     -12.160  12.467  63.827  1.00  0.00    -0.618 A  
HETATM   20  C   UNL     1     -11.119  11.657  63.367  1.00  0.00    -0.422 A  
HETATM   21  C   UNL     1     -10.204  11.109  64.266  1.00  0.00    -0.399 A  
HETATM   22  C   UNL     1     -10.331  11.363  65.633  1.00  0.00    -0.307 A  
ENDBRANCH  14  17
ENDBRANCH  12  14
ENDBRANCH   9  12
ENDBRANCH   5   6
ENDBRANCH   4   5
ENDBRANCH   3   4
ENDBRANCH   2   3
TORSDOF 7
ENDMDL
MODEL        5
REMARK 921   NORMALIZED FREE ENERGY PREDICTED BY IDOCK:   -5.60 KCAL/MOL
REMARK 922        TOTAL FREE ENERGY PREDICTED BY IDOCK:   -8.43 KCAL/MOL
REMARK 923 INTER-LIGAND FREE ENERGY PREDICTED BY IDOCK:   -7.86 KCAL/MOL
REMARK 924 INTRA-LIGAND FREE ENERGY PREDICTED BY IDOCK:   -0.57 KCAL/MOL
REMARK 927      BINDING AFFINITY PREDICTED BY RF-SCORE:    0.00 PKD
ROOT
HETATM    1  C   UNL     1     -12.068  12.604  63.424  1.00  0.00    -0.525 C  
HETATM    2  O   UNL     1     -12.659  13.893  63.450  1.00  0.00    -0.853 OA 
ENDROOT
BRANCH   2   3
HETATM    3  C   UNL     1     -12.154  14.705  64.514  1.00  0.00    -0.475 C  
BRANCH   3   4
HETATM    4  C   UNL     1     -10.743  14.220  64.818  1.00  0.00    -0.416 C  
BRANCH   4   5
HETATM    5  O   UNL     1     -10.521  14.050  66.222  1.00  0.00    -0.278 OA 
BRANCH   5   6
HETATM    6  C   UNL     1     -10.582  12.752  66.645  1.00  0.00    -0.256 A  
HETATM    7  C   UNL     1      -9.662  11.754  66.389  1.00  0.00    -0.214 A  
HETATM    8  N   UNL     1      -9.764  10.493  66.846  1.00  0.00    -0.175 NA 
HETATM    9  C   UNL     1     -10.843  10.232  67.576  1.00  0.00    -0.298 A  
HETATM   10  C   UNL     1     -11.657  12.346  67.413  1.00  0.00    -0.365 A  
HETATM   11  N   UNL     1     -11.823  11.085  67.889  1.00  0.00    -0.608 NA 
BRANCH   9  12
HETATM   12  N   UNL     1     -10.933   8.949  68.107  1.00  0.00    -0.473 N  
HETATM   13  H   UNL     1     -11.346   8.165  67.603  1.00  0.00     0.000 HD 
BRANCH  12  14
HETATM   14  S   UNL     1     -10.298   8.809  69.655  1.00  0.00    -0.215 S  
HETATM   15  O   UNL     1      -9.561   9.997  70.034  1.00  0.00    -0.231 OA 
HETATM   16  O   UNL     1      -9.679   7.504  69.727  1.00  0.00    -0.170 OA 
BRANCH  14  17
HETATM   17  C   UNL     1     -11.749   8.728  70.694  1.00  0.00    -0.166 A  
HETATM   18  C   UNL     1     -12.250   9.900  71.269  1.00  0.00    -0.480 A  
HETATM   19  C   UNL     1     -13.388   9.838  72.072  1.00  0.00    -0.547 A  
HETATM   20  C   UNL     1     -14.024   8.614  72.291  1.00  0.00    -0.472 A  
HETATM   21  C   UNL     1     -13.538   7.452  71.692  1.00  0.00    -0.449 A  
HETATM   22  C   UNL     1     -12.407   7.507  70.877  1.00  0.00    -0.198 A  
ENDBRANCH  14  17
ENDBRANCH  12  14
ENDBRANCH   9  12
ENDBRANCH   5   6
ENDBRANCH   4   5
ENDBRANCH   3   4
ENDBRANCH   2   3
TORSDOF 7
ENDMDL
MODEL        6
REMARK 921   NORMALIZED FREE ENERGY PREDICTED BY IDOCK:   -5.54 KCAL/MOL
REMARK 922        TOTAL FREE ENERGY PREDICTED BY IDOCK:   -8.35 KCAL/MOL
REMARK 923 INTER-LIGAND FREE ENERGY PREDICTED BY IDOCK:   -7.99 KCAL/MOL
REMARK 924 INTRA-LIGAND FREE ENERGY PREDICTED BY IDOCK:   -0.36 KCAL/MOL
REMARK 927      BINDING AFFINITY PREDICTED BY RF-SCORE:    0.00 PKD
ROOT
HETATM    1  C   UNL     1      -9.590  11.464  63.164  1.00  0.00    -0.380 C  
HETATM    2  O   UNL     1     -10.714  11.134  63.964  1.00  0.00    -0.368 OA 
ENDROOT
BRANCH   2   3
HETATM    3  C   UNL     1     -11.915  11.758  63.502  1.00  0.00    -0.380 C  
BRANCH   3   4
HETATM    4  C   UNL     1     -12.499  12.531  64.677  1.00  0.00    -0.463 C  
BRANCH   4   5
HETATM    5  O   UNL     1     -12.693  13.916  64.369  1.00  0.00    -0.656 OA 
BRANCH   5   6
HETATM    6  C   UNL     1     -11.755  14.746  64.915  1.00  0.00    -0.390 A  
HETATM    7  C   UNL     1     -10.891  14.451  65.952  1.00  0.00    -0.304 A  
HETATM    8  N   UNL     1      -9.973  15.304  66.440  1.00  0.00    -0.261 NA 
HETATM    9  C   UNL     1      -9.938  16.501  65.864  1.00  0.00    -0.317 A  
HETATM   10  C   UNL     1     -11.615  16.025  64.409  1.00  0.00    -0.212 A  
HETATM   11  N   UNL     1     -10.718  16.934  64.870  1.00  0.00    -0.727 NA 
BRANCH   9  12
HETATM   12  N   UNL     1      -8.952  17.374  66.316  1.00  0.00    -0.240 N  
HETATM   13  H   UNL     1      -7.961  17.250  66.109  1.00  0.00     0.000 HD 
BRANCH  12  14
HETATM   14  S   UNL     1      -9.543  18.649  67.234  1.00  0.00    -0.305 S  
HETATM   15  O   UNL     1     -10.257  18.173  68.402  1.00  0.00    -0.365 OA 
HETATM   16  O   UNL     1     -10.173  19.562  66.306  1.00  0.00    -0.410 OA 
BRANCH  14  17
HETATM   17  C   UNL     1      -8.064  19.468  67.810  1.00  0.00    -0.296 A  
HETATM   18  C   UNL     1      -7.511  20.504  67.050  1.00  0.00    -0.362 A  
HETATM   19  C   UNL     1      -6.362  21.150  67.505  1.00  0.00    -0.433 A  
HETATM   20  C   UNL     1      -5.777  20.769  68.714  1.00  0.00    -0.398 A  
HETATM   21  C   UNL     1      -6.349  19.755  69.484  1.00  0.00    -0.372 A  
HETATM   22  C   UNL     1      -7.506  19.112  69.042  1.00  0.00    -0.353 A  
ENDBRANCH  14  17
ENDBRANCH  12  14
ENDBRANCH   9  12
ENDBRANCH   5   6
ENDBRANCH   4   5
ENDBRANCH   3   4
ENDBRANCH   2   3
TORSDOF 7
ENDMDL
MODEL        7
REMARK 921   NORMALIZED FREE ENERGY PREDICTED BY IDOCK:   -5.53 KCAL/MOL
REMARK 922        TOTAL FREE ENERGY PREDICTED BY IDOCK:   -8.32 KCAL/MOL
REMARK 923 INTER-LIGAND FREE ENERGY PREDICTED BY IDOCK:   -7.75 KCAL/MOL
REMARK 924 INTRA-LIGAND FREE ENERGY PREDICTED BY IDOCK:   -0.57 KCAL/MOL
REMARK 927      BINDING AFFINITY PREDICTED BY RF-SCORE:    0.00 PKD
ROOT
HETATM    1  C   UNL     1      -7.325  20.396  67.715  1.00  0.00    -0.281 C  
HETATM    2  O   UNL     1      -8.597  19.774  67.629  1.00  0.00    -0.310 OA 
ENDROOT
BRANCH   2   3
HETATM    3  C   UNL     1      -9.458  20.419  66.687  1.00  0.00    -0.305 C  
BRANCH   3   4
HETATM    4  C   UNL     1     -10.374  19.347  66.110  1.00  0.00    -0.504 C  
BRANCH   4   5
HETATM    5  O   UNL     1      -9.691  18.105  65.908  1.00  0.00    -0.521 OA 
BRANCH   5   6
HETATM    6  C   UNL     1     -10.325  17.024  66.452  1.00  0.00    -0.303 A  
HETATM    7  C   UNL     1     -10.734  16.878  67.763  1.00  0.00    -0.315 A  
HETATM    8  N   UNL     1     -11.371  15.794  68.242  1.00  0.00    -0.358 NA 
HETATM    9  C   UNL     1     -11.590  14.821  67.364  1.00  0.00    -0.360 A  
HETATM   10  C   UNL     1     -10.611  15.938  65.646  1.00  0.00    -0.378 A  
HETATM   11  N   UNL     1     -11.237  14.812  66.075  1.00  0.00    -0.341 NA 
BRANCH   9  12
HETATM   12  N   UNL     1     -12.303  13.719  67.828  1.00  0.00    -0.403 N  
HETATM   13  H   UNL     1     -13.314  13.725  67.957  1.00  0.00     0.000 HD 
BRANCH  12  14
HETATM   14  S   UNL     1     -11.345  12.381  68.157  1.00  0.00    -0.315 S  
HETATM   15  O   UNL     1      -9.969  12.763  68.402  1.00  0.00    -0.226 OA 
HETATM   16  O   UNL     1     -11.667  11.391  67.152  1.00  0.00    -0.556 OA 
BRANCH  14  17
HETATM   17  C   UNL     1     -12.009  11.761  69.696  1.00  0.00    -0.312 A  
HETATM   18  C   UNL     1     -12.604  12.651  70.596  1.00  0.00    -0.241 A  
HETATM   19  C   UNL     1     -13.131  12.166  71.792  1.00  0.00    -0.457 A  
HETATM   20  C   UNL     1     -13.072  10.800  72.080  1.00  0.00    -0.476 A  
HETATM   21  C   UNL     1     -12.504   9.913  71.166  1.00  0.00    -0.464 A  
HETATM   22  C   UNL     1     -11.985  10.388  69.961  1.00  0.00    -0.324 A  
ENDBRANCH  14  17
ENDBRANCH  12  14
ENDBRANCH   9  12
ENDBRANCH   5   6
ENDBRANCH   4   5
ENDBRANCH   3   4
ENDBRANCH   2   3
TORSDOF 7
ENDMDL
MODEL        8
REMARK 921   NORMALIZED FREE ENERGY PREDICTED BY IDOCK:   -5.46 KCAL/MOL
REMARK 922        TOTAL FREE ENERGY PREDICTED BY IDOCK:   -8.23 KCAL/MOL
REMARK 923 INTER-LIGAND FREE ENERGY PREDICTED BY IDOCK:   -7.77 KCAL/MOL
REMARK 924 INTRA-LIGAND FREE ENERGY PREDICTED BY IDOCK:   -0.46 KCAL/MOL
REMARK 927      BINDING AFFINITY PREDICTED BY RF-SCORE:    0.00 PKD
ROOT
HETATM    1  C   UNL     1      -6.102  19.983  69.938  1.00  0.00    -0.355 C  
HETATM    2  O   UNL     1      -7.031  19.130  69.288  1.00  0.00    -0.325 OA 
ENDROOT
BRANCH   2   3
HETATM    3  C   UNL     1      -7.428  19.628  68.008  1.00  0.00    -0.295 C  
BRANCH   3   4
HETATM    4  C   UNL     1      -8.780  19.005  67.683  1.00  0.00    -0.290 C  
BRANCH   4   5
HETATM    5  O   UNL     1      -9.431  18.489  68.849  1.00  0.00    -0.315 OA 
BRANCH   5   6
HETATM    6  C   UNL     1     -10.157  17.354  68.628  1.00  0.00    -0.355 A  
HETATM    7  C   UNL     1     -10.873  16.633  69.564  1.00  0.00    -0.285 A  
HETATM    8  N   UNL     1     -11.587  15.527  69.286  1.00  0.00    -0.334 NA 
HETATM    9  C   UNL     1     -11.564  15.133  68.018  1.00  0.00    -0.328 A  
HETATM   10  C   UNL     1     -10.216  16.832  67.349  1.00  0.00    -0.288 A  
HETATM   11  N   UNL     1     -10.906  15.713  67.011  1.00  0.00    -0.315 NA 
BRANCH   9  12
HETATM   12  N   UNL     1     -12.348  14.026  67.702  1.00  0.00    -0.513 N  
HETATM   13  H   UNL     1     -13.346  14.089  67.506  1.00  0.00     0.000 HD 
BRANCH  12  14
HETATM   14  S   UNL     1     -11.498  12.579  67.674  1.00  0.00    -0.354 S  
HETATM   15  O   UNL     1     -12.241  11.516  68.321  1.00  0.00    -0.561 OA 
HETATM   16  O   UNL     1     -10.147  12.890  68.087  1.00  0.00    -0.227 OA 
BRANCH  14  17
HETATM   17  C   UNL     1     -11.406  12.183  65.934  1.00  0.00    -0.356 A  
HETATM   18  C   UNL     1     -12.335  12.743  65.052  1.00  0.00    -0.559 A  
HETATM   19  C   UNL     1     -12.258  12.442  63.693  1.00  0.00    -0.653 A  
HETATM   20  C   UNL     1     -11.254  11.595  63.220  1.00  0.00    -0.305 A  
HETATM   21  C   UNL     1     -10.311  11.062  64.099  1.00  0.00    -0.434 A  
HETATM   22  C   UNL     1     -10.374  11.368  65.460  1.00  0.00    -0.317 A  
ENDBRANCH  14  17
ENDBRANCH  12  14
ENDBRANCH   9  12
ENDBRANCH   5   6
ENDBRANCH   4   5
ENDBRANCH   3   4
ENDBRANCH   2   3
TORSDOF 7
ENDMDL
MODEL        9
REMARK 921   NORMALIZED FREE ENERGY PREDICTED BY IDOCK:   -5.46 KCAL/MOL
REMARK 922        TOTAL FREE ENERGY PREDICTED BY IDOCK:   -8.23 KCAL/MOL
REMARK 923 INTER-LIGAND FREE ENERGY PREDICTED BY IDOCK:   -7.76 KCAL/MOL
REMARK 924 INTRA-LIGAND FREE ENERGY PREDICTED BY IDOCK:   -0.46 KCAL/MOL
REMARK 927      BINDING AFFINITY PREDICTED BY RF-SCORE:    0.00 PKD
ROOT
HETATM    1  C   UNL     1      -8.893   9.323  64.498  1.00  0.00    -0.163 C  
HETATM    2  O   UNL     1      -8.446   9.429  63.156  1.00  0.00    -0.178 OA 
ENDROOT
BRANCH   2   3
HETATM    3  C   UNL     1      -8.870  10.644  62.533  1.00  0.00    -0.275 C  
BRANCH   3   4
HETATM    4  C   UNL     1     -10.158  11.076  63.222  1.00  0.00    -0.348 C  
BRANCH   4   5
HETATM    5  O   UNL     1     -10.346  12.495  63.173  1.00  0.00    -0.284 OA 
BRANCH   5   6
HETATM    6  C   UNL     1     -10.808  13.037  64.339  1.00  0.00    -0.388 A  
HETATM    7  C   UNL     1     -10.622  14.334  64.779  1.00  0.00    -0.412 A  
HETATM    8  N   UNL     1     -11.115  14.821  65.932  1.00  0.00    -0.335 NA 
HETATM    9  C   UNL     1     -11.810  13.961  66.669  1.00  0.00    -0.420 A  
HETATM   10  C   UNL     1     -11.545  12.248  65.202  1.00  0.00    -0.351 A  
HETATM   11  N   UNL     1     -12.055  12.678  66.384  1.00  0.00    -0.565 NA 
BRANCH   9  12
HETATM   12  N   UNL     1     -12.379  14.466  67.835  1.00  0.00    -0.599 N  
HETATM   13  H   UNL     1     -13.333  14.822  67.879  1.00  0.00     0.000 HD 
BRANCH  12  14
HETATM   14  S   UNL     1     -11.350  14.434  69.161  1.00  0.00    -0.292 S  
HETATM   15  O   UNL     1     -11.452  15.653  69.938  1.00  0.00    -0.285 OA 
HETATM   16  O   UNL     1     -10.067  13.978  68.672  1.00  0.00    -0.230 OA 
BRANCH  14  17
HETATM   17  C   UNL     1     -12.001  13.106  70.162  1.00  0.00    -0.310 A  
HETATM   18  C   UNL     1     -11.742  11.781  69.799  1.00  0.00    -0.408 A  
HETATM   19  C   UNL     1     -12.242  10.744  70.586  1.00  0.00    -0.474 A  
HETATM   20  C   UNL     1     -12.987  11.032  71.732  1.00  0.00    -0.544 A  
HETATM   21  C   UNL     1     -13.218  12.355  72.106  1.00  0.00    -0.491 A  
HETATM   22  C   UNL     1     -12.711  13.399  71.331  1.00  0.00    -0.411 A  
ENDBRANCH  14  17
ENDBRANCH  12  14
ENDBRANCH   9  12
ENDBRANCH   5   6
ENDBRANCH   4   5
ENDBRANCH   3   4
ENDBRANCH   2   3
TORSDOF 7
ENDMDL
MODEL       10
REMARK 921   NORMALIZED FREE ENERGY PREDICTED BY IDOCK:   -5.41 KCAL/MOL
REMARK 922        TOTAL FREE ENERGY PREDICTED BY IDOCK:   -8.16 KCAL/MOL
REMARK 923 INTER-LIGAND FREE ENERGY PREDICTED BY IDOCK:   -7.82 KCAL/MOL
REMARK 924 INTRA-LIGAND FREE ENERGY PREDICTED BY IDOCK:   -0.34 KCAL/MOL
REMARK 927      BINDING AFFINITY PREDICTED BY RF-SCORE:    0.00 PKD
ROOT
HETATM    1  C   UNL     1     -14.164   7.672  71.546  1.00  0.00    -0.439 C  
HETATM    2  O   UNL     1     -12.751   7.705  71.438  1.00  0.00    -0.333 OA 
ENDROOT
BRANCH   2   3
HETATM    3  C   UNL     1     -12.168   8.762  72.204  1.00  0.00    -0.378 C  
BRANCH   3   4
HETATM    4  C   UNL     1     -12.077   9.980  71.294  1.00  0.00    -0.394 C  
BRANCH   4   5
HETATM    5  O   UNL     1     -12.728  11.124  71.856  1.00  0.00    -0.346 OA 
BRANCH   5   6
HETATM    6  C   UNL     1     -12.580  12.267  71.122  1.00  0.00    -0.253 A  
HETATM    7  C   UNL     1     -12.923  13.549  71.508  1.00  0.00    -0.355 A  
HETATM    8  N   UNL     1     -12.739  14.644  70.749  1.00  0.00    -0.343 NA 
HETATM    9  C   UNL     1     -12.200  14.431  69.554  1.00  0.00    -0.282 A  
HETATM   10  C   UNL     1     -12.032  12.186  69.855  1.00  0.00    -0.309 A  
HETATM   11  N   UNL     1     -11.836  13.253  69.038  1.00  0.00    -0.313 NA 
BRANCH   9  12
HETATM   12  N   UNL     1     -11.946  15.561  68.781  1.00  0.00    -0.552 N  
HETATM   13  H   UNL     1     -12.680  16.193  68.463  1.00  0.00     0.000 HD 
BRANCH  12  14
HETATM   14  S   UNL     1     -10.323  15.786  68.421  1.00  0.00    -0.240 S  
HETATM   15  O   UNL     1      -9.897  14.925  67.336  1.00  0.00    -0.220 OA 
HETATM   16  O   UNL     1      -9.619  15.780  69.685  1.00  0.00    -0.280 OA 
BRANCH  14  17
HETATM   17  C   UNL     1     -10.258  17.469  67.824  1.00  0.00    -0.349 A  
HETATM   18  C   UNL     1     -10.014  18.509  68.726  1.00  0.00    -0.417 A  
HETATM   19  C   UNL     1      -9.954  19.821  68.258  1.00  0.00    -0.557 A  
HETATM   20  C   UNL     1     -10.126  20.088  66.898  1.00  0.00    -0.601 A  
HETATM   21  C   UNL     1     -10.340  19.044  65.998  1.00  0.00    -0.512 A  
HETATM   22  C   UNL     1     -10.390  17.727  66.456  1.00  0.00    -0.345 A  
ENDBRANCH  14  17
ENDBRANCH  12  14
ENDBRANCH   9  12
ENDBRANCH   5   6
ENDBRANCH   4   5
ENDBRANCH   3   4
ENDBRANCH   2   3
TORSDOF 7
ENDMDL
MODEL       11
REMARK 921   NORMALIZED FREE ENERGY PREDICTED BY IDOCK:   -5.38 KCAL/MOL
REMARK 922        TOTAL FREE ENERGY PREDICTED BY IDOCK:   -8.11 KCAL/MOL
REMARK 923 INTER-LIGAND FREE ENERGY PREDICTED BY IDOCK:   -7.76 KCAL/MOL
REMARK 924 INTRA-LIGAND FREE ENERGY PREDICTED BY IDOCK:   -0.35 KCAL/MOL
REMARK 927      BINDING AFFINITY PREDICTED BY RF-SCORE:    0.00 PKD
ROOT
HETATM    1  C   UNL     1     -12.052  12.495  63.489  1.00  0.00    -0.562 C  
HETATM    2  O   UNL     1     -12.638  13.778  63.335  1.00  0.00    -0.842 OA 
ENDROOT
BRANCH   2   3
HETATM    3  C   UNL     1     -12.211  14.698  64.342  1.00  0.00    -0.452 C  
BRANCH   3   4
HETATM    4  C   UNL     1     -12.737  14.181  65.675  1.00  0.00    -0.441 C  
BRANCH   4   5
HETATM    5  O   UNL     1     -11.755  14.266  66.713  1.00  0.00    -0.370 OA 
BRANCH   5   6
HETATM    6  C   UNL     1     -11.715  13.175  67.535  1.00  0.00    -0.366 A  
HETATM    7  C   UNL     1     -11.883  13.165  68.906  1.00  0.00    -0.320 A  
HETATM    8  N   UNL     1     -11.850  12.055  69.666  1.00  0.00    -0.328 NA 
HETATM    9  C   UNL     1     -11.628  10.919  69.014  1.00  0.00    -0.316 A  
HETATM   10  C   UNL     1     -11.489  11.927  66.984  1.00  0.00    -0.316 A  
HETATM   11  N   UNL     1     -11.430  10.775  67.701  1.00  0.00    -0.508 NA 
BRANCH   9  12
HETATM   12  N   UNL     1     -11.653   9.755  69.777  1.00  0.00    -0.439 N  
HETATM   13  H   UNL     1     -12.469   9.456  70.310  1.00  0.00     0.000 HD 
BRANCH  12  14
HETATM   14  S   UNL     1     -10.216   8.889  69.741  1.00  0.00    -0.209 S  
HETATM   15  O   UNL     1      -9.077   9.741  70.018  1.00  0.00    -0.218 OA 
HETATM   16  O   UNL     1     -10.256   8.081  68.541  1.00  0.00    -0.198 OA 
BRANCH  14  17
HETATM   17  C   UNL     1     -10.379   7.753  71.110  1.00  0.00    -0.200 A  
HETATM   18  C   UNL     1     -10.185   8.218  72.415  1.00  0.00    -0.397 A  
HETATM   19  C   UNL     1     -10.322   7.333  73.485  1.00  0.00    -0.412 A  
HETATM   20  C   UNL     1     -10.659   5.999  73.250  1.00  0.00    -0.276 A  
HETATM   21  C   UNL     1     -10.879   5.547  71.949  1.00  0.00    -0.286 A  
HETATM   22  C   UNL     1     -10.756   6.428  70.874  1.00  0.00    -0.301 A  
ENDBRANCH  14  17
ENDBRANCH  12  14
ENDBRANCH   9  12
ENDBRANCH   5   6
ENDBRANCH   4   5
ENDBRANCH   3   4
ENDBRANCH   2   3
TORSDOF 7
ENDMDL
MODEL       12
REMARK 921   NORMALIZED FREE ENERGY PREDICTED BY IDOCK:   -5.35 KCAL/MOL
REMARK 922        TOTAL FREE ENERGY PREDICTED BY IDOCK:   -8.07 KCAL/MOL
REMARK 923 INTER-LIGAND FREE ENERGY PREDICTED BY IDOCK:   -7.58 KCAL/MOL
REMARK 924 INTRA-LIGAND FREE ENERGY PREDICTED BY IDOCK:   -0.49 KCAL/MOL
REMARK 927      BINDING AFFINITY PREDICTED BY RF-SCORE:    0.00 PKD
ROOT
HETATM    1  C   UNL     1      -7.549  19.530  66.127  1.00  0.00    -0.308 C  
HETATM    2  O   UNL     1      -8.872  19.091  65.867  1.00  0.00    -0.450 OA 
ENDROOT
BRANCH   2   3
HETATM    3  C   UNL     1      -9.844  19.786  66.652  1.00  0.00    -0.425 C  
BRANCH   3   4
HETATM    4  C   UNL     1     -10.734  18.734  67.301  1.00  0.00    -0.425 C  
BRANCH   4   5
HETATM    5  O   UNL     1     -10.094  18.098  68.413  1.00  0.00    -0.350 OA 
BRANCH   5   6
HETATM    6  C   UNL     1     -10.604  16.869  68.723  1.00  0.00    -0.355 A  
HETATM    7  C   UNL     1     -10.683  16.298  69.979  1.00  0.00    -0.290 A  
HETATM    8  N   UNL     1     -11.212  15.087  70.229  1.00  0.00    -0.256 NA 
HETATM    9  C   UNL     1     -11.666  14.428  69.169  1.00  0.00    -0.317 A  
HETATM   10  C   UNL     1     -11.109  16.076  67.709  1.00  0.00    -0.273 A  
HETATM   11  N   UNL     1     -11.641  14.841  67.898  1.00  0.00    -0.341 NA 
BRANCH   9  12
HETATM   12  N   UNL     1     -12.273  13.200  69.418  1.00  0.00    -0.206 N  
HETATM   13  H   UNL     1     -13.166  13.108  69.900  1.00  0.00     0.000 HD 
BRANCH  12  14
HETATM   14  S   UNL     1     -11.398  11.884  68.853  1.00  0.00    -0.304 S  
HETATM   15  O   UNL     1      -9.990  12.201  68.723  1.00  0.00    -0.165 OA 
HETATM   16  O   UNL     1     -12.140  11.351  67.732  1.00  0.00    -0.637 OA 
BRANCH  14  17
HETATM   17  C   UNL     1     -11.555  10.684  70.168  1.00  0.00    -0.330 A  
HETATM   18  C   UNL     1     -12.782  10.538  70.823  1.00  0.00    -0.471 A  
HETATM   19  C   UNL     1     -12.907   9.595  71.843  1.00  0.00    -0.515 A  
HETATM   20  C   UNL     1     -11.816   8.798  72.196  1.00  0.00    -0.436 A  
HETATM   21  C   UNL     1     -10.603   8.926  71.520  1.00  0.00    -0.399 A  
HETATM   22  C   UNL     1     -10.473   9.859  70.490  1.00  0.00    -0.330 A  
ENDBRANCH  14  17
ENDBRANCH  12  14
ENDBRANCH   9  12
ENDBRANCH   5   6
ENDBRANCH   4   5
ENDBRANCH   3   4
ENDBRANCH   2   3
TORSDOF 7
ENDMDL
MODEL       13
REMARK 921   NORMALIZED FREE ENERGY PREDICTED BY IDOCK:   -5.34 KCAL/MOL
REMARK 922        TOTAL FREE ENERGY PREDICTED BY IDOCK:   -8.06 KCAL/MOL
REMARK 923 INTER-LIGAND FREE ENERGY PREDICTED BY IDOCK:   -7.66 KCAL/MOL
REMARK 924 INTRA-LIGAND FREE ENERGY PREDICTED BY IDOCK:   -0.40 KCAL/MOL
REMARK 927      BINDING AFFINITY PREDICTED BY RF-SCORE:    0.00 PKD
ROOT
HETATM    1  C   UNL     1     -14.080  15.112  71.624  1.00  0.00    -0.549 C  
HETATM    2  O   UNL     1     -13.209  15.795  72.511  1.00  0.00    -0.446 OA 
ENDROOT
BRANCH   2   3
HETATM    3  C   UNL     1     -11.891  15.944  71.976  1.00  0.00    -0.515 C  
BRANCH   3   4
HETATM    4  C   UNL     1     -11.920  15.401  70.553  1.00  0.00    -0.357 C  
BRANCH   4   5
HETATM    5  O   UNL     1     -10.604  15.196  70.027  1.00  0.00    -0.256 OA 
BRANCH   5   6
HETATM    6  C   UNL     1     -10.575  14.905  68.693  1.00  0.00    -0.251 A  
HETATM    7  C   UNL     1      -9.652  14.113  68.038  1.00  0.00    -0.218 A  
HETATM    8  N   UNL     1      -9.681  13.845  66.720  1.00  0.00    -0.270 NA 
HETATM    9  C   UNL     1     -10.673  14.410  66.041  1.00  0.00    -0.302 A  
HETATM   10  C   UNL     1     -11.552  15.431  67.869  1.00  0.00    -0.257 A  
HETATM   11  N   UNL     1     -11.625  15.210  66.531  1.00  0.00    -0.187 NA 
BRANCH   9  12
HETATM   12  N   UNL     1     -10.754  14.093  64.688  1.00  0.00    -0.545 N  
HETATM   13  H   UNL     1     -10.284  14.632  63.962  1.00  0.00     0.000 HD 
BRANCH  12  14
HETATM   14  S   UNL     1     -11.695  12.742  64.362  1.00  0.00    -0.398 S  
HETATM   15  O   UNL     1     -12.386  12.873  63.095  1.00  0.00    -0.614 OA 
HETATM   16  O   UNL     1     -12.428  12.453  65.575  1.00  0.00    -0.643 OA 
BRANCH  14  17
HETATM   17  C   UNL     1     -10.494  11.431  64.182  1.00  0.00    -0.363 A  
HETATM   18  C   UNL     1     -10.272  10.553  65.247  1.00  0.00    -0.352 A  
HETATM   19  C   UNL     1      -9.341   9.523  65.103  1.00  0.00    -0.316 A  
HETATM   20  C   UNL     1      -8.648   9.370  63.901  1.00  0.00    -0.225 A  
HETATM   21  C   UNL     1      -8.895  10.231  62.831  1.00  0.00    -0.229 A  
HETATM   22  C   UNL     1      -9.833  11.257  62.963  1.00  0.00    -0.370 A  
ENDBRANCH  14  17
ENDBRANCH  12  14
ENDBRANCH   9  12
ENDBRANCH   5   6
ENDBRANCH   4   5
ENDBRANCH   3   4
ENDBRANCH   2   3
TORSDOF 7
ENDMDL
MODEL       14
REMARK 921   NORMALIZED FREE ENERGY PREDICTED BY IDOCK:   -5.33 KCAL/MOL
REMARK 922        TOTAL FREE ENERGY PREDICTED BY IDOCK:   -8.05 KCAL/MOL
REMARK 923 INTER-LIGAND FREE ENERGY PREDICTED BY IDOCK:   -7.44 KCAL/MOL
REMARK 924 INTRA-LIGAND FREE ENERGY PREDICTED BY IDOCK:   -0.61 KCAL/MOL
REMARK 927      BINDING AFFINITY PREDICTED BY RF-SCORE:    0.00 PKD
ROOT
HETATM    1  C   UNL     1     -12.266  12.551  63.578  1.00  0.00    -0.558 C  
HETATM    2  O   UNL     1     -10.892  12.516  63.226  1.00  0.00    -0.406 OA 
ENDROOT
BRANCH   2   3
HETATM    3  C   UNL     1     -10.395  11.182  63.091  1.00  0.00    -0.247 C  
BRANCH   3   4
HETATM    4  C   UNL     1      -9.479  10.922  64.280  1.00  0.00    -0.250 C  
BRANCH   4   5
HETATM    5  O   UNL     1     -10.202  10.476  65.432  1.00  0.00    -0.286 OA 
BRANCH   5   6
HETATM    6  C   UNL     1     -10.237  11.381  66.454  1.00  0.00    -0.230 A  
HETATM    7  C   UNL     1     -11.128  11.404  67.510  1.00  0.00    -0.281 A  
HETATM    8  N   UNL     1     -11.106  12.313  68.502  1.00  0.00    -0.232 NA 
HETATM    9  C   UNL     1     -10.155  13.236  68.413  1.00  0.00    -0.237 A  
HETATM   10  C   UNL     1      -9.302  12.399  66.483  1.00  0.00    -0.233 A  
HETATM   11  N   UNL     1      -9.239  13.353  67.447  1.00  0.00    -0.204 NA 
BRANCH   9  12
HETATM   12  N   UNL     1     -10.080  14.147  69.464  1.00  0.00    -0.391 N  
HETATM   13  H   UNL     1      -9.503  13.996  70.291  1.00  0.00     0.000 HD 
BRANCH  12  14
HETATM   14  S   UNL     1     -11.026  15.516  69.245  1.00  0.00    -0.293 S  
HETATM   15  O   UNL     1     -11.885  15.385  68.085  1.00  0.00    -0.320 OA 
HETATM   16  O   UNL     1     -10.141  16.651  69.381  1.00  0.00    -0.256 OA 
BRANCH  14  17
HETATM   17  C   UNL     1     -12.079  15.530  70.688  1.00  0.00    -0.389 A  
HETATM   18  C   UNL     1     -13.349  14.949  70.619  1.00  0.00    -0.253 A  
HETATM   19  C   UNL     1     -14.167  14.952  71.748  1.00  0.00    -0.635 A  
HETATM   20  C   UNL     1     -13.713  15.522  72.939  1.00  0.00    -0.599 A  
HETATM   21  C   UNL     1     -12.433  16.074  73.012  1.00  0.00    -0.614 A  
HETATM   22  C   UNL     1     -11.604  16.065  71.890  1.00  0.00    -0.524 A  
ENDBRANCH  14  17
ENDBRANCH  12  14
ENDBRANCH   9  12
ENDBRANCH   5   6
ENDBRANCH   4   5
ENDBRANCH   3   4
ENDBRANCH   2   3
TORSDOF 7
ENDMDL
MODEL       15
REMARK 921   NORMALIZED FREE ENERGY PREDICTED BY IDOCK:   -5.32 KCAL/MOL
REMARK 922        TOTAL FREE ENERGY PREDICTED BY IDOCK:   -8.02 KCAL/MOL
REMARK 923 INTER-LIGAND FREE ENERGY PREDICTED BY IDOCK:   -7.46 KCAL/MOL
REMARK 924 INTRA-LIGAND FREE ENERGY PREDICTED BY IDOCK:   -0.56 KCAL/MOL
REMARK 927      BINDING AFFINITY PREDICTED BY RF-SCORE:    0.00 PKD
ROOT
HETATM    1  C   UNL     1      -9.956  19.668  68.487  1.00  0.00    -0.443 C  
HETATM    2  O   UNL     1      -8.803  19.772  67.666  1.00  0.00    -0.314 OA 
ENDROOT
BRANCH   2   3
HETATM    3  C   UNL     1      -9.085  19.499  66.291  1.00  0.00    -0.360 C  
BRANCH   3   4
HETATM    4  C   UNL     1     -10.393  18.720  66.247  1.00  0.00    -0.448 C  
BRANCH   4   5
HETATM    5  O   UNL     1     -10.298  17.552  65.424  1.00  0.00    -0.629 OA 
BRANCH   5   6
HETATM    6  C   UNL     1     -10.659  16.394  66.053  1.00  0.00    -0.269 A  
HETATM    7  C   UNL     1     -10.898  16.226  67.403  1.00  0.00    -0.242 A  
HETATM    8  N   UNL     1     -11.268  15.062  67.968  1.00  0.00    -0.303 NA 
HETATM    9  C   UNL     1     -11.388  14.033  67.137  1.00  0.00    -0.331 A  
HETATM   10  C   UNL     1     -10.816  15.243  65.303  1.00  0.00    -0.403 A  
HETATM   11  N   UNL     1     -11.173  14.039  65.818  1.00  0.00    -0.300 NA 
BRANCH   9  12
HETATM   12  N   UNL     1     -11.830  12.837  67.696  1.00  0.00    -0.359 N  
HETATM   13  H   UNL     1     -12.814  12.635  67.872  1.00  0.00     0.000 HD 
BRANCH  12  14
HETATM   14  S   UNL     1     -10.596  11.758  68.054  1.00  0.00    -0.216 S  
HETATM   15  O   UNL     1      -9.379  12.451  68.427  1.00  0.00    -0.206 OA 
HETATM   16  O   UNL     1     -10.589  10.777  66.991  1.00  0.00    -0.235 OA 
BRANCH  14  17
HETATM   17  C   UNL     1     -11.193  10.909  69.509  1.00  0.00    -0.277 A  
HETATM   18  C   UNL     1     -10.526   9.765  69.960  1.00  0.00    -0.314 A  
HETATM   19  C   UNL     1     -10.987   9.108  71.100  1.00  0.00    -0.390 A  
HETATM   20  C   UNL     1     -12.099   9.597  71.788  1.00  0.00    -0.446 A  
HETATM   21  C   UNL     1     -12.743  10.755  71.351  1.00  0.00    -0.544 A  
HETATM   22  C   UNL     1     -12.282  11.425  70.218  1.00  0.00    -0.433 A  
ENDBRANCH  14  17
ENDBRANCH  12  14
ENDBRANCH   9  12
ENDBRANCH   5   6
ENDBRANCH   4   5
ENDBRANCH   3   4
ENDBRANCH   2   3
TORSDOF 7
ENDMDL
MODEL       16
REMARK 921   NORMALIZED FREE ENERGY PREDICTED BY IDOCK:   -5.31 KCAL/MOL
REMARK 922        TOTAL FREE ENERGY PREDICTED BY IDOCK:   -8.01 KCAL/MOL
REMARK 923 INTER-LIGAND FREE ENERGY PREDICTED BY IDOCK:   -7.54 KCAL/MOL
REMARK 924 INTRA-LIGAND FREE ENERGY PREDICTED BY IDOCK:   -0.47 KCAL/MOL
REMARK 927      BINDING AFFINITY PREDICTED BY RF-SCORE:    0.00 PKD
ROOT
HETATM    1  C   UNL     1     -10.097  19.639  68.431  1.00  0.00    -0.449 C  
HETATM    2  O   UNL     1      -9.803  20.471  67.320  1.00  0.00    -0.453 OA 
ENDROOT
BRANCH   2   3
HETATM    3  C   UNL     1      -9.575  19.723  66.123  1.00  0.00    -0.398 C  
BRANCH   3   4
HETATM    4  C   UNL     1     -10.486  18.503  66.175  1.00  0.00    -0.413 C  
BRANCH   4   5
HETATM    5  O   UNL     1      -9.834  17.321  65.698  1.00  0.00    -0.548 OA 
BRANCH   5   6
HETATM    6  C   UNL     1      -9.949  16.245  66.532  1.00  0.00    -0.277 A  
HETATM    7  C   UNL     1      -9.077  15.179  66.632  1.00  0.00    -0.280 A  
HETATM    8  N   UNL     1      -9.231  14.150  67.485  1.00  0.00    -0.185 NA 
HETATM    9  C   UNL     1     -10.312  14.200  68.255  1.00  0.00    -0.245 A  
HETATM   10  C   UNL     1     -11.033  16.170  67.387  1.00  0.00    -0.210 A  
HETATM   11  N   UNL     1     -11.250  15.152  68.258  1.00  0.00    -0.294 NA 
BRANCH   9  12
HETATM   12  N   UNL     1     -10.454  13.175  69.186  1.00  0.00    -0.437 N  
HETATM   13  H   UNL     1     -10.340  13.315  70.190  1.00  0.00     0.000 HD 
BRANCH  12  14
HETATM   14  S   UNL     1     -10.830  11.687  68.507  1.00  0.00    -0.233 S  
HETATM   15  O   UNL     1      -9.648  11.030  67.985  1.00  0.00    -0.161 OA 
HETATM   16  O   UNL     1     -11.985  11.903  67.663  1.00  0.00    -0.575 OA 
BRANCH  14  17
HETATM   17  C   UNL     1     -11.404  10.726  69.899  1.00  0.00    -0.311 A  
HETATM   18  C   UNL     1     -10.609   9.688  70.393  1.00  0.00    -0.354 A  
HETATM   19  C   UNL     1     -11.053   8.944  71.485  1.00  0.00    -0.397 A  
HETATM   20  C   UNL     1     -12.278   9.243  72.084  1.00  0.00    -0.377 A  
HETATM   21  C   UNL     1     -13.055  10.299  71.606  1.00  0.00    -0.553 A  
HETATM   22  C   UNL     1     -12.613  11.056  70.521  1.00  0.00    -0.390 A  
ENDBRANCH  14  17
ENDBRANCH  12  14
ENDBRANCH   9  12
ENDBRANCH   5   6
ENDBRANCH   4   5
ENDBRANCH   3   4
ENDBRANCH   2   3
TORSDOF 7
ENDMDL
MODEL       17
REMARK 921   NORMALIZED FREE ENERGY PREDICTED BY IDOCK:   -5.30 KCAL/MOL
REMARK 922        TOTAL FREE ENERGY PREDICTED BY IDOCK:   -8.01 KCAL/MOL
REMARK 923 INTER-LIGAND FREE ENERGY PREDICTED BY IDOCK:   -7.66 KCAL/MOL
REMARK 924 INTRA-LIGAND FREE ENERGY PREDICTED BY IDOCK:   -0.35 KCAL/MOL
REMARK 927      BINDING AFFINITY PREDICTED BY RF-SCORE:    0.00 PKD
ROOT
HETATM    1  C   UNL     1     -13.401   7.636  71.679  1.00  0.00    -0.350 C  
HETATM    2  O   UNL     1     -12.701   8.565  72.491  1.00  0.00    -0.362 OA 
ENDROOT
BRANCH   2   3
HETATM    3  C   UNL     1     -11.311   8.637  72.166  1.00  0.00    -0.364 C  
BRANCH   3   4
HETATM    4  C   UNL     1     -11.159   9.688  71.074  1.00  0.00    -0.368 C  
BRANCH   4   5
HETATM    5  O   UNL     1     -12.122  10.740  71.201  1.00  0.00    -0.341 OA 
BRANCH   5   6
HETATM    6  C   UNL     1     -12.048  11.686  70.218  1.00  0.00    -0.358 A  
HETATM    7  C   UNL     1     -11.850  11.465  68.869  1.00  0.00    -0.347 A  
HETATM    8  N   UNL     1     -11.801  12.437  67.940  1.00  0.00    -0.411 NA 
HETATM    9  C   UNL     1     -11.948  13.676  68.397  1.00  0.00    -0.356 A  
HETATM   10  C   UNL     1     -12.182  13.020  70.558  1.00  0.00    -0.313 A  
HETATM   11  N   UNL     1     -12.128  14.044  69.668  1.00  0.00    -0.340 NA 
BRANCH   9  12
HETATM   12  N   UNL     1     -11.963  14.688  67.441  1.00  0.00    -0.517 N  
HETATM   13  H   UNL     1     -12.820  15.136  67.118  1.00  0.00     0.000 HD 
BRANCH  12  14
HETATM   14  S   UNL     1     -10.440  15.103  66.869  1.00  0.00    -0.287 S  
HETATM   15  O   UNL     1     -10.347  14.923  65.434  1.00  0.00    -0.331 OA 
HETATM   16  O   UNL     1      -9.485  14.474  67.754  1.00  0.00    -0.203 OA 
BRANCH  14  17
HETATM   17  C   UNL     1     -10.338  16.857  67.194  1.00  0.00    -0.304 A  
HETATM   18  C   UNL     1     -10.557  17.764  66.152  1.00  0.00    -0.235 A  
HETATM   19  C   UNL     1     -10.486  19.133  66.408  1.00  0.00    -0.548 A  
HETATM   20  C   UNL     1     -10.208  19.590  67.698  1.00  0.00    -0.556 A  
HETATM   21  C   UNL     1     -10.019  18.682  68.741  1.00  0.00    -0.427 A  
HETATM   22  C   UNL     1     -10.100  17.311  68.495  1.00  0.00    -0.341 A  
ENDBRANCH  14  17
ENDBRANCH  12  14
ENDBRANCH   9  12
ENDBRANCH   5   6
ENDBRANCH   4   5
ENDBRANCH   3   4
ENDBRANCH   2   3
TORSDOF 7
ENDMDL
MODEL       18
REMARK 921   NORMALIZED FREE ENERGY PREDICTED BY IDOCK:   -5.26 KCAL/MOL
REMARK 922        TOTAL FREE ENERGY PREDICTED BY IDOCK:   -7.94 KCAL/MOL
REMARK 923 INTER-LIGAND FREE ENERGY PREDICTED BY IDOCK:   -7.62 KCAL/MOL
REMARK 924 INTRA-LIGAND FREE ENERGY PREDICTED BY IDOCK:   -0.32 KCAL/MOL
REMARK 927      BINDING AFFINITY PREDICTED BY RF-SCORE:    0.00 PKD
ROOT
HETATM    1  C   UNL     1     -10.387   5.385  68.529  1.00  0.00    -0.149 C  
HETATM    2  O   UNL     1     -11.342   6.296  69.050  1.00  0.00    -0.390 OA 
ENDROOT
BRANCH   2   3
HETATM    3  C   UNL     1     -11.024   6.722  70.377  1.00  0.00    -0.283 C  
BRANCH   3   4
HETATM    4  C   UNL     1     -11.098   8.244  70.390  1.00  0.00    -0.235 C  
BRANCH   4   5
HETATM    5  O   UNL     1     -10.560   8.820  69.195  1.00  0.00    -0.224 OA 
BRANCH   5   6
HETATM    6  C   UNL     1     -10.985  10.095  68.949  1.00  0.00    -0.223 A  
HETATM    7  C   UNL     1     -10.979  10.750  67.733  1.00  0.00    -0.297 A  
HETATM    8  N   UNL     1     -11.426  12.005  67.545  1.00  0.00    -0.340 NA 
HETATM    9  C   UNL     1     -11.883  12.620  68.630  1.00  0.00    -0.302 A  
HETATM   10  C   UNL     1     -11.483  10.850  69.995  1.00  0.00    -0.329 A  
HETATM   11  N   UNL     1     -11.934  12.125  69.870  1.00  0.00    -0.325 NA 
BRANCH   9  12
HETATM   12  N   UNL     1     -12.407  13.896  68.441  1.00  0.00    -0.455 N  
HETATM   13  H   UNL     1     -13.274  14.073  67.936  1.00  0.00     0.000 HD 
BRANCH  12  14
HETATM   14  S   UNL     1     -11.479  15.118  69.123  1.00  0.00    -0.327 S  
HETATM   15  O   UNL     1     -11.560  16.339  68.347  1.00  0.00    -0.327 OA 
HETATM   16  O   UNL     1     -10.196  14.529  69.437  1.00  0.00    -0.158 OA 
BRANCH  14  17
HETATM   17  C   UNL     1     -12.281  15.426  70.689  1.00  0.00    -0.385 A  
HETATM   18  C   UNL     1     -13.630  15.092  70.848  1.00  0.00    -0.363 A  
HETATM   19  C   UNL     1     -14.253  15.323  72.074  1.00  0.00    -0.679 A  
HETATM   20  C   UNL     1     -13.530  15.877  73.133  1.00  0.00    -0.650 A  
HETATM   21  C   UNL     1     -12.178  16.182  72.978  1.00  0.00    -0.641 A  
HETATM   22  C   UNL     1     -11.543  15.942  71.759  1.00  0.00    -0.541 A  
ENDBRANCH  14  17
ENDBRANCH  12  14
ENDBRANCH   9  12
ENDBRANCH   5   6
ENDBRANCH   4   5
ENDBRANCH   3   4
ENDBRANCH   2   3
TORSDOF 7
ENDMDL
MODEL       19
REMARK 921   NORMALIZED FREE ENERGY PREDICTED BY IDOCK:   -5.24 KCAL/MOL
REMARK 922        TOTAL FREE ENERGY PREDICTED BY IDOCK:   -7.91 KCAL/MOL
REMARK 923 INTER-LIGAND FREE ENERGY PREDICTED BY IDOCK:   -7.35 KCAL/MOL
REMARK 924 INTRA-LIGAND FREE ENERGY PREDICTED BY IDOCK:   -0.57 KCAL/MOL
REMARK 927      BINDING AFFINITY PREDICTED BY RF-SCORE:    0.00 PKD
ROOT
HETATM    1  C   UNL     1     -10.534  19.439  67.180  1.00  0.00    -0.466 C  
HETATM    2  O   UNL     1      -9.654  19.395  66.068  1.00  0.00    -0.379 OA 
ENDROOT
BRANCH   2   3
HETATM    3  C   UNL     1      -8.299  19.672  66.431  1.00  0.00    -0.353 C  
BRANCH   3   4
HETATM    4  C   UNL     1      -7.510  18.383  66.238  1.00  0.00    -0.259 C  
BRANCH   4   5
HETATM    5  O   UNL     1      -7.138  17.786  67.485  1.00  0.00    -0.181 OA 
BRANCH   5   6
HETATM    6  C   UNL     1      -7.864  16.676  67.812  1.00  0.00    -0.164 A  
HETATM    7  C   UNL     1      -8.121  15.588  67.001  1.00  0.00    -0.237 A  
HETATM    8  N   UNL     1      -8.831  14.510  67.381  1.00  0.00    -0.187 NA 
HETATM    9  C   UNL     1      -9.306  14.543  68.621  1.00  0.00    -0.199 A  
HETATM   10  C   UNL     1      -8.419  16.583  69.075  1.00  0.00    -0.204 A  
HETATM   11  N   UNL     1      -9.156  15.529  69.510  1.00  0.00    -0.281 NA 
BRANCH   9  12
HETATM   12  N   UNL     1      -9.990  13.408  69.050  1.00  0.00    -0.421 N  
HETATM   13  H   UNL     1      -9.538  12.639  69.542  1.00  0.00     0.000 HD 
BRANCH  12  14
HETATM   14  S   UNL     1     -11.628  13.424  68.683  1.00  0.00    -0.350 S  
HETATM   15  O   UNL     1     -12.086  12.119  68.251  1.00  0.00    -0.407 OA 
HETATM   16  O   UNL     1     -11.851  14.593  67.860  1.00  0.00    -0.348 OA 
BRANCH  14  17
HETATM   17  C   UNL     1     -12.404  13.769  70.256  1.00  0.00    -0.337 A  
HETATM   18  C   UNL     1     -12.691  15.092  70.605  1.00  0.00    -0.451 A  
HETATM   19  C   UNL     1     -13.305  15.361  71.828  1.00  0.00    -0.567 A  
HETATM   20  C   UNL     1     -13.637  14.313  72.688  1.00  0.00    -0.601 A  
HETATM   21  C   UNL     1     -13.375  12.992  72.323  1.00  0.00    -0.606 A  
HETATM   22  C   UNL     1     -12.772  12.714  71.096  1.00  0.00    -0.347 A  
ENDBRANCH  14  17
ENDBRANCH  12  14
ENDBRANCH   9  12
ENDBRANCH   5   6
ENDBRANCH   4   5
ENDBRANCH   3   4
ENDBRANCH   2   3
TORSDOF 7
ENDMDL
MODEL       20
REMARK 921   NORMALIZED FREE ENERGY PREDICTED BY IDOCK:   -5.23 KCAL/MOL
REMARK 922        TOTAL FREE ENERGY PREDICTED BY IDOCK:   -7.91 KCAL/MOL
REMARK 923 INTER-LIGAND FREE ENERGY PREDICTED BY IDOCK:   -7.44 KCAL/MOL
REMARK 924 INTRA-LIGAND FREE ENERGY PREDICTED BY IDOCK:   -0.47 KCAL/MOL
REMARK 927      BINDING AFFINITY PREDICTED BY RF-SCORE:    0.00 PKD
ROOT
HETATM    1  C   UNL     1     -11.539   9.341  71.317  1.00  0.00    -0.349 C  
HETATM    2  O   UNL     1     -10.663  10.031  70.442  1.00  0.00    -0.287 OA 
ENDROOT
BRANCH   2   3
HETATM    3  C   UNL     1     -10.291   9.244  69.307  1.00  0.00    -0.215 C  
BRANCH   3   4
HETATM    4  C   UNL     1     -10.434  10.132  68.078  1.00  0.00    -0.209 C  
BRANCH   4   5
HETATM    5  O   UNL     1     -11.696  10.807  68.044  1.00  0.00    -0.528 OA 
BRANCH   5   6
HETATM    6  C   UNL     1     -11.612  12.132  67.722  1.00  0.00    -0.342 A  
HETATM    7  C   UNL     1     -12.021  12.725  66.543  1.00  0.00    -0.358 A  
HETATM    8  N   UNL     1     -11.929  14.043  66.285  1.00  0.00    -0.411 NA 
HETATM    9  C   UNL     1     -11.393  14.781  67.250  1.00  0.00    -0.357 A  
HETATM   10  C   UNL     1     -11.069  13.014  68.639  1.00  0.00    -0.269 A  
HETATM   11  N   UNL     1     -10.936  14.349  68.429  1.00  0.00    -0.241 NA 
BRANCH   9  12
HETATM   12  N   UNL     1     -11.347  16.154  67.024  1.00  0.00     0.099 N  
HETATM   13  H   UNL     1     -11.886  16.826  67.569  1.00  0.00     0.000 HD 
BRANCH  12  14
HETATM   14  S   UNL     1     -10.324  16.601  65.771  1.00  0.00    -0.262 S  
HETATM   15  O   UNL     1     -11.066  16.904  64.564  1.00  0.00    -1.054 OA 
HETATM   16  O   UNL     1      -9.252  15.630  65.752  1.00  0.00    -0.321 OA 
BRANCH  14  17
HETATM   17  C   UNL     1      -9.599  18.129  66.350  1.00  0.00    -0.294 A  
HETATM   18  C   UNL     1      -8.209  18.237  66.445  1.00  0.00    -0.276 A  
HETATM   19  C   UNL     1      -7.643  19.433  66.887  1.00  0.00    -0.261 A  
HETATM   20  C   UNL     1      -8.462  20.512  67.222  1.00  0.00    -0.365 A  
HETATM   21  C   UNL     1      -9.848  20.409  67.098  1.00  0.00    -0.601 A  
HETATM   22  C   UNL     1     -10.422  19.221  66.645  1.00  0.00    -0.541 A  
ENDBRANCH  14  17
ENDBRANCH  12  14
ENDBRANCH   9  12
ENDBRANCH   5   6
ENDBRANCH   4   5
ENDBRANCH   3   4
ENDBRANCH   2   3
TORSDOF 7
ENDMDL
MODEL       21
REMARK 921   NORMALIZED FREE ENERGY PREDICTED BY IDOCK:   -5.23 KCAL/MOL
REMARK 922        TOTAL FREE ENERGY PREDICTED BY IDOCK:   -7.91 KCAL/MOL
REMARK 923 INTER-LIGAND FREE ENERGY PREDICTED BY IDOCK:   -7.49 KCAL/MOL
REMARK 924 INTRA-LIGAND FREE ENERGY PREDICTED BY IDOCK:   -0.42 KCAL/MOL
REMARK 927      BINDING AFFINITY PREDICTED BY RF-SCORE:    0.00 PKD
ROOT
HETATM    1  C   UNL     1      -6.260  19.986  69.041  1.00  0.00    -0.312 C  
HETATM    2  O   UNL     1      -6.234  20.980  68.030  1.00  0.00    -0.328 OA 
ENDROOT
BRANCH   2   3
HETATM    3  C   UNL     1      -7.304  20.834  67.093  1.00  0.00    -0.329 C  
BRANCH   3   4
HETATM    4  C   UNL     1      -8.059  19.565  67.467  1.00  0.00    -0.290 C  
BRANCH   4   5
HETATM    5  O   UNL     1      -8.859  19.075  66.385  1.00  0.00    -0.318 OA 
BRANCH   5   6
HETATM    6  C   UNL     1      -9.667  18.026  66.720  1.00  0.00    -0.323 A  
HETATM    7  C   UNL     1      -9.926  16.904  65.955  1.00  0.00    -0.293 A  
HETATM    8  N   UNL     1     -10.720  15.889  66.342  1.00  0.00    -0.291 NA 
HETATM    9  C   UNL     1     -11.280  16.023  67.540  1.00  0.00    -0.138 A  
HETATM   10  C   UNL     1     -10.314  18.038  67.941  1.00  0.00    -0.392 A  
HETATM   11  N   UNL     1     -11.139  17.052  68.380  1.00  0.00    -0.260 NA 
BRANCH   9  12
HETATM   12  N   UNL     1     -12.055  14.953  67.981  1.00  0.00    -0.557 N  
HETATM   13  H   UNL     1     -12.969  14.730  67.590  1.00  0.00     0.000 HD 
BRANCH  12  14
HETATM   14  S   UNL     1     -11.346  14.066  69.217  1.00  0.00    -0.275 S  
HETATM   15  O   UNL     1      -9.924  14.328  69.308  1.00  0.00    -0.087 OA 
HETATM   16  O   UNL     1     -11.839  12.713  69.083  1.00  0.00    -0.298 OA 
BRANCH  14  17
HETATM   17  C   UNL     1     -12.105  14.728  70.693  1.00  0.00    -0.310 A  
HETATM   18  C   UNL     1     -13.418  14.365  71.012  1.00  0.00    -0.309 A  
HETATM   19  C   UNL     1     -14.007  14.874  72.169  1.00  0.00    -0.598 A  
HETATM   20  C   UNL     1     -13.286  15.730  73.004  1.00  0.00    -0.671 A  
HETATM   21  C   UNL     1     -11.967  16.065  72.697  1.00  0.00    -0.646 A  
HETATM   22  C   UNL     1     -11.365  15.551  71.547  1.00  0.00    -0.466 A  
ENDBRANCH  14  17
ENDBRANCH  12  14
ENDBRANCH   9  12
ENDBRANCH   5   6
ENDBRANCH   4   5
ENDBRANCH   3   4
ENDBRANCH   2   3
TORSDOF 7
ENDMDL
MODEL       22
REMARK 921   NORMALIZED FREE ENERGY PREDICTED BY IDOCK:   -5.23 KCAL/MOL
REMARK 922        TOTAL FREE ENERGY PREDICTED BY IDOCK:   -7.91 KCAL/MOL
REMARK 923 INTER-LIGAND FREE ENERGY PREDICTED BY IDOCK:   -7.54 KCAL/MOL
REMARK 924 INTRA-LIGAND FREE ENERGY PREDICTED BY IDOCK:   -0.37 KCAL/MOL
REMARK 927      BINDING AFFINITY PREDICTED BY RF-SCORE:    0.00 PKD
ROOT
HETATM    1  C   UNL     1     -12.322  12.331  63.552  1.00  0.00    -0.565 C  
HETATM    2  O   UNL     1     -12.525  13.672  63.137  1.00  0.00    -0.786 OA 
ENDROOT
BRANCH   2   3
HETATM    3  C   UNL     1     -12.120  14.618  64.129  1.00  0.00    -0.320 C  
BRANCH   3   4
HETATM    4  C   UNL     1     -12.744  14.181  65.448  1.00  0.00    -0.431 C  
BRANCH   4   5
HETATM    5  O   UNL     1     -11.867  14.400  66.558  1.00  0.00    -0.384 OA 
BRANCH   5   6
HETATM    6  C   UNL     1     -11.850  13.379  67.466  1.00  0.00    -0.366 A  
HETATM    7  C   UNL     1     -11.790  13.496  68.841  1.00  0.00    -0.345 A  
HETATM    8  N   UNL     1     -11.792  12.453  69.692  1.00  0.00    -0.319 NA 
HETATM    9  C   UNL     1     -11.846  11.252  69.127  1.00  0.00    -0.355 A  
HETATM   10  C   UNL     1     -11.898  12.075  67.011  1.00  0.00    -0.176 A  
HETATM   11  N   UNL     1     -11.889  10.983  67.819  1.00  0.00    -0.591 NA 
BRANCH   9  12
HETATM   12  N   UNL     1     -11.912  10.165  69.995  1.00  0.00    -0.444 N  
HETATM   13  H   UNL     1     -12.788   9.808  70.374  1.00  0.00     0.000 HD 
BRANCH  12  14
HETATM   14  S   UNL     1     -10.416   9.495  70.358  1.00  0.00    -0.299 S  
HETATM   15  O   UNL     1     -10.300   9.195  71.771  1.00  0.00    -0.344 OA 
HETATM   16  O   UNL     1      -9.428  10.319  69.697  1.00  0.00    -0.211 OA 
BRANCH  14  17
HETATM   17  C   UNL     1     -10.432   7.938  69.482  1.00  0.00    -0.226 A  
HETATM   18  C   UNL     1     -10.563   6.746  70.201  1.00  0.00    -0.254 A  
HETATM   19  C   UNL     1     -10.585   5.532  69.516  1.00  0.00    -0.366 A  
HETATM   20  C   UNL     1     -10.487   5.512  68.123  1.00  0.00    -0.231 A  
HETATM   21  C   UNL     1     -10.387   6.706  67.408  1.00  0.00    -0.279 A  
HETATM   22  C   UNL     1     -10.376   7.926  68.085  1.00  0.00    -0.249 A  
ENDBRANCH  14  17
ENDBRANCH  12  14
ENDBRANCH   9  12
ENDBRANCH   5   6
ENDBRANCH   4   5
ENDBRANCH   3   4
ENDBRANCH   2   3
TORSDOF 7
ENDMDL
MODEL       23
REMARK 921   NORMALIZED FREE ENERGY PREDICTED BY IDOCK:   -5.22 KCAL/MOL
REMARK 922        TOTAL FREE ENERGY PREDICTED BY IDOCK:   -7.89 KCAL/MOL
REMARK 923 INTER-LIGAND FREE ENERGY PREDICTED BY IDOCK:   -7.58 KCAL/MOL
REMARK 924 INTRA-LIGAND FREE ENERGY PREDICTED BY IDOCK:   -0.31 KCAL/MOL
REMARK 927      BINDING AFFINITY PREDICTED BY RF-SCORE:    0.00 PKD
ROOT
HETATM    1  C   UNL     1      -9.880  11.666  63.200  1.00  0.00    -0.382 C  
HETATM    2  O   UNL     1     -11.160  11.287  63.679  1.00  0.00    -0.376 OA 
ENDROOT
BRANCH   2   3
HETATM    3  C   UNL     1     -12.132  12.323  63.519  1.00  0.00    -0.553 C  
BRANCH   3   4
HETATM    4  C   UNL     1     -12.691  12.631  64.902  1.00  0.00    -0.370 C  
BRANCH   4   5
HETATM    5  O   UNL     1     -12.666  14.033  65.194  1.00  0.00    -0.619 OA 
BRANCH   5   6
HETATM    6  C   UNL     1     -11.440  14.503  65.570  1.00  0.00    -0.343 A  
HETATM    7  C   UNL     1     -10.832  15.667  65.140  1.00  0.00    -0.431 A  
HETATM    8  N   UNL     1      -9.626  16.091  65.557  1.00  0.00    -0.427 NA 
HETATM    9  C   UNL     1      -9.011  15.303  66.432  1.00  0.00    -0.304 A  
HETATM   10  C   UNL     1     -10.691  13.776  66.476  1.00  0.00    -0.284 A  
HETATM   11  N   UNL     1      -9.463  14.145  66.923  1.00  0.00    -0.257 NA 
BRANCH   9  12
HETATM   12  N   UNL     1      -7.789  15.759  66.921  1.00  0.00    -0.235 N  
HETATM   13  H   UNL     1      -6.907  15.623  66.429  1.00  0.00     0.000 HD 
BRANCH  12  14
HETATM   14  S   UNL     1      -7.903  16.553  68.395  1.00  0.00    -0.198 S  
HETATM   15  O   UNL     1      -6.593  16.838  68.945  1.00  0.00    -0.166 OA 
HETATM   16  O   UNL     1      -8.887  15.832  69.173  1.00  0.00    -0.219 OA 
BRANCH  14  17
HETATM   17  C   UNL     1      -8.654  18.117  67.969  1.00  0.00    -0.265 A  
HETATM   18  C   UNL     1      -7.998  18.976  67.083  1.00  0.00    -0.271 A  
HETATM   19  C   UNL     1      -8.589  20.193  66.743  1.00  0.00    -0.378 A  
HETATM   20  C   UNL     1      -9.831  20.541  67.279  1.00  0.00    -0.581 A  
HETATM   21  C   UNL     1     -10.496  19.667  68.140  1.00  0.00    -0.503 A  
HETATM   22  C   UNL     1      -9.916  18.443  68.476  1.00  0.00    -0.415 A  
ENDBRANCH  14  17
ENDBRANCH  12  14
ENDBRANCH   9  12
ENDBRANCH   5   6
ENDBRANCH   4   5
ENDBRANCH   3   4
ENDBRANCH   2   3
TORSDOF 7
ENDMDL
MODEL       24
REMARK 921   NORMALIZED FREE ENERGY PREDICTED BY IDOCK:   -5.14 KCAL/MOL
REMARK 922        TOTAL FREE ENERGY PREDICTED BY IDOCK:   -7.78 KCAL/MOL
REMARK 923 INTER-LIGAND FREE ENERGY PREDICTED BY IDOCK:   -7.19 KCAL/MOL
REMARK 924 INTRA-LIGAND FREE ENERGY PREDICTED BY IDOCK:   -0.58 KCAL/MOL
REMARK 927      BINDING AFFINITY PREDICTED BY RF-SCORE:    0.00 PKD
ROOT
HETATM    1  C   UNL     1     -10.044  11.750  63.141  1.00  0.00    -0.354 C  
HETATM    2  O   UNL     1     -11.138  11.195  63.852  1.00  0.00    -0.335 OA 
ENDROOT
BRANCH   2   3
HETATM    3  C   UNL     1     -12.367  11.875  63.583  1.00  0.00    -0.481 C  
BRANCH   3   4
HETATM    4  C   UNL     1     -12.539  12.935  64.663  1.00  0.00    -0.391 C  
BRANCH   4   5
HETATM    5  O   UNL     1     -12.374  12.396  65.979  1.00  0.00    -0.627 OA 
BRANCH   5   6
HETATM    6  C   UNL     1     -11.641  13.186  66.818  1.00  0.00    -0.366 A  
HETATM    7  C   UNL     1     -10.683  12.769  67.722  1.00  0.00    -0.220 A  
HETATM    8  N   UNL     1      -9.977  13.596  68.515  1.00  0.00    -0.229 NA 
HETATM    9  C   UNL     1     -10.261  14.888  68.395  1.00  0.00    -0.231 A  
HETATM   10  C   UNL     1     -11.840  14.554  66.797  1.00  0.00    -0.371 A  
HETATM   11  N   UNL     1     -11.170  15.436  67.583  1.00  0.00    -0.324 NA 
BRANCH   9  12
HETATM   12  N   UNL     1      -9.496  15.762  69.163  1.00  0.00    -0.238 N  
HETATM   13  H   UNL     1      -9.713  15.985  70.134  1.00  0.00     0.000 HD 
BRANCH  12  14
HETATM   14  S   UNL     1      -8.184  16.414  68.345  1.00  0.00    -0.199 S  
HETATM   15  O   UNL     1      -7.826  15.611  67.194  1.00  0.00    -0.178 OA 
HETATM   16  O   UNL     1      -7.197  16.742  69.350  1.00  0.00    -0.221 OA 
BRANCH  14  17
HETATM   17  C   UNL     1      -8.807  17.974  67.734  1.00  0.00    -0.255 A  
HETATM   18  C   UNL     1      -9.769  18.667  68.476  1.00  0.00    -0.409 A  
HETATM   19  C   UNL     1     -10.248  19.889  68.004  1.00  0.00    -0.572 A  
HETATM   20  C   UNL     1      -9.762  20.415  66.806  1.00  0.00    -0.528 A  
HETATM   21  C   UNL     1      -8.782  19.734  66.084  1.00  0.00    -0.368 A  
HETATM   22  C   UNL     1      -8.288  18.516  66.555  1.00  0.00    -0.297 A  
ENDBRANCH  14  17
ENDBRANCH  12  14
ENDBRANCH   9  12
ENDBRANCH   5   6
ENDBRANCH   4   5
ENDBRANCH   3   4
ENDBRANCH   2   3
TORSDOF 7
ENDMDL
MODEL       25
REMARK 921   NORMALIZED FREE ENERGY PREDICTED BY IDOCK:   -5.12 KCAL/MOL
REMARK 922        TOTAL FREE ENERGY PREDICTED BY IDOCK:   -7.75 KCAL/MOL
REMARK 923 INTER-LIGAND FREE ENERGY PREDICTED BY IDOCK:   -7.31 KCAL/MOL
REMARK 924 INTRA-LIGAND FREE ENERGY PREDICTED BY IDOCK:   -0.44 KCAL/MOL
REMARK 927      BINDING AFFINITY PREDICTED BY RF-SCORE:    0.00 PKD
ROOT
HETATM    1  C   UNL     1     -11.324   9.311  71.640  1.00  0.00    -0.397 C  
HETATM    2  O   UNL     1     -10.836  10.194  70.642  1.00  0.00    -0.308 OA 
ENDROOT
BRANCH   2   3
HETATM    3  C   UNL     1     -11.886  10.892  69.969  1.00  0.00    -0.347 C  
BRANCH   3   4
HETATM    4  C   UNL     1     -11.460  11.050  68.515  1.00  0.00    -0.309 C  
BRANCH   4   5
HETATM    5  O   UNL     1     -12.277  11.993  67.813  1.00  0.00    -0.474 OA 
BRANCH   5   6
HETATM    6  C   UNL     1     -11.595  13.077  67.336  1.00  0.00    -0.356 A  
HETATM    7  C   UNL     1     -11.937  13.856  66.248  1.00  0.00    -0.434 A  
HETATM    8  N   UNL     1     -11.235  14.926  65.830  1.00  0.00    -0.336 NA 
HETATM    9  C   UNL     1     -10.143  15.206  66.533  1.00  0.00    -0.269 A  
HETATM   10  C   UNL     1     -10.436  13.476  67.975  1.00  0.00    -0.242 A  
HETATM   11  N   UNL     1      -9.678  14.536  67.592  1.00  0.00    -0.213 NA 
BRANCH   9  12
HETATM   12  N   UNL     1      -9.440  16.346  66.152  1.00  0.00    -0.315 N  
HETATM   13  H   UNL     1      -8.573  16.311  65.617  1.00  0.00     0.000 HD 
BRANCH  12  14
HETATM   14  S   UNL     1     -10.150  17.781  66.656  1.00  0.00    -0.364 S  
HETATM   15  O   UNL     1     -11.016  17.571  67.798  1.00  0.00    -0.314 OA 
HETATM   16  O   UNL     1     -10.649  18.430  65.463  1.00  0.00    -0.627 OA 
BRANCH  14  17
HETATM   17  C   UNL     1      -8.762  18.760  67.211  1.00  0.00    -0.274 A  
HETATM   18  C   UNL     1      -8.409  19.914  66.505  1.00  0.00    -0.372 A  
HETATM   19  C   UNL     1      -7.332  20.683  66.944  1.00  0.00    -0.339 A  
HETATM   20  C   UNL     1      -6.621  20.305  68.085  1.00  0.00    -0.336 A  
HETATM   21  C   UNL     1      -6.996  19.169  68.803  1.00  0.00    -0.356 A  
HETATM   22  C   UNL     1      -8.080  18.401  68.377  1.00  0.00    -0.327 A  
ENDBRANCH  14  17
ENDBRANCH  12  14
ENDBRANCH   9  12
ENDBRANCH   5   6
ENDBRANCH   4   5
ENDBRANCH   3   4
ENDBRANCH   2   3
TORSDOF 7
ENDMDL
MODEL       26
REMARK 921   NORMALIZED FREE ENERGY PREDICTED BY IDOCK:   -5.11 KCAL/MOL
REMARK 922        TOTAL FREE ENERGY PREDICTED BY IDOCK:   -7.73 KCAL/MOL
REMARK 923 INTER-LIGAND FREE ENERGY PREDICTED BY IDOCK:   -7.35 KCAL/MOL
REMARK 924 INTRA-LIGAND FREE ENERGY PREDICTED BY IDOCK:   -0.38 KCAL/MOL
REMARK 927      BINDING AFFINITY PREDICTED BY RF-SCORE:    0.00 PKD
ROOT
HETATM    1  C   UNL     1     -12.507  15.937  73.639  1.00  0.00    -0.596 C  
HETATM    2  O   UNL     1     -13.833  15.943  73.137  1.00  0.00    -0.548 OA 
ENDROOT
BRANCH   2   3
HETATM    3  C   UNL     1     -13.920  15.402  71.816  1.00  0.00    -0.525 C  
BRANCH   3   4
HETATM    4  C   UNL     1     -12.516  14.969  71.415  1.00  0.00    -0.329 C  
BRANCH   4   5
HETATM    5  O   UNL     1     -12.356  14.905  69.993  1.00  0.00    -0.324 OA 
BRANCH   5   6
HETATM    6  C   UNL     1     -12.161  13.642  69.510  1.00  0.00    -0.314 A  
HETATM    7  C   UNL     1     -11.887  13.290  68.202  1.00  0.00    -0.353 A  
HETATM    8  N   UNL     1     -11.687  12.027  67.783  1.00  0.00    -0.485 NA 
HETATM    9  C   UNL     1     -11.778  11.090  68.720  1.00  0.00    -0.314 A  
HETATM   10  C   UNL     1     -12.231  12.571  70.381  1.00  0.00    -0.286 A  
HETATM   11  N   UNL     1     -12.052  11.276  70.014  1.00  0.00    -0.333 NA 
BRANCH   9  12
HETATM   12  N   UNL     1     -11.511   9.785  68.315  1.00  0.00    -0.479 N  
HETATM   13  H   UNL     1     -12.122   9.261  67.689  1.00  0.00     0.000 HD 
BRANCH  12  14
HETATM   14  S   UNL     1     -10.093   9.152  68.952  1.00  0.00    -0.203 S  
HETATM   15  O   UNL     1      -9.206  10.202  69.412  1.00  0.00    -0.197 OA 
HETATM   16  O   UNL     1      -9.631   8.156  68.011  1.00  0.00    -0.151 OA 
BRANCH  14  17
HETATM   17  C   UNL     1     -10.649   8.254  70.393  1.00  0.00    -0.224 A  
HETATM   18  C   UNL     1     -10.239   8.671  71.664  1.00  0.00    -0.366 A  
HETATM   19  C   UNL     1     -10.680   7.975  72.789  1.00  0.00    -0.431 A  
HETATM   20  C   UNL     1     -11.532   6.878  72.644  1.00  0.00    -0.235 A  
HETATM   21  C   UNL     1     -11.962   6.484  71.377  1.00  0.00    -0.371 A  
HETATM   22  C   UNL     1     -11.534   7.182  70.246  1.00  0.00    -0.287 A  
ENDBRANCH  14  17
ENDBRANCH  12  14
ENDBRANCH   9  12
ENDBRANCH   5   6
ENDBRANCH   4   5
ENDBRANCH   3   4
ENDBRANCH   2   3
TORSDOF 7
ENDMDL
MODEL       27
REMARK 921   NORMALIZED FREE ENERGY PREDICTED BY IDOCK:   -5.10 KCAL/MOL
REMARK 922        TOTAL FREE ENERGY PREDICTED BY IDOCK:   -7.72 KCAL/MOL
REMARK 923 INTER-LIGAND FREE ENERGY PREDICTED BY IDOCK:   -7.19 KCAL/MOL
REMARK 924 INTRA-LIGAND FREE ENERGY PREDICTED BY IDOCK:   -0.53 KCAL/MOL
REMARK 927      BINDING AFFINITY PREDICTED BY RF-SCORE:    0.00 PKD
ROOT
HETATM    1  C   UNL     1      -8.933  16.204  66.176  1.00  0.00    -0.337 C  
HETATM    2  O   UNL     1     -10.316  15.895  66.244  1.00  0.00    -0.289 OA 
ENDROOT
BRANCH   2   3
HETATM    3  C   UNL     1     -10.946  15.921  64.961  1.00  0.00    -0.412 C  
BRANCH   3   4
HETATM    4  C   UNL     1     -11.711  14.613  64.808  1.00  0.00    -0.428 C  
BRANCH   4   5
HETATM    5  O   UNL     1     -10.881  13.558  64.309  1.00  0.00    -0.391 OA 
BRANCH   5   6
HETATM    6  C   UNL     1     -10.850  12.448  65.104  1.00  0.00    -0.297 A  
HETATM    7  C   UNL     1     -10.062  11.326  64.928  1.00  0.00    -0.281 A  
HETATM    8  N   UNL     1     -10.060  10.264  65.755  1.00  0.00    -0.263 NA 
HETATM    9  C   UNL     1     -10.893  10.339  66.787  1.00  0.00    -0.087 A  
HETATM   10  C   UNL     1     -11.672  12.393  66.214  1.00  0.00    -0.395 A  
HETATM   11  N   UNL     1     -11.724  11.344  67.075  1.00  0.00    -0.508 NA 
BRANCH   9  12
HETATM   12  N   UNL     1     -10.858   9.275  67.686  1.00  0.00    -0.467 N  
HETATM   13  H   UNL     1     -11.312   8.381  67.507  1.00  0.00     0.000 HD 
BRANCH  12  14
HETATM   14  S   UNL     1      -9.998   9.602  69.090  1.00  0.00    -0.197 S  
HETATM   15  O   UNL     1      -9.437  10.938  69.068  1.00  0.00    -0.197 OA 
HETATM   16  O   UNL     1      -9.153   8.452  69.328  1.00  0.00    -0.149 OA 
BRANCH  14  17
HETATM   17  C   UNL     1     -11.251   9.570  70.363  1.00  0.00    -0.270 A  
HETATM   18  C   UNL     1     -12.150  10.636  70.470  1.00  0.00    -0.448 A  
HETATM   19  C   UNL     1     -13.134  10.607  71.457  1.00  0.00    -0.527 A  
HETATM   20  C   UNL     1     -13.224   9.515  72.323  1.00  0.00    -0.507 A  
HETATM   21  C   UNL     1     -12.344   8.440  72.193  1.00  0.00    -0.426 A  
HETATM   22  C   UNL     1     -11.363   8.456  71.200  1.00  0.00    -0.310 A  
ENDBRANCH  14  17
ENDBRANCH  12  14
ENDBRANCH   9  12
ENDBRANCH   5   6
ENDBRANCH   4   5
ENDBRANCH   3   4
ENDBRANCH   2   3
TORSDOF 7
ENDMDL
MODEL       28
REMARK 921   NORMALIZED FREE ENERGY PREDICTED BY IDOCK:   -5.09 KCAL/MOL
REMARK 922        TOTAL FREE ENERGY PREDICTED BY IDOCK:   -7.71 KCAL/MOL
REMARK 923 INTER-LIGAND FREE ENERGY PREDICTED BY IDOCK:   -7.47 KCAL/MOL
REMARK 924 INTRA-LIGAND FREE ENERGY PREDICTED BY IDOCK:   -0.24 KCAL/MOL
REMARK 927      BINDING AFFINITY PREDICTED BY RF-SCORE:    0.00 PKD
ROOT
HETATM    1  C   UNL     1      -8.136   8.165  74.091  1.00  0.00    -0.253 C  
HETATM    2  O   UNL     1      -8.611   8.594  72.825  1.00  0.00    -0.394 OA 
ENDROOT
BRANCH   2   3
HETATM    3  C   UNL     1      -9.801   7.910  72.427  1.00  0.00    -0.225 C  
BRANCH   3   4
HETATM    4  C   UNL     1     -10.732   8.948  71.814  1.00  0.00    -0.362 C  
BRANCH   4   5
HETATM    5  O   UNL     1     -10.549   9.068  70.399  1.00  0.00    -0.198 OA 
BRANCH   5   6
HETATM    6  C   UNL     1     -10.897  10.287  69.891  1.00  0.00    -0.302 A  
HETATM    7  C   UNL     1     -10.404  10.878  68.744  1.00  0.00    -0.198 A  
HETATM    8  N   UNL     1     -10.796  12.079  68.280  1.00  0.00    -0.217 NA 
HETATM    9  C   UNL     1     -11.711  12.706  69.011  1.00  0.00    -0.318 A  
HETATM   10  C   UNL     1     -11.840  11.048  70.557  1.00  0.00    -0.367 A  
HETATM   11  N   UNL     1     -12.264  12.271  70.147  1.00  0.00    -0.267 NA 
BRANCH   9  12
HETATM   12  N   UNL     1     -12.172  13.921  68.513  1.00  0.00    -0.493 N  
HETATM   13  H   UNL     1     -12.903  13.991  67.805  1.00  0.00     0.000 HD 
BRANCH  12  14
HETATM   14  S   UNL     1     -11.415  15.261  69.182  1.00  0.00    -0.339 S  
HETATM   15  O   UNL     1     -11.703  16.464  68.427  1.00  0.00    -0.205 OA 
HETATM   16  O   UNL     1     -10.048  14.868  69.447  1.00  0.00    -0.214 OA 
BRANCH  14  17
HETATM   17  C   UNL     1     -12.201  15.431  70.777  1.00  0.00    -0.381 A  
HETATM   18  C   UNL     1     -11.424  15.742  71.897  1.00  0.00    -0.477 A  
HETATM   19  C   UNL     1     -12.039  15.884  73.140  1.00  0.00    -0.611 A  
HETATM   20  C   UNL     1     -13.421  15.725  73.259  1.00  0.00    -0.580 A  
HETATM   21  C   UNL     1     -14.197  15.443  72.134  1.00  0.00    -0.660 A  
HETATM   22  C   UNL     1     -13.590  15.311  70.884  1.00  0.00    -0.402 A  
ENDBRANCH  14  17
ENDBRANCH  12  14
ENDBRANCH   9  12
ENDBRANCH   5   6
ENDBRANCH   4   5
ENDBRANCH   3   4
ENDBRANCH   2   3
TORSDOF 7
ENDMDL
MODEL       29
REMARK 921   NORMALIZED FREE ENERGY PREDICTED BY IDOCK:   -5.09 KCAL/MOL
REMARK 922        TOTAL FREE ENERGY PREDICTED BY IDOCK:   -7.71 KCAL/MOL
REMARK 923 INTER-LIGAND FREE ENERGY PREDICTED BY IDOCK:   -7.23 KCAL/MOL
REMARK 924 INTRA-LIGAND FREE ENERGY PREDICTED BY IDOCK:   -0.47 KCAL/MOL
REMARK 927      BINDING AFFINITY PREDICTED BY RF-SCORE:    0.00 PKD
ROOT
HETATM    1  C   UNL     1     -12.398  15.584  74.219  1.00  0.00    -0.671 C  
HETATM    2  O   UNL     1     -12.746  15.924  72.887  1.00  0.00    -0.411 OA 
ENDROOT
BRANCH   2   3
HETATM    3  C   UNL     1     -14.133  15.712  72.612  1.00  0.00    -0.446 C  
BRANCH   3   4
HETATM    4  C   UNL     1     -14.225  14.545  71.637  1.00  0.00    -0.471 C  
BRANCH   4   5
HETATM    5  O   UNL     1     -12.946  14.184  71.105  1.00  0.00    -0.331 OA 
BRANCH   5   6
HETATM    6  C   UNL     1     -12.711  12.839  71.078  1.00  0.00    -0.243 A  
HETATM    7  C   UNL     1     -13.186  11.898  71.971  1.00  0.00    -0.356 A  
HETATM    8  N   UNL     1     -12.936  10.578  71.887  1.00  0.00    -0.466 NA 
HETATM    9  C   UNL     1     -12.169  10.203  70.870  1.00  0.00    -0.356 A  
HETATM   10  C   UNL     1     -11.923  12.314  70.071  1.00  0.00    -0.304 A  
HETATM   11  N   UNL     1     -11.624  10.996  69.943  1.00  0.00    -0.307 NA 
BRANCH   9  12
HETATM   12  N   UNL     1     -11.951   8.835  70.733  1.00  0.00    -0.455 N  
HETATM   13  H   UNL     1     -12.396   8.270  70.009  1.00  0.00     0.000 HD 
BRANCH  12  14
HETATM   14  S   UNL     1     -10.891   8.199  71.868  1.00  0.00    -0.293 S  
HETATM   15  O   UNL     1     -11.551   7.966  73.137  1.00  0.00    -0.292 OA 
HETATM   16  O   UNL     1      -9.689   9.002  71.799  1.00  0.00    -0.304 OA 
BRANCH  14  17
HETATM   17  C   UNL     1     -10.461   6.603  71.189  1.00  0.00    -0.217 A  
HETATM   18  C   UNL     1     -10.545   6.399  69.808  1.00  0.00    -0.309 A  
HETATM   19  C   UNL     1     -10.200   5.156  69.277  1.00  0.00    -0.276 A  
HETATM   20  C   UNL     1      -9.767   4.131  70.121  1.00  0.00    -0.278 A  
HETATM   21  C   UNL     1      -9.657   4.349  71.494  1.00  0.00    -0.228 A  
HETATM   22  C   UNL     1      -9.989   5.593  72.032  1.00  0.00    -0.217 A  
ENDBRANCH  14  17
ENDBRANCH  12  14
ENDBRANCH   9  12
ENDBRANCH   5   6
ENDBRANCH   4   5
ENDBRANCH   3   4
ENDBRANCH   2   3
TORSDOF 7
ENDMDL
MODEL       30
REMARK 921   NORMALIZED FREE ENERGY PREDICTED BY IDOCK:   -5.09 KCAL/MOL
REMARK 922        TOTAL FREE ENERGY PREDICTED BY IDOCK:   -7.70 KCAL/MOL
REMARK 923 INTER-LIGAND FREE ENERGY PREDICTED BY IDOCK:   -7.33 KCAL/MOL
REMARK 924 INTRA-LIGAND FREE ENERGY PREDICTED BY IDOCK:   -0.37 KCAL/MOL
REMARK 927      BINDING AFFINITY PREDICTED BY RF-SCORE:    0.00 PKD
ROOT
HETATM    1  C   UNL     1     -12.352  12.520  63.509  1.00  0.00    -0.525 C  
HETATM    2  O   UNL     1     -13.038  12.570  64.750  1.00  0.00    -0.853 OA 
ENDROOT
BRANCH   2   3
HETATM    3  C   UNL     1     -12.628  13.677  65.557  1.00  0.00    -0.496 C  
BRANCH   3   4
HETATM    4  C   UNL     1     -11.973  13.103  66.806  1.00  0.00    -0.373 C  
BRANCH   4   5
HETATM    5  O   UNL     1     -11.623  11.724  66.648  1.00  0.00    -0.490 OA 
BRANCH   5   6
HETATM    6  C   UNL     1     -11.413  11.061  67.824  1.00  0.00    -0.261 A  
HETATM    7  C   UNL     1     -10.663   9.916  68.007  1.00  0.00    -0.248 A  
HETATM    8  N   UNL     1     -10.476   9.313  69.195  1.00  0.00    -0.215 NA 
HETATM    9  C   UNL     1     -11.081   9.885  70.230  1.00  0.00    -0.308 A  
HETATM   10  C   UNL     1     -11.989  11.550  68.982  1.00  0.00    -0.311 A  
HETATM   11  N   UNL     1     -11.850  10.977  70.205  1.00  0.00    -0.339 NA 
BRANCH   9  12
HETATM   12  N   UNL     1     -10.847   9.309  71.476  1.00  0.00    -0.363 N  
HETATM   13  H   UNL     1     -10.060   9.568  72.070  1.00  0.00     0.000 HD 
BRANCH  12  14
HETATM   14  S   UNL     1     -11.981   8.150  71.911  1.00  0.00    -0.343 S  
HETATM   15  O   UNL     1     -12.469   7.427  70.755  1.00  0.00    -0.218 OA 
HETATM   16  O   UNL     1     -12.903   8.801  72.816  1.00  0.00    -0.340 OA 
BRANCH  14  17
HETATM   17  C   UNL     1     -11.040   6.999  72.903  1.00  0.00    -0.278 A  
HETATM   18  C   UNL     1      -9.922   7.454  73.610  1.00  0.00    -0.379 A  
HETATM   19  C   UNL     1      -9.194   6.558  74.391  1.00  0.00    -0.223 A  
HETATM   20  C   UNL     1      -9.588   5.221  74.472  1.00  0.00    -0.164 A  
HETATM   21  C   UNL     1     -10.721   4.778  73.789  1.00  0.00    -0.359 A  
HETATM   22  C   UNL     1     -11.462   5.671  73.014  1.00  0.00    -0.247 A  
ENDBRANCH  14  17
ENDBRANCH  12  14
ENDBRANCH   9  12
ENDBRANCH   5   6
ENDBRANCH   4   5
ENDBRANCH   3   4
ENDBRANCH   2   3
TORSDOF 7
ENDMDL
MODEL       31
REMARK 921   NORMALIZED FREE ENERGY PREDICTED BY IDOCK:   -5.07 KCAL/MOL
REMARK 922        TOTAL FREE ENERGY PREDICTED BY IDOCK:   -7.68 KCAL/MOL
REMARK 923 INTER-LIGAND FREE ENERGY PREDICTED BY IDOCK:   -7.24 KCAL/MOL
REMARK 924 INTRA-LIGAND FREE ENERGY PREDICTED BY IDOCK:   -0.44 KCAL/MOL
REMARK 927      BINDING AFFINITY PREDICTED BY RF-SCORE:    0.00 PKD
ROOT
HETATM    1  C   UNL     1     -13.084  10.828  71.719  1.00  0.00    -0.468 C  
HETATM    2  O   UNL     1     -12.117   9.861  71.341  1.00  0.00    -0.360 OA 
ENDROOT
BRANCH   2   3
HETATM    3  C   UNL     1     -11.407  10.231  70.157  1.00  0.00    -0.316 C  
BRANCH   3   4
HETATM    4  C   UNL     1     -12.262  11.257  69.424  1.00  0.00    -0.247 C  
BRANCH   4   5
HETATM    5  O   UNL     1     -12.062  11.213  68.007  1.00  0.00    -0.635 OA 
BRANCH   5   6
HETATM    6  C   UNL     1     -11.307  12.240  67.516  1.00  0.00    -0.325 A  
HETATM    7  C   UNL     1     -10.020  12.159  67.021  1.00  0.00    -0.202 A  
HETATM    8  N   UNL     1      -9.328  13.205  66.533  1.00  0.00    -0.243 NA 
HETATM    9  C   UNL     1      -9.958  14.374  66.560  1.00  0.00    -0.283 A  
HETATM   10  C   UNL     1     -11.844  13.514  67.489  1.00  0.00    -0.368 A  
HETATM   11  N   UNL     1     -11.189  14.609  67.024  1.00  0.00    -0.334 NA 
BRANCH   9  12
HETATM   12  N   UNL     1      -9.279  15.454  66.003  1.00  0.00    -0.373 N  
HETATM   13  H   UNL     1      -9.410  15.755  65.038  1.00  0.00     0.000 HD 
BRANCH  12  14
HETATM   14  S   UNL     1      -8.225  16.214  67.065  1.00  0.00    -0.242 S  
HETATM   15  O   UNL     1      -6.876  16.248  66.538  1.00  0.00    -0.215 OA 
HETATM   16  O   UNL     1      -8.491  15.657  68.374  1.00  0.00    -0.156 OA 
BRANCH  14  17
HETATM   17  C   UNL     1      -8.822  17.897  67.111  1.00  0.00    -0.247 A  
HETATM   18  C   UNL     1     -10.199  18.138  67.145  1.00  0.00    -0.376 A  
HETATM   19  C   UNL     1     -10.665  19.451  67.191  1.00  0.00    -0.593 A  
HETATM   20  C   UNL     1      -9.760  20.514  67.212  1.00  0.00    -0.600 A  
HETATM   21  C   UNL     1      -8.387  20.269  67.208  1.00  0.00    -0.404 A  
HETATM   22  C   UNL     1      -7.912  18.957  67.174  1.00  0.00    -0.254 A  
ENDBRANCH  14  17
ENDBRANCH  12  14
ENDBRANCH   9  12
ENDBRANCH   5   6
ENDBRANCH   4   5
ENDBRANCH   3   4
ENDBRANCH   2   3
TORSDOF 7
ENDMDL
MODEL       32
REMARK 921   NORMALIZED FREE ENERGY PREDICTED BY IDOCK:   -5.07 KCAL/MOL
REMARK 922        TOTAL FREE ENERGY PREDICTED BY IDOCK:   -7.67 KCAL/MOL
REMARK 923 INTER-LIGAND FREE ENERGY PREDICTED BY IDOCK:   -7.22 KCAL/MOL
REMARK 924 INTRA-LIGAND FREE ENERGY PREDICTED BY IDOCK:   -0.45 KCAL/MOL
REMARK 927      BINDING AFFINITY PREDICTED BY RF-SCORE:    0.00 PKD
ROOT
HETATM    1  C   UNL     1      -8.381  19.229  67.701  1.00  0.00    -0.291 C  
HETATM    2  O   UNL     1      -8.955  20.375  67.094  1.00  0.00    -0.351 OA 
ENDROOT
BRANCH   2   3
HETATM    3  C   UNL     1      -9.920  20.038  66.093  1.00  0.00    -0.468 C  
BRANCH   3   4
HETATM    4  C   UNL     1     -10.579  18.735  66.526  1.00  0.00    -0.374 C  
BRANCH   4   5
HETATM    5  O   UNL     1     -10.490  17.724  65.515  1.00  0.00    -0.646 OA 
BRANCH   5   6
HETATM    6  C   UNL     1     -10.343  16.457  66.004  1.00  0.00    -0.352 A  
HETATM    7  C   UNL     1     -10.042  15.320  65.279  1.00  0.00    -0.327 A  
HETATM    8  N   UNL     1      -9.893  14.095  65.817  1.00  0.00    -0.298 NA 
HETATM    9  C   UNL     1     -10.065  14.021  67.132  1.00  0.00    -0.259 A  
HETATM   10  C   UNL     1     -10.499  16.238  67.360  1.00  0.00    -0.304 A  
HETATM   11  N   UNL     1     -10.376  15.024  67.957  1.00  0.00    -0.234 NA 
BRANCH   9  12
HETATM   12  N   UNL     1      -9.853  12.773  67.712  1.00  0.00    -0.214 N  
HETATM   13  H   UNL     1      -9.055  12.566  68.311  1.00  0.00     0.000 HD 
BRANCH  12  14
HETATM   14  S   UNL     1     -11.031  11.639  67.332  1.00  0.00    -0.279 S  
HETATM   15  O   UNL     1     -10.563  10.704  66.330  1.00  0.00    -0.229 OA 
HETATM   16  O   UNL     1     -12.260  12.377  67.135  1.00  0.00    -0.492 OA 
BRANCH  14  17
HETATM   17  C   UNL     1     -11.239  10.728  68.856  1.00  0.00    -0.268 A  
HETATM   18  C   UNL     1     -12.035  11.263  69.873  1.00  0.00    -0.440 A  
HETATM   19  C   UNL     1     -12.205  10.548  71.058  1.00  0.00    -0.505 A  
HETATM   20  C   UNL     1     -11.590   9.304  71.219  1.00  0.00    -0.419 A  
HETATM   21  C   UNL     1     -10.821   8.762  70.190  1.00  0.00    -0.241 A  
HETATM   22  C   UNL     1     -10.655   9.465  68.996  1.00  0.00    -0.233 A  
ENDBRANCH  14  17
ENDBRANCH  12  14
ENDBRANCH   9  12
ENDBRANCH   5   6
ENDBRANCH   4   5
ENDBRANCH   3   4
ENDBRANCH   2   3
TORSDOF 7
ENDMDL
MODEL       33
REMARK 921   NORMALIZED FREE ENERGY PREDICTED BY IDOCK:   -5.06 KCAL/MOL
REMARK 922        TOTAL FREE ENERGY PREDICTED BY IDOCK:   -7.67 KCAL/MOL
REMARK 923 INTER-LIGAND FREE ENERGY PREDICTED BY IDOCK:   -7.33 KCAL/MOL
REMARK 924 INTRA-LIGAND FREE ENERGY PREDICTED BY IDOCK:   -0.34 KCAL/MOL
REMARK 927      BINDING AFFINITY PREDICTED BY RF-SCORE:    0.00 PKD
ROOT
HETATM    1  C   UNL     1      -6.443  21.250  67.256  1.00  0.00    -0.344 C  
HETATM    2  O   UNL     1      -5.864  20.851  68.488  1.00  0.00    -0.320 OA 
ENDROOT
BRANCH   2   3
HETATM    3  C   UNL     1      -6.618  19.825  69.140  1.00  0.00    -0.342 C  
BRANCH   3   4
HETATM    4  C   UNL     1      -7.467  19.146  68.073  1.00  0.00    -0.263 C  
BRANCH   4   5
HETATM    5  O   UNL     1      -8.055  17.929  68.545  1.00  0.00    -0.290 OA 
BRANCH   5   6
HETATM    6  C   UNL     1      -8.658  17.185  67.572  1.00  0.00    -0.203 A  
HETATM    7  C   UNL     1      -8.222  15.977  67.063  1.00  0.00    -0.220 A  
HETATM    8  N   UNL     1      -8.867  15.277  66.112  1.00  0.00    -0.234 NA 
HETATM    9  C   UNL     1      -9.986  15.827  65.654  1.00  0.00    -0.345 A  
HETATM   10  C   UNL     1      -9.833  17.645  67.005  1.00  0.00    -0.307 A  
HETATM   11  N   UNL     1     -10.520  16.992  66.033  1.00  0.00    -0.321 NA 
BRANCH   9  12
HETATM   12  N   UNL     1     -10.698  15.086  64.714  1.00  0.00    -0.580 N  
HETATM   13  H   UNL     1     -10.611  15.231  63.709  1.00  0.00     0.000 HD 
BRANCH  12  14
HETATM   14  S   UNL     1     -11.714  13.932  65.388  1.00  0.00    -0.357 S  
HETATM   15  O   UNL     1     -12.996  13.897  64.714  1.00  0.00    -0.686 OA 
HETATM   16  O   UNL     1     -11.641  14.111  66.822  1.00  0.00    -0.353 OA 
BRANCH  14  17
HETATM   17  C   UNL     1     -10.883  12.390  65.037  1.00  0.00    -0.295 A  
HETATM   18  C   UNL     1     -10.490  12.103  63.726  1.00  0.00    -0.470 A  
HETATM   19  C   UNL     1      -9.833  10.904  63.454  1.00  0.00    -0.408 A  
HETATM   20  C   UNL     1      -9.563  10.004  64.487  1.00  0.00    -0.346 A  
HETATM   21  C   UNL     1      -9.931  10.307  65.798  1.00  0.00    -0.337 A  
HETATM   22  C   UNL     1     -10.578  11.511  66.081  1.00  0.00    -0.314 A  
ENDBRANCH  14  17
ENDBRANCH  12  14
ENDBRANCH   9  12
ENDBRANCH   5   6
ENDBRANCH   4   5
ENDBRANCH   3   4
ENDBRANCH   2   3
TORSDOF 7
ENDMDL
MODEL       34
REMARK 921   NORMALIZED FREE ENERGY PREDICTED BY IDOCK:   -5.06 KCAL/MOL
REMARK 922        TOTAL FREE ENERGY PREDICTED BY IDOCK:   -7.66 KCAL/MOL
REMARK 923 INTER-LIGAND FREE ENERGY PREDICTED BY IDOCK:   -7.49 KCAL/MOL
REMARK 924 INTRA-LIGAND FREE ENERGY PREDICTED BY IDOCK:   -0.17 KCAL/MOL
REMARK 927      BINDING AFFINITY PREDICTED BY RF-SCORE:    0.00 PKD
ROOT
HETATM    1  C   UNL     1     -13.237  15.842  72.938  1.00  0.00    -0.527 C  
HETATM    2  O   UNL     1     -12.169  16.188  72.071  1.00  0.00    -0.471 OA 
ENDROOT
BRANCH   2   3
HETATM    3  C   UNL     1     -12.346  15.668  70.751  1.00  0.00    -0.419 C  
BRANCH   3   4
HETATM    4  C   UNL     1     -11.091  16.012  69.960  1.00  0.00    -0.362 C  
BRANCH   4   5
HETATM    5  O   UNL     1     -11.332  16.038  68.549  1.00  0.00    -0.360 OA 
BRANCH   5   6
HETATM    6  C   UNL     1     -10.612  16.985  67.877  1.00  0.00    -0.365 A  
HETATM    7  C   UNL     1     -10.155  16.908  66.575  1.00  0.00    -0.315 A  
HETATM    8  N   UNL     1      -9.462  17.881  65.955  1.00  0.00    -0.525 NA 
HETATM    9  C   UNL     1      -9.215  18.963  66.685  1.00  0.00    -0.330 A  
HETATM   10  C   UNL     1     -10.283  18.163  68.522  1.00  0.00    -0.384 A  
HETATM   11  N   UNL     1      -9.574  19.172  67.955  1.00  0.00    -0.313 NA 
BRANCH   9  12
HETATM   12  N   UNL     1      -8.553  20.004  66.039  1.00  0.00    -0.527 N  
HETATM   13  H   UNL     1      -9.021  20.856  65.734  1.00  0.00     0.000 HD 
BRANCH  12  14
HETATM   14  S   UNL     1      -6.914  19.727  65.809  1.00  0.00    -0.305 S  
HETATM   15  O   UNL     1      -6.249  20.897  65.273  1.00  0.00    -0.247 OA 
HETATM   16  O   UNL     1      -6.805  18.447  65.142  1.00  0.00    -0.512 OA 
BRANCH  14  17
HETATM   17  C   UNL     1      -6.297  19.476  67.467  1.00  0.00    -0.199 A  
HETATM   18  C   UNL     1      -5.891  18.198  67.864  1.00  0.00    -0.159 A  
HETATM   19  C   UNL     1      -5.400  18.004  69.155  1.00  0.00    -0.196 A  
HETATM   20  C   UNL     1      -5.309  19.082  70.037  1.00  0.00    -0.226 A  
HETATM   21  C   UNL     1      -5.688  20.361  69.628  1.00  0.00    -0.385 A  
HETATM   22  C   UNL     1      -6.169  20.566  68.334  1.00  0.00    -0.359 A  
ENDBRANCH  14  17
ENDBRANCH  12  14
ENDBRANCH   9  12
ENDBRANCH   5   6
ENDBRANCH   4   5
ENDBRANCH   3   4
ENDBRANCH   2   3
TORSDOF 7
ENDMDL
MODEL       35
REMARK 921   NORMALIZED FREE ENERGY PREDICTED BY IDOCK:   -5.05 KCAL/MOL
REMARK 922        TOTAL FREE ENERGY PREDICTED BY IDOCK:   -7.65 KCAL/MOL
REMARK 923 INTER-LIGAND FREE ENERGY PREDICTED BY IDOCK:   -7.17 KCAL/MOL
REMARK 924 INTRA-LIGAND FREE ENERGY PREDICTED BY IDOCK:   -0.47 KCAL/MOL
REMARK 927      BINDING AFFINITY PREDICTED BY RF-SCORE:    0.00 PKD
ROOT
HETATM    1  C   UNL     1     -12.706  15.605  73.943  1.00  0.00    -0.600 C  
HETATM    2  O   UNL     1     -13.857  16.092  73.273  1.00  0.00    -0.559 OA 
ENDROOT
BRANCH   2   3
HETATM    3  C   UNL     1     -14.206  15.297  72.137  1.00  0.00    -0.571 C  
BRANCH   3   4
HETATM    4  C   UNL     1     -13.497  13.958  72.292  1.00  0.00    -0.526 C  
BRANCH   4   5
HETATM    5  O   UNL     1     -12.906  13.515  71.065  1.00  0.00    -0.317 OA 
BRANCH   5   6
HETATM    6  C   UNL     1     -12.656  12.173  71.018  1.00  0.00    -0.263 A  
HETATM    7  C   UNL     1     -13.096  11.217  71.913  1.00  0.00    -0.408 A  
HETATM    8  N   UNL     1     -12.832   9.902  71.808  1.00  0.00    -0.413 NA 
HETATM    9  C   UNL     1     -12.088   9.546  70.766  1.00  0.00    -0.232 A  
HETATM   10  C   UNL     1     -11.890  11.669  69.983  1.00  0.00    -0.355 A  
HETATM   11  N   UNL     1     -11.578  10.355  69.833  1.00  0.00    -0.273 NA 
BRANCH   9  12
HETATM   12  N   UNL     1     -11.859   8.182  70.609  1.00  0.00    -0.469 N  
HETATM   13  H   UNL     1     -12.596   7.517  70.379  1.00  0.00     0.000 HD 
BRANCH  12  14
HETATM   14  S   UNL     1     -10.257   7.733  70.832  1.00  0.00    -0.199 S  
HETATM   15  O   UNL     1      -9.579   8.630  71.746  1.00  0.00    -0.237 OA 
HETATM   16  O   UNL     1      -9.717   7.478  69.515  1.00  0.00    -0.163 OA 
BRANCH  14  17
HETATM   17  C   UNL     1     -10.378   6.143  71.637  1.00  0.00    -0.216 A  
HETATM   18  C   UNL     1      -9.498   5.119  71.272  1.00  0.00    -0.203 A  
HETATM   19  C   UNL     1      -9.587   3.880  71.906  1.00  0.00    -0.217 A  
HETATM   20  C   UNL     1     -10.541   3.672  72.904  1.00  0.00    -0.225 A  
HETATM   21  C   UNL     1     -11.397   4.706  73.286  1.00  0.00    -0.393 A  
HETATM   22  C   UNL     1     -11.308   5.952  72.664  1.00  0.00    -0.337 A  
ENDBRANCH  14  17
ENDBRANCH  12  14
ENDBRANCH   9  12
ENDBRANCH   5   6
ENDBRANCH   4   5
ENDBRANCH   3   4
ENDBRANCH   2   3
TORSDOF 7
ENDMDL
MODEL       36
REMARK 921   NORMALIZED FREE ENERGY PREDICTED BY IDOCK:   -5.04 KCAL/MOL
REMARK 922        TOTAL FREE ENERGY PREDICTED BY IDOCK:   -7.63 KCAL/MOL
REMARK 923 INTER-LIGAND FREE ENERGY PREDICTED BY IDOCK:   -7.33 KCAL/MOL
REMARK 924 INTRA-LIGAND FREE ENERGY PREDICTED BY IDOCK:   -0.30 KCAL/MOL
REMARK 927      BINDING AFFINITY PREDICTED BY RF-SCORE:    0.00 PKD
ROOT
HETATM    1  C   UNL     1     -12.340  12.381  63.417  1.00  0.00    -0.499 C  
HETATM    2  O   UNL     1     -12.462  13.791  63.327  1.00  0.00    -0.819 OA 
ENDROOT
BRANCH   2   3
HETATM    3  C   UNL     1     -12.409  14.427  64.607  1.00  0.00    -0.418 C  
BRANCH   3   4
HETATM    4  C   UNL     1     -12.164  13.335  65.641  1.00  0.00    -0.462 C  
BRANCH   4   5
HETATM    5  O   UNL     1     -12.341  13.810  66.980  1.00  0.00    -0.378 OA 
BRANCH   5   6
HETATM    6  C   UNL     1     -11.213  14.344  67.537  1.00  0.00    -0.315 A  
HETATM    7  C   UNL     1      -9.906  14.033  67.217  1.00  0.00    -0.242 A  
HETATM    8  N   UNL     1      -8.829  14.603  67.789  1.00  0.00    -0.171 NA 
HETATM    9  C   UNL     1      -9.089  15.511  68.723  1.00  0.00    -0.207 A  
HETATM   10  C   UNL     1     -11.341  15.300  68.527  1.00  0.00    -0.327 A  
HETATM   11  N   UNL     1     -10.294  15.899  69.150  1.00  0.00    -0.221 NA 
BRANCH   9  12
HETATM   12  N   UNL     1      -7.987  16.155  69.280  1.00  0.00    -0.231 N  
HETATM   13  H   UNL     1      -7.635  15.948  70.214  1.00  0.00     0.000 HD 
BRANCH  12  14
HETATM   14  S   UNL     1      -7.292  17.303  68.273  1.00  0.00    -0.223 S  
HETATM   15  O   UNL     1      -6.768  16.700  67.065  1.00  0.00    -0.171 OA 
HETATM   16  O   UNL     1      -6.447  18.125  69.113  1.00  0.00    -0.240 OA 
BRANCH  14  17
HETATM   17  C   UNL     1      -8.673  18.333  67.800  1.00  0.00    -0.256 A  
HETATM   18  C   UNL     1      -9.288  18.132  66.560  1.00  0.00    -0.301 A  
HETATM   19  C   UNL     1     -10.372  18.929  66.195  1.00  0.00    -0.517 A  
HETATM   20  C   UNL     1     -10.842  19.912  67.067  1.00  0.00    -0.370 A  
HETATM   21  C   UNL     1     -10.245  20.090  68.316  1.00  0.00    -0.527 A  
HETATM   22  C   UNL     1      -9.167  19.288  68.694  1.00  0.00    -0.436 A  
ENDBRANCH  14  17
ENDBRANCH  12  14
ENDBRANCH   9  12
ENDBRANCH   5   6
ENDBRANCH   4   5
ENDBRANCH   3   4
ENDBRANCH   2   3
TORSDOF 7
ENDMDL
MODEL       37
REMARK 921   NORMALIZED FREE ENERGY PREDICTED BY IDOCK:   -5.03 KCAL/MOL
REMARK 922        TOTAL FREE ENERGY PREDICTED BY IDOCK:   -7.62 KCAL/MOL
REMARK 923 INTER-LIGAND FREE ENERGY PREDICTED BY IDOCK:   -7.16 KCAL/MOL
REMARK 924 INTRA-LIGAND FREE ENERGY PREDICTED BY IDOCK:   -0.46 KCAL/MOL
REMARK 927      BINDING AFFINITY PREDICTED BY RF-SCORE:    0.00 PKD
ROOT
HETATM    1  C   UNL     1     -10.995   6.549  68.654  1.00  0.00    -0.293 C  
HETATM    2  O   UNL     1     -10.214   7.702  68.387  1.00  0.00    -0.188 OA 
ENDROOT
BRANCH   2   3
HETATM    3  C   UNL     1     -10.096   7.971  66.988  1.00  0.00    -0.279 C  
BRANCH   3   4
HETATM    4  C   UNL     1     -10.307   9.468  66.799  1.00  0.00    -0.228 C  
BRANCH   4   5
HETATM    5  O   UNL     1     -11.160  10.024  67.805  1.00  0.00    -0.286 OA 
BRANCH   5   6
HETATM    6  C   UNL     1     -11.284  11.383  67.745  1.00  0.00    -0.283 A  
HETATM    7  C   UNL     1     -11.088  12.279  68.778  1.00  0.00    -0.251 A  
HETATM    8  N   UNL     1     -11.207  13.614  68.657  1.00  0.00    -0.261 NA 
HETATM    9  C   UNL     1     -11.549  14.053  67.451  1.00  0.00    -0.368 A  
HETATM   10  C   UNL     1     -11.638  11.972  66.545  1.00  0.00    -0.314 A  
HETATM   11  N   UNL     1     -11.789  13.310  66.367  1.00  0.00    -0.376 NA 
BRANCH   9  12
HETATM   12  N   UNL     1     -11.617  15.435  67.294  1.00  0.00    -0.175 N  
HETATM   13  H   UNL     1     -12.330  16.011  67.740  1.00  0.00     0.000 HD 
BRANCH  12  14
HETATM   14  S   UNL     1     -10.417  16.064  66.304  1.00  0.00    -0.308 S  
HETATM   15  O   UNL     1     -10.872  16.187  64.934  1.00  0.00    -0.582 OA 
HETATM   16  O   UNL     1      -9.206  15.336  66.615  1.00  0.00    -0.235 OA 
BRANCH  14  17
HETATM   17  C   UNL     1     -10.179  17.718  66.937  1.00  0.00    -0.346 A  
HETATM   18  C   UNL     1     -10.295  18.809  66.071  1.00  0.00    -0.467 A  
HETATM   19  C   UNL     1     -10.118  20.101  66.567  1.00  0.00    -0.577 A  
HETATM   20  C   UNL     1      -9.838  20.297  67.921  1.00  0.00    -0.492 A  
HETATM   21  C   UNL     1      -9.753  19.207  68.787  1.00  0.00    -0.491 A  
HETATM   22  C   UNL     1      -9.940  17.913  68.301  1.00  0.00    -0.360 A  
ENDBRANCH  14  17
ENDBRANCH  12  14
ENDBRANCH   9  12
ENDBRANCH   5   6
ENDBRANCH   4   5
ENDBRANCH   3   4
ENDBRANCH   2   3
TORSDOF 7
ENDMDL
MODEL       38
REMARK 921   NORMALIZED FREE ENERGY PREDICTED BY IDOCK:   -5.03 KCAL/MOL
REMARK 922        TOTAL FREE ENERGY PREDICTED BY IDOCK:   -7.62 KCAL/MOL
REMARK 923 INTER-LIGAND FREE ENERGY PREDICTED BY IDOCK:   -7.41 KCAL/MOL
REMARK 924 INTRA-LIGAND FREE ENERGY PREDICTED BY IDOCK:   -0.22 KCAL/MOL
REMARK 927      BINDING AFFINITY PREDICTED BY RF-SCORE:    0.00 PKD
ROOT
HETATM    1  C   UNL     1     -12.433   7.071  71.498  1.00  0.00    -0.386 C  
HETATM    2  O   UNL     1     -12.417   8.175  72.389  1.00  0.00    -0.322 OA 
ENDROOT
BRANCH   2   3
HETATM    3  C   UNL     1     -13.685   8.831  72.470  1.00  0.00    -0.368 C  
BRANCH   3   4
HETATM    4  C   UNL     1     -13.478  10.266  72.004  1.00  0.00    -0.281 C  
BRANCH   4   5
HETATM    5  O   UNL     1     -12.189  10.461  71.412  1.00  0.00    -0.366 OA 
BRANCH   5   6
HETATM    6  C   UNL     1     -12.165  11.403  70.423  1.00  0.00    -0.362 A  
HETATM    7  C   UNL     1     -12.037  11.175  69.066  1.00  0.00    -0.246 A  
HETATM    8  N   UNL     1     -12.036  12.143  68.131  1.00  0.00    -0.462 NA 
HETATM    9  C   UNL     1     -12.158  13.384  68.590  1.00  0.00    -0.246 A  
HETATM   10  C   UNL     1     -12.281  12.738  70.763  1.00  0.00    -0.248 A  
HETATM   11  N   UNL     1     -12.272  13.758  69.867  1.00  0.00    -0.331 NA 
BRANCH   9  12
HETATM   12  N   UNL     1     -12.222  14.392  67.631  1.00  0.00    -0.623 N  
HETATM   13  H   UNL     1     -13.059  14.950  67.465  1.00  0.00     0.000 HD 
BRANCH  12  14
HETATM   14  S   UNL     1     -10.795  14.604  66.774  1.00  0.00    -0.318 S  
HETATM   15  O   UNL     1      -9.642  14.219  67.562  1.00  0.00    -0.209 OA 
HETATM   16  O   UNL     1     -10.870  15.918  66.173  1.00  0.00    -0.296 OA 
BRANCH  14  17
HETATM   17  C   UNL     1     -10.938  13.435  65.431  1.00  0.00    -0.286 A  
HETATM   18  C   UNL     1     -11.856  13.676  64.405  1.00  0.00    -0.460 A  
HETATM   19  C   UNL     1     -11.961  12.768  63.351  1.00  0.00    -0.613 A  
HETATM   20  C   UNL     1     -11.146  11.634  63.321  1.00  0.00    -0.333 A  
HETATM   21  C   UNL     1     -10.211  11.413  64.332  1.00  0.00    -0.361 A  
HETATM   22  C   UNL     1     -10.091  12.323  65.384  1.00  0.00    -0.292 A  
ENDBRANCH  14  17
ENDBRANCH  12  14
ENDBRANCH   9  12
ENDBRANCH   5   6
ENDBRANCH   4   5
ENDBRANCH   3   4
ENDBRANCH   2   3
TORSDOF 7
ENDMDL
MODEL       39
REMARK 921   NORMALIZED FREE ENERGY PREDICTED BY IDOCK:   -5.03 KCAL/MOL
REMARK 922        TOTAL FREE ENERGY PREDICTED BY IDOCK:   -7.62 KCAL/MOL
REMARK 923 INTER-LIGAND FREE ENERGY PREDICTED BY IDOCK:   -7.19 KCAL/MOL
REMARK 924 INTRA-LIGAND FREE ENERGY PREDICTED BY IDOCK:   -0.42 KCAL/MOL
REMARK 927      BINDING AFFINITY PREDICTED BY RF-SCORE:    0.00 PKD
ROOT
HETATM    1  C   UNL     1      -7.046   9.217  62.698  1.00  0.00    -0.093 C  
HETATM    2  O   UNL     1      -7.937   9.965  63.510  1.00  0.00    -0.141 OA 
ENDROOT
BRANCH   2   3
HETATM    3  C   UNL     1      -9.261  10.007  62.974  1.00  0.00    -0.286 C  
BRANCH   3   4
HETATM    4  C   UNL     1      -9.786  11.421  63.184  1.00  0.00    -0.388 C  
BRANCH   4   5
HETATM    5  O   UNL     1     -11.147  11.431  63.630  1.00  0.00    -0.399 OA 
BRANCH   5   6
HETATM    6  C   UNL     1     -11.394  12.306  64.649  1.00  0.00    -0.322 A  
HETATM    7  C   UNL     1     -11.519  12.002  65.990  1.00  0.00    -0.338 A  
HETATM    8  N   UNL     1     -11.747  12.910  66.957  1.00  0.00    -0.371 NA 
HETATM    9  C   UNL     1     -11.865  14.167  66.546  1.00  0.00    -0.419 A  
HETATM   10  C   UNL     1     -11.541  13.650  64.359  1.00  0.00    -0.393 A  
HETATM   11  N   UNL     1     -11.788  14.610  65.288  1.00  0.00    -0.347 NA 
BRANCH   9  12
HETATM   12  N   UNL     1     -12.039  15.127  67.540  1.00  0.00    -0.321 N  
HETATM   13  H   UNL     1     -12.948  15.527  67.773  1.00  0.00     0.000 HD 
BRANCH  12  14
HETATM   14  S   UNL     1     -10.618  15.564  68.318  1.00  0.00    -0.264 S  
HETATM   15  O   UNL     1      -9.477  14.857  67.773  1.00  0.00    -0.199 OA 
HETATM   16  O   UNL     1     -10.900  15.525  69.736  1.00  0.00    -0.249 OA 
BRANCH  14  17
HETATM   17  C   UNL     1     -10.427  17.291  67.898  1.00  0.00    -0.382 A  
HETATM   18  C   UNL     1     -10.123  18.213  68.903  1.00  0.00    -0.354 A  
HETATM   19  C   UNL     1      -9.965  19.559  68.573  1.00  0.00    -0.538 A  
HETATM   20  C   UNL     1     -10.100  19.975  67.247  1.00  0.00    -0.577 A  
HETATM   21  C   UNL     1     -10.374  19.046  66.243  1.00  0.00    -0.530 A  
HETATM   22  C   UNL     1     -10.523  17.696  66.563  1.00  0.00    -0.283 A  
ENDBRANCH  14  17
ENDBRANCH  12  14
ENDBRANCH   9  12
ENDBRANCH   5   6
ENDBRANCH   4   5
ENDBRANCH   3   4
ENDBRANCH   2   3
TORSDOF 7
ENDMDL
MODEL       40
REMARK 921   NORMALIZED FREE ENERGY PREDICTED BY IDOCK:   -5.02 KCAL/MOL
REMARK 922        TOTAL FREE ENERGY PREDICTED BY IDOCK:   -7.61 KCAL/MOL
REMARK 923 INTER-LIGAND FREE ENERGY PREDICTED BY IDOCK:   -7.05 KCAL/MOL
REMARK 924 INTRA-LIGAND FREE ENERGY PREDICTED BY IDOCK:   -0.56 KCAL/MOL
REMARK 927      BINDING AFFINITY PREDICTED BY RF-SCORE:    0.00 PKD
ROOT
HETATM    1  C   UNL     1     -10.757  19.462  66.744  1.00  0.00    -0.448 C  
HETATM    2  O   UNL     1      -9.681  20.090  66.065  1.00  0.00    -0.424 OA 
ENDROOT
BRANCH   2   3
HETATM    3  C   UNL     1      -8.443  19.967  66.770  1.00  0.00    -0.324 C  
BRANCH   3   4
HETATM    4  C   UNL     1      -7.981  18.524  66.617  1.00  0.00    -0.261 C  
BRANCH   4   5
HETATM    5  O   UNL     1      -7.842  17.865  67.881  1.00  0.00    -0.220 OA 
BRANCH   5   6
HETATM    6  C   UNL     1      -8.373  16.607  67.917  1.00  0.00    -0.185 A  
HETATM    7  C   UNL     1      -8.297  15.648  66.926  1.00  0.00    -0.252 A  
HETATM    8  N   UNL     1      -8.827  14.415  67.022  1.00  0.00    -0.230 NA 
HETATM    9  C   UNL     1      -9.464  14.150  68.157  1.00  0.00    -0.213 A  
HETATM   10  C   UNL     1      -9.065  16.203  69.043  1.00  0.00    -0.250 A  
HETATM   11  N   UNL     1      -9.634  14.978  69.192  1.00  0.00    -0.214 NA 
BRANCH   9  12
HETATM   12  N   UNL     1      -9.964  12.858  68.297  1.00  0.00    -0.233 N  
HETATM   13  H   UNL     1      -9.416  12.088  68.679  1.00  0.00     0.000 HD 
BRANCH  12  14
HETATM   14  S   UNL     1     -11.551  12.685  67.780  1.00  0.00    -0.358 S  
HETATM   15  O   UNL     1     -12.279  13.934  67.880  1.00  0.00    -0.325 OA 
HETATM   16  O   UNL     1     -12.057  11.485  68.410  1.00  0.00    -0.556 OA 
BRANCH  14  17
HETATM   17  C   UNL     1     -11.384  12.301  66.043  1.00  0.00    -0.350 A  
HETATM   18  C   UNL     1     -12.045  13.091  65.098  1.00  0.00    -0.476 A  
HETATM   19  C   UNL     1     -11.907  12.797  63.742  1.00  0.00    -0.572 A  
HETATM   20  C   UNL     1     -11.106  11.728  63.336  1.00  0.00    -0.448 A  
HETATM   21  C   UNL     1     -10.424  10.961  64.281  1.00  0.00    -0.405 A  
HETATM   22  C   UNL     1     -10.548  11.256  65.639  1.00  0.00    -0.303 A  
ENDBRANCH  14  17
ENDBRANCH  12  14
ENDBRANCH   9  12
ENDBRANCH   5   6
ENDBRANCH   4   5
ENDBRANCH   3   4
ENDBRANCH   2   3
TORSDOF 7
ENDMDL
MODEL       41
REMARK 921   NORMALIZED FREE ENERGY PREDICTED BY IDOCK:   -4.99 KCAL/MOL
REMARK 922        TOTAL FREE ENERGY PREDICTED BY IDOCK:   -7.57 KCAL/MOL
REMARK 923 INTER-LIGAND FREE ENERGY PREDICTED BY IDOCK:   -7.09 KCAL/MOL
REMARK 924 INTRA-LIGAND FREE ENERGY PREDICTED BY IDOCK:   -0.48 KCAL/MOL
REMARK 927      BINDING AFFINITY PREDICTED BY RF-SCORE:    0.00 PKD
ROOT
HETATM    1  C   UNL     1     -10.382  19.358  67.847  1.00  0.00    -0.430 C  
HETATM    2  O   UNL     1     -10.503  18.012  67.418  1.00  0.00    -0.369 OA 
ENDROOT
BRANCH   2   3
HETATM    3  C   UNL     1      -9.747  17.109  68.229  1.00  0.00    -0.280 C  
BRANCH   3   4
HETATM    4  C   UNL     1     -10.741  16.338  69.088  1.00  0.00    -0.305 C  
BRANCH   4   5
HETATM    5  O   UNL     1     -11.755  15.702  68.301  1.00  0.00    -0.349 OA 
BRANCH   5   6
HETATM    6  C   UNL     1     -11.820  14.347  68.463  1.00  0.00    -0.334 A  
HETATM    7  C   UNL     1     -11.850  13.394  67.463  1.00  0.00    -0.366 A  
HETATM    8  N   UNL     1     -11.898  12.067  67.680  1.00  0.00    -0.564 NA 
HETATM    9  C   UNL     1     -11.928  11.696  68.955  1.00  0.00    -0.305 A  
HETATM   10  C   UNL     1     -11.859  13.825  69.742  1.00  0.00    -0.331 A  
HETATM   11  N   UNL     1     -11.923  12.498  70.024  1.00  0.00    -0.334 NA 
BRANCH   9  12
HETATM   12  N   UNL     1     -11.915  10.325  69.198  1.00  0.00    -0.516 N  
HETATM   13  H   UNL     1     -12.764   9.767  69.288  1.00  0.00     0.000 HD 
BRANCH  12  14
HETATM   14  S   UNL     1     -10.374   9.674  69.331  1.00  0.00    -0.227 S  
HETATM   15  O   UNL     1      -9.361  10.710  69.344  1.00  0.00    -0.163 OA 
HETATM   16  O   UNL     1     -10.305   8.589  68.376  1.00  0.00    -0.206 OA 
BRANCH  14  17
HETATM   17  C   UNL     1     -10.380   8.913  70.948  1.00  0.00    -0.240 A  
HETATM   18  C   UNL     1     -11.596   8.528  71.522  1.00  0.00    -0.352 A  
HETATM   19  C   UNL     1     -11.600   7.926  72.779  1.00  0.00    -0.387 A  
HETATM   20  C   UNL     1     -10.397   7.702  73.451  1.00  0.00    -0.374 A  
HETATM   21  C   UNL     1      -9.184   8.060  72.862  1.00  0.00    -0.332 A  
HETATM   22  C   UNL     1      -9.171   8.653  71.599  1.00  0.00    -0.326 A  
ENDBRANCH  14  17
ENDBRANCH  12  14
ENDBRANCH   9  12
ENDBRANCH   5   6
ENDBRANCH   4   5
ENDBRANCH   3   4
ENDBRANCH   2   3
TORSDOF 7
ENDMDL
MODEL       42
REMARK 921   NORMALIZED FREE ENERGY PREDICTED BY IDOCK:   -4.97 KCAL/MOL
REMARK 922        TOTAL FREE ENERGY PREDICTED BY IDOCK:   -7.54 KCAL/MOL
REMARK 923 INTER-LIGAND FREE ENERGY PREDICTED BY IDOCK:   -6.91 KCAL/MOL
REMARK 924 INTRA-LIGAND FREE ENERGY PREDICTED BY IDOCK:   -0.64 KCAL/MOL
REMARK 927      BINDING AFFINITY PREDICTED BY RF-SCORE:    0.00 PKD
ROOT
HETATM    1  C   UNL     1     -11.850  11.899  63.613  1.00  0.00    -0.473 C  
HETATM    2  O   UNL     1     -12.867  12.829  63.947  1.00  0.00    -0.687 OA 
ENDROOT
BRANCH   2   3
HETATM    3  C   UNL     1     -12.392  14.178  63.962  1.00  0.00    -0.275 C  
BRANCH   3   4
HETATM    4  C   UNL     1     -11.260  14.243  64.979  1.00  0.00    -0.364 C  
BRANCH   4   5
HETATM    5  O   UNL     1     -11.707  14.712  66.255  1.00  0.00    -0.370 OA 
BRANCH   5   6
HETATM    6  C   UNL     1     -11.588  13.795  67.261  1.00  0.00    -0.361 A  
HETATM    7  C   UNL     1     -11.010  12.543  67.175  1.00  0.00    -0.263 A  
HETATM    8  N   UNL     1     -10.905  11.684  68.205  1.00  0.00    -0.207 NA 
HETATM    9  C   UNL     1     -11.414  12.105  69.358  1.00  0.00    -0.290 A  
HETATM   10  C   UNL     1     -12.080  14.106  68.515  1.00  0.00    -0.277 A  
HETATM   11  N   UNL     1     -12.016  13.275  69.587  1.00  0.00    -0.320 NA 
BRANCH   9  12
HETATM   12  N   UNL     1     -11.258  11.254  70.448  1.00  0.00    -0.425 N  
HETATM   13  H   UNL     1     -10.369  11.125  70.932  1.00  0.00     0.000 HD 
BRANCH  12  14
HETATM   14  S   UNL     1     -12.666  10.457  70.894  1.00  0.00    -0.395 S  
HETATM   15  O   UNL     1     -13.527  10.224  69.752  1.00  0.00     0.267 OA 
HETATM   16  O   UNL     1     -13.168  11.140  72.067  1.00  0.00    -0.493 OA 
BRANCH  14  17
HETATM   17  C   UNL     1     -12.084   8.865  71.458  1.00  0.00    -0.330 A  
HETATM   18  C   UNL     1     -10.814   8.761  72.033  1.00  0.00    -0.428 A  
HETATM   19  C   UNL     1     -10.363   7.520  72.481  1.00  0.00    -0.291 A  
HETATM   20  C   UNL     1     -11.181   6.395  72.364  1.00  0.00    -0.313 A  
HETATM   21  C   UNL     1     -12.460   6.508  71.817  1.00  0.00    -0.293 A  
HETATM   22  C   UNL     1     -12.923   7.749  71.376  1.00  0.00    -0.322 A  
ENDBRANCH  14  17
ENDBRANCH  12  14
ENDBRANCH   9  12
ENDBRANCH   5   6
ENDBRANCH   4   5
ENDBRANCH   3   4
ENDBRANCH   2   3
TORSDOF 7
ENDMDL
MODEL       43
REMARK 921   NORMALIZED FREE ENERGY PREDICTED BY IDOCK:   -4.97 KCAL/MOL
REMARK 922        TOTAL FREE ENERGY PREDICTED BY IDOCK:   -7.53 KCAL/MOL
REMARK 923 INTER-LIGAND FREE ENERGY PREDICTED BY IDOCK:   -7.17 KCAL/MOL
REMARK 924 INTRA-LIGAND FREE ENERGY PREDICTED BY IDOCK:   -0.36 KCAL/MOL
REMARK 927      BINDING AFFINITY PREDICTED BY RF-SCORE:    0.00 PKD
ROOT
HETATM    1  C   UNL     1      -8.253   8.109  71.475  1.00  0.00    -0.125 C  
HETATM    2  O   UNL     1      -9.146   9.053  72.045  1.00  0.00    -0.375 OA 
ENDROOT
BRANCH   2   3
HETATM    3  C   UNL     1     -10.515   8.744  71.772  1.00  0.00    -0.346 C  
BRANCH   3   4
HETATM    4  C   UNL     1     -10.927   9.565  70.557  1.00  0.00    -0.288 C  
BRANCH   4   5
HETATM    5  O   UNL     1     -11.824  10.626  70.903  1.00  0.00    -0.332 OA 
BRANCH   5   6
HETATM    6  C   UNL     1     -11.889  11.627  69.975  1.00  0.00    -0.355 A  
HETATM    7  C   UNL     1     -12.023  12.979  70.224  1.00  0.00    -0.285 A  
HETATM    8  N   UNL     1     -12.066  13.926  69.269  1.00  0.00    -0.349 NA 
HETATM    9  C   UNL     1     -11.981  13.484  68.019  1.00  0.00    -0.337 A  
HETATM   10  C   UNL     1     -11.815  11.304  68.632  1.00  0.00    -0.300 A  
HETATM   11  N   UNL     1     -11.868  12.213  67.624  1.00  0.00    -0.535 NA 
BRANCH   9  12
HETATM   12  N   UNL     1     -11.961  14.456  67.021  1.00  0.00    -0.447 N  
HETATM   13  H   UNL     1     -12.807  14.864  66.625  1.00  0.00     0.000 HD 
BRANCH  12  14
HETATM   14  S   UNL     1     -10.417  14.892  66.530  1.00  0.00    -0.305 S  
HETATM   15  O   UNL     1     -10.246  14.715  65.102  1.00  0.00    -0.383 OA 
HETATM   16  O   UNL     1      -9.501  14.274  67.464  1.00  0.00    -0.201 OA 
BRANCH  14  17
HETATM   17  C   UNL     1     -10.355  16.647  66.862  1.00  0.00    -0.299 A  
HETATM   18  C   UNL     1      -9.994  17.093  68.137  1.00  0.00    -0.297 A  
HETATM   19  C   UNL     1      -9.936  18.463  68.393  1.00  0.00    -0.406 A  
HETATM   20  C   UNL     1     -10.228  19.377  67.378  1.00  0.00    -0.530 A  
HETATM   21  C   UNL     1     -10.559  18.927  66.100  1.00  0.00    -0.476 A  
HETATM   22  C   UNL     1     -10.608  17.559  65.832  1.00  0.00    -0.203 A  
ENDBRANCH  14  17
ENDBRANCH  12  14
ENDBRANCH   9  12
ENDBRANCH   5   6
ENDBRANCH   4   5
ENDBRANCH   3   4
ENDBRANCH   2   3
TORSDOF 7
ENDMDL
MODEL       44
REMARK 921   NORMALIZED FREE ENERGY PREDICTED BY IDOCK:   -4.95 KCAL/MOL
REMARK 922        TOTAL FREE ENERGY PREDICTED BY IDOCK:   -7.51 KCAL/MOL
REMARK 923 INTER-LIGAND FREE ENERGY PREDICTED BY IDOCK:   -7.00 KCAL/MOL
REMARK 924 INTRA-LIGAND FREE ENERGY PREDICTED BY IDOCK:   -0.51 KCAL/MOL
REMARK 927      BINDING AFFINITY PREDICTED BY RF-SCORE:    0.00 PKD
ROOT
HETATM    1  C   UNL     1      -6.472  20.479  68.650  1.00  0.00    -0.260 C  
HETATM    2  O   UNL     1      -7.296  19.398  68.247  1.00  0.00    -0.284 OA 
ENDROOT
BRANCH   2   3
HETATM    3  C   UNL     1      -8.028  19.684  67.052  1.00  0.00    -0.281 C  
BRANCH   3   4
HETATM    4  C   UNL     1      -9.311  18.864  67.104  1.00  0.00    -0.300 C  
BRANCH   4   5
HETATM    5  O   UNL     1      -9.613  18.418  68.430  1.00  0.00    -0.313 OA 
BRANCH   5   6
HETATM    6  C   UNL     1     -10.290  17.232  68.480  1.00  0.00    -0.371 A  
HETATM    7  C   UNL     1     -10.779  16.605  69.610  1.00  0.00    -0.286 A  
HETATM    8  N   UNL     1     -11.455  15.442  69.599  1.00  0.00    -0.295 NA 
HETATM    9  C   UNL     1     -11.632  14.892  68.403  1.00  0.00    -0.325 A  
HETATM   10  C   UNL     1     -10.540  16.552  67.303  1.00  0.00    -0.285 A  
HETATM   11  N   UNL     1     -11.204  15.369  67.230  1.00  0.00    -0.308 NA 
BRANCH   9  12
HETATM   12  N   UNL     1     -12.384  13.720  68.368  1.00  0.00    -0.392 N  
HETATM   13  H   UNL     1     -13.400  13.708  68.451  1.00  0.00     0.000 HD 
BRANCH  12  14
HETATM   14  S   UNL     1     -11.464  12.330  68.175  1.00  0.00    -0.337 S  
HETATM   15  O   UNL     1     -10.046  12.626  68.193  1.00  0.00    -0.218 OA 
HETATM   16  O   UNL     1     -12.050  11.602  67.070  1.00  0.00    -0.547 OA 
BRANCH  14  17
HETATM   17  C   UNL     1     -11.830  11.381  69.644  1.00  0.00    -0.362 A  
HETATM   18  C   UNL     1     -11.164  10.171  69.865  1.00  0.00    -0.343 A  
HETATM   19  C   UNL     1     -11.442   9.436  71.016  1.00  0.00    -0.403 A  
HETATM   20  C   UNL     1     -12.373   9.912  71.942  1.00  0.00    -0.390 A  
HETATM   21  C   UNL     1     -13.013  11.133  71.732  1.00  0.00    -0.526 A  
HETATM   22  C   UNL     1     -12.731  11.881  70.588  1.00  0.00    -0.176 A  
ENDBRANCH  14  17
ENDBRANCH  12  14
ENDBRANCH   9  12
ENDBRANCH   5   6
ENDBRANCH   4   5
ENDBRANCH   3   4
ENDBRANCH   2   3
TORSDOF 7
ENDMDL
MODEL       45
REMARK 921   NORMALIZED FREE ENERGY PREDICTED BY IDOCK:   -4.94 KCAL/MOL
REMARK 922        TOTAL FREE ENERGY PREDICTED BY IDOCK:   -7.49 KCAL/MOL
REMARK 923 INTER-LIGAND FREE ENERGY PREDICTED BY IDOCK:   -7.06 KCAL/MOL
REMARK 924 INTRA-LIGAND FREE ENERGY PREDICTED BY IDOCK:   -0.43 KCAL/MOL
REMARK 927      BINDING AFFINITY PREDICTED BY RF-SCORE:    0.00 PKD
ROOT
HETATM    1  C   UNL     1     -12.689  15.273  73.594  1.00  0.00    -0.566 C  
HETATM    2  O   UNL     1     -13.731  14.966  72.681  1.00  0.00    -0.444 OA 
ENDROOT
BRANCH   2   3
HETATM    3  C   UNL     1     -13.813  13.567  72.396  1.00  0.00    -0.586 C  
BRANCH   3   4
HETATM    4  C   UNL     1     -12.860  13.288  71.241  1.00  0.00    -0.312 C  
BRANCH   4   5
HETATM    5  O   UNL     1     -12.950  14.282  70.215  1.00  0.00    -0.261 OA 
BRANCH   5   6
HETATM    6  C   UNL     1     -11.740  14.728  69.761  1.00  0.00    -0.310 A  
HETATM    7  C   UNL     1     -11.169  15.962  70.003  1.00  0.00    -0.353 A  
HETATM    8  N   UNL     1      -9.963  16.343  69.543  1.00  0.00    -0.207 NA 
HETATM    9  C   UNL     1      -9.321  15.446  68.803  1.00  0.00    -0.209 A  
HETATM   10  C   UNL     1     -10.968  13.892  68.976  1.00  0.00    -0.250 A  
HETATM   11  N   UNL     1      -9.753  14.225  68.471  1.00  0.00    -0.224 NA 
BRANCH   9  12
HETATM   12  N   UNL     1      -8.046  15.801  68.372  1.00  0.00    -0.138 N  
HETATM   13  H   UNL     1      -7.221  15.743  68.967  1.00  0.00     0.000 HD 
BRANCH  12  14
HETATM   14  S   UNL     1      -7.993  16.333  66.781  1.00  0.00    -0.292 S  
HETATM   15  O   UNL     1      -8.820  15.513  65.920  1.00  0.00    -0.254 OA 
HETATM   16  O   UNL     1      -6.597  16.552  66.470  1.00  0.00    -0.250 OA 
BRANCH  14  17
HETATM   17  C   UNL     1      -8.744  17.952  66.858  1.00  0.00    -0.246 A  
HETATM   18  C   UNL     1     -10.017  18.146  66.313  1.00  0.00    -0.342 A  
HETATM   19  C   UNL     1     -10.608  19.407  66.381  1.00  0.00    -0.558 A  
HETATM   20  C   UNL     1      -9.933  20.463  66.999  1.00  0.00    -0.568 A  
HETATM   21  C   UNL     1      -8.676  20.258  67.567  1.00  0.00    -0.401 A  
HETATM   22  C   UNL     1      -8.083  18.996  67.513  1.00  0.00    -0.292 A  
ENDBRANCH  14  17
ENDBRANCH  12  14
ENDBRANCH   9  12
ENDBRANCH   5   6
ENDBRANCH   4   5
ENDBRANCH   3   4
ENDBRANCH   2   3
TORSDOF 7
ENDMDL
MODEL       46
REMARK 921   NORMALIZED FREE ENERGY PREDICTED BY IDOCK:   -4.93 KCAL/MOL
REMARK 922        TOTAL FREE ENERGY PREDICTED BY IDOCK:   -7.49 KCAL/MOL
REMARK 923 INTER-LIGAND FREE ENERGY PREDICTED BY IDOCK:   -6.96 KCAL/MOL
REMARK 924 INTRA-LIGAND FREE ENERGY PREDICTED BY IDOCK:   -0.53 KCAL/MOL
REMARK 927      BINDING AFFINITY PREDICTED BY RF-SCORE:    0.00 PKD
ROOT
HETATM    1  C   UNL     1     -10.772  12.209  63.359  1.00  0.00    -0.409 C  
HETATM    2  O   UNL     1     -11.285  11.274  64.294  1.00  0.00    -0.299 OA 
ENDROOT
BRANCH   2   3
HETATM    3  C   UNL     1     -10.257  10.674  65.086  1.00  0.00    -0.299 C  
BRANCH   3   4
HETATM    4  C   UNL     1     -10.655  10.849  66.546  1.00  0.00    -0.237 C  
BRANCH   4   5
HETATM    5  O   UNL     1     -11.673  11.841  66.712  1.00  0.00    -0.555 OA 
BRANCH   5   6
HETATM    6  C   UNL     1     -11.202  13.067  67.090  1.00  0.00    -0.286 A  
HETATM    7  C   UNL     1      -9.980  13.341  67.673  1.00  0.00    -0.229 A  
HETATM    8  N   UNL     1      -9.560  14.573  68.010  1.00  0.00    -0.212 NA 
HETATM    9  C   UNL     1     -10.413  15.560  67.758  1.00  0.00    -0.273 A  
HETATM   10  C   UNL     1     -11.993  14.182  66.885  1.00  0.00    -0.449 A  
HETATM   11  N   UNL     1     -11.630  15.448  67.218  1.00  0.00    -0.175 NA 
BRANCH   9  12
HETATM   12  N   UNL     1      -9.969  16.848  68.044  1.00  0.00    -0.269 N  
HETATM   13  H   UNL     1      -9.889  17.211  68.993  1.00  0.00     0.000 HD 
BRANCH  12  14
HETATM   14  S   UNL     1      -9.576  17.748  66.683  1.00  0.00    -0.318 S  
HETATM   15  O   UNL     1     -10.705  18.531  66.222  1.00  0.00    -0.355 OA 
HETATM   16  O   UNL     1      -8.887  16.849  65.783  1.00  0.00    -0.522 OA 
BRANCH  14  17
HETATM   17  C   UNL     1      -8.342  18.893  67.282  1.00  0.00    -0.272 A  
HETATM   18  C   UNL     1      -7.814  18.725  68.566  1.00  0.00    -0.367 A  
HETATM   19  C   UNL     1      -6.844  19.612  69.030  1.00  0.00    -0.378 A  
HETATM   20  C   UNL     1      -6.399  20.653  68.212  1.00  0.00    -0.352 A  
HETATM   21  C   UNL     1      -6.907  20.799  66.921  1.00  0.00    -0.368 A  
HETATM   22  C   UNL     1      -7.870  19.908  66.444  1.00  0.00    -0.335 A  
ENDBRANCH  14  17
ENDBRANCH  12  14
ENDBRANCH   9  12
ENDBRANCH   5   6
ENDBRANCH   4   5
ENDBRANCH   3   4
ENDBRANCH   2   3
TORSDOF 7
ENDMDL
MODEL       47
REMARK 921   NORMALIZED FREE ENERGY PREDICTED BY IDOCK:   -4.93 KCAL/MOL
REMARK 922        TOTAL FREE ENERGY PREDICTED BY IDOCK:   -7.48 KCAL/MOL
REMARK 923 INTER-LIGAND FREE ENERGY PREDICTED BY IDOCK:   -6.99 KCAL/MOL
REMARK 924 INTRA-LIGAND FREE ENERGY PREDICTED BY IDOCK:   -0.49 KCAL/MOL
REMARK 927      BINDING AFFINITY PREDICTED BY RF-SCORE:    0.00 PKD
ROOT
HETATM    1  C   UNL     1      -8.570   8.579  69.707  1.00  0.00    -0.131 C  
HETATM    2  O   UNL     1      -8.158   7.526  68.850  1.00  0.00    -0.123 OA 
ENDROOT
BRANCH   2   3
HETATM    3  C   UNL     1      -8.892   7.503  67.622  1.00  0.00    -0.128 C  
BRANCH   3   4
HETATM    4  C   UNL     1      -8.961   8.936  67.113  1.00  0.00    -0.127 C  
BRANCH   4   5
HETATM    5  O   UNL     1     -10.229   9.238  66.520  1.00  0.00    -0.269 OA 
BRANCH   5   6
HETATM    6  C   UNL     1     -10.727  10.464  66.859  1.00  0.00    -0.207 A  
HETATM    7  C   UNL     1     -10.663  11.620  66.105  1.00  0.00    -0.278 A  
HETATM    8  N   UNL     1     -11.187  12.801  66.482  1.00  0.00    -0.293 NA 
HETATM    9  C   UNL     1     -11.785  12.811  67.668  1.00  0.00    -0.367 A  
HETATM   10  C   UNL     1     -11.373  10.615  68.072  1.00  0.00    -0.278 A  
HETATM   11  N   UNL     1     -11.907  11.782  68.513  1.00  0.00    -0.412 NA 
BRANCH   9  12
HETATM   12  N   UNL     1     -12.386  14.009  68.046  1.00  0.00    -0.500 N  
HETATM   13  H   UNL     1     -13.354  14.239  67.824  1.00  0.00     0.000 HD 
BRANCH  12  14
HETATM   14  S   UNL     1     -11.372  15.038  68.900  1.00  0.00    -0.316 S  
HETATM   15  O   UNL     1     -11.399  16.380  68.355  1.00  0.00    -0.366 OA 
HETATM   16  O   UNL     1     -10.118  14.334  69.062  1.00  0.00    -0.209 OA 
BRANCH  14  17
HETATM   17  C   UNL     1     -12.117  15.105  70.522  1.00  0.00    -0.343 A  
HETATM   18  C   UNL     1     -11.657  16.044  71.451  1.00  0.00    -0.520 A  
HETATM   19  C   UNL     1     -12.245  16.103  72.714  1.00  0.00    -0.628 A  
HETATM   20  C   UNL     1     -13.290  15.236  73.041  1.00  0.00    -0.610 A  
HETATM   21  C   UNL     1     -13.765  14.321  72.101  1.00  0.00    -0.569 A  
HETATM   22  C   UNL     1     -13.190  14.263  70.831  1.00  0.00    -0.320 A  
ENDBRANCH  14  17
ENDBRANCH  12  14
ENDBRANCH   9  12
ENDBRANCH   5   6
ENDBRANCH   4   5
ENDBRANCH   3   4
ENDBRANCH   2   3
TORSDOF 7
ENDMDL
MODEL       48
REMARK 921   NORMALIZED FREE ENERGY PREDICTED BY IDOCK:   -4.90 KCAL/MOL
REMARK 922        TOTAL FREE ENERGY PREDICTED BY IDOCK:   -7.44 KCAL/MOL
REMARK 923 INTER-LIGAND FREE ENERGY PREDICTED BY IDOCK:   -6.97 KCAL/MOL
REMARK 924 INTRA-LIGAND FREE ENERGY PREDICTED BY IDOCK:   -0.47 KCAL/MOL
REMARK 927      BINDING AFFINITY PREDICTED BY RF-SCORE:    0.00 PKD
ROOT
HETATM    1  C   UNL     1     -10.686   7.501  67.094  1.00  0.00    -0.309 C  
HETATM    2  O   UNL     1     -10.528   8.662  67.892  1.00  0.00    -0.228 OA 
ENDROOT
BRANCH   2   3
HETATM    3  C   UNL     1     -10.839   9.862  67.180  1.00  0.00    -0.157 C  
BRANCH   3   4
HETATM    4  C   UNL     1     -11.281  10.894  68.209  1.00  0.00    -0.286 C  
BRANCH   4   5
HETATM    5  O   UNL     1     -12.127  11.898  67.638  1.00  0.00    -0.568 OA 
BRANCH   5   6
HETATM    6  C   UNL     1     -11.461  13.012  67.209  1.00  0.00    -0.332 A  
HETATM    7  C   UNL     1     -11.802  13.820  66.142  1.00  0.00    -0.398 A  
HETATM    8  N   UNL     1     -11.117  14.918  65.773  1.00  0.00    -0.337 NA 
HETATM    9  C   UNL     1     -10.044  15.198  66.505  1.00  0.00    -0.269 A  
HETATM   10  C   UNL     1     -10.323  13.415  67.882  1.00  0.00    -0.238 A  
HETATM   11  N   UNL     1      -9.583  14.503  67.548  1.00  0.00    -0.208 NA 
BRANCH   9  12
HETATM   12  N   UNL     1      -9.360  16.365  66.175  1.00  0.00    -0.313 N  
HETATM   13  H   UNL     1      -8.476  16.368  65.668  1.00  0.00     0.000 HD 
BRANCH  12  14
HETATM   14  S   UNL     1     -10.125  17.768  66.689  1.00  0.00    -0.364 S  
HETATM   15  O   UNL     1     -10.927  17.531  67.872  1.00  0.00    -0.323 OA 
HETATM   16  O   UNL     1     -10.711  18.369  65.510  1.00  0.00    -0.588 OA 
BRANCH  14  17
HETATM   17  C   UNL     1      -8.770  18.831  67.166  1.00  0.00    -0.277 A  
HETATM   18  C   UNL     1      -8.222  19.709  66.226  1.00  0.00    -0.363 A  
HETATM   19  C   UNL     1      -7.170  20.545  66.602  1.00  0.00    -0.304 A  
HETATM   20  C   UNL     1      -6.679  20.508  67.908  1.00  0.00    -0.346 A  
HETATM   21  C   UNL     1      -7.249  19.651  68.850  1.00  0.00    -0.381 A  
HETATM   22  C   UNL     1      -8.309  18.820  68.486  1.00  0.00    -0.379 A  
ENDBRANCH  14  17
ENDBRANCH  12  14
ENDBRANCH   9  12
ENDBRANCH   5   6
ENDBRANCH   4   5
ENDBRANCH   3   4
ENDBRANCH   2   3
TORSDOF 7
ENDMDL
MODEL       49
REMARK 921   NORMALIZED FREE ENERGY PREDICTED BY IDOCK:   -4.89 KCAL/MOL
REMARK 922        TOTAL FREE ENERGY PREDICTED BY IDOCK:   -7.42 KCAL/MOL
REMARK 923 INTER-LIGAND FREE ENERGY PREDICTED BY IDOCK:   -6.99 KCAL/MOL
REMARK 924 INTRA-LIGAND FREE ENERGY PREDICTED BY IDOCK:   -0.43 KCAL/MOL
REMARK 927      BINDING AFFINITY PREDICTED BY RF-SCORE:    0.00 PKD
ROOT
HETATM    1  C   UNL     1      -8.809   9.158  70.295  1.00  0.00    -0.213 C  
HETATM    2  O   UNL     1      -8.950   8.164  69.294  1.00  0.00    -0.146 OA 
ENDROOT
BRANCH   2   3
HETATM    3  C   UNL     1      -9.940   8.505  68.320  1.00  0.00    -0.184 C  
BRANCH   3   4
HETATM    4  C   UNL     1      -9.406   9.695  67.534  1.00  0.00    -0.130 C  
BRANCH   4   5
HETATM    5  O   UNL     1     -10.201   9.979  66.378  1.00  0.00    -0.236 OA 
BRANCH   5   6
HETATM    6  C   UNL     1     -10.583  11.287  66.270  1.00  0.00    -0.263 A  
HETATM    7  C   UNL     1     -11.209  11.880  65.191  1.00  0.00    -0.289 A  
HETATM    8  N   UNL     1     -11.578  13.173  65.145  1.00  0.00    -0.308 NA 
HETATM    9  C   UNL     1     -11.293  13.890  66.226  1.00  0.00    -0.324 A  
HETATM   10  C   UNL     1     -10.342  12.146  67.326  1.00  0.00    -0.212 A  
HETATM   11  N   UNL     1     -10.678  13.462  67.333  1.00  0.00    -0.260 NA 
BRANCH   9  12
HETATM   12  N   UNL     1     -11.724  15.214  66.220  1.00  0.00    -0.098 N  
HETATM   13  H   UNL     1     -12.576  15.524  66.685  1.00  0.00     0.000 HD 
BRANCH  12  14
HETATM   14  S   UNL     1     -10.712  16.253  65.375  1.00  0.00    -0.254 S  
HETATM   15  O   UNL     1     -11.366  16.789  64.199  1.00  0.00    -1.194 OA 
HETATM   16  O   UNL     1      -9.435  15.581  65.266  1.00  0.00    -0.204 OA 
BRANCH  14  17
HETATM   17  C   UNL     1     -10.463  17.609  66.512  1.00  0.00    -0.283 A  
HETATM   18  C   UNL     1     -10.522  18.923  66.038  1.00  0.00    -0.507 A  
HETATM   19  C   UNL     1     -10.337  19.981  66.927  1.00  0.00    -0.567 A  
HETATM   20  C   UNL     1     -10.106  19.726  68.281  1.00  0.00    -0.575 A  
HETATM   21  C   UNL     1     -10.078  18.414  68.754  1.00  0.00    -0.393 A  
HETATM   22  C   UNL     1     -10.273  17.349  67.873  1.00  0.00    -0.348 A  
ENDBRANCH  14  17
ENDBRANCH  12  14
ENDBRANCH   9  12
ENDBRANCH   5   6
ENDBRANCH   4   5
ENDBRANCH   3   4
ENDBRANCH   2   3
TORSDOF 7
ENDMDL
MODEL       50
REMARK 921   NORMALIZED FREE ENERGY PREDICTED BY IDOCK:   -4.89 KCAL/MOL
REMARK 922        TOTAL FREE ENERGY PREDICTED BY IDOCK:   -7.42 KCAL/MOL
REMARK 923 INTER-LIGAND FREE ENERGY PREDICTED BY IDOCK:   -6.84 KCAL/MOL
REMARK 924 INTRA-LIGAND FREE ENERGY PREDICTED BY IDOCK:   -0.59 KCAL/MOL
REMARK 927      BINDING AFFINITY PREDICTED BY RF-SCORE:    0.00 PKD
ROOT
HETATM    1  C   UNL     1     -12.607  12.183  63.614  1.00  0.00    -0.504 C  
HETATM    2  O   UNL     1     -12.505  13.536  63.201  1.00  0.00    -0.759 OA 
ENDROOT
BRANCH   2   3
HETATM    3  C   UNL     1     -12.360  14.435  64.304  1.00  0.00    -0.373 C  
BRANCH   3   4
HETATM    4  C   UNL     1     -10.891  14.416  64.708  1.00  0.00    -0.399 C  
BRANCH   4   5
HETATM    5  O   UNL     1     -10.723  14.422  66.130  1.00  0.00    -0.294 OA 
BRANCH   5   6
HETATM    6  C   UNL     1     -10.888  13.199  66.717  1.00  0.00    -0.276 A  
HETATM    7  C   UNL     1     -11.895  12.828  67.587  1.00  0.00    -0.339 A  
HETATM    8  N   UNL     1     -12.019  11.601  68.125  1.00  0.00    -0.590 NA 
HETATM    9  C   UNL     1     -11.083  10.725  67.776  1.00  0.00    -0.318 A  
HETATM   10  C   UNL     1      -9.981  12.194  66.441  1.00  0.00    -0.225 A  
HETATM   11  N   UNL     1     -10.045  10.942  66.964  1.00  0.00    -0.198 NA 
BRANCH   9  12
HETATM   12  N   UNL     1     -11.232   9.433  68.274  1.00  0.00    -0.490 N  
HETATM   13  H   UNL     1     -11.531   8.646  67.699  1.00  0.00     0.000 HD 
BRANCH  12  14
HETATM   14  S   UNL     1     -10.875   9.291  69.908  1.00  0.00    -0.220 S  
HETATM   15  O   UNL     1     -12.044   9.533  70.729  1.00  0.00    -0.285 OA 
HETATM   16  O   UNL     1      -9.654  10.037  70.126  1.00  0.00    -0.225 OA 
BRANCH  14  17
HETATM   17  C   UNL     1     -10.442   7.567  70.091  1.00  0.00    -0.222 A  
HETATM   18  C   UNL     1      -9.423   7.026  69.301  1.00  0.00    -0.147 A  
HETATM   19  C   UNL     1      -9.079   5.683  69.451  1.00  0.00    -0.134 A  
HETATM   20  C   UNL     1      -9.743   4.891  70.390  1.00  0.00    -0.284 A  
HETATM   21  C   UNL     1     -10.739   5.442  71.196  1.00  0.00    -0.239 A  
HETATM   22  C   UNL     1     -11.081   6.788  71.061  1.00  0.00    -0.317 A  
ENDBRANCH  14  17
ENDBRANCH  12  14
ENDBRANCH   9  12
ENDBRANCH   5   6
ENDBRANCH   4   5
ENDBRANCH   3   4
ENDBRANCH   2   3
TORSDOF 7
ENDMDL
MODEL       51
REMARK 921   NORMALIZED FREE ENERGY PREDICTED BY IDOCK:   -4.89 KCAL/MOL
REMARK 922        TOTAL FREE ENERGY PREDICTED BY IDOCK:   -7.42 KCAL/MOL
REMARK 923 INTER-LIGAND FREE ENERGY PREDICTED BY IDOCK:   -7.01 KCAL/MOL
REMARK 924 INTRA-LIGAND FREE ENERGY PREDICTED BY IDOCK:   -0.42 KCAL/MOL
REMARK 927      BINDING AFFINITY PREDICTED BY RF-SCORE:    0.00 PKD
ROOT
HETATM    1  C   UNL     1     -12.652  11.986  63.627  1.00  0.00    -0.490 C  
HETATM    2  O   UNL     1     -13.095  12.587  64.833  1.00  0.00    -0.833 OA 
ENDROOT
BRANCH   2   3
HETATM    3  C   UNL     1     -12.041  13.257  65.529  1.00  0.00    -0.435 C  
BRANCH   3   4
HETATM    4  C   UNL     1     -11.424  12.248  66.489  1.00  0.00    -0.381 C  
BRANCH   4   5
HETATM    5  O   UNL     1     -12.235  12.044  67.651  1.00  0.00    -0.484 OA 
BRANCH   5   6
HETATM    6  C   UNL     1     -11.719  11.145  68.541  1.00  0.00    -0.298 A  
HETATM    7  C   UNL     1     -11.806  11.202  69.919  1.00  0.00    -0.363 A  
HETATM    8  N   UNL     1     -11.292  10.278  70.750  1.00  0.00    -0.345 NA 
HETATM    9  C   UNL     1     -10.658   9.268  70.164  1.00  0.00    -0.231 A  
HETATM   10  C   UNL     1     -11.032  10.045  68.064  1.00  0.00    -0.240 A  
HETATM   11  N   UNL     1     -10.478   9.088  68.852  1.00  0.00    -0.219 NA 
BRANCH   9  12
HETATM   12  N   UNL     1     -10.174   8.271  71.007  1.00  0.00    -0.188 N  
HETATM   13  H   UNL     1      -9.182   8.054  71.099  1.00  0.00     0.000 HD 
BRANCH  12  14
HETATM   14  S   UNL     1     -11.373   7.459  71.856  1.00  0.00    -0.270 S  
HETATM   15  O   UNL     1     -12.612   7.413  71.108  1.00  0.00    -0.335 OA 
HETATM   16  O   UNL     1     -11.345   7.985  73.204  1.00  0.00    -0.317 OA 
BRANCH  14  17
HETATM   17  C   UNL     1     -10.750   5.788  71.962  1.00  0.00    -0.233 A  
HETATM   18  C   UNL     1     -11.179   4.959  73.003  1.00  0.00    -0.367 A  
HETATM   19  C   UNL     1     -10.700   3.652  73.080  1.00  0.00    -0.268 A  
HETATM   20  C   UNL     1      -9.807   3.176  72.117  1.00  0.00    -0.238 A  
HETATM   21  C   UNL     1      -9.405   3.997  71.064  1.00  0.00    -0.219 A  
HETATM   22  C   UNL     1      -9.889   5.303  70.973  1.00  0.00    -0.254 A  
ENDBRANCH  14  17
ENDBRANCH  12  14
ENDBRANCH   9  12
ENDBRANCH   5   6
ENDBRANCH   4   5
ENDBRANCH   3   4
ENDBRANCH   2   3
TORSDOF 7
ENDMDL
MODEL       52
REMARK 921   NORMALIZED FREE ENERGY PREDICTED BY IDOCK:   -4.89 KCAL/MOL
REMARK 922        TOTAL FREE ENERGY PREDICTED BY IDOCK:   -7.42 KCAL/MOL
REMARK 923 INTER-LIGAND FREE ENERGY PREDICTED BY IDOCK:   -6.99 KCAL/MOL
REMARK 924 INTRA-LIGAND FREE ENERGY PREDICTED BY IDOCK:   -0.43 KCAL/MOL
REMARK 927      BINDING AFFINITY PREDICTED BY RF-SCORE:    0.00 PKD
ROOT
HETATM    1  C   UNL     1     -12.368  12.338  63.516  1.00  0.00    -0.565 C  
HETATM    2  O   UNL     1     -13.062  12.557  64.733  1.00  0.00    -0.853 OA 
ENDROOT
BRANCH   2   3
HETATM    3  C   UNL     1     -12.457  13.578  65.531  1.00  0.00    -0.491 C  
BRANCH   3   4
HETATM    4  C   UNL     1     -12.022  12.927  66.838  1.00  0.00    -0.335 C  
BRANCH   4   5
HETATM    5  O   UNL     1     -11.763  11.528  66.684  1.00  0.00    -0.486 OA 
BRANCH   5   6
HETATM    6  C   UNL     1     -11.402  10.895  67.840  1.00  0.00    -0.308 A  
HETATM    7  C   UNL     1     -10.614   9.767  67.955  1.00  0.00    -0.243 A  
HETATM    8  N   UNL     1     -10.276   9.194  69.125  1.00  0.00    -0.201 NA 
HETATM    9  C   UNL     1     -10.764   9.779  70.213  1.00  0.00    -0.302 A  
HETATM   10  C   UNL     1     -11.845  11.401  69.048  1.00  0.00    -0.348 A  
HETATM   11  N   UNL     1     -11.550  10.859  70.258  1.00  0.00    -0.321 NA 
BRANCH   9  12
HETATM   12  N   UNL     1     -10.373   9.236  71.434  1.00  0.00    -0.335 N  
HETATM   13  H   UNL     1      -9.644   9.645  72.017  1.00  0.00     0.000 HD 
BRANCH  12  14
HETATM   14  S   UNL     1     -11.211   7.844  71.857  1.00  0.00    -0.290 S  
HETATM   15  O   UNL     1     -12.488   7.769  71.177  1.00  0.00    -0.296 OA 
HETATM   16  O   UNL     1     -11.136   7.744  73.298  1.00  0.00    -0.373 OA 
BRANCH  14  17
HETATM   17  C   UNL     1     -10.186   6.529  71.213  1.00  0.00    -0.198 A  
HETATM   18  C   UNL     1      -8.937   6.285  71.793  1.00  0.00    -0.140 A  
HETATM   19  C   UNL     1      -8.142   5.252  71.297  1.00  0.00    -0.114 A  
HETATM   20  C   UNL     1      -8.597   4.466  70.237  1.00  0.00    -0.106 A  
HETATM   21  C   UNL     1      -9.856   4.694  69.682  1.00  0.00    -0.293 A  
HETATM   22  C   UNL     1     -10.664   5.718  70.180  1.00  0.00    -0.390 A  
ENDBRANCH  14  17
ENDBRANCH  12  14
ENDBRANCH   9  12
ENDBRANCH   5   6
ENDBRANCH   4   5
ENDBRANCH   3   4
ENDBRANCH   2   3
TORSDOF 7
ENDMDL
MODEL       53
REMARK 921   NORMALIZED FREE ENERGY PREDICTED BY IDOCK:   -4.89 KCAL/MOL
REMARK 922        TOTAL FREE ENERGY PREDICTED BY IDOCK:   -7.42 KCAL/MOL
REMARK 923 INTER-LIGAND FREE ENERGY PREDICTED BY IDOCK:   -6.99 KCAL/MOL
REMARK 924 INTRA-LIGAND FREE ENERGY PREDICTED BY IDOCK:   -0.43 KCAL/MOL
REMARK 927      BINDING AFFINITY PREDICTED BY RF-SCORE:    0.00 PKD
ROOT
HETATM    1  C   UNL     1     -12.426  12.523  64.106  1.00  0.00    -0.430 C  
HETATM    2  O   UNL     1     -12.791  13.753  64.711  1.00  0.00    -0.685 OA 
ENDROOT
BRANCH   2   3
HETATM    3  C   UNL     1     -11.668  14.610  64.929  1.00  0.00    -0.403 C  
BRANCH   3   4
HETATM    4  C   UNL     1     -11.423  14.656  66.432  1.00  0.00    -0.347 C  
BRANCH   4   5
HETATM    5  O   UNL     1     -10.289  13.871  66.818  1.00  0.00    -0.266 OA 
BRANCH   5   6
HETATM    6  C   UNL     1     -10.606  12.728  67.497  1.00  0.00    -0.229 A  
HETATM    7  C   UNL     1     -11.873  12.243  67.755  1.00  0.00    -0.273 A  
HETATM    8  N   UNL     1     -12.127  11.099  68.417  1.00  0.00    -0.603 NA 
HETATM    9  C   UNL     1     -11.059  10.432  68.841  1.00  0.00    -0.247 A  
HETATM   10  C   UNL     1      -9.586  11.939  67.996  1.00  0.00    -0.193 A  
HETATM   11  N   UNL     1      -9.780  10.785  68.684  1.00  0.00    -0.178 NA 
BRANCH   9  12
HETATM   12  N   UNL     1     -11.303   9.216  69.473  1.00  0.00    -0.435 N  
HETATM   13  H   UNL     1     -11.105   8.314  69.040  1.00  0.00     0.000 HD 
BRANCH  12  14
HETATM   14  S   UNL     1     -11.952   9.369  71.013  1.00  0.00    -0.312 S  
HETATM   15  O   UNL     1     -13.170   8.597  71.154  1.00  0.00    -0.187 OA 
HETATM   16  O   UNL     1     -11.936  10.782  71.324  1.00  0.00    -0.304 OA 
BRANCH  14  17
HETATM   17  C   UNL     1     -10.718   8.616  72.063  1.00  0.00    -0.357 A  
HETATM   18  C   UNL     1      -9.372   8.960  71.897  1.00  0.00    -0.275 A  
HETATM   19  C   UNL     1      -8.410   8.379  72.722  1.00  0.00    -0.203 A  
HETATM   20  C   UNL     1      -8.793   7.470  73.711  1.00  0.00    -0.283 A  
HETATM   21  C   UNL     1     -10.139   7.153  73.892  1.00  0.00    -0.359 A  
HETATM   22  C   UNL     1     -11.110   7.738  73.078  1.00  0.00    -0.419 A  
ENDBRANCH  14  17
ENDBRANCH  12  14
ENDBRANCH   9  12
ENDBRANCH   5   6
ENDBRANCH   4   5
ENDBRANCH   3   4
ENDBRANCH   2   3
TORSDOF 7
ENDMDL
MODEL       54
REMARK 921   NORMALIZED FREE ENERGY PREDICTED BY IDOCK:   -4.88 KCAL/MOL
REMARK 922        TOTAL FREE ENERGY PREDICTED BY IDOCK:   -7.42 KCAL/MOL
REMARK 923 INTER-LIGAND FREE ENERGY PREDICTED BY IDOCK:   -7.65 KCAL/MOL
REMARK 924 INTRA-LIGAND FREE ENERGY PREDICTED BY IDOCK:    0.23 KCAL/MOL
REMARK 927      BINDING AFFINITY PREDICTED BY RF-SCORE:    0.00 PKD
ROOT
HETATM    1  C   UNL     1     -12.466  11.888  63.344  1.00  0.00    -0.463 C  
HETATM    2  O   UNL     1     -13.162  12.327  64.499  1.00  0.00    -0.799 OA 
ENDROOT
BRANCH   2   3
HETATM    3  C   UNL     1     -12.280  12.696  65.562  1.00  0.00    -0.440 C  
BRANCH   3   4
HETATM    4  C   UNL     1     -12.521  14.171  65.855  1.00  0.00    -0.453 C  
BRANCH   4   5
HETATM    5  O   UNL     1     -12.008  14.558  67.134  1.00  0.00    -0.406 OA 
BRANCH   5   6
HETATM    6  C   UNL     1     -10.735  15.051  67.100  1.00  0.00    -0.303 A  
HETATM    7  C   UNL     1      -9.864  15.169  68.166  1.00  0.00    -0.218 A  
HETATM    8  N   UNL     1      -8.610  15.648  68.072  1.00  0.00    -0.154 NA 
HETATM    9  C   UNL     1      -8.232  16.031  66.857  1.00  0.00    -0.242 A  
HETATM   10  C   UNL     1     -10.216  15.488  65.896  1.00  0.00    -0.345 A  
HETATM   11  N   UNL     1      -8.965  15.995  65.741  1.00  0.00    -0.344 NA 
BRANCH   9  12
HETATM   12  N   UNL     1      -6.917  16.472  66.731  1.00  0.00    -0.218 N  
HETATM   13  H   UNL     1      -6.111  15.855  66.830  1.00  0.00     0.000 HD 
BRANCH  12  14
HETATM   14  S   UNL     1      -6.779  18.111  66.399  1.00  0.00    -0.251 S  
HETATM   15  O   UNL     1      -6.790  18.365  64.973  1.00  0.00    -0.457 OA 
HETATM   16  O   UNL     1      -5.701  18.606  67.228  1.00  0.00    -0.145 OA 
BRANCH  14  17
HETATM   17  C   UNL     1      -8.282  18.801  67.075  1.00  0.00    -0.264 A  
HETATM   18  C   UNL     1      -8.421  18.919  68.462  1.00  0.00    -0.384 A  
HETATM   19  C   UNL     1      -9.591  19.466  68.989  1.00  0.00    -0.432 A  
HETATM   20  C   UNL     1     -10.607  19.899  68.135  1.00  0.00    -0.357 A  
HETATM   21  C   UNL     1     -10.452  19.806  66.752  1.00  0.00    -0.610 A  
HETATM   22  C   UNL     1      -9.280  19.271  66.216  1.00  0.00    -0.362 A  
ENDBRANCH  14  17
ENDBRANCH  12  14
ENDBRANCH   9  12
ENDBRANCH   5   6
ENDBRANCH   4   5
ENDBRANCH   3   4
ENDBRANCH   2   3
TORSDOF 7
ENDMDL
MODEL       55
REMARK 921   NORMALIZED FREE ENERGY PREDICTED BY IDOCK:   -4.87 KCAL/MOL
REMARK 922        TOTAL FREE ENERGY PREDICTED BY IDOCK:   -7.39 KCAL/MOL
REMARK 923 INTER-LIGAND FREE ENERGY PREDICTED BY IDOCK:   -6.85 KCAL/MOL
REMARK 924 INTRA-LIGAND FREE ENERGY PREDICTED BY IDOCK:   -0.54 KCAL/MOL
REMARK 927      BINDING AFFINITY PREDICTED BY RF-SCORE:    0.00 PKD
ROOT
HETATM    1  C   UNL     1      -5.466  20.763  69.681  1.00  0.00    -0.373 C  
HETATM    2  O   UNL     1      -6.088  20.025  68.642  1.00  0.00    -0.251 OA 
ENDROOT
BRANCH   2   3
HETATM    3  C   UNL     1      -6.586  20.865  67.597  1.00  0.00    -0.354 C  
BRANCH   3   4
HETATM    4  C   UNL     1      -7.860  20.217  67.069  1.00  0.00    -0.329 C  
BRANCH   4   5
HETATM    5  O   UNL     1      -8.647  19.642  68.118  1.00  0.00    -0.315 OA 
BRANCH   5   6
HETATM    6  C   UNL     1      -9.101  18.382  67.849  1.00  0.00    -0.283 A  
HETATM    7  C   UNL     1      -8.335  17.278  67.523  1.00  0.00    -0.196 A  
HETATM    8  N   UNL     1      -8.835  16.052  67.283  1.00  0.00    -0.186 NA 
HETATM    9  C   UNL     1     -10.157  15.945  67.365  1.00  0.00    -0.252 A  
HETATM   10  C   UNL     1     -10.460  18.132  67.896  1.00  0.00    -0.392 A  
HETATM   11  N   UNL     1     -11.024  16.922  67.649  1.00  0.00    -0.233 NA 
BRANCH   9  12
HETATM   12  N   UNL     1     -10.685  14.670  67.180  1.00  0.00    -0.287 N  
HETATM   13  H   UNL     1     -10.643  13.942  67.893  1.00  0.00     0.000 HD 
BRANCH  12  14
HETATM   14  S   UNL     1     -11.396  14.441  65.677  1.00  0.00    -0.336 S  
HETATM   15  O   UNL     1     -10.975  15.456  64.733  1.00  0.00    -0.420 OA 
HETATM   16  O   UNL     1     -12.801  14.200  65.923  1.00  0.00    -0.471 OA 
BRANCH  14  17
HETATM   17  C   UNL     1     -10.714  12.884  65.127  1.00  0.00    -0.305 A  
HETATM   18  C   UNL     1     -10.196  11.989  66.068  1.00  0.00    -0.256 A  
HETATM   19  C   UNL     1      -9.673  10.770  65.639  1.00  0.00    -0.287 A  
HETATM   20  C   UNL     1      -9.676  10.446  64.281  1.00  0.00    -0.389 A  
HETATM   21  C   UNL     1     -10.220  11.330  63.348  1.00  0.00    -0.454 A  
HETATM   22  C   UNL     1     -10.757  12.547  63.770  1.00  0.00    -0.483 A  
ENDBRANCH  14  17
ENDBRANCH  12  14
ENDBRANCH   9  12
ENDBRANCH   5   6
ENDBRANCH   4   5
ENDBRANCH   3   4
ENDBRANCH   2   3
TORSDOF 7
ENDMDL
MODEL       56
REMARK 921   NORMALIZED FREE ENERGY PREDICTED BY IDOCK:   -4.87 KCAL/MOL
REMARK 922        TOTAL FREE ENERGY PREDICTED BY IDOCK:   -7.39 KCAL/MOL
REMARK 923 INTER-LIGAND FREE ENERGY PREDICTED BY IDOCK:   -6.92 KCAL/MOL
REMARK 924 INTRA-LIGAND FREE ENERGY PREDICTED BY IDOCK:   -0.47 KCAL/MOL
REMARK 927      BINDING AFFINITY PREDICTED BY RF-SCORE:    0.00 PKD
ROOT
HETATM    1  C   UNL     1      -8.240   7.028  66.892  1.00  0.00    -0.117 C  
HETATM    2  O   UNL     1      -9.357   7.527  66.173  1.00  0.00    -0.155 OA 
ENDROOT
BRANCH   2   3
HETATM    3  C   UNL     1     -10.440   7.894  67.031  1.00  0.00    -0.349 C  
BRANCH   3   4
HETATM    4  C   UNL     1     -10.336   9.395  67.269  1.00  0.00    -0.260 C  
BRANCH   4   5
HETATM    5  O   UNL     1     -11.149   9.826  68.366  1.00  0.00    -0.187 OA 
BRANCH   5   6
HETATM    6  C   UNL     1     -11.377  11.172  68.398  1.00  0.00    -0.288 A  
HETATM    7  C   UNL     1     -11.691  11.933  69.507  1.00  0.00    -0.345 A  
HETATM    8  N   UNL     1     -11.890  13.263  69.484  1.00  0.00    -0.316 NA 
HETATM    9  C   UNL     1     -11.777  13.839  68.292  1.00  0.00    -0.359 A  
HETATM   10  C   UNL     1     -11.294  11.896  67.222  1.00  0.00    -0.329 A  
HETATM   11  N   UNL     1     -11.499  13.235  67.133  1.00  0.00    -0.323 NA 
BRANCH   9  12
HETATM   12  N   UNL     1     -11.919  15.224  68.261  1.00  0.00    -0.529 N  
HETATM   13  H   UNL     1     -12.714  15.693  67.828  1.00  0.00     0.000 HD 
BRANCH  12  14
HETATM   14  S   UNL     1     -10.660  16.052  69.000  1.00  0.00    -0.279 S  
HETATM   15  O   UNL     1      -9.412  15.324  68.890  1.00  0.00    -0.196 OA 
HETATM   16  O   UNL     1     -11.153  16.476  70.292  1.00  0.00    -0.348 OA 
BRANCH  14  17
HETATM   17  C   UNL     1     -10.502  17.535  68.017  1.00  0.00    -0.387 A  
HETATM   18  C   UNL     1     -10.160  18.740  68.640  1.00  0.00    -0.432 A  
HETATM   19  C   UNL     1     -10.027  19.895  67.871  1.00  0.00    -0.552 A  
HETATM   20  C   UNL     1     -10.225  19.843  66.489  1.00  0.00    -0.611 A  
HETATM   21  C   UNL     1     -10.536  18.633  65.869  1.00  0.00    -0.365 A  
HETATM   22  C   UNL     1     -10.660  17.470  66.629  1.00  0.00    -0.198 A  
ENDBRANCH  14  17
ENDBRANCH  12  14
ENDBRANCH   9  12
ENDBRANCH   5   6
ENDBRANCH   4   5
ENDBRANCH   3   4
ENDBRANCH   2   3
TORSDOF 7
ENDMDL
MODEL       57
REMARK 921   NORMALIZED FREE ENERGY PREDICTED BY IDOCK:   -4.84 KCAL/MOL
REMARK 922        TOTAL FREE ENERGY PREDICTED BY IDOCK:   -7.36 KCAL/MOL
REMARK 923 INTER-LIGAND FREE ENERGY PREDICTED BY IDOCK:   -6.97 KCAL/MOL
REMARK 924 INTRA-LIGAND FREE ENERGY PREDICTED BY IDOCK:   -0.38 KCAL/MOL
REMARK 927      BINDING AFFINITY PREDICTED BY RF-SCORE:    0.00 PKD
ROOT
HETATM    1  C   UNL     1      -5.657  20.388  64.318  1.00  0.00    -0.212 C  
HETATM    2  O   UNL     1      -6.704  19.443  64.473  1.00  0.00    -0.327 OA 
ENDROOT
BRANCH   2   3
HETATM    3  C   UNL     1      -6.427  18.485  65.498  1.00  0.00    -0.274 C  
BRANCH   3   4
HETATM    4  C   UNL     1      -7.659  18.415  66.391  1.00  0.00    -0.252 C  
BRANCH   4   5
HETATM    5  O   UNL     1      -8.742  17.721  65.764  1.00  0.00    -0.502 OA 
BRANCH   5   6
HETATM    6  C   UNL     1      -9.069  16.538  66.363  1.00  0.00    -0.297 A  
HETATM    7  C   UNL     1      -9.475  15.376  65.736  1.00  0.00    -0.290 A  
HETATM    8  N   UNL     1      -9.770  14.231  66.377  1.00  0.00    -0.288 NA 
HETATM    9  C   UNL     1      -9.661  14.269  67.700  1.00  0.00    -0.219 A  
HETATM   10  C   UNL     1      -9.001  16.441  67.741  1.00  0.00    -0.198 A  
HETATM   11  N   UNL     1      -9.300  15.319  68.444  1.00  0.00    -0.190 NA 
BRANCH   9  12
HETATM   12  N   UNL     1      -9.902  13.075  68.374  1.00  0.00    -0.288 N  
HETATM   13  H   UNL     1      -9.159  12.492  68.758  1.00  0.00     0.000 HD 
BRANCH  12  14
HETATM   14  S   UNL     1     -11.529  12.681  68.496  1.00  0.00    -0.335 S  
HETATM   15  O   UNL     1     -12.032  12.118  67.260  1.00  0.00    -0.573 OA 
HETATM   16  O   UNL     1     -12.180  13.821  69.104  1.00  0.00    -0.344 OA 
BRANCH  14  17
HETATM   17  C   UNL     1     -11.553  11.383  69.723  1.00  0.00    -0.332 A  
HETATM   18  C   UNL     1     -12.639  11.285  70.599  1.00  0.00    -0.377 A  
HETATM   19  C   UNL     1     -12.662  10.266  71.551  1.00  0.00    -0.557 A  
HETATM   20  C   UNL     1     -11.612   9.347  71.618  1.00  0.00    -0.466 A  
HETATM   21  C   UNL     1     -10.545   9.431  70.723  1.00  0.00    -0.371 A  
HETATM   22  C   UNL     1     -10.520  10.441  69.760  1.00  0.00    -0.284 A  
ENDBRANCH  14  17
ENDBRANCH  12  14
ENDBRANCH   9  12
ENDBRANCH   5   6
ENDBRANCH   4   5
ENDBRANCH   3   4
ENDBRANCH   2   3
TORSDOF 7
ENDMDL
MODEL       58
REMARK 921   NORMALIZED FREE ENERGY PREDICTED BY IDOCK:   -4.83 KCAL/MOL
REMARK 922        TOTAL FREE ENERGY PREDICTED BY IDOCK:   -7.34 KCAL/MOL
REMARK 923 INTER-LIGAND FREE ENERGY PREDICTED BY IDOCK:   -6.94 KCAL/MOL
REMARK 924 INTRA-LIGAND FREE ENERGY PREDICTED BY IDOCK:   -0.39 KCAL/MOL
REMARK 927      BINDING AFFINITY PREDICTED BY RF-SCORE:    0.00 PKD
ROOT
HETATM    1  C   UNL     1      -8.329   8.495  70.861  1.00  0.00    -0.146 C  
HETATM    2  O   UNL     1      -9.216   9.316  71.604  1.00  0.00    -0.313 OA 
ENDROOT
BRANCH   2   3
HETATM    3  C   UNL     1     -10.489   8.697  71.812  1.00  0.00    -0.324 C  
BRANCH   3   4
HETATM    4  C   UNL     1     -11.458   9.317  70.813  1.00  0.00    -0.292 C  
BRANCH   4   5
HETATM    5  O   UNL     1     -12.096  10.488  71.336  1.00  0.00    -0.344 OA 
BRANCH   5   6
HETATM    6  C   UNL     1     -12.154  11.532  70.458  1.00  0.00    -0.378 A  
HETATM    7  C   UNL     1     -12.349  12.864  70.767  1.00  0.00    -0.299 A  
HETATM    8  N   UNL     1     -12.382  13.857  69.859  1.00  0.00    -0.326 NA 
HETATM    9  C   UNL     1     -12.222  13.484  68.594  1.00  0.00    -0.137 A  
HETATM   10  C   UNL     1     -12.005  11.282  69.106  1.00  0.00    -0.336 A  
HETATM   11  N   UNL     1     -12.043  12.239  68.143  1.00  0.00    -0.382 NA 
BRANCH   9  12
HETATM   12  N   UNL     1     -12.190  14.505  67.649  1.00  0.00    -0.614 N  
HETATM   13  H   UNL     1     -12.990  15.106  67.452  1.00  0.00     0.000 HD 
BRANCH  12  14
HETATM   14  S   UNL     1     -10.715  14.657  66.863  1.00  0.00    -0.300 S  
HETATM   15  O   UNL     1      -9.639  14.075  67.639  1.00  0.00    -0.212 OA 
HETATM   16  O   UNL     1     -10.635  16.028  66.406  1.00  0.00    -0.308 OA 
BRANCH  14  17
HETATM   17  C   UNL     1     -10.919  13.656  65.397  1.00  0.00    -0.298 A  
HETATM   18  C   UNL     1     -10.054  12.580  65.174  1.00  0.00    -0.266 A  
HETATM   19  C   UNL     1     -10.219  11.793  64.035  1.00  0.00    -0.387 A  
HETATM   20  C   UNL     1     -11.247  12.074  63.133  1.00  0.00    -0.261 A  
HETATM   21  C   UNL     1     -12.126  13.130  63.375  1.00  0.00    -0.558 A  
HETATM   22  C   UNL     1     -11.975  13.916  64.518  1.00  0.00    -0.464 A  
ENDBRANCH  14  17
ENDBRANCH  12  14
ENDBRANCH   9  12
ENDBRANCH   5   6
ENDBRANCH   4   5
ENDBRANCH   3   4
ENDBRANCH   2   3
TORSDOF 7
ENDMDL
MODEL       59
REMARK 921   NORMALIZED FREE ENERGY PREDICTED BY IDOCK:   -4.83 KCAL/MOL
REMARK 922        TOTAL FREE ENERGY PREDICTED BY IDOCK:   -7.33 KCAL/MOL
REMARK 923 INTER-LIGAND FREE ENERGY PREDICTED BY IDOCK:   -6.88 KCAL/MOL
REMARK 924 INTRA-LIGAND FREE ENERGY PREDICTED BY IDOCK:   -0.46 KCAL/MOL
REMARK 927      BINDING AFFINITY PREDICTED BY RF-SCORE:    0.00 PKD
ROOT
HETATM    1  C   UNL     1     -12.370  12.333  63.562  1.00  0.00    -0.565 C  
HETATM    2  O   UNL     1     -12.358  13.696  63.170  1.00  0.00    -0.729 OA 
ENDROOT
BRANCH   2   3
HETATM    3  C   UNL     1     -12.379  14.587  64.288  1.00  0.00    -0.369 C  
BRANCH   3   4
HETATM    4  C   UNL     1     -12.768  13.765  65.510  1.00  0.00    -0.488 C  
BRANCH   4   5
HETATM    5  O   UNL     1     -12.191  14.283  66.714  1.00  0.00    -0.441 OA 
BRANCH   5   6
HETATM    6  C   UNL     1     -11.517  13.354  67.455  1.00  0.00    -0.333 A  
HETATM    7  C   UNL     1     -11.886  12.854  68.689  1.00  0.00    -0.312 A  
HETATM    8  N   UNL     1     -11.191  11.924  69.369  1.00  0.00    -0.236 NA 
HETATM    9  C   UNL     1     -10.078  11.497  68.783  1.00  0.00    -0.179 A  
HETATM   10  C   UNL     1     -10.339  12.827  66.961  1.00  0.00    -0.234 A  
HETATM   11  N   UNL     1      -9.586  11.899  67.608  1.00  0.00    -0.182 NA 
BRANCH   9  12
HETATM   12  N   UNL     1      -9.380  10.490  69.445  1.00  0.00    -0.363 N  
HETATM   13  H   UNL     1      -8.747  10.671  70.223  1.00  0.00     0.000 HD 
BRANCH  12  14
HETATM   14  S   UNL     1      -9.675   8.951  68.843  1.00  0.00    -0.175 S  
HETATM   15  O   UNL     1      -8.444   8.285  68.469  1.00  0.00    -0.124 OA 
HETATM   16  O   UNL     1     -10.758   9.085  67.893  1.00  0.00    -0.217 OA 
BRANCH  14  17
HETATM   17  C   UNL     1     -10.351   8.077  70.247  1.00  0.00    -0.212 A  
HETATM   18  C   UNL     1     -10.276   8.656  71.518  1.00  0.00    -0.345 A  
HETATM   19  C   UNL     1     -10.812   7.978  72.613  1.00  0.00    -0.436 A  
HETATM   20  C   UNL     1     -11.425   6.736  72.434  1.00  0.00    -0.302 A  
HETATM   21  C   UNL     1     -11.523   6.176  71.160  1.00  0.00    -0.314 A  
HETATM   22  C   UNL     1     -11.000   6.854  70.058  1.00  0.00    -0.320 A  
ENDBRANCH  14  17
ENDBRANCH  12  14
ENDBRANCH   9  12
ENDBRANCH   5   6
ENDBRANCH   4   5
ENDBRANCH   3   4
ENDBRANCH   2   3
TORSDOF 7
ENDMDL
MODEL       60
REMARK 921   NORMALIZED FREE ENERGY PREDICTED BY IDOCK:   -4.82 KCAL/MOL
REMARK 922        TOTAL FREE ENERGY PREDICTED BY IDOCK:   -7.33 KCAL/MOL
REMARK 923 INTER-LIGAND FREE ENERGY PREDICTED BY IDOCK:   -6.78 KCAL/MOL
REMARK 924 INTRA-LIGAND FREE ENERGY PREDICTED BY IDOCK:   -0.55 KCAL/MOL
REMARK 927      BINDING AFFINITY PREDICTED BY RF-SCORE:    0.00 PKD
ROOT
HETATM    1  C   UNL     1     -10.418  19.923  66.060  1.00  0.00    -0.475 C  
HETATM    2  O   UNL     1     -10.369  19.705  67.461  1.00  0.00    -0.395 OA 
ENDROOT
BRANCH   2   3
HETATM    3  C   UNL     1      -9.061  19.908  68.001  1.00  0.00    -0.299 C  
BRANCH   3   4
HETATM    4  C   UNL     1      -8.715  18.671  68.820  1.00  0.00    -0.258 C  
BRANCH   4   5
HETATM    5  O   UNL     1      -7.823  17.795  68.123  1.00  0.00    -0.245 OA 
BRANCH   5   6
HETATM    6  C   UNL     1      -8.432  16.707  67.565  1.00  0.00    -0.188 A  
HETATM    7  C   UNL     1      -8.917  16.600  66.275  1.00  0.00    -0.305 A  
HETATM    8  N   UNL     1      -9.495  15.494  65.771  1.00  0.00    -0.328 NA 
HETATM    9  C   UNL     1      -9.595  14.467  66.608  1.00  0.00    -0.276 A  
HETATM   10  C   UNL     1      -8.603  15.567  68.329  1.00  0.00    -0.161 A  
HETATM   11  N   UNL     1      -9.192  14.428  67.881  1.00  0.00    -0.189 NA 
BRANCH   9  12
HETATM   12  N   UNL     1     -10.135  13.295  66.083  1.00  0.00    -0.288 N  
HETATM   13  H   UNL     1      -9.609  12.660  65.483  1.00  0.00     0.000 HD 
BRANCH  12  14
HETATM   14  S   UNL     1     -11.730  13.024  66.529  1.00  0.00    -0.396 S  
HETATM   15  O   UNL     1     -12.445  12.282  65.510  1.00  0.00    -0.597 OA 
HETATM   16  O   UNL     1     -12.240  14.289  67.013  1.00  0.00    -0.424 OA 
BRANCH  14  17
HETATM   17  C   UNL     1     -11.589  11.965  67.961  1.00  0.00    -0.332 A  
HETATM   18  C   UNL     1     -10.912  10.746  67.850  1.00  0.00    -0.344 A  
HETATM   19  C   UNL     1     -10.793   9.924  68.970  1.00  0.00    -0.242 A  
HETATM   20  C   UNL     1     -11.339  10.323  70.191  1.00  0.00    -0.388 A  
HETATM   21  C   UNL     1     -11.988  11.553  70.304  1.00  0.00    -0.455 A  
HETATM   22  C   UNL     1     -12.100  12.387  69.191  1.00  0.00    -0.195 A  
ENDBRANCH  14  17
ENDBRANCH  12  14
ENDBRANCH   9  12
ENDBRANCH   5   6
ENDBRANCH   4   5
ENDBRANCH   3   4
ENDBRANCH   2   3
TORSDOF 7
ENDMDL
MODEL       61
REMARK 921   NORMALIZED FREE ENERGY PREDICTED BY IDOCK:   -4.82 KCAL/MOL
REMARK 922        TOTAL FREE ENERGY PREDICTED BY IDOCK:   -7.33 KCAL/MOL
REMARK 923 INTER-LIGAND FREE ENERGY PREDICTED BY IDOCK:   -6.80 KCAL/MOL
REMARK 924 INTRA-LIGAND FREE ENERGY PREDICTED BY IDOCK:   -0.52 KCAL/MOL
REMARK 927      BINDING AFFINITY PREDICTED BY RF-SCORE:    0.00 PKD
ROOT
HETATM    1  C   UNL     1     -11.023   8.709  71.668  1.00  0.00    -0.308 C  
HETATM    2  O   UNL     1     -11.111   7.767  70.611  1.00  0.00    -0.251 OA 
ENDROOT
BRANCH   2   3
HETATM    3  C   UNL     1     -10.177   8.034  69.562  1.00  0.00    -0.209 C  
BRANCH   3   4
HETATM    4  C   UNL     1     -10.144   9.544  69.363  1.00  0.00    -0.198 C  
BRANCH   4   5
HETATM    5  O   UNL     1     -11.202   9.999  68.513  1.00  0.00    -0.211 OA 
BRANCH   5   6
HETATM    6  C   UNL     1     -11.337  11.358  68.468  1.00  0.00    -0.271 A  
HETATM    7  C   UNL     1     -11.158  12.171  67.365  1.00  0.00    -0.276 A  
HETATM    8  N   UNL     1     -11.320  13.507  67.373  1.00  0.00    -0.298 NA 
HETATM    9  C   UNL     1     -11.664  14.036  68.542  1.00  0.00    -0.352 A  
HETATM   10  C   UNL     1     -11.690  12.037  69.619  1.00  0.00    -0.335 A  
HETATM   11  N   UNL     1     -11.853  13.383  69.693  1.00  0.00    -0.316 NA 
BRANCH   9  12
HETATM   12  N   UNL     1     -11.896  15.409  68.553  1.00  0.00    -0.506 N  
HETATM   13  H   UNL     1     -12.713  15.839  68.121  1.00  0.00     0.000 HD 
BRANCH  12  14
HETATM   14  S   UNL     1     -10.707  16.292  69.343  1.00  0.00    -0.338 S  
HETATM   15  O   UNL     1      -9.451  15.571  69.382  1.00  0.00    -0.250 OA 
HETATM   16  O   UNL     1     -11.309  16.789  70.562  1.00  0.00    -0.097 OA 
BRANCH  14  17
HETATM   17  C   UNL     1     -10.474  17.715  68.288  1.00  0.00    -0.375 A  
HETATM   18  C   UNL     1     -10.105  18.938  68.856  1.00  0.00    -0.372 A  
HETATM   19  C   UNL     1      -9.914  20.047  68.031  1.00  0.00    -0.550 A  
HETATM   20  C   UNL     1     -10.082  19.928  66.650  1.00  0.00    -0.598 A  
HETATM   21  C   UNL     1     -10.421  18.698  66.085  1.00  0.00    -0.473 A  
HETATM   22  C   UNL     1     -10.603  17.582  66.902  1.00  0.00    -0.219 A  
ENDBRANCH  14  17
ENDBRANCH  12  14
ENDBRANCH   9  12
ENDBRANCH   5   6
ENDBRANCH   4   5
ENDBRANCH   3   4
ENDBRANCH   2   3
TORSDOF 7
ENDMDL
MODEL       62
REMARK 921   NORMALIZED FREE ENERGY PREDICTED BY IDOCK:   -4.81 KCAL/MOL
REMARK 922        TOTAL FREE ENERGY PREDICTED BY IDOCK:   -7.31 KCAL/MOL
REMARK 923 INTER-LIGAND FREE ENERGY PREDICTED BY IDOCK:   -6.67 KCAL/MOL
REMARK 924 INTRA-LIGAND FREE ENERGY PREDICTED BY IDOCK:   -0.64 KCAL/MOL
REMARK 927      BINDING AFFINITY PREDICTED BY RF-SCORE:    0.00 PKD
ROOT
HETATM    1  C   UNL     1     -13.408  12.301  71.980  1.00  0.00    -0.386 C  
HETATM    2  O   UNL     1     -12.540  11.207  71.728  1.00  0.00    -0.308 OA 
ENDROOT
BRANCH   2   3
HETATM    3  C   UNL     1     -13.015  10.364  70.675  1.00  0.00    -0.283 C  
BRANCH   3   4
HETATM    4  C   UNL     1     -11.908  10.281  69.632  1.00  0.00    -0.111 C  
BRANCH   4   5
HETATM    5  O   UNL     1     -12.168  11.120  68.502  1.00  0.00    -0.600 OA 
BRANCH   5   6
HETATM    6  C   UNL     1     -11.418  12.261  68.469  1.00  0.00    -0.303 A  
HETATM    7  C   UNL     1     -11.868  13.553  68.658  1.00  0.00    -0.369 A  
HETATM    8  N   UNL     1     -11.079  14.643  68.631  1.00  0.00    -0.251 NA 
HETATM    9  C   UNL     1      -9.792  14.414  68.392  1.00  0.00    -0.234 A  
HETATM   10  C   UNL     1     -10.060  12.166  68.227  1.00  0.00    -0.210 A  
HETATM   11  N   UNL     1      -9.217  13.229  68.172  1.00  0.00    -0.208 NA 
BRANCH   9  12
HETATM   12  N   UNL     1      -8.952  15.525  68.423  1.00  0.00    -0.184 N  
HETATM   13  H   UNL     1      -8.576  15.914  69.286  1.00  0.00     0.000 HD 
BRANCH  12  14
HETATM   14  S   UNL     1      -8.617  16.163  66.907  1.00  0.00    -0.248 S  
HETATM   15  O   UNL     1      -9.456  15.570  65.886  1.00  0.00    -0.331 OA 
HETATM   16  O   UNL     1      -7.177  16.159  66.772  1.00  0.00    -0.214 OA 
BRANCH  14  17
HETATM   17  C   UNL     1      -9.096  17.878  67.062  1.00  0.00    -0.253 A  
HETATM   18  C   UNL     1     -10.398  18.194  67.462  1.00  0.00    -0.405 A  
HETATM   19  C   UNL     1     -10.769  19.532  67.592  1.00  0.00    -0.527 A  
HETATM   20  C   UNL     1      -9.842  20.543  67.333  1.00  0.00    -0.574 A  
HETATM   21  C   UNL     1      -8.536  20.223  66.963  1.00  0.00    -0.398 A  
HETATM   22  C   UNL     1      -8.153  18.886  66.842  1.00  0.00    -0.275 A  
ENDBRANCH  14  17
ENDBRANCH  12  14
ENDBRANCH   9  12
ENDBRANCH   5   6
ENDBRANCH   4   5
ENDBRANCH   3   4
ENDBRANCH   2   3
TORSDOF 7
ENDMDL
MODEL       63
REMARK 921   NORMALIZED FREE ENERGY PREDICTED BY IDOCK:   -4.81 KCAL/MOL
REMARK 922        TOTAL FREE ENERGY PREDICTED BY IDOCK:   -7.31 KCAL/MOL
REMARK 923 INTER-LIGAND FREE ENERGY PREDICTED BY IDOCK:   -6.84 KCAL/MOL
REMARK 924 INTRA-LIGAND FREE ENERGY PREDICTED BY IDOCK:   -0.46 KCAL/MOL
REMARK 927      BINDING AFFINITY PREDICTED BY RF-SCORE:    0.00 PKD
ROOT
HETATM    1  C   UNL     1      -5.768  19.952  64.592  1.00  0.00    -0.219 C  
HETATM    2  O   UNL     1      -6.751  18.943  64.759  1.00  0.00    -0.461 OA 
ENDROOT
BRANCH   2   3
HETATM    3  C   UNL     1      -6.463  18.075  65.858  1.00  0.00    -0.270 C  
BRANCH   3   4
HETATM    4  C   UNL     1      -7.376  18.485  67.006  1.00  0.00    -0.212 C  
BRANCH   4   5
HETATM    5  O   UNL     1      -8.714  18.744  66.565  1.00  0.00    -0.298 OA 
BRANCH   5   6
HETATM    6  C   UNL     1      -9.576  17.702  66.754  1.00  0.00    -0.294 A  
HETATM    7  C   UNL     1     -10.136  16.902  65.777  1.00  0.00    -0.229 A  
HETATM    8  N   UNL     1     -10.970  15.875  66.022  1.00  0.00    -0.207 NA 
HETATM    9  C   UNL     1     -11.253  15.659  67.302  1.00  0.00    -0.184 A  
HETATM   10  C   UNL     1      -9.956  17.370  68.041  1.00  0.00    -0.302 A  
HETATM   11  N   UNL     1     -10.805  16.356  68.350  1.00  0.00    -0.327 NA 
BRANCH   9  12
HETATM   12  N   UNL     1     -12.064  14.562  67.577  1.00  0.00    -0.591 N  
HETATM   13  H   UNL     1     -13.065  14.640  67.755  1.00  0.00     0.000 HD 
BRANCH  12  14
HETATM   14  S   UNL     1     -11.244  13.097  67.589  1.00  0.00    -0.297 S  
HETATM   15  O   UNL     1     -11.933  12.111  68.396  1.00  0.00    -0.331 OA 
HETATM   16  O   UNL     1      -9.853  13.410  67.836  1.00  0.00    -0.222 OA 
BRANCH  14  17
HETATM   17  C   UNL     1     -11.337  12.554  65.889  1.00  0.00    -0.340 A  
HETATM   18  C   UNL     1     -10.229  11.932  65.305  1.00  0.00    -0.309 A  
HETATM   19  C   UNL     1     -10.305  11.499  63.981  1.00  0.00    -0.406 A  
HETATM   20  C   UNL     1     -11.482  11.680  63.252  1.00  0.00    -0.266 A  
HETATM   21  C   UNL     1     -12.594  12.276  63.848  1.00  0.00    -0.544 A  
HETATM   22  C   UNL     1     -12.531  12.700  65.176  1.00  0.00    -0.531 A  
ENDBRANCH  14  17
ENDBRANCH  12  14
ENDBRANCH   9  12
ENDBRANCH   5   6
ENDBRANCH   4   5
ENDBRANCH   3   4
ENDBRANCH   2   3
TORSDOF 7
ENDMDL
MODEL       64
REMARK 921   NORMALIZED FREE ENERGY PREDICTED BY IDOCK:   -4.80 KCAL/MOL
REMARK 922        TOTAL FREE ENERGY PREDICTED BY IDOCK:   -7.30 KCAL/MOL
REMARK 923 INTER-LIGAND FREE ENERGY PREDICTED BY IDOCK:   -6.72 KCAL/MOL
REMARK 924 INTRA-LIGAND FREE ENERGY PREDICTED BY IDOCK:   -0.58 KCAL/MOL
REMARK 927      BINDING AFFINITY PREDICTED BY RF-SCORE:    0.00 PKD
ROOT
HETATM    1  C   UNL     1     -14.373   8.193  71.749  1.00  0.00    -0.484 C  
HETATM    2  O   UNL     1     -13.754   6.969  71.386  1.00  0.00    -0.324 OA 
ENDROOT
BRANCH   2   3
HETATM    3  C   UNL     1     -12.354   6.957  71.681  1.00  0.00    -0.371 C  
BRANCH   3   4
HETATM    4  C   UNL     1     -12.028   8.277  72.367  1.00  0.00    -0.384 C  
BRANCH   4   5
HETATM    5  O   UNL     1     -10.645   8.625  72.239  1.00  0.00    -0.334 OA 
BRANCH   5   6
HETATM    6  C   UNL     1     -10.343   9.299  71.089  1.00  0.00    -0.322 A  
HETATM    7  C   UNL     1     -11.171  10.157  70.391  1.00  0.00    -0.330 A  
HETATM    8  N   UNL     1     -10.814  10.809  69.270  1.00  0.00    -0.227 NA 
HETATM    9  C   UNL     1      -9.581  10.573  68.836  1.00  0.00    -0.193 A  
HETATM   10  C   UNL     1      -9.090   9.140  70.527  1.00  0.00    -0.241 A  
HETATM   11  N   UNL     1      -8.679   9.759  69.391  1.00  0.00    -0.159 NA 
BRANCH   9  12
HETATM   12  N   UNL     1      -9.176  11.287  67.711  1.00  0.00    -0.153 N  
HETATM   13  H   UNL     1      -8.747  12.210  67.763  1.00  0.00     0.000 HD 
BRANCH  12  14
HETATM   14  S   UNL     1      -9.458  10.489  66.262  1.00  0.00    -0.185 S  
HETATM   15  O   UNL     1     -10.080   9.199  66.481  1.00  0.00    -0.273 OA 
HETATM   16  O   UNL     1      -8.238  10.596  65.492  1.00  0.00    -0.160 OA 
BRANCH  14  17
HETATM   17  C   UNL     1     -10.657  11.527  65.441  1.00  0.00    -0.282 A  
HETATM   18  C   UNL     1     -11.417  12.428  66.194  1.00  0.00    -0.430 A  
HETATM   19  C   UNL     1     -12.346  13.246  65.551  1.00  0.00    -0.533 A  
HETATM   20  C   UNL     1     -12.506  13.169  64.166  1.00  0.00    -0.348 A  
HETATM   21  C   UNL     1     -11.725  12.290  63.415  1.00  0.00    -0.542 A  
HETATM   22  C   UNL     1     -10.784  11.476  64.049  1.00  0.00    -0.445 A  
ENDBRANCH  14  17
ENDBRANCH  12  14
ENDBRANCH   9  12
ENDBRANCH   5   6
ENDBRANCH   4   5
ENDBRANCH   3   4
ENDBRANCH   2   3
TORSDOF 7
ENDMDL
MODEL       65
REMARK 921   NORMALIZED FREE ENERGY PREDICTED BY IDOCK:   -4.79 KCAL/MOL
REMARK 922        TOTAL FREE ENERGY PREDICTED BY IDOCK:   -7.29 KCAL/MOL
REMARK 923 INTER-LIGAND FREE ENERGY PREDICTED BY IDOCK:   -6.86 KCAL/MOL
REMARK 924 INTRA-LIGAND FREE ENERGY PREDICTED BY IDOCK:   -0.43 KCAL/MOL
REMARK 927      BINDING AFFINITY PREDICTED BY RF-SCORE:    0.00 PKD
ROOT
HETATM    1  C   UNL     1      -9.866  19.656  68.144  1.00  0.00    -0.418 C  
HETATM    2  O   UNL     1     -10.528  20.156  66.993  1.00  0.00    -0.418 OA 
ENDROOT
BRANCH   2   3
HETATM    3  C   UNL     1     -10.464  19.250  65.889  1.00  0.00    -0.451 C  
BRANCH   3   4
HETATM    4  C   UNL     1     -10.307  17.849  66.466  1.00  0.00    -0.362 C  
BRANCH   4   5
HETATM    5  O   UNL     1     -10.152  16.858  65.443  1.00  0.00    -0.586 OA 
BRANCH   5   6
HETATM    6  C   UNL     1     -10.520  15.599  65.825  1.00  0.00    -0.366 A  
HETATM    7  C   UNL     1     -10.364  14.435  65.097  1.00  0.00    -0.421 A  
HETATM    8  N   UNL     1     -10.732  13.215  65.530  1.00  0.00    -0.279 NA 
HETATM    9  C   UNL     1     -11.287  13.178  66.736  1.00  0.00    -0.316 A  
HETATM   10  C   UNL     1     -11.114  15.418  67.060  1.00  0.00    -0.273 A  
HETATM   11  N   UNL     1     -11.520  14.216  67.544  1.00  0.00    -0.321 NA 
BRANCH   9  12
HETATM   12  N   UNL     1     -11.617  11.916  67.224  1.00  0.00    -0.316 N  
HETATM   13  H   UNL     1     -12.310  11.312  66.783  1.00  0.00     0.000 HD 
BRANCH  12  14
HETATM   14  S   UNL     1     -10.769  11.480  68.605  1.00  0.00    -0.217 S  
HETATM   15  O   UNL     1     -11.516  11.793  69.806  1.00  0.00    -0.280 OA 
HETATM   16  O   UNL     1      -9.419  11.971  68.428  1.00  0.00    -0.201 OA 
BRANCH  14  17
HETATM   17  C   UNL     1     -10.668   9.700  68.488  1.00  0.00    -0.200 A  
HETATM   18  C   UNL     1     -10.706   8.930  69.655  1.00  0.00    -0.222 A  
HETATM   19  C   UNL     1     -10.638   7.541  69.563  1.00  0.00    -0.239 A  
HETATM   20  C   UNL     1     -10.542   6.927  68.312  1.00  0.00    -0.258 A  
HETATM   21  C   UNL     1     -10.534   7.697  67.149  1.00  0.00    -0.412 A  
HETATM   22  C   UNL     1     -10.614   9.087  67.232  1.00  0.00    -0.301 A  
ENDBRANCH  14  17
ENDBRANCH  12  14
ENDBRANCH   9  12
ENDBRANCH   5   6
ENDBRANCH   4   5
ENDBRANCH   3   4
ENDBRANCH   2   3
TORSDOF 7
ENDMDL
MODEL       66
REMARK 921   NORMALIZED FREE ENERGY PREDICTED BY IDOCK:   -4.77 KCAL/MOL
REMARK 922        TOTAL FREE ENERGY PREDICTED BY IDOCK:   -7.26 KCAL/MOL
REMARK 923 INTER-LIGAND FREE ENERGY PREDICTED BY IDOCK:   -6.90 KCAL/MOL
REMARK 924 INTRA-LIGAND FREE ENERGY PREDICTED BY IDOCK:   -0.36 KCAL/MOL
REMARK 927      BINDING AFFINITY PREDICTED BY RF-SCORE:    0.00 PKD
ROOT
HETATM    1  C   UNL     1     -10.165   8.679  66.771  1.00  0.00    -0.291 C  
HETATM    2  O   UNL     1     -10.529  10.047  66.864  1.00  0.00    -0.236 OA 
ENDROOT
BRANCH   2   3
HETATM    3  C   UNL     1     -10.212  10.779  65.678  1.00  0.00    -0.257 C  
BRANCH   3   4
HETATM    4  C   UNL     1     -11.026  12.067  65.715  1.00  0.00    -0.307 C  
BRANCH   4   5
HETATM    5  O   UNL     1     -10.457  13.088  64.888  1.00  0.00    -0.309 OA 
BRANCH   5   6
HETATM    6  C   UNL     1     -10.213  14.263  65.540  1.00  0.00    -0.357 A  
HETATM    7  C   UNL     1      -9.519  14.424  66.724  1.00  0.00    -0.267 A  
HETATM    8  N   UNL     1      -9.294  15.611  67.316  1.00  0.00    -0.212 NA 
HETATM    9  C   UNL     1      -9.798  16.669  66.691  1.00  0.00    -0.274 A  
HETATM   10  C   UNL     1     -10.686  15.444  64.998  1.00  0.00    -0.438 A  
HETATM   11  N   UNL     1     -10.503  16.668  65.556  1.00  0.00    -0.568 NA 
BRANCH   9  12
HETATM   12  N   UNL     1      -9.521  17.911  67.257  1.00  0.00    -0.259 N  
HETATM   13  H   UNL     1      -9.892  18.206  68.160  1.00  0.00     0.000 HD 
BRANCH  12  14
HETATM   14  S   UNL     1      -8.520  18.876  66.318  1.00  0.00    -0.198 S  
HETATM   15  O   UNL     1      -9.255  19.967  65.710  1.00  0.00    -0.333 OA 
HETATM   16  O   UNL     1      -7.730  17.977  65.505  1.00  0.00    -0.510 OA 
BRANCH  14  17
HETATM   17  C   UNL     1      -7.393  19.589  67.507  1.00  0.00    -0.238 A  
HETATM   18  C   UNL     1      -6.589  20.669  67.130  1.00  0.00    -0.337 A  
HETATM   19  C   UNL     1      -5.716  21.232  68.061  1.00  0.00    -0.373 A  
HETATM   20  C   UNL     1      -5.657  20.724  69.360  1.00  0.00    -0.408 A  
HETATM   21  C   UNL     1      -6.482  19.665  69.740  1.00  0.00    -0.355 A  
HETATM   22  C   UNL     1      -7.366  19.104  68.818  1.00  0.00    -0.372 A  
ENDBRANCH  14  17
ENDBRANCH  12  14
ENDBRANCH   9  12
ENDBRANCH   5   6
ENDBRANCH   4   5
ENDBRANCH   3   4
ENDBRANCH   2   3
TORSDOF 7
ENDMDL
MODEL       67
REMARK 921   NORMALIZED FREE ENERGY PREDICTED BY IDOCK:   -4.75 KCAL/MOL
REMARK 922        TOTAL FREE ENERGY PREDICTED BY IDOCK:   -7.23 KCAL/MOL
REMARK 923 INTER-LIGAND FREE ENERGY PREDICTED BY IDOCK:   -6.72 KCAL/MOL
REMARK 924 INTRA-LIGAND FREE ENERGY PREDICTED BY IDOCK:   -0.51 KCAL/MOL
REMARK 927      BINDING AFFINITY PREDICTED BY RF-SCORE:    0.00 PKD
ROOT
HETATM    1  C   UNL     1     -10.626  11.360  65.815  1.00  0.00    -0.260 C  
HETATM    2  O   UNL     1     -11.879  11.903  66.198  1.00  0.00    -0.528 OA 
ENDROOT
BRANCH   2   3
HETATM    3  C   UNL     1     -12.434  12.758  65.196  1.00  0.00    -0.501 C  
BRANCH   3   4
HETATM    4  C   UNL     1     -12.207  14.193  65.653  1.00  0.00    -0.435 C  
BRANCH   4   5
HETATM    5  O   UNL     1     -11.884  14.271  67.046  1.00  0.00    -0.394 OA 
BRANCH   5   6
HETATM    6  C   UNL     1     -11.280  15.439  67.415  1.00  0.00    -0.287 A  
HETATM    7  C   UNL     1     -11.210  15.968  68.689  1.00  0.00    -0.366 A  
HETATM    8  N   UNL     1     -10.586  17.119  68.999  1.00  0.00    -0.315 NA 
HETATM    9  C   UNL     1     -10.025  17.761  67.980  1.00  0.00    -0.333 A  
HETATM   10  C   UNL     1     -10.658  16.208  66.449  1.00  0.00    -0.269 A  
HETATM   11  N   UNL     1     -10.026  17.384  66.698  1.00  0.00    -0.294 NA 
BRANCH   9  12
HETATM   12  N   UNL     1      -9.322  18.921  68.293  1.00  0.00    -0.324 N  
HETATM   13  H   UNL     1      -9.763  19.838  68.361  1.00  0.00     0.000 HD 
BRANCH  12  14
HETATM   14  S   UNL     1      -7.682  18.673  68.550  1.00  0.00    -0.320 S  
HETATM   15  O   UNL     1      -7.403  17.294  68.896  1.00  0.00    -0.241 OA 
HETATM   16  O   UNL     1      -7.234  19.751  69.405  1.00  0.00    -0.338 OA 
BRANCH  14  17
HETATM   17  C   UNL     1      -6.958  18.977  66.945  1.00  0.00    -0.200 A  
HETATM   18  C   UNL     1      -7.306  20.136  66.243  1.00  0.00    -0.310 A  
HETATM   19  C   UNL     1      -6.733  20.378  64.995  1.00  0.00    -0.310 A  
HETATM   20  C   UNL     1      -5.814  19.474  64.459  1.00  0.00    -0.310 A  
HETATM   21  C   UNL     1      -5.448  18.335  65.177  1.00  0.00    -0.169 A  
HETATM   22  C   UNL     1      -6.007  18.090  66.432  1.00  0.00    -0.211 A  
ENDBRANCH  14  17
ENDBRANCH  12  14
ENDBRANCH   9  12
ENDBRANCH   5   6
ENDBRANCH   4   5
ENDBRANCH   3   4
ENDBRANCH   2   3
TORSDOF 7
ENDMDL
MODEL       68
REMARK 921   NORMALIZED FREE ENERGY PREDICTED BY IDOCK:   -4.75 KCAL/MOL
REMARK 922        TOTAL FREE ENERGY PREDICTED BY IDOCK:   -7.22 KCAL/MOL
REMARK 923 INTER-LIGAND FREE ENERGY PREDICTED BY IDOCK:   -7.09 KCAL/MOL
REMARK 924 INTRA-LIGAND FREE ENERGY PREDICTED BY IDOCK:   -0.13 KCAL/MOL
REMARK 927      BINDING AFFINITY PREDICTED BY RF-SCORE:    0.00 PKD
ROOT
HETATM    1  C   UNL     1     -11.408   7.951  71.258  1.00  0.00    -0.260 C  
HETATM    2  O   UNL     1     -12.573   8.710  71.540  1.00  0.00    -0.311 OA 
ENDROOT
BRANCH   2   3
HETATM    3  C   UNL     1     -12.303  10.112  71.627  1.00  0.00    -0.377 C  
BRANCH   3   4
HETATM    4  C   UNL     1     -12.478  10.690  70.228  1.00  0.00    -0.304 C  
BRANCH   4   5
HETATM    5  O   UNL     1     -11.336  11.444  69.809  1.00  0.00    -0.274 OA 
BRANCH   5   6
HETATM    6  C   UNL     1     -11.562  12.247  68.727  1.00  0.00    -0.330 A  
HETATM    7  C   UNL     1     -11.560  11.867  67.399  1.00  0.00    -0.297 A  
HETATM    8  N   UNL     1     -11.807  12.699  66.371  1.00  0.00    -0.462 NA 
HETATM    9  C   UNL     1     -12.052  13.962  66.702  1.00  0.00    -0.448 A  
HETATM   10  C   UNL     1     -11.829  13.588  68.930  1.00  0.00    -0.345 A  
HETATM   11  N   UNL     1     -12.070  14.479  67.934  1.00  0.00    -0.286 NA 
BRANCH   9  12
HETATM   12  N   UNL     1     -12.371  14.823  65.655  1.00  0.00    -0.113 N  
HETATM   13  H   UNL     1     -13.326  15.099  65.432  1.00  0.00     0.000 HD 
BRANCH  12  14
HETATM   14  S   UNL     1     -11.036  15.365  64.793  1.00  0.00    -0.348 S  
HETATM   15  O   UNL     1     -11.414  16.344  63.794  1.00  0.00    -1.002 OA 
HETATM   16  O   UNL     1     -10.284  14.187  64.421  1.00  0.00    -0.272 OA 
BRANCH  14  17
HETATM   17  C   UNL     1     -10.059  16.211  66.026  1.00  0.00    -0.351 A  
HETATM   18  C   UNL     1      -8.894  15.608  66.512  1.00  0.00    -0.345 A  
HETATM   19  C   UNL     1      -8.126  16.273  67.467  1.00  0.00    -0.165 A  
HETATM   20  C   UNL     1      -8.516  17.533  67.926  1.00  0.00    -0.230 A  
HETATM   21  C   UNL     1      -9.663  18.142  67.417  1.00  0.00    -0.296 A  
HETATM   22  C   UNL     1     -10.431  17.490  66.452  1.00  0.00    -0.277 A  
ENDBRANCH  14  17
ENDBRANCH  12  14
ENDBRANCH   9  12
ENDBRANCH   5   6
ENDBRANCH   4   5
ENDBRANCH   3   4
ENDBRANCH   2   3
TORSDOF 7
ENDMDL
MODEL       69
REMARK 921   NORMALIZED FREE ENERGY PREDICTED BY IDOCK:   -4.73 KCAL/MOL
REMARK 922        TOTAL FREE ENERGY PREDICTED BY IDOCK:   -7.21 KCAL/MOL
REMARK 923 INTER-LIGAND FREE ENERGY PREDICTED BY IDOCK:   -6.78 KCAL/MOL
REMARK 924 INTRA-LIGAND FREE ENERGY PREDICTED BY IDOCK:   -0.42 KCAL/MOL
REMARK 927      BINDING AFFINITY PREDICTED BY RF-SCORE:    0.00 PKD
ROOT
HETATM    1  C   UNL     1      -5.313  20.573  65.107  1.00  0.00    -0.175 C  
HETATM    2  O   UNL     1      -6.700  20.362  65.313  1.00  0.00    -0.282 OA 
ENDROOT
BRANCH   2   3
HETATM    3  C   UNL     1      -7.152  20.883  66.566  1.00  0.00    -0.123 C  
BRANCH   3   4
HETATM    4  C   UNL     1      -8.402  20.103  66.951  1.00  0.00    -0.315 C  
BRANCH   4   5
HETATM    5  O   UNL     1      -8.139  19.128  67.967  1.00  0.00    -0.280 OA 
BRANCH   5   6
HETATM    6  C   UNL     1      -9.072  18.133  68.042  1.00  0.00    -0.283 A  
HETATM    7  C   UNL     1      -9.819  17.781  69.149  1.00  0.00    -0.142 A  
HETATM    8  N   UNL     1     -10.739  16.799  69.162  1.00  0.00    -0.339 NA 
HETATM    9  C   UNL     1     -10.898  16.146  68.017  1.00  0.00    -0.333 A  
HETATM   10  C   UNL     1      -9.334  17.372  66.918  1.00  0.00    -0.263 A  
HETATM   11  N   UNL     1     -10.239  16.360  66.874  1.00  0.00    -0.285 NA 
BRANCH   9  12
HETATM   12  N   UNL     1     -11.890  15.169  67.996  1.00  0.00    -0.475 N  
HETATM   13  H   UNL     1     -12.862  15.368  67.763  1.00  0.00     0.000 HD 
BRANCH  12  14
HETATM   14  S   UNL     1     -11.339  13.634  68.392  1.00  0.00    -0.318 S  
HETATM   15  O   UNL     1      -9.913  13.634  68.649  1.00  0.00    -0.224 OA 
HETATM   16  O   UNL     1     -11.912  12.731  67.418  1.00  0.00    -0.360 OA 
BRANCH  14  17
HETATM   17  C   UNL     1     -12.160  13.282  69.939  1.00  0.00    -0.308 A  
HETATM   18  C   UNL     1     -12.283  11.956  70.366  1.00  0.00    -0.399 A  
HETATM   19  C   UNL     1     -12.916  11.682  71.578  1.00  0.00    -0.463 A  
HETATM   20  C   UNL     1     -13.412  12.728  72.360  1.00  0.00    -0.512 A  
HETATM   21  C   UNL     1     -13.261  14.051  71.944  1.00  0.00    -0.477 A  
HETATM   22  C   UNL     1     -12.619  14.334  70.738  1.00  0.00    -0.427 A  
ENDBRANCH  14  17
ENDBRANCH  12  14
ENDBRANCH   9  12
ENDBRANCH   5   6
ENDBRANCH   4   5
ENDBRANCH   3   4
ENDBRANCH   2   3
TORSDOF 7
ENDMDL
MODEL       70
REMARK 921   NORMALIZED FREE ENERGY PREDICTED BY IDOCK:   -4.73 KCAL/MOL
REMARK 922        TOTAL FREE ENERGY PREDICTED BY IDOCK:   -7.20 KCAL/MOL
REMARK 923 INTER-LIGAND FREE ENERGY PREDICTED BY IDOCK:   -6.78 KCAL/MOL
REMARK 924 INTRA-LIGAND FREE ENERGY PREDICTED BY IDOCK:   -0.42 KCAL/MOL
REMARK 927      BINDING AFFINITY PREDICTED BY RF-SCORE:    0.00 PKD
ROOT
HETATM    1  C   UNL     1     -10.296  18.904  66.506  1.00  0.00    -0.431 C  
HETATM    2  O   UNL     1      -9.753  17.838  65.744  1.00  0.00    -0.534 OA 
ENDROOT
BRANCH   2   3
HETATM    3  C   UNL     1     -10.693  16.782  65.534  1.00  0.00    -0.196 C  
BRANCH   3   4
HETATM    4  C   UNL     1      -9.915  15.473  65.581  1.00  0.00    -0.360 C  
BRANCH   4   5
HETATM    5  O   UNL     1     -10.759  14.336  65.366  1.00  0.00    -0.306 OA 
BRANCH   5   6
HETATM    6  C   UNL     1     -10.846  13.494  66.439  1.00  0.00    -0.290 A  
HETATM    7  C   UNL     1     -11.891  12.643  66.740  1.00  0.00    -0.370 A  
HETATM    8  N   UNL     1     -11.917  11.821  67.805  1.00  0.00    -0.600 NA 
HETATM    9  C   UNL     1     -10.851  11.872  68.596  1.00  0.00    -0.235 A  
HETATM   10  C   UNL     1      -9.802  13.450  67.345  1.00  0.00    -0.227 A  
HETATM   11  N   UNL     1      -9.778  12.654  68.444  1.00  0.00    -0.214 NA 
BRANCH   9  12
HETATM   12  N   UNL     1     -10.834  10.983  69.667  1.00  0.00    -0.401 N  
HETATM   13  H   UNL     1     -11.393  11.116  70.510  1.00  0.00     0.000 HD 
BRANCH  12  14
HETATM   14  S   UNL     1      -9.810   9.673  69.446  1.00  0.00    -0.207 S  
HETATM   15  O   UNL     1      -8.479   9.951  69.946  1.00  0.00    -0.186 OA 
HETATM   16  O   UNL     1     -10.006   9.226  68.084  1.00  0.00    -0.163 OA 
BRANCH  14  17
HETATM   17  C   UNL     1     -10.518   8.408  70.491  1.00  0.00    -0.207 A  
HETATM   18  C   UNL     1     -10.686   8.659  71.856  1.00  0.00    -0.414 A  
HETATM   19  C   UNL     1     -11.248   7.676  72.669  1.00  0.00    -0.419 A  
HETATM   20  C   UNL     1     -11.647   6.456  72.119  1.00  0.00    -0.357 A  
HETATM   21  C   UNL     1     -11.504   6.221  70.751  1.00  0.00    -0.383 A  
HETATM   22  C   UNL     1     -10.954   7.204  69.928  1.00  0.00    -0.278 A  
ENDBRANCH  14  17
ENDBRANCH  12  14
ENDBRANCH   9  12
ENDBRANCH   5   6
ENDBRANCH   4   5
ENDBRANCH   3   4
ENDBRANCH   2   3
TORSDOF 7
ENDMDL
MODEL       71
REMARK 921   NORMALIZED FREE ENERGY PREDICTED BY IDOCK:   -4.72 KCAL/MOL
REMARK 922        TOTAL FREE ENERGY PREDICTED BY IDOCK:   -7.18 KCAL/MOL
REMARK 923 INTER-LIGAND FREE ENERGY PREDICTED BY IDOCK:   -6.63 KCAL/MOL
REMARK 924 INTRA-LIGAND FREE ENERGY PREDICTED BY IDOCK:   -0.54 KCAL/MOL
REMARK 927      BINDING AFFINITY PREDICTED BY RF-SCORE:    0.00 PKD
ROOT
HETATM    1  C   UNL     1     -12.277  14.557  65.870  1.00  0.00    -0.259 C  
HETATM    2  O   UNL     1     -12.817  13.743  64.841  1.00  0.00    -0.690 OA 
ENDROOT
BRANCH   2   3
HETATM    3  C   UNL     1     -11.983  13.703  63.681  1.00  0.00    -0.321 C  
BRANCH   3   4
HETATM    4  C   UNL     1     -11.500  12.267  63.524  1.00  0.00    -0.476 C  
BRANCH   4   5
HETATM    5  O   UNL     1     -10.267  12.035  64.214  1.00  0.00    -0.287 OA 
BRANCH   5   6
HETATM    6  C   UNL     1     -10.345  11.088  65.195  1.00  0.00    -0.283 A  
HETATM    7  C   UNL     1     -11.129  11.136  66.332  1.00  0.00    -0.138 A  
HETATM    8  N   UNL     1     -11.179  10.163  67.260  1.00  0.00    -0.201 NA 
HETATM    9  C   UNL     1     -10.400   9.112  67.033  1.00  0.00    -0.263 A  
HETATM   10  C   UNL     1      -9.581   9.941  65.084  1.00  0.00    -0.300 A  
HETATM   11  N   UNL     1      -9.578   8.933  65.994  1.00  0.00    -0.257 NA 
BRANCH   9  12
HETATM   12  N   UNL     1     -10.487   8.069  67.952  1.00  0.00    -0.326 N  
HETATM   13  H   UNL     1     -10.948   7.184  67.747  1.00  0.00     0.000 HD 
BRANCH  12  14
HETATM   14  S   UNL     1      -9.762   8.404  69.428  1.00  0.00    -0.180 S  
HETATM   15  O   UNL     1      -9.031   9.655  69.387  1.00  0.00    -0.156 OA 
HETATM   16  O   UNL     1      -9.110   7.183  69.850  1.00  0.00    -0.142 OA 
BRANCH  14  17
HETATM   17  C   UNL     1     -11.149   8.632  70.531  1.00  0.00    -0.242 A  
HETATM   18  C   UNL     1     -11.497   9.923  70.941  1.00  0.00    -0.456 A  
HETATM   19  C   UNL     1     -12.585  10.102  71.794  1.00  0.00    -0.500 A  
HETATM   20  C   UNL     1     -13.325   8.999  72.225  1.00  0.00    -0.523 A  
HETATM   21  C   UNL     1     -12.993   7.716  71.790  1.00  0.00    -0.360 A  
HETATM   22  C   UNL     1     -11.912   7.529  70.927  1.00  0.00    -0.278 A  
ENDBRANCH  14  17
ENDBRANCH  12  14
ENDBRANCH   9  12
ENDBRANCH   5   6
ENDBRANCH   4   5
ENDBRANCH   3   4
ENDBRANCH   2   3
TORSDOF 7
ENDMDL
MODEL       72
REMARK 921   NORMALIZED FREE ENERGY PREDICTED BY IDOCK:   -4.72 KCAL/MOL
REMARK 922        TOTAL FREE ENERGY PREDICTED BY IDOCK:   -7.18 KCAL/MOL
REMARK 923 INTER-LIGAND FREE ENERGY PREDICTED BY IDOCK:   -6.90 KCAL/MOL
REMARK 924 INTRA-LIGAND FREE ENERGY PREDICTED BY IDOCK:   -0.27 KCAL/MOL
REMARK 927      BINDING AFFINITY PREDICTED BY RF-SCORE:    0.00 PKD
ROOT
HETATM    1  C   UNL     1     -10.454   6.155  66.830  1.00  0.00    -0.276 C  
HETATM    2  O   UNL     1      -9.693   7.271  67.263  1.00  0.00    -0.142 OA 
ENDROOT
BRANCH   2   3
HETATM    3  C   UNL     1     -10.401   8.505  67.118  1.00  0.00    -0.307 C  
BRANCH   3   4
HETATM    4  C   UNL     1      -9.580   9.387  66.186  1.00  0.00    -0.247 C  
BRANCH   4   5
HETATM    5  O   UNL     1     -10.394  10.043  65.207  1.00  0.00    -0.236 OA 
BRANCH   5   6
HETATM    6  C   UNL     1     -10.593  11.373  65.447  1.00  0.00    -0.275 A  
HETATM    7  C   UNL     1     -10.146  12.429  64.677  1.00  0.00    -0.240 A  
HETATM    8  N   UNL     1     -10.386  13.724  64.952  1.00  0.00    -0.404 NA 
HETATM    9  C   UNL     1     -11.094  13.955  66.052  1.00  0.00    -0.289 A  
HETATM   10  C   UNL     1     -11.314  11.754  66.564  1.00  0.00    -0.305 A  
HETATM   11  N   UNL     1     -11.575  13.043  66.902  1.00  0.00    -0.346 NA 
BRANCH   9  12
HETATM   12  N   UNL     1     -11.404  15.286  66.318  1.00  0.00    -0.226 N  
HETATM   13  H   UNL     1     -11.947  15.869  65.681  1.00  0.00     0.000 HD 
BRANCH  12  14
HETATM   14  S   UNL     1     -10.801  15.844  67.782  1.00  0.00    -0.313 S  
HETATM   15  O   UNL     1      -9.522  15.240  68.092  1.00  0.00    -0.199 OA 
HETATM   16  O   UNL     1     -11.896  15.777  68.726  1.00  0.00    -0.387 OA 
BRANCH  14  17
HETATM   17  C   UNL     1     -10.512  17.581  67.479  1.00  0.00    -0.355 A  
HETATM   18  C   UNL     1     -10.163  18.416  68.545  1.00  0.00    -0.394 A  
HETATM   19  C   UNL     1      -9.928  19.770  68.306  1.00  0.00    -0.557 A  
HETATM   20  C   UNL     1     -10.033  20.281  67.011  1.00  0.00    -0.601 A  
HETATM   21  C   UNL     1     -10.353  19.438  65.946  1.00  0.00    -0.536 A  
HETATM   22  C   UNL     1     -10.578  18.080  66.174  1.00  0.00    -0.269 A  
ENDBRANCH  14  17
ENDBRANCH  12  14
ENDBRANCH   9  12
ENDBRANCH   5   6
ENDBRANCH   4   5
ENDBRANCH   3   4
ENDBRANCH   2   3
TORSDOF 7
ENDMDL
MODEL       73
REMARK 921   NORMALIZED FREE ENERGY PREDICTED BY IDOCK:   -4.71 KCAL/MOL
REMARK 922        TOTAL FREE ENERGY PREDICTED BY IDOCK:   -7.17 KCAL/MOL
REMARK 923 INTER-LIGAND FREE ENERGY PREDICTED BY IDOCK:   -6.73 KCAL/MOL
REMARK 924 INTRA-LIGAND FREE ENERGY PREDICTED BY IDOCK:   -0.44 KCAL/MOL
REMARK 927      BINDING AFFINITY PREDICTED BY RF-SCORE:    0.00 PKD
ROOT
HETATM    1  C   UNL     1      -9.492  10.244  63.730  1.00  0.00    -0.300 C  
HETATM    2  O   UNL     1     -10.412  11.124  64.356  1.00  0.00    -0.317 OA 
ENDROOT
BRANCH   2   3
HETATM    3  C   UNL     1     -10.857  12.162  63.480  1.00  0.00    -0.458 C  
BRANCH   3   4
HETATM    4  C   UNL     1     -11.750  13.087  64.298  1.00  0.00    -0.389 C  
BRANCH   4   5
HETATM    5  O   UNL     1     -11.349  13.149  65.671  1.00  0.00    -0.296 OA 
BRANCH   5   6
HETATM    6  C   UNL     1     -11.132  14.417  66.132  1.00  0.00    -0.330 A  
HETATM    7  C   UNL     1     -11.410  14.896  67.397  1.00  0.00    -0.347 A  
HETATM    8  N   UNL     1     -11.159  16.154  67.804  1.00  0.00    -0.297 NA 
HETATM    9  C   UNL     1     -10.619  16.955  66.892  1.00  0.00    -0.214 A  
HETATM   10  C   UNL     1     -10.575  15.355  65.282  1.00  0.00    -0.428 A  
HETATM   11  N   UNL     1     -10.313  16.641  65.630  1.00  0.00    -0.537 NA 
BRANCH   9  12
HETATM   12  N   UNL     1     -10.296  18.242  67.316  1.00  0.00    -0.373 N  
HETATM   13  H   UNL     1     -10.903  19.046  67.163  1.00  0.00     0.000 HD 
BRANCH  12  14
HETATM   14  S   UNL     1      -8.816  18.347  68.100  1.00  0.00    -0.309 S  
HETATM   15  O   UNL     1      -8.444  17.081  68.699  1.00  0.00    -0.250 OA 
HETATM   16  O   UNL     1      -8.861  19.554  68.897  1.00  0.00    -0.355 OA 
BRANCH  14  17
HETATM   17  C   UNL     1      -7.663  18.669  66.774  1.00  0.00    -0.242 A  
HETATM   18  C   UNL     1      -6.756  17.675  66.396  1.00  0.00    -0.293 A  
HETATM   19  C   UNL     1      -5.862  17.923  65.354  1.00  0.00    -0.069 A  
HETATM   20  C   UNL     1      -5.884  19.152  64.691  1.00  0.00    -0.319 A  
HETATM   21  C   UNL     1      -6.812  20.130  65.053  1.00  0.00    -0.270 A  
HETATM   22  C   UNL     1      -7.717  19.885  66.086  1.00  0.00    -0.339 A  
ENDBRANCH  14  17
ENDBRANCH  12  14
ENDBRANCH   9  12
ENDBRANCH   5   6
ENDBRANCH   4   5
ENDBRANCH   3   4
ENDBRANCH   2   3
TORSDOF 7
ENDMDL
MODEL       74
REMARK 921   NORMALIZED FREE ENERGY PREDICTED BY IDOCK:   -4.70 KCAL/MOL
REMARK 922        TOTAL FREE ENERGY PREDICTED BY IDOCK:   -7.15 KCAL/MOL
REMARK 923 INTER-LIGAND FREE ENERGY PREDICTED BY IDOCK:   -7.05 KCAL/MOL
REMARK 924 INTRA-LIGAND FREE ENERGY PREDICTED BY IDOCK:   -0.10 KCAL/MOL
REMARK 927      BINDING AFFINITY PREDICTED BY RF-SCORE:    0.00 PKD
ROOT
HETATM    1  C   UNL     1     -14.038  14.836  72.004  1.00  0.00    -0.510 C  
HETATM    2  O   UNL     1     -13.090  15.228  72.983  1.00  0.00    -0.421 OA 
ENDROOT
BRANCH   2   3
HETATM    3  C   UNL     1     -12.036  16.026  72.436  1.00  0.00    -0.535 C  
BRANCH   3   4
HETATM    4  C   UNL     1     -11.995  15.749  70.939  1.00  0.00    -0.413 C  
BRANCH   4   5
HETATM    5  O   UNL     1     -10.668  15.473  70.478  1.00  0.00    -0.320 OA 
BRANCH   5   6
HETATM    6  C   UNL     1     -10.592  15.154  69.151  1.00  0.00    -0.256 A  
HETATM    7  C   UNL     1     -11.578  15.332  68.200  1.00  0.00    -0.330 A  
HETATM    8  N   UNL     1     -11.443  15.014  66.899  1.00  0.00    -0.308 NA 
HETATM    9  C   UNL     1     -10.273  14.486  66.556  1.00  0.00    -0.279 A  
HETATM   10  C   UNL     1      -9.427  14.593  68.660  1.00  0.00    -0.211 A  
HETATM   11  N   UNL     1      -9.238  14.238  67.364  1.00  0.00    -0.192 NA 
BRANCH   9  12
HETATM   12  N   UNL     1     -10.095  14.209  65.203  1.00  0.00    -0.536 N  
HETATM   13  H   UNL     1      -9.497  14.767  64.594  1.00  0.00     0.000 HD 
BRANCH  12  14
HETATM   14  S   UNL     1     -10.955  12.871  64.666  1.00  0.00    -0.354 S  
HETATM   15  O   UNL     1     -10.475  12.418  63.376  1.00  0.00    -0.426 OA 
HETATM   16  O   UNL     1     -12.354  13.178  64.865  1.00  0.00    -0.404 OA 
BRANCH  14  17
HETATM   17  C   UNL     1     -10.548  11.607  65.861  1.00  0.00    -0.271 A  
HETATM   18  C   UNL     1     -11.399  11.391  66.949  1.00  0.00    -0.284 A  
HETATM   19  C   UNL     1     -11.087  10.398  67.877  1.00  0.00    -0.363 A  
HETATM   20  C   UNL     1      -9.938   9.622  67.711  1.00  0.00    -0.211 A  
HETATM   21  C   UNL     1      -9.108   9.821  66.608  1.00  0.00    -0.174 A  
HETATM   22  C   UNL     1      -9.419  10.805  65.668  1.00  0.00    -0.250 A  
ENDBRANCH  14  17
ENDBRANCH  12  14
ENDBRANCH   9  12
ENDBRANCH   5   6
ENDBRANCH   4   5
ENDBRANCH   3   4
ENDBRANCH   2   3
TORSDOF 7
ENDMDL
MODEL       75
REMARK 921   NORMALIZED FREE ENERGY PREDICTED BY IDOCK:   -4.68 KCAL/MOL
REMARK 922        TOTAL FREE ENERGY PREDICTED BY IDOCK:   -7.12 KCAL/MOL
REMARK 923 INTER-LIGAND FREE ENERGY PREDICTED BY IDOCK:   -6.62 KCAL/MOL
REMARK 924 INTRA-LIGAND FREE ENERGY PREDICTED BY IDOCK:   -0.50 KCAL/MOL
REMARK 927      BINDING AFFINITY PREDICTED BY RF-SCORE:    0.00 PKD
ROOT
HETATM    1  C   UNL     1     -10.485   5.599  73.624  1.00  0.00    -0.263 C  
HETATM    2  O   UNL     1     -11.129   6.714  73.029  1.00  0.00    -0.255 OA 
ENDROOT
BRANCH   2   3
HETATM    3  C   UNL     1     -12.009   6.335  71.967  1.00  0.00    -0.300 C  
BRANCH   3   4
HETATM    4  C   UNL     1     -12.884   7.542  71.657  1.00  0.00    -0.358 C  
BRANCH   4   5
HETATM    5  O   UNL     1     -12.369   8.746  72.236  1.00  0.00    -0.373 OA 
BRANCH   5   6
HETATM    6  C   UNL     1     -11.796   9.598  71.336  1.00  0.00    -0.406 A  
HETATM    7  C   UNL     1     -10.575   9.442  70.708  1.00  0.00    -0.303 A  
HETATM    8  N   UNL     1     -10.065  10.308  69.814  1.00  0.00    -0.229 NA 
HETATM    9  C   UNL     1     -10.814  11.376  69.557  1.00  0.00    -0.108 A  
HETATM   10  C   UNL     1     -12.470  10.752  70.981  1.00  0.00    -0.420 A  
HETATM   11  N   UNL     1     -12.000  11.671  70.098  1.00  0.00    -0.349 NA 
BRANCH   9  12
HETATM   12  N   UNL     1     -10.329  12.251  68.589  1.00  0.00    -0.313 N  
HETATM   13  H   UNL     1      -9.914  13.154  68.813  1.00  0.00     0.000 HD 
BRANCH  12  14
HETATM   14  S   UNL     1     -10.493  11.682  67.018  1.00  0.00    -0.233 S  
HETATM   15  O   UNL     1     -11.647  10.817  66.886  1.00  0.00    -0.255 OA 
HETATM   16  O   UNL     1      -9.181  11.227  66.610  1.00  0.00    -0.171 OA 
BRANCH  14  17
HETATM   17  C   UNL     1     -10.822  13.161  66.071  1.00  0.00    -0.272 A  
HETATM   18  C   UNL     1     -12.012  13.261  65.344  1.00  0.00    -0.432 A  
HETATM   19  C   UNL     1     -12.274  14.419  64.613  1.00  0.00    -0.479 A  
HETATM   20  C   UNL     1     -11.356  15.471  64.618  1.00  0.00    -0.363 A  
HETATM   21  C   UNL     1     -10.184  15.379  65.368  1.00  0.00    -0.408 A  
HETATM   22  C   UNL     1      -9.920  14.228  66.112  1.00  0.00    -0.330 A  
ENDBRANCH  14  17
ENDBRANCH  12  14
ENDBRANCH   9  12
ENDBRANCH   5   6
ENDBRANCH   4   5
ENDBRANCH   3   4
ENDBRANCH   2   3
TORSDOF 7
ENDMDL
MODEL       76
REMARK 921   NORMALIZED FREE ENERGY PREDICTED BY IDOCK:   -4.67 KCAL/MOL
REMARK 922        TOTAL FREE ENERGY PREDICTED BY IDOCK:   -7.12 KCAL/MOL
REMARK 923 INTER-LIGAND FREE ENERGY PREDICTED BY IDOCK:   -6.63 KCAL/MOL
REMARK 924 INTRA-LIGAND FREE ENERGY PREDICTED BY IDOCK:   -0.49 KCAL/MOL
REMARK 927      BINDING AFFINITY PREDICTED BY RF-SCORE:    0.00 PKD
ROOT
HETATM    1  C   UNL     1      -8.821   9.060  65.943  1.00  0.00    -0.175 C  
HETATM    2  O   UNL     1     -10.198   9.304  66.178  1.00  0.00    -0.273 OA 
ENDROOT
BRANCH   2   3
HETATM    3  C   UNL     1     -10.566   9.093  67.544  1.00  0.00    -0.249 C  
BRANCH   3   4
HETATM    4  C   UNL     1     -10.961  10.447  68.117  1.00  0.00    -0.281 C  
BRANCH   4   5
HETATM    5  O   UNL     1     -11.778  11.199  67.213  1.00  0.00    -0.540 OA 
BRANCH   5   6
HETATM    6  C   UNL     1     -11.208  12.362  66.780  1.00  0.00    -0.310 A  
HETATM    7  C   UNL     1     -11.677  13.192  65.780  1.00  0.00    -0.374 A  
HETATM    8  N   UNL     1     -11.082  14.339  65.404  1.00  0.00    -0.314 NA 
HETATM    9  C   UNL     1      -9.967  14.648  66.058  1.00  0.00    -0.316 A  
HETATM   10  C   UNL     1     -10.039  12.800  67.376  1.00  0.00    -0.219 A  
HETATM   11  N   UNL     1      -9.386  13.939  67.030  1.00  0.00    -0.242 NA 
BRANCH   9  12
HETATM   12  N   UNL     1      -9.373  15.862  65.724  1.00  0.00    -0.305 N  
HETATM   13  H   UNL     1      -8.560  15.934  65.113  1.00  0.00     0.000 HD 
BRANCH  12  14
HETATM   14  S   UNL     1     -10.117  17.196  66.421  1.00  0.00    -0.326 S  
HETATM   15  O   UNL     1     -10.895  16.820  67.584  1.00  0.00    -0.326 OA 
HETATM   16  O   UNL     1     -10.724  17.937  65.337  1.00  0.00    -0.634 OA 
BRANCH  14  17
HETATM   17  C   UNL     1      -8.745  18.186  66.993  1.00  0.00    -0.258 A  
HETATM   18  C   UNL     1      -8.795  18.759  68.268  1.00  0.00    -0.363 A  
HETATM   19  C   UNL     1      -7.720  19.524  68.719  1.00  0.00    -0.375 A  
HETATM   20  C   UNL     1      -6.601  19.707  67.904  1.00  0.00    -0.270 A  
HETATM   21  C   UNL     1      -6.543  19.109  66.644  1.00  0.00    -0.201 A  
HETATM   22  C   UNL     1      -7.609  18.332  66.191  1.00  0.00    -0.276 A  
ENDBRANCH  14  17
ENDBRANCH  12  14
ENDBRANCH   9  12
ENDBRANCH   5   6
ENDBRANCH   4   5
ENDBRANCH   3   4
ENDBRANCH   2   3
TORSDOF 7
ENDMDL
MODEL       77
REMARK 921   NORMALIZED FREE ENERGY PREDICTED BY IDOCK:   -4.67 KCAL/MOL
REMARK 922        TOTAL FREE ENERGY PREDICTED BY IDOCK:   -7.12 KCAL/MOL
REMARK 923 INTER-LIGAND FREE ENERGY PREDICTED BY IDOCK:   -6.70 KCAL/MOL
REMARK 924 INTRA-LIGAND FREE ENERGY PREDICTED BY IDOCK:   -0.41 KCAL/MOL
REMARK 927      BINDING AFFINITY PREDICTED BY RF-SCORE:    0.00 PKD
ROOT
HETATM    1  C   UNL     1      -9.966  18.013  66.932  1.00  0.00    -0.340 C  
HETATM    2  O   UNL     1     -10.257  18.239  68.302  1.00  0.00    -0.359 OA 
ENDROOT
BRANCH   2   3
HETATM    3  C   UNL     1     -10.177  17.044  69.083  1.00  0.00    -0.288 C  
BRANCH   3   4
HETATM    4  C   UNL     1     -11.099  16.021  68.432  1.00  0.00    -0.351 C  
BRANCH   4   5
HETATM    5  O   UNL     1     -11.999  15.429  69.376  1.00  0.00    -0.333 OA 
BRANCH   5   6
HETATM    6  C   UNL     1     -12.016  14.063  69.349  1.00  0.00    -0.343 A  
HETATM    7  C   UNL     1     -11.848  13.254  68.242  1.00  0.00    -0.354 A  
HETATM    8  N   UNL     1     -11.859  11.909  68.277  1.00  0.00    -0.456 NA 
HETATM    9  C   UNL     1     -12.058  11.367  69.473  1.00  0.00    -0.302 A  
HETATM   10  C   UNL     1     -12.218  13.371  70.529  1.00  0.00    -0.352 A  
HETATM   11  N   UNL     1     -12.254  12.017  70.624  1.00  0.00    -0.371 NA 
BRANCH   9  12
HETATM   12  N   UNL     1     -12.010   9.977  69.536  1.00  0.00    -0.474 N  
HETATM   13  H   UNL     1     -12.725   9.376  69.128  1.00  0.00     0.000 HD 
BRANCH  12  14
HETATM   14  S   UNL     1     -10.667   9.381  70.347  1.00  0.00    -0.287 S  
HETATM   15  O   UNL     1     -10.912   9.276  71.771  1.00  0.00    -0.369 OA 
HETATM   16  O   UNL     1      -9.527  10.119  69.848  1.00  0.00    -0.204 OA 
BRANCH  14  17
HETATM   17  C   UNL     1     -10.499   7.720  69.711  1.00  0.00    -0.233 A  
HETATM   18  C   UNL     1     -10.444   6.644  70.603  1.00  0.00    -0.253 A  
HETATM   19  C   UNL     1     -10.323   5.347  70.106  1.00  0.00    -0.361 A  
HETATM   20  C   UNL     1     -10.267   5.128  68.728  1.00  0.00    -0.202 A  
HETATM   21  C   UNL     1     -10.353   6.201  67.841  1.00  0.00    -0.250 A  
HETATM   22  C   UNL     1     -10.486   7.502  68.330  1.00  0.00    -0.223 A  
ENDBRANCH  14  17
ENDBRANCH  12  14
ENDBRANCH   9  12
ENDBRANCH   5   6
ENDBRANCH   4   5
ENDBRANCH   3   4
ENDBRANCH   2   3
TORSDOF 7
ENDMDL
MODEL       78
REMARK 921   NORMALIZED FREE ENERGY PREDICTED BY IDOCK:   -4.66 KCAL/MOL
REMARK 922        TOTAL FREE ENERGY PREDICTED BY IDOCK:   -7.11 KCAL/MOL
REMARK 923 INTER-LIGAND FREE ENERGY PREDICTED BY IDOCK:   -6.65 KCAL/MOL
REMARK 924 INTRA-LIGAND FREE ENERGY PREDICTED BY IDOCK:   -0.46 KCAL/MOL
REMARK 927      BINDING AFFINITY PREDICTED BY RF-SCORE:    0.00 PKD
ROOT
HETATM    1  C   UNL     1     -10.310   6.978  73.710  1.00  0.00    -0.369 C  
HETATM    2  O   UNL     1     -11.524   7.309  73.055  1.00  0.00    -0.244 OA 
ENDROOT
BRANCH   2   3
HETATM    3  C   UNL     1     -11.882   6.354  72.052  1.00  0.00    -0.333 C  
BRANCH   3   4
HETATM    4  C   UNL     1     -10.588   5.868  71.412  1.00  0.00    -0.252 C  
BRANCH   4   5
HETATM    5  O   UNL     1     -10.755   5.560  70.024  1.00  0.00    -0.313 OA 
BRANCH   5   6
HETATM    6  C   UNL     1     -10.516   6.612  69.186  1.00  0.00    -0.219 A  
HETATM    7  C   UNL     1     -10.966   6.755  67.887  1.00  0.00    -0.227 A  
HETATM    8  N   UNL     1     -10.713   7.824  67.110  1.00  0.00    -0.321 NA 
HETATM    9  C   UNL     1      -9.969   8.774  67.665  1.00  0.00    -0.193 A  
HETATM   10  C   UNL     1      -9.750   7.671  69.638  1.00  0.00    -0.171 A  
HETATM   11  N   UNL     1      -9.449   8.768  68.896  1.00  0.00    -0.145 NA 
BRANCH   9  12
HETATM   12  N   UNL     1      -9.750   9.914  66.896  1.00  0.00    -0.178 N  
HETATM   13  H   UNL     1      -9.118   9.933  66.096  1.00  0.00     0.000 HD 
BRANCH  12  14
HETATM   14  S   UNL     1     -10.623  11.254  67.405  1.00  0.00    -0.239 S  
HETATM   15  O   UNL     1      -9.779  12.198  68.110  1.00  0.00    -0.197 OA 
HETATM   16  O   UNL     1     -11.831  10.746  68.018  1.00  0.00    -0.546 OA 
BRANCH  14  17
HETATM   17  C   UNL     1     -11.129  12.027  65.876  1.00  0.00    -0.324 A  
HETATM   18  C   UNL     1     -10.707  11.485  64.659  1.00  0.00    -0.379 A  
HETATM   19  C   UNL     1     -11.110  12.083  63.465  1.00  0.00    -0.519 A  
HETATM   20  C   UNL     1     -11.936  13.209  63.491  1.00  0.00    -0.580 A  
HETATM   21  C   UNL     1     -12.378  13.729  64.707  1.00  0.00    -0.420 A  
HETATM   22  C   UNL     1     -11.989  13.129  65.906  1.00  0.00    -0.479 A  
ENDBRANCH  14  17
ENDBRANCH  12  14
ENDBRANCH   9  12
ENDBRANCH   5   6
ENDBRANCH   4   5
ENDBRANCH   3   4
ENDBRANCH   2   3
TORSDOF 7
ENDMDL
MODEL       79
REMARK 921   NORMALIZED FREE ENERGY PREDICTED BY IDOCK:   -4.64 KCAL/MOL
REMARK 922        TOTAL FREE ENERGY PREDICTED BY IDOCK:   -7.07 KCAL/MOL
REMARK 923 INTER-LIGAND FREE ENERGY PREDICTED BY IDOCK:   -6.64 KCAL/MOL
REMARK 924 INTRA-LIGAND FREE ENERGY PREDICTED BY IDOCK:   -0.43 KCAL/MOL
REMARK 927      BINDING AFFINITY PREDICTED BY RF-SCORE:    0.00 PKD
ROOT
HETATM    1  C   UNL     1     -10.152  20.016  65.893  1.00  0.00    -0.393 C  
HETATM    2  O   UNL     1     -10.262  20.582  67.189  1.00  0.00    -0.380 OA 
ENDROOT
BRANCH   2   3
HETATM    3  C   UNL     1      -9.640  19.776  68.192  1.00  0.00    -0.380 C  
BRANCH   3   4
HETATM    4  C   UNL     1      -9.719  18.330  67.720  1.00  0.00    -0.297 C  
BRANCH   4   5
HETATM    5  O   UNL     1     -10.916  17.683  68.162  1.00  0.00    -0.289 OA 
BRANCH   5   6
HETATM    6  C   UNL     1     -10.782  16.339  68.366  1.00  0.00    -0.311 A  
HETATM    7  C   UNL     1     -11.546  15.548  69.202  1.00  0.00    -0.362 A  
HETATM    8  N   UNL     1     -11.380  14.221  69.352  1.00  0.00    -0.271 NA 
HETATM    9  C   UNL     1     -10.398  13.681  68.639  1.00  0.00    -0.219 A  
HETATM   10  C   UNL     1      -9.794  15.651  67.686  1.00  0.00    -0.227 A  
HETATM   11  N   UNL     1      -9.568  14.318  67.807  1.00  0.00    -0.216 NA 
BRANCH   9  12
HETATM   12  N   UNL     1     -10.253  12.300  68.736  1.00  0.00    -0.390 N  
HETATM   13  H   UNL     1      -9.501  11.855  69.262  1.00  0.00     0.000 HD 
BRANCH  12  14
HETATM   14  S   UNL     1     -11.428  11.434  67.907  1.00  0.00    -0.274 S  
HETATM   15  O   UNL     1     -11.964  12.198  66.798  1.00  0.00    -0.606 OA 
HETATM   16  O   UNL     1     -12.308  10.876  68.910  1.00  0.00    -0.486 OA 
BRANCH  14  17
HETATM   17  C   UNL     1     -10.522  10.057  67.218  1.00  0.00    -0.254 A  
HETATM   18  C   UNL     1      -9.758  10.245  66.062  1.00  0.00    -0.274 A  
HETATM   19  C   UNL     1      -9.043   9.173  65.530  1.00  0.00    -0.275 A  
HETATM   20  C   UNL     1      -9.086   7.925  66.155  1.00  0.00    -0.210 A  
HETATM   21  C   UNL     1      -9.826   7.748  67.325  1.00  0.00    -0.249 A  
HETATM   22  C   UNL     1     -10.535   8.820  67.870  1.00  0.00    -0.275 A  
ENDBRANCH  14  17
ENDBRANCH  12  14
ENDBRANCH   9  12
ENDBRANCH   5   6
ENDBRANCH   4   5
ENDBRANCH   3   4
ENDBRANCH   2   3
TORSDOF 7
ENDMDL
MODEL       80
REMARK 921   NORMALIZED FREE ENERGY PREDICTED BY IDOCK:   -4.63 KCAL/MOL
REMARK 922        TOTAL FREE ENERGY PREDICTED BY IDOCK:   -7.06 KCAL/MOL
REMARK 923 INTER-LIGAND FREE ENERGY PREDICTED BY IDOCK:   -6.65 KCAL/MOL
REMARK 924 INTRA-LIGAND FREE ENERGY PREDICTED BY IDOCK:   -0.41 KCAL/MOL
REMARK 927      BINDING AFFINITY PREDICTED BY RF-SCORE:    0.00 PKD
ROOT
HETATM    1  C   UNL     1     -13.861  13.265  72.132  1.00  0.00    -0.461 C  
HETATM    2  O   UNL     1     -12.687  13.550  71.389  1.00  0.00    -0.345 OA 
ENDROOT
BRANCH   2   3
HETATM    3  C   UNL     1     -12.203  12.410  70.673  1.00  0.00    -0.278 C  
BRANCH   3   4
HETATM    4  C   UNL     1     -11.536  12.926  69.405  1.00  0.00    -0.302 C  
BRANCH   4   5
HETATM    5  O   UNL     1     -12.330  13.918  68.743  1.00  0.00    -0.288 OA 
BRANCH   5   6
HETATM    6  C   UNL     1     -11.624  15.010  68.325  1.00  0.00    -0.334 A  
HETATM    7  C   UNL     1     -11.249  16.097  69.091  1.00  0.00    -0.336 A  
HETATM    8  N   UNL     1     -10.537  17.142  68.630  1.00  0.00    -0.359 NA 
HETATM    9  C   UNL     1     -10.205  17.087  67.345  1.00  0.00    -0.314 A  
HETATM   10  C   UNL     1     -11.217  15.082  67.006  1.00  0.00    -0.328 A  
HETATM   11  N   UNL     1     -10.511  16.116  66.479  1.00  0.00    -0.303 NA 
BRANCH   9  12
HETATM   12  N   UNL     1      -9.416  18.129  66.867  1.00  0.00    -0.277 N  
HETATM   13  H   UNL     1      -9.792  19.045  66.622  1.00  0.00     0.000 HD 
BRANCH  12  14
HETATM   14  S   UNL     1      -7.789  17.741  66.729  1.00  0.00    -0.248 S  
HETATM   15  O   UNL     1      -7.298  17.989  65.388  1.00  0.00    -0.495 OA 
HETATM   16  O   UNL     1      -7.626  16.442  67.344  1.00  0.00    -0.138 OA 
BRANCH  14  17
HETATM   17  C   UNL     1      -6.988  18.910  67.816  1.00  0.00    -0.219 A  
HETATM   18  C   UNL     1      -6.773  18.568  69.155  1.00  0.00    -0.280 A  
HETATM   19  C   UNL     1      -6.139  19.477  70.001  1.00  0.00    -0.315 A  
HETATM   20  C   UNL     1      -5.715  20.713  69.509  1.00  0.00    -0.399 A  
HETATM   21  C   UNL     1      -5.906  21.038  68.166  1.00  0.00    -0.394 A  
HETATM   22  C   UNL     1      -6.529  20.130  67.309  1.00  0.00    -0.239 A  
ENDBRANCH  14  17
ENDBRANCH  12  14
ENDBRANCH   9  12
ENDBRANCH   5   6
ENDBRANCH   4   5
ENDBRANCH   3   4
ENDBRANCH   2   3
TORSDOF 7
ENDMDL
MODEL       81
REMARK 921   NORMALIZED FREE ENERGY PREDICTED BY IDOCK:   -4.63 KCAL/MOL
REMARK 922        TOTAL FREE ENERGY PREDICTED BY IDOCK:   -7.05 KCAL/MOL
REMARK 923 INTER-LIGAND FREE ENERGY PREDICTED BY IDOCK:   -6.59 KCAL/MOL
REMARK 924 INTRA-LIGAND FREE ENERGY PREDICTED BY IDOCK:   -0.46 KCAL/MOL
REMARK 927      BINDING AFFINITY PREDICTED BY RF-SCORE:    0.00 PKD
ROOT
HETATM    1  C   UNL     1      -9.418  10.572  64.941  1.00  0.00    -0.252 C  
HETATM    2  O   UNL     1      -9.929  10.801  63.638  1.00  0.00    -0.312 OA 
ENDROOT
BRANCH   2   3
HETATM    3  C   UNL     1     -10.992  11.757  63.627  1.00  0.00    -0.439 C  
BRANCH   3   4
HETATM    4  C   UNL     1     -11.476  11.907  65.064  1.00  0.00    -0.244 C  
BRANCH   4   5
HETATM    5  O   UNL     1     -12.313  13.056  65.235  1.00  0.00    -0.438 OA 
BRANCH   5   6
HETATM    6  C   UNL     1     -11.632  14.206  65.518  1.00  0.00    -0.337 A  
HETATM    7  C   UNL     1     -11.308  15.215  64.632  1.00  0.00    -0.356 A  
HETATM    8  N   UNL     1     -10.648  16.338  64.970  1.00  0.00    -0.659 NA 
HETATM    9  C   UNL     1     -10.295  16.434  66.247  1.00  0.00    -0.329 A  
HETATM   10  C   UNL     1     -11.204  14.431  66.813  1.00  0.00    -0.337 A  
HETATM   11  N   UNL     1     -10.522  15.536  67.211  1.00  0.00    -0.273 NA 
BRANCH   9  12
HETATM   12  N   UNL     1      -9.666  17.617  66.626  1.00  0.00    -0.288 N  
HETATM   13  H   UNL     1     -10.120  18.529  66.577  1.00  0.00     0.000 HD 
BRANCH  12  14
HETATM   14  S   UNL     1      -8.094  17.405  67.172  1.00  0.00    -0.217 S  
HETATM   15  O   UNL     1      -7.433  16.320  66.475  1.00  0.00    -0.231 OA 
HETATM   16  O   UNL     1      -8.157  17.421  68.618  1.00  0.00    -0.262 OA 
BRANCH  14  17
HETATM   17  C   UNL     1      -7.278  18.921  66.694  1.00  0.00    -0.216 A  
HETATM   18  C   UNL     1      -6.444  18.928  65.572  1.00  0.00    -0.312 A  
HETATM   19  C   UNL     1      -5.815  20.114  65.193  1.00  0.00    -0.235 A  
HETATM   20  C   UNL     1      -6.027  21.283  65.926  1.00  0.00    -0.245 A  
HETATM   21  C   UNL     1      -6.883  21.278  67.028  1.00  0.00    -0.282 A  
HETATM   22  C   UNL     1      -7.526  20.098  67.406  1.00  0.00    -0.326 A  
ENDBRANCH  14  17
ENDBRANCH  12  14
ENDBRANCH   9  12
ENDBRANCH   5   6
ENDBRANCH   4   5
ENDBRANCH   3   4
ENDBRANCH   2   3
TORSDOF 7
ENDMDL
MODEL       82
REMARK 921   NORMALIZED FREE ENERGY PREDICTED BY IDOCK:   -4.63 KCAL/MOL
REMARK 922        TOTAL FREE ENERGY PREDICTED BY IDOCK:   -7.05 KCAL/MOL
REMARK 923 INTER-LIGAND FREE ENERGY PREDICTED BY IDOCK:   -6.63 KCAL/MOL
REMARK 924 INTRA-LIGAND FREE ENERGY PREDICTED BY IDOCK:   -0.42 KCAL/MOL
REMARK 927      BINDING AFFINITY PREDICTED BY RF-SCORE:    0.00 PKD
ROOT
HETATM    1  C   UNL     1     -11.103  16.843  64.835  1.00  0.00     0.036 C  
HETATM    2  O   UNL     1     -11.852  16.146  63.853  1.00  0.00    -0.921 OA 
ENDROOT
BRANCH   2   3
HETATM    3  C   UNL     1     -12.086  14.781  64.210  1.00  0.00    -0.394 C  
BRANCH   3   4
HETATM    4  C   UNL     1     -10.904  14.331  65.059  1.00  0.00    -0.403 C  
BRANCH   4   5
HETATM    5  O   UNL     1     -10.509  12.986  64.764  1.00  0.00    -0.328 OA 
BRANCH   5   6
HETATM    6  C   UNL     1     -10.726  12.104  65.784  1.00  0.00    -0.267 A  
HETATM    7  C   UNL     1     -11.630  12.242  66.820  1.00  0.00    -0.369 A  
HETATM    8  N   UNL     1     -11.814  11.331  67.793  1.00  0.00    -0.638 NA 
HETATM    9  C   UNL     1     -11.047  10.248  67.718  1.00  0.00    -0.269 A  
HETATM   10  C   UNL     1      -9.991  10.934  65.828  1.00  0.00    -0.247 A  
HETATM   11  N   UNL     1     -10.122   9.985  66.791  1.00  0.00    -0.215 NA 
BRANCH   9  12
HETATM   12  N   UNL     1     -11.269   9.268  68.681  1.00  0.00    -0.450 N  
HETATM   13  H   UNL     1     -11.730   8.381  68.477  1.00  0.00     0.000 HD 
BRANCH  12  14
HETATM   14  S   UNL     1     -10.709   9.678  70.209  1.00  0.00    -0.303 S  
HETATM   15  O   UNL     1     -11.691  10.451  70.942  1.00  0.00    -0.335 OA 
HETATM   16  O   UNL     1      -9.363  10.177  70.030  1.00  0.00    -0.175 OA 
BRANCH  14  17
HETATM   17  C   UNL     1     -10.548   8.100  71.032  1.00  0.00    -0.210 A  
HETATM   18  C   UNL     1     -11.606   7.187  70.980  1.00  0.00    -0.345 A  
HETATM   19  C   UNL     1     -11.477   5.952  71.614  1.00  0.00    -0.238 A  
HETATM   20  C   UNL     1     -10.296   5.631  72.286  1.00  0.00    -0.250 A  
HETATM   21  C   UNL     1      -9.232   6.533  72.310  1.00  0.00    -0.138 A  
HETATM   22  C   UNL     1      -9.349   7.767  71.668  1.00  0.00    -0.174 A  
ENDBRANCH  14  17
ENDBRANCH  12  14
ENDBRANCH   9  12
ENDBRANCH   5   6
ENDBRANCH   4   5
ENDBRANCH   3   4
ENDBRANCH   2   3
TORSDOF 7
ENDMDL
MODEL       83
REMARK 921   NORMALIZED FREE ENERGY PREDICTED BY IDOCK:   -4.61 KCAL/MOL
REMARK 922        TOTAL FREE ENERGY PREDICTED BY IDOCK:   -7.03 KCAL/MOL
REMARK 923 INTER-LIGAND FREE ENERGY PREDICTED BY IDOCK:   -6.68 KCAL/MOL
REMARK 924 INTRA-LIGAND FREE ENERGY PREDICTED BY IDOCK:   -0.35 KCAL/MOL
REMARK 927      BINDING AFFINITY PREDICTED BY RF-SCORE:    0.00 PKD
ROOT
HETATM    1  C   UNL     1     -12.654  13.937  65.577  1.00  0.00    -0.526 C  
HETATM    2  O   UNL     1     -12.206  13.306  66.766  1.00  0.00    -0.363 OA 
ENDROOT
BRANCH   2   3
HETATM    3  C   UNL     1     -11.459  14.191  67.606  1.00  0.00    -0.338 C  
BRANCH   3   4
HETATM    4  C   UNL     1     -11.110  13.420  68.872  1.00  0.00    -0.266 C  
BRANCH   4   5
HETATM    5  O   UNL     1     -12.230  12.692  69.387  1.00  0.00    -0.200 OA 
BRANCH   5   6
HETATM    6  C   UNL     1     -11.901  11.506  69.981  1.00  0.00    -0.355 A  
HETATM    7  C   UNL     1     -10.892  10.643  69.603  1.00  0.00    -0.268 A  
HETATM    8  N   UNL     1     -10.600   9.492  70.237  1.00  0.00    -0.244 NA 
HETATM    9  C   UNL     1     -11.367   9.203  71.283  1.00  0.00    -0.336 A  
HETATM   10  C   UNL     1     -12.623  11.084  71.082  1.00  0.00    -0.418 A  
HETATM   11  N   UNL     1     -12.386   9.927  71.753  1.00  0.00    -0.390 NA 
BRANCH   9  12
HETATM   12  N   UNL     1     -11.039   8.048  71.987  1.00  0.00    -0.273 N  
HETATM   13  H   UNL     1     -10.293   8.012  72.681  1.00  0.00     0.000 HD 
BRANCH  12  14
HETATM   14  S   UNL     1     -11.983   6.719  71.588  1.00  0.00    -0.360 S  
HETATM   15  O   UNL     1     -13.280   7.124  71.084  1.00  0.00    -0.347 OA 
HETATM   16  O   UNL     1     -11.880   5.796  72.697  1.00  0.00    -0.278 OA 
BRANCH  14  17
HETATM   17  C   UNL     1     -11.094   5.968  70.232  1.00  0.00    -0.345 A  
HETATM   18  C   UNL     1     -11.350   6.391  68.924  1.00  0.00    -0.292 A  
HETATM   19  C   UNL     1     -10.649   5.812  67.867  1.00  0.00    -0.304 A  
HETATM   20  C   UNL     1      -9.695   4.824  68.118  1.00  0.00    -0.201 A  
HETATM   21  C   UNL     1      -9.422   4.426  69.427  1.00  0.00    -0.251 A  
HETATM   22  C   UNL     1     -10.111   5.009  70.492  1.00  0.00    -0.323 A  
ENDBRANCH  14  17
ENDBRANCH  12  14
ENDBRANCH   9  12
ENDBRANCH   5   6
ENDBRANCH   4   5
ENDBRANCH   3   4
ENDBRANCH   2   3
TORSDOF 7
ENDMDL
MODEL       84
REMARK 921   NORMALIZED FREE ENERGY PREDICTED BY IDOCK:   -4.60 KCAL/MOL
REMARK 922        TOTAL FREE ENERGY PREDICTED BY IDOCK:   -7.02 KCAL/MOL
REMARK 923 INTER-LIGAND FREE ENERGY PREDICTED BY IDOCK:   -6.63 KCAL/MOL
REMARK 924 INTRA-LIGAND FREE ENERGY PREDICTED BY IDOCK:   -0.39 KCAL/MOL
REMARK 927      BINDING AFFINITY PREDICTED BY RF-SCORE:    0.00 PKD
ROOT
HETATM    1  C   UNL     1     -10.746   4.613  74.150  1.00  0.00    -0.270 C  
HETATM    2  O   UNL     1     -10.009   5.763  74.535  1.00  0.00    -0.217 OA 
ENDROOT
BRANCH   2   3
HETATM    3  C   UNL     1      -9.176   6.256  73.483  1.00  0.00    -0.131 C  
BRANCH   3   4
HETATM    4  C   UNL     1      -9.467   7.745  73.341  1.00  0.00    -0.287 C  
BRANCH   4   5
HETATM    5  O   UNL     1     -10.848   8.001  73.066  1.00  0.00    -0.368 OA 
BRANCH   5   6
HETATM    6  C   UNL     1     -11.071   8.658  71.889  1.00  0.00    -0.346 A  
HETATM    7  C   UNL     1     -10.384   8.488  70.703  1.00  0.00    -0.199 A  
HETATM    8  N   UNL     1     -10.658   9.153  69.566  1.00  0.00    -0.222 NA 
HETATM    9  C   UNL     1     -11.655  10.028  69.638  1.00  0.00    -0.096 A  
HETATM   10  C   UNL     1     -12.081   9.600  71.827  1.00  0.00    -0.369 A  
HETATM   11  N   UNL     1     -12.394  10.312  70.714  1.00  0.00    -0.326 NA 
BRANCH   9  12
HETATM   12  N   UNL     1     -11.991  10.679  68.454  1.00  0.00    -0.398 N  
HETATM   13  H   UNL     1     -12.659  10.302  67.782  1.00  0.00     0.000 HD 
BRANCH  12  14
HETATM   14  S   UNL     1     -11.197  12.141  68.235  1.00  0.00    -0.293 S  
HETATM   15  O   UNL     1      -9.764  11.993  68.392  1.00  0.00    -0.208 OA 
HETATM   16  O   UNL     1     -11.926  13.122  69.008  1.00  0.00    -0.311 OA 
BRANCH  14  17
HETATM   17  C   UNL     1     -11.508  12.531  66.519  1.00  0.00    -0.362 A  
HETATM   18  C   UNL     1     -12.298  13.639  66.198  1.00  0.00    -0.476 A  
HETATM   19  C   UNL     1     -12.533  13.948  64.859  1.00  0.00    -0.420 A  
HETATM   20  C   UNL     1     -11.974  13.161  63.850  1.00  0.00    -0.550 A  
HETATM   21  C   UNL     1     -11.162  12.074  64.175  1.00  0.00    -0.441 A  
HETATM   22  C   UNL     1     -10.912  11.764  65.512  1.00  0.00    -0.344 A  
ENDBRANCH  14  17
ENDBRANCH  12  14
ENDBRANCH   9  12
ENDBRANCH   5   6
ENDBRANCH   4   5
ENDBRANCH   3   4
ENDBRANCH   2   3
TORSDOF 7
ENDMDL
MODEL       85
REMARK 921   NORMALIZED FREE ENERGY PREDICTED BY IDOCK:   -4.59 KCAL/MOL
REMARK 922        TOTAL FREE ENERGY PREDICTED BY IDOCK:   -7.01 KCAL/MOL
REMARK 923 INTER-LIGAND FREE ENERGY PREDICTED BY IDOCK:   -6.59 KCAL/MOL
REMARK 924 INTRA-LIGAND FREE ENERGY PREDICTED BY IDOCK:   -0.42 KCAL/MOL
REMARK 927      BINDING AFFINITY PREDICTED BY RF-SCORE:    0.00 PKD
ROOT
HETATM    1  C   UNL     1      -8.374   5.560  73.807  1.00  0.00    -0.111 C  
HETATM    2  O   UNL     1      -9.427   6.477  74.055  1.00  0.00    -0.163 OA 
ENDROOT
BRANCH   2   3
HETATM    3  C   UNL     1     -10.705   5.957  73.679  1.00  0.00    -0.235 C  
BRANCH   3   4
HETATM    4  C   UNL     1     -11.183   6.764  72.479  1.00  0.00    -0.268 C  
BRANCH   4   5
HETATM    5  O   UNL     1     -11.437   8.133  72.816  1.00  0.00    -0.408 OA 
BRANCH   5   6
HETATM    6  C   UNL     1     -11.340   8.995  71.761  1.00  0.00    -0.377 A  
HETATM    7  C   UNL     1     -12.350   9.775  71.234  1.00  0.00    -0.371 A  
HETATM    8  N   UNL     1     -12.194  10.622  70.200  1.00  0.00    -0.316 NA 
HETATM    9  C   UNL     1     -10.975  10.670  69.677  1.00  0.00    -0.278 A  
HETATM   10  C   UNL     1     -10.123   9.139  71.121  1.00  0.00    -0.314 A  
HETATM   11  N   UNL     1      -9.908   9.965  70.064  1.00  0.00    -0.251 NA 
BRANCH   9  12
HETATM   12  N   UNL     1     -10.781  11.587  68.647  1.00  0.00    -0.199 N  
HETATM   13  H   UNL     1     -10.938  12.588  68.756  1.00  0.00     0.000 HD 
BRANCH  12  14
HETATM   14  S   UNL     1     -10.266  10.893  67.208  1.00  0.00    -0.215 S  
HETATM   15  O   UNL     1     -10.783   9.548  67.054  1.00  0.00    -0.231 OA 
HETATM   16  O   UNL     1      -8.845  11.150  67.116  1.00  0.00    -0.139 OA 
BRANCH  14  17
HETATM   17  C   UNL     1     -11.036  11.908  65.956  1.00  0.00    -0.309 A  
HETATM   18  C   UNL     1     -10.777  11.649  64.606  1.00  0.00    -0.371 A  
HETATM   19  C   UNL     1     -11.386  12.436  63.629  1.00  0.00    -0.556 A  
HETATM   20  C   UNL     1     -12.253  13.466  63.999  1.00  0.00    -0.466 A  
HETATM   21  C   UNL     1     -12.531  13.701  65.346  1.00  0.00    -0.537 A  
HETATM   22  C   UNL     1     -11.935  12.911  66.330  1.00  0.00    -0.472 A  
ENDBRANCH  14  17
ENDBRANCH  12  14
ENDBRANCH   9  12
ENDBRANCH   5   6
ENDBRANCH   4   5
ENDBRANCH   3   4
ENDBRANCH   2   3
TORSDOF 7
ENDMDL
MODEL       86
REMARK 921   NORMALIZED FREE ENERGY PREDICTED BY IDOCK:   -4.59 KCAL/MOL
REMARK 922        TOTAL FREE ENERGY PREDICTED BY IDOCK:   -7.00 KCAL/MOL
REMARK 923 INTER-LIGAND FREE ENERGY PREDICTED BY IDOCK:   -6.63 KCAL/MOL
REMARK 924 INTRA-LIGAND FREE ENERGY PREDICTED BY IDOCK:   -0.37 KCAL/MOL
REMARK 927      BINDING AFFINITY PREDICTED BY RF-SCORE:    0.00 PKD
ROOT
HETATM    1  C   UNL     1     -11.224  16.582  64.971  1.00  0.00    -0.087 C  
HETATM    2  O   UNL     1     -10.190  17.482  65.334  1.00  0.00    -0.593 OA 
ENDROOT
BRANCH   2   3
HETATM    3  C   UNL     1     -10.625  18.463  66.280  1.00  0.00    -0.311 C  
BRANCH   3   4
HETATM    4  C   UNL     1     -10.577  17.811  67.656  1.00  0.00    -0.379 C  
BRANCH   4   5
HETATM    5  O   UNL     1      -9.306  17.211  67.924  1.00  0.00    -0.241 OA 
BRANCH   5   6
HETATM    6  C   UNL     1      -9.321  15.845  67.921  1.00  0.00    -0.207 A  
HETATM    7  C   UNL     1      -8.445  15.008  67.257  1.00  0.00    -0.198 A  
HETATM    8  N   UNL     1      -8.497  13.665  67.302  1.00  0.00    -0.197 NA 
HETATM    9  C   UNL     1      -9.478  13.153  68.037  1.00  0.00    -0.220 A  
HETATM   10  C   UNL     1     -10.294  15.182  68.646  1.00  0.00    -0.232 A  
HETATM   11  N   UNL     1     -10.407  13.831  68.718  1.00  0.00    -0.224 NA 
BRANCH   9  12
HETATM   12  N   UNL     1      -9.509  11.765  68.145  1.00  0.00    -0.188 N  
HETATM   13  H   UNL     1      -8.736  11.219  68.524  1.00  0.00     0.000 HD 
BRANCH  12  14
HETATM   14  S   UNL     1     -10.934  11.073  67.592  1.00  0.00    -0.294 S  
HETATM   15  O   UNL     1     -12.089  11.626  68.270  1.00  0.00    -0.552 OA 
HETATM   16  O   UNL     1     -10.711   9.643  67.566  1.00  0.00    -0.274 OA 
BRANCH  14  17
HETATM   17  C   UNL     1     -11.017  11.594  65.885  1.00  0.00    -0.280 A  
HETATM   18  C   UNL     1     -10.153  11.019  64.949  1.00  0.00    -0.359 A  
HETATM   19  C   UNL     1     -10.223  11.419  63.615  1.00  0.00    -0.448 A  
HETATM   20  C   UNL     1     -11.158  12.380  63.221  1.00  0.00    -0.347 A  
HETATM   21  C   UNL     1     -12.038  12.929  64.154  1.00  0.00    -0.503 A  
HETATM   22  C   UNL     1     -11.981  12.525  65.489  1.00  0.00    -0.500 A  
ENDBRANCH  14  17
ENDBRANCH  12  14
ENDBRANCH   9  12
ENDBRANCH   5   6
ENDBRANCH   4   5
ENDBRANCH   3   4
ENDBRANCH   2   3
TORSDOF 7
ENDMDL
MODEL       87
REMARK 921   NORMALIZED FREE ENERGY PREDICTED BY IDOCK:   -4.58 KCAL/MOL
REMARK 922        TOTAL FREE ENERGY PREDICTED BY IDOCK:   -6.99 KCAL/MOL
REMARK 923 INTER-LIGAND FREE ENERGY PREDICTED BY IDOCK:   -6.62 KCAL/MOL
REMARK 924 INTRA-LIGAND FREE ENERGY PREDICTED BY IDOCK:   -0.38 KCAL/MOL
REMARK 927      BINDING AFFINITY PREDICTED BY RF-SCORE:    0.00 PKD
ROOT
HETATM    1  C   UNL     1     -10.967  16.718  64.962  1.00  0.00    -0.108 C  
HETATM    2  O   UNL     1     -11.790  16.269  63.897  1.00  0.00    -0.994 OA 
ENDROOT
BRANCH   2   3
HETATM    3  C   UNL     1     -12.298  14.951  64.118  1.00  0.00    -0.185 C  
BRANCH   3   4
HETATM    4  C   UNL     1     -11.619  14.412  65.370  1.00  0.00    -0.347 C  
BRANCH   4   5
HETATM    5  O   UNL     1     -10.958  13.164  65.130  1.00  0.00    -0.287 OA 
BRANCH   5   6
HETATM    6  C   UNL     1     -10.620  12.484  66.265  1.00  0.00    -0.248 A  
HETATM    7  C   UNL     1      -9.351  12.100  66.653  1.00  0.00    -0.226 A  
HETATM    8  N   UNL     1      -9.073  11.443  67.794  1.00  0.00    -0.154 NA 
HETATM    9  C   UNL     1     -10.119  11.157  68.561  1.00  0.00    -0.201 A  
HETATM   10  C   UNL     1     -11.617  12.121  67.152  1.00  0.00    -0.335 A  
HETATM   11  N   UNL     1     -11.400  11.445  68.310  1.00  0.00    -0.258 NA 
BRANCH   9  12
HETATM   12  N   UNL     1      -9.842  10.533  69.775  1.00  0.00    -0.431 N  
HETATM   13  H   UNL     1      -9.536  11.040  70.605  1.00  0.00     0.000 HD 
BRANCH  12  14
HETATM   14  S   UNL     1     -10.057   8.868  69.746  1.00  0.00    -0.207 S  
HETATM   15  O   UNL     1      -8.985   8.185  70.441  1.00  0.00    -0.142 OA 
HETATM   16  O   UNL     1     -10.388   8.522  68.381  1.00  0.00    -0.206 OA 
BRANCH  14  17
HETATM   17  C   UNL     1     -11.550   8.625  70.697  1.00  0.00    -0.200 A  
HETATM   18  C   UNL     1     -12.066   7.334  70.848  1.00  0.00    -0.326 A  
HETATM   19  C   UNL     1     -13.226   7.142  71.598  1.00  0.00    -0.403 A  
HETATM   20  C   UNL     1     -13.858   8.233  72.199  1.00  0.00    -0.351 A  
HETATM   21  C   UNL     1     -13.323   9.515  72.071  1.00  0.00    -0.535 A  
HETATM   22  C   UNL     1     -12.156   9.713  71.332  1.00  0.00    -0.472 A  
ENDBRANCH  14  17
ENDBRANCH  12  14
ENDBRANCH   9  12
ENDBRANCH   5   6
ENDBRANCH   4   5
ENDBRANCH   3   4
ENDBRANCH   2   3
TORSDOF 7
ENDMDL
MODEL       88
REMARK 921   NORMALIZED FREE ENERGY PREDICTED BY IDOCK:   -4.57 KCAL/MOL
REMARK 922        TOTAL FREE ENERGY PREDICTED BY IDOCK:   -6.98 KCAL/MOL
REMARK 923 INTER-LIGAND FREE ENERGY PREDICTED BY IDOCK:   -6.46 KCAL/MOL
REMARK 924 INTRA-LIGAND FREE ENERGY PREDICTED BY IDOCK:   -0.52 KCAL/MOL
REMARK 927      BINDING AFFINITY PREDICTED BY RF-SCORE:    0.00 PKD
ROOT
HETATM    1  C   UNL     1     -10.333   9.056  69.827  1.00  0.00    -0.211 C  
HETATM    2  O   UNL     1      -9.062   8.548  69.455  1.00  0.00    -0.148 OA 
ENDROOT
BRANCH   2   3
HETATM    3  C   UNL     1      -9.010   8.158  68.080  1.00  0.00    -0.134 C  
BRANCH   3   4
HETATM    4  C   UNL     1     -10.203   8.801  67.385  1.00  0.00    -0.252 C  
BRANCH   4   5
HETATM    5  O   UNL     1      -9.947   9.060  66.001  1.00  0.00    -0.283 OA 
BRANCH   5   6
HETATM    6  C   UNL     1     -10.061  10.375  65.648  1.00  0.00    -0.269 A  
HETATM    7  C   UNL     1      -9.689  11.470  66.404  1.00  0.00    -0.207 A  
HETATM    8  N   UNL     1      -9.809  12.747  65.998  1.00  0.00    -0.264 NA 
HETATM    9  C   UNL     1     -10.335  12.919  64.790  1.00  0.00    -0.323 A  
HETATM   10  C   UNL     1     -10.596  10.695  64.414  1.00  0.00    -0.048 A  
HETATM   11  N   UNL     1     -10.756  11.964  63.957  1.00  0.00    -0.337 NA 
BRANCH   9  12
HETATM   12  N   UNL     1     -10.409  14.232  64.331  1.00  0.00    -0.513 N  
HETATM   13  H   UNL     1      -9.714  14.643  63.708  1.00  0.00     0.000 HD 
BRANCH  12  14
HETATM   14  S   UNL     1     -11.745  15.074  64.897  1.00  0.00    -0.292 S  
HETATM   15  O   UNL     1     -12.804  14.174  65.307  1.00  0.00    -0.670 OA 
HETATM   16  O   UNL     1     -12.003  16.125  63.936  1.00  0.00    -0.947 OA 
BRANCH  14  17
HETATM   17  C   UNL     1     -11.135  15.886  66.367  1.00  0.00    -0.015 A  
HETATM   18  C   UNL     1     -11.390  15.320  67.620  1.00  0.00    -0.315 A  
HETATM   19  C   UNL     1     -10.905  15.948  68.767  1.00  0.00    -0.284 A  
HETATM   20  C   UNL     1     -10.163  17.126  68.659  1.00  0.00    -0.336 A  
HETATM   21  C   UNL     1      -9.886  17.671  67.405  1.00  0.00    -0.305 A  
HETATM   22  C   UNL     1     -10.358  17.042  66.251  1.00  0.00    -0.309 A  
ENDBRANCH  14  17
ENDBRANCH  12  14
ENDBRANCH   9  12
ENDBRANCH   5   6
ENDBRANCH   4   5
ENDBRANCH   3   4
ENDBRANCH   2   3
TORSDOF 7
ENDMDL
MODEL       89
REMARK 921   NORMALIZED FREE ENERGY PREDICTED BY IDOCK:   -4.57 KCAL/MOL
REMARK 922        TOTAL FREE ENERGY PREDICTED BY IDOCK:   -6.97 KCAL/MOL
REMARK 923 INTER-LIGAND FREE ENERGY PREDICTED BY IDOCK:   -6.59 KCAL/MOL
REMARK 924 INTRA-LIGAND FREE ENERGY PREDICTED BY IDOCK:   -0.38 KCAL/MOL
REMARK 927      BINDING AFFINITY PREDICTED BY RF-SCORE:    0.00 PKD
ROOT
HETATM    1  C   UNL     1     -10.307  19.026  66.455  1.00  0.00    -0.439 C  
HETATM    2  O   UNL     1     -10.458  18.200  67.599  1.00  0.00    -0.385 OA 
ENDROOT
BRANCH   2   3
HETATM    3  C   UNL     1     -10.312  16.811  67.293  1.00  0.00    -0.304 C  
BRANCH   3   4
HETATM    4  C   UNL     1     -11.374  16.062  68.088  1.00  0.00    -0.289 C  
BRANCH   4   5
HETATM    5  O   UNL     1     -12.022  15.054  67.305  1.00  0.00    -0.252 OA 
BRANCH   5   6
HETATM    6  C   UNL     1     -11.962  13.801  67.847  1.00  0.00    -0.356 A  
HETATM    7  C   UNL     1     -11.953  13.480  69.190  1.00  0.00    -0.333 A  
HETATM    8  N   UNL     1     -11.909  12.224  69.670  1.00  0.00    -0.328 NA 
HETATM    9  C   UNL     1     -11.861  11.262  68.755  1.00  0.00    -0.329 A  
HETATM   10  C   UNL     1     -11.905  12.707  67.004  1.00  0.00    -0.345 A  
HETATM   11  N   UNL     1     -11.844  11.418  67.428  1.00  0.00    -0.601 NA 
BRANCH   9  12
HETATM   12  N   UNL     1     -11.878   9.954  69.233  1.00  0.00    -0.415 N  
HETATM   13  H   UNL     1     -12.651   9.311  69.066  1.00  0.00     0.000 HD 
BRANCH  12  14
HETATM   14  S   UNL     1     -10.510   9.535  70.110  1.00  0.00    -0.276 S  
HETATM   15  O   UNL     1     -10.759   9.584  71.536  1.00  0.00    -0.340 OA 
HETATM   16  O   UNL     1      -9.410  10.274  69.529  1.00  0.00    -0.213 OA 
BRANCH  14  17
HETATM   17  C   UNL     1     -10.243   7.823  69.673  1.00  0.00    -0.206 A  
HETATM   18  C   UNL     1     -10.819   6.816  70.454  1.00  0.00    -0.306 A  
HETATM   19  C   UNL     1     -10.619   5.481  70.107  1.00  0.00    -0.367 A  
HETATM   20  C   UNL     1      -9.857   5.156  68.983  1.00  0.00    -0.246 A  
HETATM   21  C   UNL     1      -9.309   6.165  68.190  1.00  0.00    -0.115 A  
HETATM   22  C   UNL     1      -9.514   7.504  68.523  1.00  0.00    -0.146 A  
ENDBRANCH  14  17
ENDBRANCH  12  14
ENDBRANCH   9  12
ENDBRANCH   5   6
ENDBRANCH   4   5
ENDBRANCH   3   4
ENDBRANCH   2   3
TORSDOF 7
ENDMDL
MODEL       90
REMARK 921   NORMALIZED FREE ENERGY PREDICTED BY IDOCK:   -4.53 KCAL/MOL
REMARK 922        TOTAL FREE ENERGY PREDICTED BY IDOCK:   -6.92 KCAL/MOL
REMARK 923 INTER-LIGAND FREE ENERGY PREDICTED BY IDOCK:   -6.43 KCAL/MOL
REMARK 924 INTRA-LIGAND FREE ENERGY PREDICTED BY IDOCK:   -0.49 KCAL/MOL
REMARK 927      BINDING AFFINITY PREDICTED BY RF-SCORE:    0.00 PKD
ROOT
HETATM    1  C   UNL     1      -9.583  10.523  63.832  1.00  0.00    -0.309 C  
HETATM    2  O   UNL     1     -10.393  10.307  64.976  1.00  0.00    -0.288 OA 
ENDROOT
BRANCH   2   3
HETATM    3  C   UNL     1      -9.782  10.786  66.177  1.00  0.00    -0.207 C  
BRANCH   3   4
HETATM    4  C   UNL     1     -10.907  11.154  67.136  1.00  0.00    -0.273 C  
BRANCH   4   5
HETATM    5  O   UNL     1     -11.853  12.049  66.541  1.00  0.00    -0.585 OA 
BRANCH   5   6
HETATM    6  C   UNL     1     -11.534  13.371  66.677  1.00  0.00    -0.344 A  
HETATM    7  C   UNL     1     -10.855  14.156  65.766  1.00  0.00    -0.297 A  
HETATM    8  N   UNL     1     -10.581  15.462  65.946  1.00  0.00    -0.322 NA 
HETATM    9  C   UNL     1     -11.000  15.983  67.093  1.00  0.00    -0.183 A  
HETATM   10  C   UNL     1     -11.910  14.037  67.829  1.00  0.00    -0.384 A  
HETATM   11  N   UNL     1     -11.649  15.347  68.073  1.00  0.00    -0.331 NA 
BRANCH   9  12
HETATM   12  N   UNL     1     -10.780  17.347  67.268  1.00  0.00    -0.276 N  
HETATM   13  H   UNL     1     -11.350  18.065  66.820  1.00  0.00     0.000 HD 
BRANCH  12  14
HETATM   14  S   UNL     1      -9.490  17.702  68.282  1.00  0.00    -0.305 S  
HETATM   15  O   UNL     1      -8.858  16.495  68.775  1.00  0.00    -0.235 OA 
HETATM   16  O   UNL     1      -9.960  18.716  69.201  1.00  0.00    -0.348 OA 
BRANCH  14  17
HETATM   17  C   UNL     1      -8.322  18.514  67.201  1.00  0.00    -0.249 A  
HETATM   18  C   UNL     1      -8.161  19.901  67.281  1.00  0.00    -0.350 A  
HETATM   19  C   UNL     1      -7.242  20.534  66.445  1.00  0.00    -0.250 A  
HETATM   20  C   UNL     1      -6.485  19.783  65.543  1.00  0.00    -0.283 A  
HETATM   21  C   UNL     1      -6.627  18.397  65.488  1.00  0.00    -0.287 A  
HETATM   22  C   UNL     1      -7.536  17.754  66.330  1.00  0.00    -0.322 A  
ENDBRANCH  14  17
ENDBRANCH  12  14
ENDBRANCH   9  12
ENDBRANCH   5   6
ENDBRANCH   4   5
ENDBRANCH   3   4
ENDBRANCH   2   3
TORSDOF 7
ENDMDL
MODEL       91
REMARK 921   NORMALIZED FREE ENERGY PREDICTED BY IDOCK:   -4.52 KCAL/MOL
REMARK 922        TOTAL FREE ENERGY PREDICTED BY IDOCK:   -6.90 KCAL/MOL
REMARK 923 INTER-LIGAND FREE ENERGY PREDICTED BY IDOCK:   -6.39 KCAL/MOL
REMARK 924 INTRA-LIGAND FREE ENERGY PREDICTED BY IDOCK:   -0.51 KCAL/MOL
REMARK 927      BINDING AFFINITY PREDICTED BY RF-SCORE:    0.00 PKD
ROOT
HETATM    1  C   UNL     1     -12.592  10.682  71.438  1.00  0.00    -0.421 C  
HETATM    2  O   UNL     1     -12.309   9.292  71.475  1.00  0.00    -0.319 OA 
ENDROOT
BRANCH   2   3
HETATM    3  C   UNL     1     -11.128   8.956  70.742  1.00  0.00    -0.261 C  
BRANCH   3   4
HETATM    4  C   UNL     1     -10.658  10.223  70.040  1.00  0.00    -0.269 C  
BRANCH   4   5
HETATM    5  O   UNL     1     -10.111   9.952  68.745  1.00  0.00    -0.161 OA 
BRANCH   5   6
HETATM    6  C   UNL     1     -10.023  11.048  67.935  1.00  0.00    -0.174 A  
HETATM    7  C   UNL     1      -9.286  12.193  68.170  1.00  0.00    -0.204 A  
HETATM    8  N   UNL     1      -9.222  13.240  67.327  1.00  0.00    -0.213 NA 
HETATM    9  C   UNL     1      -9.938  13.125  66.214  1.00  0.00    -0.285 A  
HETATM   10  C   UNL     1     -10.723  11.061  66.743  1.00  0.00    -0.266 A  
HETATM   11  N   UNL     1     -10.709  12.093  65.860  1.00  0.00    -0.257 NA 
BRANCH   9  12
HETATM   12  N   UNL     1      -9.834  14.173  65.302  1.00  0.00    -0.579 N  
HETATM   13  H   UNL     1      -9.176  14.169  64.524  1.00  0.00     0.000 HD 
BRANCH  12  14
HETATM   14  S   UNL     1     -10.890  15.442  65.604  1.00  0.00    -0.351 S  
HETATM   15  O   UNL     1     -12.031  15.007  66.384  1.00  0.00    -0.145 OA 
HETATM   16  O   UNL     1     -11.077  16.126  64.342  1.00  0.00    -0.628 OA 
BRANCH  14  17
HETATM   17  C   UNL     1      -9.931  16.547  66.630  1.00  0.00    -0.276 A  
HETATM   18  C   UNL     1      -8.619  16.860  66.263  1.00  0.00    -0.319 A  
HETATM   19  C   UNL     1      -7.874  17.730  67.059  1.00  0.00    -0.234 A  
HETATM   20  C   UNL     1      -8.442  18.289  68.206  1.00  0.00    -0.309 A  
HETATM   21  C   UNL     1      -9.762  17.996  68.551  1.00  0.00    -0.357 A  
HETATM   22  C   UNL     1     -10.518  17.136  67.754  1.00  0.00    -0.362 A  
ENDBRANCH  14  17
ENDBRANCH  12  14
ENDBRANCH   9  12
ENDBRANCH   5   6
ENDBRANCH   4   5
ENDBRANCH   3   4
ENDBRANCH   2   3
TORSDOF 7
ENDMDL
MODEL       92
REMARK 921   NORMALIZED FREE ENERGY PREDICTED BY IDOCK:   -4.47 KCAL/MOL
REMARK 922        TOTAL FREE ENERGY PREDICTED BY IDOCK:   -6.83 KCAL/MOL
REMARK 923 INTER-LIGAND FREE ENERGY PREDICTED BY IDOCK:   -6.33 KCAL/MOL
REMARK 924 INTRA-LIGAND FREE ENERGY PREDICTED BY IDOCK:   -0.50 KCAL/MOL
REMARK 927      BINDING AFFINITY PREDICTED BY RF-SCORE:    0.00 PKD
ROOT
HETATM    1  C   UNL     1     -13.760  14.044  72.427  1.00  0.00    -0.568 C  
HETATM    2  O   UNL     1     -12.608  14.555  71.774  1.00  0.00    -0.321 OA 
ENDROOT
BRANCH   2   3
HETATM    3  C   UNL     1     -12.739  14.547  70.350  1.00  0.00    -0.322 C  
BRANCH   3   4
HETATM    4  C   UNL     1     -11.600  13.700  69.799  1.00  0.00    -0.254 C  
BRANCH   4   5
HETATM    5  O   UNL     1     -12.069  12.484  69.207  1.00  0.00    -0.256 OA 
BRANCH   5   6
HETATM    6  C   UNL     1     -11.852  11.371  69.969  1.00  0.00    -0.359 A  
HETATM    7  C   UNL     1     -12.696  10.848  70.931  1.00  0.00    -0.370 A  
HETATM    8  N   UNL     1     -12.438   9.736  71.642  1.00  0.00    -0.384 NA 
HETATM    9  C   UNL     1     -11.280   9.141  71.378  1.00  0.00    -0.349 A  
HETATM   10  C   UNL     1     -10.682  10.656  69.796  1.00  0.00    -0.230 A  
HETATM   11  N   UNL     1     -10.359   9.536  70.494  1.00  0.00    -0.268 NA 
BRANCH   9  12
HETATM   12  N   UNL     1     -11.027   7.954  72.061  1.00  0.00    -0.257 N  
HETATM   13  H   UNL     1     -10.415   7.901  72.875  1.00  0.00     0.000 HD 
BRANCH  12  14
HETATM   14  S   UNL     1     -11.818   6.620  71.421  1.00  0.00    -0.340 S  
HETATM   15  O   UNL     1     -11.654   6.546  69.983  1.00  0.00    -0.407 OA 
HETATM   16  O   UNL     1     -13.138   6.605  72.013  1.00  0.00    -0.241 OA 
BRANCH  14  17
HETATM   17  C   UNL     1     -10.940   5.235  72.130  1.00  0.00    -0.160 A  
HETATM   18  C   UNL     1      -9.793   4.750  71.494  1.00  0.00    -0.253 A  
HETATM   19  C   UNL     1      -9.102   3.675  72.053  1.00  0.00    -0.156 A  
HETATM   20  C   UNL     1      -9.551   3.097  73.242  1.00  0.00    -0.141 A  
HETATM   21  C   UNL     1     -10.679   3.603  73.888  1.00  0.00    -0.303 A  
HETATM   22  C   UNL     1     -11.370   4.686  73.342  1.00  0.00    -0.394 A  
ENDBRANCH  14  17
ENDBRANCH  12  14
ENDBRANCH   9  12
ENDBRANCH   5   6
ENDBRANCH   4   5
ENDBRANCH   3   4
ENDBRANCH   2   3
TORSDOF 7
ENDMDL
MODEL       93
REMARK 921   NORMALIZED FREE ENERGY PREDICTED BY IDOCK:   -4.45 KCAL/MOL
REMARK 922        TOTAL FREE ENERGY PREDICTED BY IDOCK:   -6.81 KCAL/MOL
REMARK 923 INTER-LIGAND FREE ENERGY PREDICTED BY IDOCK:   -6.30 KCAL/MOL
REMARK 924 INTRA-LIGAND FREE ENERGY PREDICTED BY IDOCK:   -0.50 KCAL/MOL
REMARK 927      BINDING AFFINITY PREDICTED BY RF-SCORE:    0.00 PKD
ROOT
HETATM    1  C   UNL     1     -10.241  18.235  68.464  1.00  0.00    -0.379 C  
HETATM    2  O   UNL     1     -10.750  18.851  67.292  1.00  0.00    -0.445 OA 
ENDROOT
BRANCH   2   3
HETATM    3  C   UNL     1     -10.412  18.129  66.104  1.00  0.00    -0.364 C  
BRANCH   3   4
HETATM    4  C   UNL     1     -10.068  16.707  66.526  1.00  0.00    -0.305 C  
BRANCH   4   5
HETATM    5  O   UNL     1     -10.423  15.747  65.524  1.00  0.00    -0.353 OA 
BRANCH   5   6
HETATM    6  C   UNL     1     -10.797  14.531  66.023  1.00  0.00    -0.310 A  
HETATM    7  C   UNL     1     -10.833  13.331  65.339  1.00  0.00    -0.291 A  
HETATM    8  N   UNL     1     -11.195  12.157  65.887  1.00  0.00    -0.326 NA 
HETATM    9  C   UNL     1     -11.543  12.204  67.168  1.00  0.00    -0.335 A  
HETATM   10  C   UNL     1     -11.186  14.439  67.346  1.00  0.00    -0.325 A  
HETATM   11  N   UNL     1     -11.576  13.287  67.950  1.00  0.00    -0.312 NA 
BRANCH   9  12
HETATM   12  N   UNL     1     -11.861  10.987  67.765  1.00  0.00    -0.165 N  
HETATM   13  H   UNL     1     -12.741  10.499  67.601  1.00  0.00     0.000 HD 
BRANCH  12  14
HETATM   14  S   UNL     1     -10.663  10.397  68.782  1.00  0.00    -0.241 S  
HETATM   15  O   UNL     1     -10.973  10.659  70.173  1.00  0.00    -0.282 OA 
HETATM   16  O   UNL     1      -9.401  10.821  68.216  1.00  0.00    -0.149 OA 
BRANCH  14  17
HETATM   17  C   UNL     1     -10.746   8.628  68.541  1.00  0.00    -0.043 A  
HETATM   18  C   UNL     1     -10.586   8.102  67.256  1.00  0.00    -0.344 A  
HETATM   19  C   UNL     1     -10.641   6.721  67.069  1.00  0.00    -0.405 A  
HETATM   20  C   UNL     1     -10.844   5.875  68.161  1.00  0.00    -0.323 A  
HETATM   21  C   UNL     1     -10.974   6.403  69.446  1.00  0.00    -0.421 A  
HETATM   22  C   UNL     1     -10.908   7.783  69.643  1.00  0.00    -0.185 A  
ENDBRANCH  14  17
ENDBRANCH  12  14
ENDBRANCH   9  12
ENDBRANCH   5   6
ENDBRANCH   4   5
ENDBRANCH   3   4
ENDBRANCH   2   3
TORSDOF 7
ENDMDL
MODEL       94
REMARK 921   NORMALIZED FREE ENERGY PREDICTED BY IDOCK:   -4.45 KCAL/MOL
REMARK 922        TOTAL FREE ENERGY PREDICTED BY IDOCK:   -6.80 KCAL/MOL
REMARK 923 INTER-LIGAND FREE ENERGY PREDICTED BY IDOCK:   -6.48 KCAL/MOL
REMARK 924 INTRA-LIGAND FREE ENERGY PREDICTED BY IDOCK:   -0.32 KCAL/MOL
REMARK 927      BINDING AFFINITY PREDICTED BY RF-SCORE:    0.00 PKD
ROOT
HETATM    1  C   UNL     1      -6.626  19.470  69.241  1.00  0.00    -0.339 C  
HETATM    2  O   UNL     1      -5.324  18.923  69.107  1.00  0.00    -0.195 OA 
ENDROOT
BRANCH   2   3
HETATM    3  C   UNL     1      -5.209  18.056  67.976  1.00  0.00    -0.152 C  
BRANCH   3   4
HETATM    4  C   UNL     1      -6.616  17.830  67.439  1.00  0.00    -0.164 C  
BRANCH   4   5
HETATM    5  O   UNL     1      -6.715  16.620  66.680  1.00  0.00    -0.215 OA 
BRANCH   5   6
HETATM    6  C   UNL     1      -7.980  16.108  66.608  1.00  0.00    -0.270 A  
HETATM    7  C   UNL     1      -9.108  16.751  66.136  1.00  0.00    -0.253 A  
HETATM    8  N   UNL     1     -10.329  16.191  66.073  1.00  0.00    -0.341 NA 
HETATM    9  C   UNL     1     -10.411  14.940  66.514  1.00  0.00    -0.297 A  
HETATM   10  C   UNL     1      -8.205  14.813  67.038  1.00  0.00    -0.179 A  
HETATM   11  N   UNL     1      -9.417  14.200  67.013  1.00  0.00    -0.242 NA 
BRANCH   9  12
HETATM   12  N   UNL     1     -11.655  14.325  66.398  1.00  0.00    -0.359 N  
HETATM   13  H   UNL     1     -12.444  14.546  67.005  1.00  0.00     0.000 HD 
BRANCH  12  14
HETATM   14  S   UNL     1     -11.737  13.187  65.167  1.00  0.00    -0.357 S  
HETATM   15  O   UNL     1     -10.830  13.512  64.085  1.00  0.00    -0.372 OA 
HETATM   16  O   UNL     1     -13.143  12.965  64.909  1.00  0.00    -0.799 OA 
BRANCH  14  17
HETATM   17  C   UNL     1     -11.133  11.694  65.940  1.00  0.00    -0.264 A  
HETATM   18  C   UNL     1     -10.283  10.844  65.224  1.00  0.00    -0.351 A  
HETATM   19  C   UNL     1      -9.804   9.684  65.830  1.00  0.00    -0.358 A  
HETATM   20  C   UNL     1     -10.164   9.381  67.145  1.00  0.00    -0.319 A  
HETATM   21  C   UNL     1     -10.988  10.246  67.865  1.00  0.00    -0.350 A  
HETATM   22  C   UNL     1     -11.463  11.416  67.270  1.00  0.00    -0.301 A  
ENDBRANCH  14  17
ENDBRANCH  12  14
ENDBRANCH   9  12
ENDBRANCH   5   6
ENDBRANCH   4   5
ENDBRANCH   3   4
ENDBRANCH   2   3
TORSDOF 7
ENDMDL
MODEL       95
REMARK 921   NORMALIZED FREE ENERGY PREDICTED BY IDOCK:   -4.44 KCAL/MOL
REMARK 922        TOTAL FREE ENERGY PREDICTED BY IDOCK:   -6.79 KCAL/MOL
REMARK 923 INTER-LIGAND FREE ENERGY PREDICTED BY IDOCK:   -7.15 KCAL/MOL
REMARK 924 INTRA-LIGAND FREE ENERGY PREDICTED BY IDOCK:    0.37 KCAL/MOL
REMARK 927      BINDING AFFINITY PREDICTED BY RF-SCORE:    0.00 PKD
ROOT
HETATM    1  C   UNL     1      -9.861  11.073  63.203  1.00  0.00    -0.363 C  
HETATM    2  O   UNL     1     -11.007  11.441  63.953  1.00  0.00    -0.373 OA 
ENDROOT
BRANCH   2   3
HETATM    3  C   UNL     1     -11.857  12.346  63.242  1.00  0.00    -0.402 C  
BRANCH   3   4
HETATM    4  C   UNL     1     -11.727  13.706  63.915  1.00  0.00    -0.320 C  
BRANCH   4   5
HETATM    5  O   UNL     1     -10.394  13.956  64.374  1.00  0.00    -0.384 OA 
BRANCH   5   6
HETATM    6  C   UNL     1     -10.309  14.263  65.702  1.00  0.00    -0.336 A  
HETATM    7  C   UNL     1     -10.346  15.525  66.264  1.00  0.00    -0.302 A  
HETATM    8  N   UNL     1     -10.275  15.769  67.585  1.00  0.00    -0.261 NA 
HETATM    9  C   UNL     1     -10.149  14.699  68.361  1.00  0.00    -0.237 A  
HETATM   10  C   UNL     1     -10.173  13.239  66.622  1.00  0.00    -0.265 A  
HETATM   11  N   UNL     1     -10.081  13.425  67.964  1.00  0.00    -0.235 NA 
BRANCH   9  12
HETATM   12  N   UNL     1     -10.136  14.930  69.734  1.00  0.00    -0.444 N  
HETATM   13  H   UNL     1      -9.292  14.863  70.302  1.00  0.00     0.000 HD 
BRANCH  12  14
HETATM   14  S   UNL     1     -11.638  15.328  70.370  1.00  0.00    -0.341 S  
HETATM   15  O   UNL     1     -12.535  15.816  69.342  1.00  0.00    -0.162 OA 
HETATM   16  O   UNL     1     -11.383  16.112  71.558  1.00  0.00    -0.358 OA 
BRANCH  14  17
HETATM   17  C   UNL     1     -12.279  13.760  70.937  1.00  0.00    -0.349 A  
HETATM   18  C   UNL     1     -11.797  12.575  70.372  1.00  0.00    -0.246 A  
HETATM   19  C   UNL     1     -12.291  11.351  70.822  1.00  0.00    -0.483 A  
HETATM   20  C   UNL     1     -13.251  11.313  71.835  1.00  0.00    -0.491 A  
HETATM   21  C   UNL     1     -13.707  12.497  72.416  1.00  0.00    -0.284 A  
HETATM   22  C   UNL     1     -13.210  13.725  71.980  1.00  0.00    -0.520 A  
ENDBRANCH  14  17
ENDBRANCH  12  14
ENDBRANCH   9  12
ENDBRANCH   5   6
ENDBRANCH   4   5
ENDBRANCH   3   4
ENDBRANCH   2   3
TORSDOF 7
ENDMDL
MODEL       96
REMARK 921   NORMALIZED FREE ENERGY PREDICTED BY IDOCK:   -4.43 KCAL/MOL
REMARK 922        TOTAL FREE ENERGY PREDICTED BY IDOCK:   -6.78 KCAL/MOL
REMARK 923 INTER-LIGAND FREE ENERGY PREDICTED BY IDOCK:   -6.23 KCAL/MOL
REMARK 924 INTRA-LIGAND FREE ENERGY PREDICTED BY IDOCK:   -0.55 KCAL/MOL
REMARK 927      BINDING AFFINITY PREDICTED BY RF-SCORE:    0.00 PKD
ROOT
HETATM    1  C   UNL     1     -13.316  15.463  71.212  1.00  0.00    -0.520 C  
HETATM    2  O   UNL     1     -12.023  15.594  70.642  1.00  0.00    -0.342 OA 
ENDROOT
BRANCH   2   3
HETATM    3  C   UNL     1     -12.055  16.211  69.353  1.00  0.00     0.049 C  
BRANCH   3   4
HETATM    4  C   UNL     1     -11.007  15.514  68.496  1.00  0.00    -0.288 C  
BRANCH   4   5
HETATM    5  O   UNL     1     -11.581  14.888  67.343  1.00  0.00    -0.355 OA 
BRANCH   5   6
HETATM    6  C   UNL     1     -11.406  13.534  67.296  1.00  0.00    -0.315 A  
HETATM    7  C   UNL     1     -10.758  12.817  66.309  1.00  0.00    -0.270 A  
HETATM    8  N   UNL     1     -10.600  11.481  66.322  1.00  0.00    -0.255 NA 
HETATM    9  C   UNL     1     -11.127  10.851  67.366  1.00  0.00    -0.307 A  
HETATM   10  C   UNL     1     -11.909  12.756  68.322  1.00  0.00    -0.312 A  
HETATM   11  N   UNL     1     -11.794  11.404  68.383  1.00  0.00    -0.536 NA 
BRANCH   9  12
HETATM   12  N   UNL     1     -10.918   9.475  67.426  1.00  0.00    -0.393 N  
HETATM   13  H   UNL     1     -11.486   8.803  66.910  1.00  0.00     0.000 HD 
BRANCH  12  14
HETATM   14  S   UNL     1      -9.647   9.025  68.425  1.00  0.00    -0.155 S  
HETATM   15  O   UNL     1      -8.896  10.178  68.878  1.00  0.00    -0.136 OA 
HETATM   16  O   UNL     1      -8.979   7.924  67.765  1.00  0.00    -0.129 OA 
BRANCH  14  17
HETATM   17  C   UNL     1     -10.465   8.326  69.851  1.00  0.00    -0.223 A  
HETATM   18  C   UNL     1     -11.213   7.154  69.708  1.00  0.00    -0.206 A  
HETATM   19  C   UNL     1     -11.844   6.603  70.823  1.00  0.00    -0.441 A  
HETATM   20  C   UNL     1     -11.718   7.215  72.072  1.00  0.00    -0.326 A  
HETATM   21  C   UNL     1     -10.945   8.368  72.215  1.00  0.00    -0.431 A  
HETATM   22  C   UNL     1     -10.302   8.919  71.107  1.00  0.00    -0.338 A  
ENDBRANCH  14  17
ENDBRANCH  12  14
ENDBRANCH   9  12
ENDBRANCH   5   6
ENDBRANCH   4   5
ENDBRANCH   3   4
ENDBRANCH   2   3
TORSDOF 7
ENDMDL
MODEL       97
REMARK 921   NORMALIZED FREE ENERGY PREDICTED BY IDOCK:   -4.43 KCAL/MOL
REMARK 922        TOTAL FREE ENERGY PREDICTED BY IDOCK:   -6.78 KCAL/MOL
REMARK 923 INTER-LIGAND FREE ENERGY PREDICTED BY IDOCK:   -6.21 KCAL/MOL
REMARK 924 INTRA-LIGAND FREE ENERGY PREDICTED BY IDOCK:   -0.57 KCAL/MOL
REMARK 927      BINDING AFFINITY PREDICTED BY RF-SCORE:    0.00 PKD
ROOT
HETATM    1  C   UNL     1      -8.744  10.306  65.465  1.00  0.00    -0.162 C  
HETATM    2  O   UNL     1      -9.355  10.603  64.220  1.00  0.00    -0.218 OA 
ENDROOT
BRANCH   2   3
HETATM    3  C   UNL     1     -10.645  11.200  64.373  1.00  0.00    -0.343 C  
BRANCH   3   4
HETATM    4  C   UNL     1     -11.025  11.077  65.843  1.00  0.00    -0.045 C  
BRANCH   4   5
HETATM    5  O   UNL     1     -11.847  12.165  66.281  1.00  0.00    -0.553 OA 
BRANCH   5   6
HETATM    6  C   UNL     1     -11.174  13.127  66.981  1.00  0.00    -0.294 A  
HETATM    7  C   UNL     1     -11.487  14.470  67.053  1.00  0.00    -0.370 A  
HETATM    8  N   UNL     1     -10.796  15.372  67.774  1.00  0.00    -0.294 NA 
HETATM    9  C   UNL     1      -9.746  14.897  68.434  1.00  0.00    -0.209 A  
HETATM   10  C   UNL     1     -10.057  12.767  67.712  1.00  0.00    -0.224 A  
HETATM   11  N   UNL     1      -9.311  13.634  68.445  1.00  0.00    -0.201 NA 
BRANCH   9  12
HETATM   12  N   UNL     1      -9.058  15.806  69.233  1.00  0.00    -0.253 N  
HETATM   13  H   UNL     1      -9.250  15.930  70.227  1.00  0.00     0.000 HD 
BRANCH  12  14
HETATM   14  S   UNL     1      -7.882  16.678  68.412  1.00  0.00    -0.213 S  
HETATM   15  O   UNL     1      -7.445  15.983  67.218  1.00  0.00    -0.161 OA 
HETATM   16  O   UNL     1      -6.924  17.109  69.406  1.00  0.00    -0.220 OA 
BRANCH  14  17
HETATM   17  C   UNL     1      -8.748  18.150  67.886  1.00  0.00    -0.261 A  
HETATM   18  C   UNL     1      -8.500  18.675  66.614  1.00  0.00    -0.301 A  
HETATM   19  C   UNL     1      -9.183  19.819  66.199  1.00  0.00    -0.418 A  
HETATM   20  C   UNL     1     -10.112  20.425  67.048  1.00  0.00    -0.507 A  
HETATM   21  C   UNL     1     -10.377  19.880  68.304  1.00  0.00    -0.526 A  
HETATM   22  C   UNL     1      -9.707  18.730  68.722  1.00  0.00    -0.432 A  
ENDBRANCH  14  17
ENDBRANCH  12  14
ENDBRANCH   9  12
ENDBRANCH   5   6
ENDBRANCH   4   5
ENDBRANCH   3   4
ENDBRANCH   2   3
TORSDOF 7
ENDMDL
MODEL       98
REMARK 921   NORMALIZED FREE ENERGY PREDICTED BY IDOCK:   -4.41 KCAL/MOL
REMARK 922        TOTAL FREE ENERGY PREDICTED BY IDOCK:   -6.75 KCAL/MOL
REMARK 923 INTER-LIGAND FREE ENERGY PREDICTED BY IDOCK:   -6.18 KCAL/MOL
REMARK 924 INTRA-LIGAND FREE ENERGY PREDICTED BY IDOCK:   -0.57 KCAL/MOL
REMARK 927      BINDING AFFINITY PREDICTED BY RF-SCORE:    0.00 PKD
ROOT
HETATM    1  C   UNL     1     -11.400   8.160  72.458  1.00  0.00    -0.401 C  
HETATM    2  O   UNL     1     -12.423   7.659  71.613  1.00  0.00    -0.312 OA 
ENDROOT
BRANCH   2   3
HETATM    3  C   UNL     1     -11.952   6.635  70.732  1.00  0.00    -0.353 C  
BRANCH   3   4
HETATM    4  C   UNL     1     -10.619   7.107  70.166  1.00  0.00    -0.230 C  
BRANCH   4   5
HETATM    5  O   UNL     1     -10.629   7.160  68.736  1.00  0.00    -0.205 OA 
BRANCH   5   6
HETATM    6  C   UNL     1     -10.408   8.406  68.221  1.00  0.00    -0.199 A  
HETATM    7  C   UNL     1     -10.195   9.570  68.934  1.00  0.00    -0.199 A  
HETATM    8  N   UNL     1      -9.965  10.772  68.373  1.00  0.00    -0.158 NA 
HETATM    9  C   UNL     1      -9.963  10.794  67.045  1.00  0.00    -0.197 A  
HETATM   10  C   UNL     1     -10.383   8.571  66.849  1.00  0.00    -0.297 A  
HETATM   11  N   UNL     1     -10.171   9.759  66.226  1.00  0.00    -0.238 NA 
BRANCH   9  12
HETATM   12  N   UNL     1      -9.665  12.017  66.449  1.00  0.00    -0.219 N  
HETATM   13  H   UNL     1      -8.713  12.362  66.333  1.00  0.00     0.000 HD 
BRANCH  12  14
HETATM   14  S   UNL     1     -11.018  12.871  65.940  1.00  0.00    -0.281 S  
HETATM   15  O   UNL     1     -12.232  12.103  66.134  1.00  0.00    -0.611 OA 
HETATM   16  O   UNL     1     -10.691  13.418  64.641  1.00  0.00    -0.365 OA 
BRANCH  14  17
HETATM   17  C   UNL     1     -11.080  14.260  67.063  1.00  0.00    -0.312 A  
HETATM   18  C   UNL     1     -11.530  14.066  68.372  1.00  0.00    -0.340 A  
HETATM   19  C   UNL     1     -11.569  15.148  69.251  1.00  0.00    -0.344 A  
HETATM   20  C   UNL     1     -11.153  16.411  68.824  1.00  0.00    -0.337 A  
HETATM   21  C   UNL     1     -10.677  16.593  67.526  1.00  0.00    -0.278 A  
HETATM   22  C   UNL     1     -10.623  15.513  66.644  1.00  0.00    -0.307 A  
ENDBRANCH  14  17
ENDBRANCH  12  14
ENDBRANCH   9  12
ENDBRANCH   5   6
ENDBRANCH   4   5
ENDBRANCH   3   4
ENDBRANCH   2   3
TORSDOF 7
ENDMDL
MODEL       99
REMARK 921   NORMALIZED FREE ENERGY PREDICTED BY IDOCK:   -4.35 KCAL/MOL
REMARK 922        TOTAL FREE ENERGY PREDICTED BY IDOCK:   -6.66 KCAL/MOL
REMARK 923 INTER-LIGAND FREE ENERGY PREDICTED BY IDOCK:   -6.41 KCAL/MOL
REMARK 924 INTRA-LIGAND FREE ENERGY PREDICTED BY IDOCK:   -0.26 KCAL/MOL
REMARK 927      BINDING AFFINITY PREDICTED BY RF-SCORE:    0.00 PKD
ROOT
HETATM    1  C   UNL     1      -5.731  20.865  63.088  1.00  0.00    -0.249 C  
HETATM    2  O   UNL     1      -6.416  20.667  64.314  1.00  0.00    -0.314 OA 
ENDROOT
BRANCH   2   3
HETATM    3  C   UNL     1      -5.828  19.633  65.108  1.00  0.00    -0.210 C  
BRANCH   3   4
HETATM    4  C   UNL     1      -5.922  20.076  66.562  1.00  0.00    -0.171 C  
BRANCH   4   5
HETATM    5  O   UNL     1      -7.199  20.645  66.872  1.00  0.00    -0.292 OA 
BRANCH   5   6
HETATM    6  C   UNL     1      -8.154  19.726  67.203  1.00  0.00    -0.292 A  
HETATM    7  C   UNL     1      -9.200  19.296  66.410  1.00  0.00    -0.352 A  
HETATM    8  N   UNL     1     -10.105  18.372  66.783  1.00  0.00    -0.351 NA 
HETATM    9  C   UNL     1      -9.950  17.878  68.006  1.00  0.00    -0.333 A  
HETATM   10  C   UNL     1      -8.112  19.133  68.452  1.00  0.00    -0.343 A  
HETATM   11  N   UNL     1      -9.004  18.208  68.890  1.00  0.00    -0.191 NA 
BRANCH   9  12
HETATM   12  N   UNL     1     -10.841  16.877  68.384  1.00  0.00    -0.362 N  
HETATM   13  H   UNL     1     -11.814  17.061  68.629  1.00  0.00     0.000 HD 
BRANCH  12  14
HETATM   14  S   UNL     1     -10.168  15.339  68.399  1.00  0.00    -0.227 S  
HETATM   15  O   UNL     1     -10.619  14.575  69.544  1.00  0.00    -0.204 OA 
HETATM   16  O   UNL     1      -8.756  15.509  68.137  1.00  0.00    -0.161 OA 
BRANCH  14  17
HETATM   17  C   UNL     1     -10.855  14.570  66.940  1.00  0.00    -0.305 A  
HETATM   18  C   UNL     1     -10.009  14.229  65.880  1.00  0.00    -0.340 A  
HETATM   19  C   UNL     1     -10.544  13.619  64.745  1.00  0.00    -0.436 A  
HETATM   20  C   UNL     1     -11.911  13.345  64.677  1.00  0.00    -0.441 A  
HETATM   21  C   UNL     1     -12.746  13.660  65.749  1.00  0.00    -0.470 A  
HETATM   22  C   UNL     1     -12.218  14.260  66.893  1.00  0.00    -0.366 A  
ENDBRANCH  14  17
ENDBRANCH  12  14
ENDBRANCH   9  12
ENDBRANCH   5   6
ENDBRANCH   4   5
ENDBRANCH   3   4
ENDBRANCH   2   3
TORSDOF 7
ENDMDL
MODEL      100
REMARK 921   NORMALIZED FREE ENERGY PREDICTED BY IDOCK:   -4.33 KCAL/MOL
REMARK 922        TOTAL FREE ENERGY PREDICTED BY IDOCK:   -6.63 KCAL/MOL
REMARK 923 INTER-LIGAND FREE ENERGY PREDICTED BY IDOCK:   -6.30 KCAL/MOL
REMARK 924 INTRA-LIGAND FREE ENERGY PREDICTED BY IDOCK:   -0.33 KCAL/MOL
REMARK 927      BINDING AFFINITY PREDICTED BY RF-SCORE:    0.00 PKD
ROOT
HETATM    1  C   UNL     1     -10.529  17.591  65.950  1.00  0.00    -0.249 C  
HETATM    2  O   UNL     1     -10.056  16.320  65.535  1.00  0.00    -0.477 OA 
ENDROOT
BRANCH   2   3
HETATM    3  C   UNL     1     -11.087  15.517  64.954  1.00  0.00    -0.416 C  
BRANCH   3   4
HETATM    4  C   UNL     1     -10.603  14.073  64.987  1.00  0.00    -0.410 C  
BRANCH   4   5
HETATM    5  O   UNL     1     -11.611  13.177  65.468  1.00  0.00    -0.315 OA 
BRANCH   5   6
HETATM    6  C   UNL     1     -11.247  12.473  66.581  1.00  0.00    -0.307 A  
HETATM    7  C   UNL     1     -10.337  11.436  66.644  1.00  0.00    -0.233 A  
HETATM    8  N   UNL     1     -10.003  10.787  67.775  1.00  0.00    -0.169 NA 
HETATM    9  C   UNL     1     -10.624  11.197  68.876  1.00  0.00    -0.207 A  
HETATM   10  C   UNL     1     -11.821  12.796  67.797  1.00  0.00    -0.332 A  
HETATM   11  N   UNL     1     -11.536  12.168  68.967  1.00  0.00    -0.296 NA 
BRANCH   9  12
HETATM   12  N   UNL     1     -10.244  10.577  70.064  1.00  0.00    -0.434 N  
HETATM   13  H   UNL     1      -9.495  10.928  70.660  1.00  0.00     0.000 HD 
BRANCH  12  14
HETATM   14  S   UNL     1     -11.134   9.200  70.425  1.00  0.00    -0.249 S  
HETATM   15  O   UNL     1     -11.039   8.217  69.366  1.00  0.00    -0.074 OA 
HETATM   16  O   UNL     1     -12.424   9.658  70.892  1.00  0.00    -0.293 OA 
BRANCH  14  17
HETATM   17  C   UNL     1     -10.298   8.528  71.854  1.00  0.00    -0.308 A  
HETATM   18  C   UNL     1     -11.035   7.828  72.815  1.00  0.00    -0.447 A  
HETATM   19  C   UNL     1     -10.381   7.295  73.925  1.00  0.00    -0.281 A  
HETATM   20  C   UNL     1      -9.001   7.453  74.067  1.00  0.00    -0.284 A  
HETATM   21  C   UNL     1      -8.266   8.127  73.092  1.00  0.00    -0.253 A  
HETATM   22  C   UNL     1      -8.910   8.653  71.972  1.00  0.00    -0.264 A  
ENDBRANCH  14  17
ENDBRANCH  12  14
ENDBRANCH   9  12
ENDBRANCH   5   6
ENDBRANCH   4   5
ENDBRANCH   3   4
ENDBRANCH   2   3
TORSDOF 7
ENDMDL
MODEL      101
REMARK 921   NORMALIZED FREE ENERGY PREDICTED BY IDOCK:   -4.32 KCAL/MOL
REMARK 922        TOTAL FREE ENERGY PREDICTED BY IDOCK:   -6.63 KCAL/MOL
REMARK 923 INTER-LIGAND FREE ENERGY PREDICTED BY IDOCK:   -6.22 KCAL/MOL
REMARK 924 INTRA-LIGAND FREE ENERGY PREDICTED BY IDOCK:   -0.41 KCAL/MOL
REMARK 927      BINDING AFFINITY PREDICTED BY RF-SCORE:    0.00 PKD
ROOT
HETATM    1  C   UNL     1     -11.028   2.123  73.800  1.00  0.00    -0.188 C  
HETATM    2  O   UNL     1     -10.753   3.184  72.900  1.00  0.00    -0.150 OA 
ENDROOT
BRANCH   2   3
HETATM    3  C   UNL     1     -11.301   4.430  73.339  1.00  0.00    -0.261 C  
BRANCH   3   4
HETATM    4  C   UNL     1     -10.775   5.508  72.399  1.00  0.00    -0.235 C  
BRANCH   4   5
HETATM    5  O   UNL     1     -11.798   6.431  72.011  1.00  0.00    -0.317 OA 
BRANCH   5   6
HETATM    6  C   UNL     1     -11.332   7.544  71.371  1.00  0.00    -0.258 A  
HETATM    7  C   UNL     1     -10.569   7.579  70.220  1.00  0.00    -0.229 A  
HETATM    8  N   UNL     1     -10.150   8.708  69.621  1.00  0.00    -0.196 NA 
HETATM    9  C   UNL     1     -10.508   9.840  70.217  1.00  0.00    -0.288 A  
HETATM   10  C   UNL     1     -11.631   8.791  71.888  1.00  0.00    -0.361 A  
HETATM   11  N   UNL     1     -11.225   9.964  71.338  1.00  0.00    -0.302 NA 
BRANCH   9  12
HETATM   12  N   UNL     1     -10.136  11.019  69.576  1.00  0.00    -0.441 N  
HETATM   13  H   UNL     1      -9.242  11.483  69.739  1.00  0.00     0.000 HD 
BRANCH  12  14
HETATM   14  S   UNL     1     -11.292  11.607  68.511  1.00  0.00    -0.305 S  
HETATM   15  O   UNL     1     -12.513  10.830  68.574  1.00  0.00    -0.289 OA 
HETATM   16  O   UNL     1     -10.616  11.816  67.249  1.00  0.00    -0.211 OA 
BRANCH  14  17
HETATM   17  C   UNL     1     -11.660  13.233  69.152  1.00  0.00    -0.319 A  
HETATM   18  C   UNL     1     -12.196  13.360  70.438  1.00  0.00    -0.415 A  
HETATM   19  C   UNL     1     -12.475  14.630  70.942  1.00  0.00    -0.406 A  
HETATM   20  C   UNL     1     -12.211  15.763  70.169  1.00  0.00    -0.340 A  
HETATM   21  C   UNL     1     -11.649  15.633  68.899  1.00  0.00    -0.392 A  
HETATM   22  C   UNL     1     -11.356  14.367  68.392  1.00  0.00    -0.312 A  
ENDBRANCH  14  17
ENDBRANCH  12  14
ENDBRANCH   9  12
ENDBRANCH   5   6
ENDBRANCH   4   5
ENDBRANCH   3   4
ENDBRANCH   2   3
TORSDOF 7
ENDMDL
MODEL      102
REMARK 921   NORMALIZED FREE ENERGY PREDICTED BY IDOCK:   -4.32 KCAL/MOL
REMARK 922        TOTAL FREE ENERGY PREDICTED BY IDOCK:   -6.62 KCAL/MOL
REMARK 923 INTER-LIGAND FREE ENERGY PREDICTED BY IDOCK:   -6.34 KCAL/MOL
REMARK 924 INTRA-LIGAND FREE ENERGY PREDICTED BY IDOCK:   -0.28 KCAL/MOL
REMARK 927      BINDING AFFINITY PREDICTED BY RF-SCORE:    0.00 PKD
ROOT
HETATM    1  C   UNL     1     -11.193   6.408  70.187  1.00  0.00    -0.390 C  
HETATM    2  O   UNL     1     -11.486   7.786  70.350  1.00  0.00    -0.252 OA 
ENDROOT
BRANCH   2   3
HETATM    3  C   UNL     1     -10.351   8.537  70.790  1.00  0.00    -0.198 C  
BRANCH   3   4
HETATM    4  C   UNL     1     -10.239   9.754  69.881  1.00  0.00    -0.254 C  
BRANCH   4   5
HETATM    5  O   UNL     1     -10.253   9.396  68.495  1.00  0.00    -0.185 OA 
BRANCH   5   6
HETATM    6  C   UNL     1     -10.173  10.461  67.642  1.00  0.00    -0.201 A  
HETATM    7  C   UNL     1     -10.997  10.721  66.564  1.00  0.00    -0.075 A  
HETATM    8  N   UNL     1     -10.883  11.797  65.765  1.00  0.00    -0.284 NA 
HETATM    9  C   UNL     1      -9.893  12.631  66.063  1.00  0.00    -0.254 A  
HETATM   10  C   UNL     1      -9.183  11.406  67.838  1.00  0.00    -0.164 A  
HETATM   11  N   UNL     1      -9.009  12.503  67.057  1.00  0.00    -0.206 NA 
BRANCH   9  12
HETATM   12  N   UNL     1      -9.800  13.781  65.283  1.00  0.00    -0.565 N  
HETATM   13  H   UNL     1      -9.043  13.944  64.620  1.00  0.00     0.000 HD 
BRANCH  12  14
HETATM   14  S   UNL     1     -11.047  14.875  65.536  1.00  0.00    -0.363 S  
HETATM   15  O   UNL     1     -12.339  14.275  65.270  1.00  0.00    -0.418 OA 
HETATM   16  O   UNL     1     -10.655  16.101  64.877  1.00  0.00    -0.622 OA 
BRANCH  14  17
HETATM   17  C   UNL     1     -10.963  15.205  67.290  1.00  0.00    -0.327 A  
HETATM   18  C   UNL     1     -10.037  16.136  67.771  1.00  0.00    -0.250 A  
HETATM   19  C   UNL     1      -9.978  16.400  69.139  1.00  0.00    -0.273 A  
HETATM   20  C   UNL     1     -10.845  15.745  70.016  1.00  0.00    -0.348 A  
HETATM   21  C   UNL     1     -11.787  14.839  69.528  1.00  0.00    -0.366 A  
HETATM   22  C   UNL     1     -11.861  14.577  68.160  1.00  0.00    -0.348 A  
ENDBRANCH  14  17
ENDBRANCH  12  14
ENDBRANCH   9  12
ENDBRANCH   5   6
ENDBRANCH   4   5
ENDBRANCH   3   4
ENDBRANCH   2   3
TORSDOF 7
ENDMDL
MODEL      103
REMARK 921   NORMALIZED FREE ENERGY PREDICTED BY IDOCK:   -4.32 KCAL/MOL
REMARK 922        TOTAL FREE ENERGY PREDICTED BY IDOCK:   -6.62 KCAL/MOL
REMARK 923 INTER-LIGAND FREE ENERGY PREDICTED BY IDOCK:   -6.21 KCAL/MOL
REMARK 924 INTRA-LIGAND FREE ENERGY PREDICTED BY IDOCK:   -0.41 KCAL/MOL
REMARK 927      BINDING AFFINITY PREDICTED BY RF-SCORE:    0.00 PKD
ROOT
HETATM    1  C   UNL     1     -13.720  13.862  72.572  1.00  0.00    -0.560 C  
HETATM    2  O   UNL     1     -14.276  14.891  71.770  1.00  0.00    -0.439 OA 
ENDROOT
BRANCH   2   3
HETATM    3  C   UNL     1     -13.285  15.587  71.009  1.00  0.00    -0.474 C  
BRANCH   3   4
HETATM    4  C   UNL     1     -12.222  14.569  70.619  1.00  0.00    -0.331 C  
BRANCH   4   5
HETATM    5  O   UNL     1     -12.083  14.451  69.199  1.00  0.00    -0.318 OA 
BRANCH   5   6
HETATM    6  C   UNL     1     -11.887  13.171  68.761  1.00  0.00    -0.324 A  
HETATM    7  C   UNL     1     -11.720  12.761  67.452  1.00  0.00    -0.366 A  
HETATM    8  N   UNL     1     -11.514  11.485  67.078  1.00  0.00    -0.496 NA 
HETATM    9  C   UNL     1     -11.488  10.595  68.064  1.00  0.00    -0.212 A  
HETATM   10  C   UNL     1     -11.842  12.144  69.685  1.00  0.00    -0.322 A  
HETATM   11  N   UNL     1     -11.652  10.838  69.368  1.00  0.00    -0.287 NA 
BRANCH   9  12
HETATM   12  N   UNL     1     -11.214   9.279  67.700  1.00  0.00    -0.366 N  
HETATM   13  H   UNL     1     -11.856   8.708  67.151  1.00  0.00     0.000 HD 
BRANCH  12  14
HETATM   14  S   UNL     1      -9.730   8.718  68.249  1.00  0.00    -0.163 S  
HETATM   15  O   UNL     1      -9.754   8.464  69.675  1.00  0.00    -0.170 OA 
HETATM   16  O   UNL     1      -8.727   9.587  67.673  1.00  0.00    -0.122 OA 
BRANCH  14  17
HETATM   17  C   UNL     1      -9.551   7.141  67.428  1.00  0.00    -0.137 A  
HETATM   18  C   UNL     1      -8.271   6.637  67.179  1.00  0.00    -0.113 A  
HETATM   19  C   UNL     1      -8.131   5.402  66.547  1.00  0.00    -0.105 A  
HETATM   20  C   UNL     1      -9.264   4.674  66.177  1.00  0.00    -0.140 A  
HETATM   21  C   UNL     1     -10.539   5.167  66.454  1.00  0.00    -0.336 A  
HETATM   22  C   UNL     1     -10.687   6.397  67.097  1.00  0.00    -0.433 A  
ENDBRANCH  14  17
ENDBRANCH  12  14
ENDBRANCH   9  12
ENDBRANCH   5   6
ENDBRANCH   4   5
ENDBRANCH   3   4
ENDBRANCH   2   3
TORSDOF 7
ENDMDL
MODEL      104
REMARK 921   NORMALIZED FREE ENERGY PREDICTED BY IDOCK:   -4.29 KCAL/MOL
REMARK 922        TOTAL FREE ENERGY PREDICTED BY IDOCK:   -6.58 KCAL/MOL
REMARK 923 INTER-LIGAND FREE ENERGY PREDICTED BY IDOCK:   -6.11 KCAL/MOL
REMARK 924 INTRA-LIGAND FREE ENERGY PREDICTED BY IDOCK:   -0.47 KCAL/MOL
REMARK 927      BINDING AFFINITY PREDICTED BY RF-SCORE:    0.00 PKD
ROOT
HETATM    1  C   UNL     1     -11.163   6.540  69.872  1.00  0.00    -0.395 C  
HETATM    2  O   UNL     1     -10.336   7.629  69.496  1.00  0.00    -0.207 OA 
ENDROOT
BRANCH   2   3
HETATM    3  C   UNL     1      -9.540   7.339  68.343  1.00  0.00    -0.139 C  
BRANCH   3   4
HETATM    4  C   UNL     1      -9.405   8.634  67.553  1.00  0.00    -0.137 C  
BRANCH   4   5
HETATM    5  O   UNL     1      -9.717   9.785  68.346  1.00  0.00    -0.146 OA 
BRANCH   5   6
HETATM    6  C   UNL     1      -9.612  10.970  67.676  1.00  0.00    -0.168 A  
HETATM    7  C   UNL     1      -9.904  11.197  66.345  1.00  0.00    -0.211 A  
HETATM    8  N   UNL     1      -9.798  12.394  65.738  1.00  0.00    -0.255 NA 
HETATM    9  C   UNL     1      -9.369  13.390  66.505  1.00  0.00    -0.215 A  
HETATM   10  C   UNL     1      -9.174  12.091  68.357  1.00  0.00    -0.160 A  
HETATM   11  N   UNL     1      -9.032  13.319  67.796  1.00  0.00    -0.185 NA 
BRANCH   9  12
HETATM   12  N   UNL     1      -9.313  14.647  65.908  1.00  0.00    -0.515 N  
HETATM   13  H   UNL     1      -8.445  15.068  65.579  1.00  0.00     0.000 HD 
BRANCH  12  14
HETATM   14  S   UNL     1     -10.804  15.406  65.782  1.00  0.00    -0.332 S  
HETATM   15  O   UNL     1     -11.832  14.675  66.497  1.00  0.00    -0.373 OA 
HETATM   16  O   UNL     1     -10.976  15.741  64.385  1.00  0.00    -0.412 OA 
BRANCH  14  17
HETATM   17  C   UNL     1     -10.558  16.955  66.638  1.00  0.00    -0.189 A  
HETATM   18  C   UNL     1     -10.421  16.957  68.030  1.00  0.00    -0.347 A  
HETATM   19  C   UNL     1     -10.219  18.165  68.697  1.00  0.00    -0.382 A  
HETATM   20  C   UNL     1     -10.144  19.358  67.976  1.00  0.00    -0.516 A  
HETATM   21  C   UNL     1     -10.252  19.348  66.585  1.00  0.00    -0.533 A  
HETATM   22  C   UNL     1     -10.443  18.142  65.909  1.00  0.00    -0.292 A  
ENDBRANCH  14  17
ENDBRANCH  12  14
ENDBRANCH   9  12
ENDBRANCH   5   6
ENDBRANCH   4   5
ENDBRANCH   3   4
ENDBRANCH   2   3
TORSDOF 7
ENDMDL
MODEL      105
REMARK 921   NORMALIZED FREE ENERGY PREDICTED BY IDOCK:   -4.28 KCAL/MOL
REMARK 922        TOTAL FREE ENERGY PREDICTED BY IDOCK:   -6.56 KCAL/MOL
REMARK 923 INTER-LIGAND FREE ENERGY PREDICTED BY IDOCK:   -6.22 KCAL/MOL
REMARK 924 INTRA-LIGAND FREE ENERGY PREDICTED BY IDOCK:   -0.34 KCAL/MOL
REMARK 927      BINDING AFFINITY PREDICTED BY RF-SCORE:    0.00 PKD
ROOT
HETATM    1  C   UNL     1     -10.994   8.814  71.612  1.00  0.00    -0.321 C  
HETATM    2  O   UNL     1     -10.633   9.962  70.860  1.00  0.00    -0.304 OA 
ENDROOT
BRANCH   2   3
HETATM    3  C   UNL     1     -11.557  10.238  69.805  1.00  0.00    -0.227 C  
BRANCH   3   4
HETATM    4  C   UNL     1     -12.014  11.682  69.975  1.00  0.00    -0.351 C  
BRANCH   4   5
HETATM    5  O   UNL     1     -12.067  12.381  68.727  1.00  0.00    -0.269 OA 
BRANCH   5   6
HETATM    6  C   UNL     1     -11.242  13.468  68.661  1.00  0.00    -0.278 A  
HETATM    7  C   UNL     1      -9.983  13.518  68.094  1.00  0.00    -0.240 A  
HETATM    8  N   UNL     1      -9.218  14.624  68.042  1.00  0.00    -0.192 NA 
HETATM    9  C   UNL     1      -9.744  15.712  68.593  1.00  0.00    -0.204 A  
HETATM   10  C   UNL     1     -11.667  14.668  69.200  1.00  0.00    -0.309 A  
HETATM   11  N   UNL     1     -10.935  15.812  69.191  1.00  0.00    -0.245 NA 
BRANCH   9  12
HETATM   12  N   UNL     1      -8.992  16.880  68.493  1.00  0.00    -0.247 N  
HETATM   13  H   UNL     1      -8.213  17.095  69.114  1.00  0.00     0.000 HD 
BRANCH  12  14
HETATM   14  S   UNL     1      -9.485  17.900  67.255  1.00  0.00    -0.268 S  
HETATM   15  O   UNL     1     -10.700  18.608  67.606  1.00  0.00    -0.427 OA 
HETATM   16  O   UNL     1      -9.409  17.129  66.034  1.00  0.00    -0.461 OA 
BRANCH  14  17
HETATM   17  C   UNL     1      -8.172  19.108  67.162  1.00  0.00    -0.270 A  
HETATM   18  C   UNL     1      -7.631  19.628  68.343  1.00  0.00    -0.362 A  
HETATM   19  C   UNL     1      -6.600  20.563  68.270  1.00  0.00    -0.315 A  
HETATM   20  C   UNL     1      -6.108  20.968  67.028  1.00  0.00    -0.362 A  
HETATM   21  C   UNL     1      -6.631  20.425  65.854  1.00  0.00    -0.267 A  
HETATM   22  C   UNL     1      -7.655  19.479  65.917  1.00  0.00    -0.306 A  
ENDBRANCH  14  17
ENDBRANCH  12  14
ENDBRANCH   9  12
ENDBRANCH   5   6
ENDBRANCH   4   5
ENDBRANCH   3   4
ENDBRANCH   2   3
TORSDOF 7
ENDMDL
MODEL      106
REMARK 921   NORMALIZED FREE ENERGY PREDICTED BY IDOCK:   -4.28 KCAL/MOL
REMARK 922        TOTAL FREE ENERGY PREDICTED BY IDOCK:   -6.56 KCAL/MOL
REMARK 923 INTER-LIGAND FREE ENERGY PREDICTED BY IDOCK:   -6.18 KCAL/MOL
REMARK 924 INTRA-LIGAND FREE ENERGY PREDICTED BY IDOCK:   -0.38 KCAL/MOL
REMARK 927      BINDING AFFINITY PREDICTED BY RF-SCORE:    0.00 PKD
ROOT
HETATM    1  C   UNL     1     -13.374   8.931  71.943  1.00  0.00    -0.405 C  
HETATM    2  O   UNL     1     -13.610   7.561  71.659  1.00  0.00    -0.365 OA 
ENDROOT
BRANCH   2   3
HETATM    3  C   UNL     1     -12.456   6.906  71.127  1.00  0.00    -0.349 C  
BRANCH   3   4
HETATM    4  C   UNL     1     -11.411   7.983  70.863  1.00  0.00    -0.276 C  
BRANCH   4   5
HETATM    5  O   UNL     1     -10.644   7.713  69.684  1.00  0.00    -0.238 OA 
BRANCH   5   6
HETATM    6  C   UNL     1     -10.130   8.828  69.085  1.00  0.00    -0.198 A  
HETATM    7  C   UNL     1      -9.276   9.753  69.652  1.00  0.00    -0.223 A  
HETATM    8  N   UNL     1      -8.786  10.828  69.007  1.00  0.00    -0.154 NA 
HETATM    9  C   UNL     1      -9.186  10.974  67.749  1.00  0.00    -0.155 A  
HETATM   10  C   UNL     1     -10.468   9.100  67.772  1.00  0.00    -0.247 A  
HETATM   11  N   UNL     1     -10.019  10.176  67.075  1.00  0.00    -0.190 NA 
BRANCH   9  12
HETATM   12  N   UNL     1      -8.639  12.046  67.048  1.00  0.00    -0.181 N  
HETATM   13  H   UNL     1      -7.699  12.033  66.656  1.00  0.00     0.000 HD 
BRANCH  12  14
HETATM   14  S   UNL     1      -9.671  13.363  66.910  1.00  0.00    -0.260 S  
HETATM   15  O   UNL     1      -8.948  14.568  66.559  1.00  0.00    -0.246 OA 
HETATM   16  O   UNL     1     -10.531  13.332  68.073  1.00  0.00    -0.230 OA 
BRANCH  14  17
HETATM   17  C   UNL     1     -10.706  12.937  65.516  1.00  0.00    -0.279 A  
HETATM   18  C   UNL     1     -10.111  12.532  64.317  1.00  0.00    -0.298 A  
HETATM   19  C   UNL     1     -10.918  12.191  63.233  1.00  0.00    -0.398 A  
HETATM   20  C   UNL     1     -12.309  12.244  63.352  1.00  0.00    -0.624 A  
HETATM   21  C   UNL     1     -12.898  12.620  64.559  1.00  0.00    -0.356 A  
HETATM   22  C   UNL     1     -12.097  12.952  65.653  1.00  0.00    -0.511 A  
ENDBRANCH  14  17
ENDBRANCH  12  14
ENDBRANCH   9  12
ENDBRANCH   5   6
ENDBRANCH   4   5
ENDBRANCH   3   4
ENDBRANCH   2   3
TORSDOF 7
ENDMDL
MODEL      107
REMARK 921   NORMALIZED FREE ENERGY PREDICTED BY IDOCK:   -4.27 KCAL/MOL
REMARK 922        TOTAL FREE ENERGY PREDICTED BY IDOCK:   -6.55 KCAL/MOL
REMARK 923 INTER-LIGAND FREE ENERGY PREDICTED BY IDOCK:   -6.05 KCAL/MOL
REMARK 924 INTRA-LIGAND FREE ENERGY PREDICTED BY IDOCK:   -0.50 KCAL/MOL
REMARK 927      BINDING AFFINITY PREDICTED BY RF-SCORE:    0.00 PKD
ROOT
HETATM    1  C   UNL     1      -9.150   4.423  71.294  1.00  0.00    -0.127 C  
HETATM    2  O   UNL     1     -10.520   4.494  71.657  1.00  0.00    -0.134 OA 
ENDROOT
BRANCH   2   3
HETATM    3  C   UNL     1     -10.707   4.963  72.995  1.00  0.00    -0.244 C  
BRANCH   3   4
HETATM    4  C   UNL     1     -11.231   6.390  72.902  1.00  0.00    -0.186 C  
BRANCH   4   5
HETATM    5  O   UNL     1     -11.813   6.669  71.623  1.00  0.00    -0.304 OA 
BRANCH   5   6
HETATM    6  C   UNL     1     -11.377   7.830  71.052  1.00  0.00    -0.271 A  
HETATM    7  C   UNL     1     -10.607   7.954  69.911  1.00  0.00    -0.242 A  
HETATM    8  N   UNL     1     -10.219   9.128  69.382  1.00  0.00    -0.203 NA 
HETATM    9  C   UNL     1     -10.614  10.213  70.039  1.00  0.00    -0.287 A  
HETATM   10  C   UNL     1     -11.716   9.036  71.638  1.00  0.00    -0.361 A  
HETATM   11  N   UNL     1     -11.341  10.250  71.159  1.00  0.00    -0.255 NA 
BRANCH   9  12
HETATM   12  N   UNL     1     -10.273  11.437  69.470  1.00  0.00    -0.414 N  
HETATM   13  H   UNL     1      -9.312  11.774  69.408  1.00  0.00     0.000 HD 
BRANCH  12  14
HETATM   14  S   UNL     1     -11.587  12.309  68.897  1.00  0.00    -0.334 S  
HETATM   15  O   UNL     1     -12.190  13.108  69.944  1.00  0.00    -0.291 OA 
HETATM   16  O   UNL     1     -12.387  11.382  68.125  1.00  0.00    -0.502 OA 
BRANCH  14  17
HETATM   17  C   UNL     1     -10.858  13.436  67.718  1.00  0.00    -0.252 A  
HETATM   18  C   UNL     1     -11.682  14.118  66.818  1.00  0.00    -0.432 A  
HETATM   19  C   UNL     1     -11.114  15.005  65.904  1.00  0.00    -0.334 A  
HETATM   20  C   UNL     1      -9.733  15.214  65.899  1.00  0.00    -0.385 A  
HETATM   21  C   UNL     1      -8.918  14.554  66.818  1.00  0.00    -0.270 A  
HETATM   22  C   UNL     1      -9.480  13.674  67.744  1.00  0.00    -0.221 A  
ENDBRANCH  14  17
ENDBRANCH  12  14
ENDBRANCH   9  12
ENDBRANCH   5   6
ENDBRANCH   4   5
ENDBRANCH   3   4
ENDBRANCH   2   3
TORSDOF 7
ENDMDL
MODEL      108
REMARK 921   NORMALIZED FREE ENERGY PREDICTED BY IDOCK:   -4.27 KCAL/MOL
REMARK 922        TOTAL FREE ENERGY PREDICTED BY IDOCK:   -6.55 KCAL/MOL
REMARK 923 INTER-LIGAND FREE ENERGY PREDICTED BY IDOCK:   -6.11 KCAL/MOL
REMARK 924 INTRA-LIGAND FREE ENERGY PREDICTED BY IDOCK:   -0.44 KCAL/MOL
REMARK 927      BINDING AFFINITY PREDICTED BY RF-SCORE:    0.00 PKD
ROOT
HETATM    1  C   UNL     1      -9.331  10.653  62.525  1.00  0.00    -0.286 C  
HETATM    2  O   UNL     1      -9.748  10.156  63.787  1.00  0.00    -0.291 OA 
ENDROOT
BRANCH   2   3
HETATM    3  C   UNL     1      -8.802  10.431  64.823  1.00  0.00    -0.193 C  
BRANCH   3   4
HETATM    4  C   UNL     1      -9.472  10.084  66.146  1.00  0.00    -0.190 C  
BRANCH   4   5
HETATM    5  O   UNL     1     -10.852  10.465  66.169  1.00  0.00    -0.073 OA 
BRANCH   5   6
HETATM    6  C   UNL     1     -11.078  11.717  66.665  1.00  0.00    -0.310 A  
HETATM    7  C   UNL     1     -10.858  12.917  66.017  1.00  0.00    -0.279 A  
HETATM    8  N   UNL     1     -11.115  14.125  66.550  1.00  0.00    -0.312 NA 
HETATM    9  C   UNL     1     -11.602  14.116  67.786  1.00  0.00    -0.347 A  
HETATM   10  C   UNL     1     -11.583  11.851  67.945  1.00  0.00    -0.323 A  
HETATM   11  N   UNL     1     -11.848  13.042  68.542  1.00  0.00    -0.330 NA 
BRANCH   9  12
HETATM   12  N   UNL     1     -11.931  15.355  68.329  1.00  0.00    -0.501 N  
HETATM   13  H   UNL     1     -12.834  15.805  68.180  1.00  0.00     0.000 HD 
BRANCH  12  14
HETATM   14  S   UNL     1     -10.707  16.039  69.251  1.00  0.00    -0.301 S  
HETATM   15  O   UNL     1      -9.621  15.105  69.465  1.00  0.00    -0.212 OA 
HETATM   16  O   UNL     1     -11.353  16.687  70.371  1.00  0.00    -0.207 OA 
BRANCH  14  17
HETATM   17  C   UNL     1     -10.085  17.352  68.209  1.00  0.00    -0.339 A  
HETATM   18  C   UNL     1      -8.838  17.208  67.594  1.00  0.00    -0.218 A  
HETATM   19  C   UNL     1      -8.357  18.228  66.774  1.00  0.00    -0.269 A  
HETATM   20  C   UNL     1      -9.123  19.377  66.564  1.00  0.00    -0.397 A  
HETATM   21  C   UNL     1     -10.380  19.503  67.156  1.00  0.00    -0.568 A  
HETATM   22  C   UNL     1     -10.873  18.482  67.969  1.00  0.00    -0.161 A  
ENDBRANCH  14  17
ENDBRANCH  12  14
ENDBRANCH   9  12
ENDBRANCH   5   6
ENDBRANCH   4   5
ENDBRANCH   3   4
ENDBRANCH   2   3
TORSDOF 7
ENDMDL
MODEL      109
REMARK 921   NORMALIZED FREE ENERGY PREDICTED BY IDOCK:   -4.26 KCAL/MOL
REMARK 922        TOTAL FREE ENERGY PREDICTED BY IDOCK:   -6.53 KCAL/MOL
REMARK 923 INTER-LIGAND FREE ENERGY PREDICTED BY IDOCK:   -6.29 KCAL/MOL
REMARK 924 INTRA-LIGAND FREE ENERGY PREDICTED BY IDOCK:   -0.25 KCAL/MOL
REMARK 927      BINDING AFFINITY PREDICTED BY RF-SCORE:    0.00 PKD
ROOT
HETATM    1  C   UNL     1     -10.918  16.942  65.167  1.00  0.00    -0.053 C  
HETATM    2  O   UNL     1      -9.849  17.816  65.491  1.00  0.00    -0.439 OA 
ENDROOT
BRANCH   2   3
HETATM    3  C   UNL     1     -10.299  19.029  66.098  1.00  0.00    -0.468 C  
BRANCH   3   4
HETATM    4  C   UNL     1     -10.662  18.702  67.541  1.00  0.00    -0.394 C  
BRANCH   4   5
HETATM    5  O   UNL     1      -9.594  18.042  68.229  1.00  0.00    -0.291 OA 
BRANCH   5   6
HETATM    6  C   UNL     1      -9.792  16.703  68.415  1.00  0.00    -0.252 A  
HETATM    7  C   UNL     1      -8.992  15.676  67.953  1.00  0.00    -0.180 A  
HETATM    8  N   UNL     1      -9.227  14.370  68.180  1.00  0.00    -0.192 NA 
HETATM    9  C   UNL     1     -10.315  14.098  68.891  1.00  0.00    -0.199 A  
HETATM   10  C   UNL     1     -10.892  16.281  69.137  1.00  0.00    -0.314 A  
HETATM   11  N   UNL     1     -11.189  14.979  69.386  1.00  0.00    -0.268 NA 
BRANCH   9  12
HETATM   12  N   UNL     1     -10.539  12.756  69.188  1.00  0.00    -0.439 N  
HETATM   13  H   UNL     1     -10.090  12.277  69.967  1.00  0.00     0.000 HD 
BRANCH  12  14
HETATM   14  S   UNL     1     -11.615  12.001  68.144  1.00  0.00    -0.341 S  
HETATM   15  O   UNL     1     -12.269  12.957  67.275  1.00  0.00    -0.353 OA 
HETATM   16  O   UNL     1     -12.393  11.087  68.952  1.00  0.00    -0.516 OA 
BRANCH  14  17
HETATM   17  C   UNL     1     -10.559  10.985  67.121  1.00  0.00    -0.250 A  
HETATM   18  C   UNL     1     -10.659   9.592  67.201  1.00  0.00    -0.298 A  
HETATM   19  C   UNL     1      -9.843   8.799  66.395  1.00  0.00    -0.352 A  
HETATM   20  C   UNL     1      -8.940   9.396  65.512  1.00  0.00    -0.248 A  
HETATM   21  C   UNL     1      -8.865  10.785  65.415  1.00  0.00    -0.202 A  
HETATM   22  C   UNL     1      -9.687  11.586  66.209  1.00  0.00    -0.240 A  
ENDBRANCH  14  17
ENDBRANCH  12  14
ENDBRANCH   9  12
ENDBRANCH   5   6
ENDBRANCH   4   5
ENDBRANCH   3   4
ENDBRANCH   2   3
TORSDOF 7
ENDMDL
MODEL      110
REMARK 921   NORMALIZED FREE ENERGY PREDICTED BY IDOCK:   -4.25 KCAL/MOL
REMARK 922        TOTAL FREE ENERGY PREDICTED BY IDOCK:   -6.52 KCAL/MOL
REMARK 923 INTER-LIGAND FREE ENERGY PREDICTED BY IDOCK:   -7.02 KCAL/MOL
REMARK 924 INTRA-LIGAND FREE ENERGY PREDICTED BY IDOCK:    0.50 KCAL/MOL
REMARK 927      BINDING AFFINITY PREDICTED BY RF-SCORE:    0.00 PKD
ROOT
HETATM    1  C   UNL     1     -11.602  12.204  64.700  1.00  0.00    -0.328 C  
HETATM    2  O   UNL     1     -10.529  13.118  64.543  1.00  0.00    -0.377 OA 
ENDROOT
BRANCH   2   3
HETATM    3  C   UNL     1     -10.859  14.432  65.002  1.00  0.00    -0.407 C  
BRANCH   3   4
HETATM    4  C   UNL     1      -9.589  15.036  65.587  1.00  0.00    -0.244 C  
BRANCH   4   5
HETATM    5  O   UNL     1      -9.844  16.262  66.280  1.00  0.00    -0.273 OA 
BRANCH   5   6
HETATM    6  C   UNL     1     -10.190  16.101  67.591  1.00  0.00    -0.265 A  
HETATM    7  C   UNL     1     -11.324  16.585  68.214  1.00  0.00    -0.180 A  
HETATM    8  N   UNL     1     -11.623  16.382  69.510  1.00  0.00    -0.142 NA 
HETATM    9  C   UNL     1     -10.735  15.674  70.200  1.00  0.00    -0.342 A  
HETATM   10  C   UNL     1      -9.350  15.385  68.424  1.00  0.00    -0.193 A  
HETATM   11  N   UNL     1      -9.590  15.160  69.742  1.00  0.00    -0.124 NA 
BRANCH   9  12
HETATM   12  N   UNL     1     -11.060  15.402  71.526  1.00  0.00    -0.455 N  
HETATM   13  H   UNL     1     -10.404  15.529  72.297  1.00  0.00     0.000 HD 
BRANCH  12  14
HETATM   14  S   UNL     1     -12.629  14.847  71.741  1.00  0.00    -0.355 S  
HETATM   15  O   UNL     1     -13.559  15.541  70.874  1.00  0.00    -0.520 OA 
HETATM   16  O   UNL     1     -12.852  14.794  73.169  1.00  0.00    -0.463 OA 
BRANCH  14  17
HETATM   17  C   UNL     1     -12.550  13.149  71.188  1.00  0.00    -0.314 A  
HETATM   18  C   UNL     1     -13.024  12.132  72.021  1.00  0.00    -0.377 A  
HETATM   19  C   UNL     1     -12.971  10.808  71.585  1.00  0.00    -0.581 A  
HETATM   20  C   UNL     1     -12.456  10.508  70.322  1.00  0.00    -0.345 A  
HETATM   21  C   UNL     1     -12.012  11.529  69.483  1.00  0.00    -0.402 A  
HETATM   22  C   UNL     1     -12.072  12.857  69.906  1.00  0.00    -0.335 A  
ENDBRANCH  14  17
ENDBRANCH  12  14
ENDBRANCH   9  12
ENDBRANCH   5   6
ENDBRANCH   4   5
ENDBRANCH   3   4
ENDBRANCH   2   3
TORSDOF 7
ENDMDL
MODEL      111
REMARK 921   NORMALIZED FREE ENERGY PREDICTED BY IDOCK:   -4.25 KCAL/MOL
REMARK 922        TOTAL FREE ENERGY PREDICTED BY IDOCK:   -6.52 KCAL/MOL
REMARK 923 INTER-LIGAND FREE ENERGY PREDICTED BY IDOCK:   -6.08 KCAL/MOL
REMARK 924 INTRA-LIGAND FREE ENERGY PREDICTED BY IDOCK:   -0.44 KCAL/MOL
REMARK 927      BINDING AFFINITY PREDICTED BY RF-SCORE:    0.00 PKD
ROOT
HETATM    1  C   UNL     1      -6.381   4.435  72.504  1.00  0.00    -0.021 C  
HETATM    2  O   UNL     1      -7.673   4.504  73.086  1.00  0.00    -0.084 OA 
ENDROOT
BRANCH   2   3
HETATM    3  C   UNL     1      -7.757   5.495  74.114  1.00  0.00    -0.099 C  
BRANCH   3   4
HETATM    4  C   UNL     1      -8.927   6.406  73.764  1.00  0.00    -0.126 C  
BRANCH   4   5
HETATM    5  O   UNL     1      -9.616   5.971  72.586  1.00  0.00    -0.150 OA 
BRANCH   5   6
HETATM    6  C   UNL     1     -10.332   6.954  71.964  1.00  0.00    -0.199 A  
HETATM    7  C   UNL     1     -10.520   7.105  70.603  1.00  0.00    -0.210 A  
HETATM    8  N   UNL     1     -11.252   8.086  70.043  1.00  0.00    -0.158 NA 
HETATM    9  C   UNL     1     -11.800   8.949  70.892  1.00  0.00    -0.240 A  
HETATM   10  C   UNL     1     -10.954   7.921  72.731  1.00  0.00    -0.393 A  
HETATM   11  N   UNL     1     -11.691   8.942  72.223  1.00  0.00    -0.333 NA 
BRANCH   9  12
HETATM   12  N   UNL     1     -12.610   9.933  70.332  1.00  0.00    -0.514 N  
HETATM   13  H   UNL     1     -13.629   9.889  70.344  1.00  0.00     0.000 HD 
BRANCH  12  14
HETATM   14  S   UNL     1     -11.757  11.200  69.636  1.00  0.00    -0.371 S  
HETATM   15  O   UNL     1     -12.074  11.342  68.230  1.00  0.00    -0.619 OA 
HETATM   16  O   UNL     1     -10.385  11.056  70.071  1.00  0.00     0.118 OA 
BRANCH  14  17
HETATM   17  C   UNL     1     -12.395  12.643  70.475  1.00  0.00    -0.268 A  
HETATM   18  C   UNL     1     -13.104  12.486  71.671  1.00  0.00    -0.414 A  
HETATM   19  C   UNL     1     -13.593  13.613  72.330  1.00  0.00    -0.703 A  
HETATM   20  C   UNL     1     -13.367  14.886  71.803  1.00  0.00    -0.453 A  
HETATM   21  C   UNL     1     -12.634  15.039  70.626  1.00  0.00    -0.429 A  
HETATM   22  C   UNL     1     -12.131  13.918  69.965  1.00  0.00    -0.411 A  
ENDBRANCH  14  17
ENDBRANCH  12  14
ENDBRANCH   9  12
ENDBRANCH   5   6
ENDBRANCH   4   5
ENDBRANCH   3   4
ENDBRANCH   2   3
TORSDOF 7
ENDMDL
MODEL      112
REMARK 921   NORMALIZED FREE ENERGY PREDICTED BY IDOCK:   -4.24 KCAL/MOL
REMARK 922        TOTAL FREE ENERGY PREDICTED BY IDOCK:   -6.51 KCAL/MOL
REMARK 923 INTER-LIGAND FREE ENERGY PREDICTED BY IDOCK:   -6.11 KCAL/MOL
REMARK 924 INTRA-LIGAND FREE ENERGY PREDICTED BY IDOCK:   -0.39 KCAL/MOL
REMARK 927      BINDING AFFINITY PREDICTED BY RF-SCORE:    0.00 PKD
ROOT
HETATM    1  C   UNL     1      -8.531   3.987  71.845  1.00  0.00    -0.099 C  
HETATM    2  O   UNL     1      -9.908   4.322  71.782  1.00  0.00    -0.164 OA 
ENDROOT
BRANCH   2   3
HETATM    3  C   UNL     1     -10.468   4.575  73.074  1.00  0.00    -0.194 C  
BRANCH   3   4
HETATM    4  C   UNL     1     -10.996   6.004  73.062  1.00  0.00    -0.257 C  
BRANCH   4   5
HETATM    5  O   UNL     1     -11.753   6.289  71.880  1.00  0.00    -0.310 OA 
BRANCH   5   6
HETATM    6  C   UNL     1     -11.349   7.412  71.216  1.00  0.00    -0.265 A  
HETATM    7  C   UNL     1     -11.315   8.701  71.712  1.00  0.00    -0.323 A  
HETATM    8  N   UNL     1     -10.890   9.771  71.016  1.00  0.00    -0.334 NA 
HETATM    9  C   UNL     1     -10.498   9.527  69.771  1.00  0.00    -0.231 A  
HETATM   10  C   UNL     1     -10.917   7.300  69.907  1.00  0.00    -0.243 A  
HETATM   11  N   UNL     1     -10.492   8.344  69.150  1.00  0.00    -0.220 NA 
BRANCH   9  12
HETATM   12  N   UNL     1      -9.998  10.613  69.058  1.00  0.00    -0.206 N  
HETATM   13  H   UNL     1      -9.001  10.772  68.912  1.00  0.00     0.000 HD 
BRANCH  12  14
HETATM   14  S   UNL     1     -11.185  11.638  68.460  1.00  0.00    -0.285 S  
HETATM   15  O   UNL     1     -10.942  13.013  68.848  1.00  0.00    -0.244 OA 
HETATM   16  O   UNL     1     -12.454  11.005  68.748  1.00  0.00    -0.468 OA 
BRANCH  14  17
HETATM   17  C   UNL     1     -10.970  11.537  66.689  1.00  0.00    -0.296 A  
HETATM   18  C   UNL     1     -11.786  12.305  65.853  1.00  0.00    -0.451 A  
HETATM   19  C   UNL     1     -11.612  12.234  64.471  1.00  0.00    -0.418 A  
HETATM   20  C   UNL     1     -10.624  11.406  63.933  1.00  0.00    -0.452 A  
HETATM   21  C   UNL     1      -9.794  10.664  64.772  1.00  0.00    -0.372 A  
HETATM   22  C   UNL     1      -9.953  10.739  66.156  1.00  0.00    -0.283 A  
ENDBRANCH  14  17
ENDBRANCH  12  14
ENDBRANCH   9  12
ENDBRANCH   5   6
ENDBRANCH   4   5
ENDBRANCH   3   4
ENDBRANCH   2   3
TORSDOF 7
ENDMDL
MODEL      113
REMARK 921   NORMALIZED FREE ENERGY PREDICTED BY IDOCK:   -4.22 KCAL/MOL
REMARK 922        TOTAL FREE ENERGY PREDICTED BY IDOCK:   -6.48 KCAL/MOL
REMARK 923 INTER-LIGAND FREE ENERGY PREDICTED BY IDOCK:   -6.08 KCAL/MOL
REMARK 924 INTRA-LIGAND FREE ENERGY PREDICTED BY IDOCK:   -0.39 KCAL/MOL
REMARK 927      BINDING AFFINITY PREDICTED BY RF-SCORE:    0.00 PKD
ROOT
HETATM    1  C   UNL     1     -10.131  19.134  68.368  1.00  0.00    -0.418 C  
HETATM    2  O   UNL     1     -10.872  19.855  67.397  1.00  0.00    -0.371 OA 
ENDROOT
BRANCH   2   3
HETATM    3  C   UNL     1     -10.502  19.510  66.060  1.00  0.00    -0.516 C  
BRANCH   3   4
HETATM    4  C   UNL     1     -10.054  18.054  66.079  1.00  0.00    -0.266 C  
BRANCH   4   5
HETATM    5  O   UNL     1     -10.896  17.220  65.275  1.00  0.00    -0.576 OA 
BRANCH   5   6
HETATM    6  C   UNL     1     -10.844  15.894  65.600  1.00  0.00    -0.284 A  
HETATM    7  C   UNL     1     -10.631  15.358  66.855  1.00  0.00    -0.309 A  
HETATM    8  N   UNL     1     -10.606  14.040  67.123  1.00  0.00    -0.273 NA 
HETATM    9  C   UNL     1     -10.792  13.239  66.079  1.00  0.00    -0.273 A  
HETATM   10  C   UNL     1     -11.020  14.951  64.605  1.00  0.00    -0.306 A  
HETATM   11  N   UNL     1     -10.990  13.609  64.811  1.00  0.00    -0.357 NA 
BRANCH   9  12
HETATM   12  N   UNL     1     -10.831  11.873  66.349  1.00  0.00    -0.267 N  
HETATM   13  H   UNL     1     -11.665  11.398  66.693  1.00  0.00     0.000 HD 
BRANCH  12  14
HETATM   14  S   UNL     1      -9.380  11.082  66.057  1.00  0.00    -0.209 S  
HETATM   15  O   UNL     1      -8.292  11.679  66.804  1.00  0.00    -0.167 OA 
HETATM   16  O   UNL     1      -9.286  10.918  64.622  1.00  0.00    -0.201 OA 
BRANCH  14  17
HETATM   17  C   UNL     1      -9.654   9.448  66.726  1.00  0.00    -0.179 A  
HETATM   18  C   UNL     1      -9.273   8.328  65.982  1.00  0.00    -0.226 A  
HETATM   19  C   UNL     1      -9.478   7.053  66.508  1.00  0.00    -0.199 A  
HETATM   20  C   UNL     1     -10.051   6.902  67.773  1.00  0.00    -0.199 A  
HETATM   21  C   UNL     1     -10.403   8.024  68.524  1.00  0.00    -0.229 A  
HETATM   22  C   UNL     1     -10.190   9.303  68.010  1.00  0.00    -0.255 A  
ENDBRANCH  14  17
ENDBRANCH  12  14
ENDBRANCH   9  12
ENDBRANCH   5   6
ENDBRANCH   4   5
ENDBRANCH   3   4
ENDBRANCH   2   3
TORSDOF 7
ENDMDL
MODEL      114
REMARK 921   NORMALIZED FREE ENERGY PREDICTED BY IDOCK:   -4.22 KCAL/MOL
REMARK 922        TOTAL FREE ENERGY PREDICTED BY IDOCK:   -6.48 KCAL/MOL
REMARK 923 INTER-LIGAND FREE ENERGY PREDICTED BY IDOCK:   -5.95 KCAL/MOL
REMARK 924 INTRA-LIGAND FREE ENERGY PREDICTED BY IDOCK:   -0.52 KCAL/MOL
REMARK 927      BINDING AFFINITY PREDICTED BY RF-SCORE:    0.00 PKD
ROOT
HETATM    1  C   UNL     1      -9.502   4.468  71.487  1.00  0.00    -0.153 C  
HETATM    2  O   UNL     1     -10.749   5.085  71.759  1.00  0.00    -0.177 OA 
ENDROOT
BRANCH   2   3
HETATM    3  C   UNL     1     -10.812   5.632  73.079  1.00  0.00    -0.271 C  
BRANCH   3   4
HETATM    4  C   UNL     1     -11.089   7.123  72.935  1.00  0.00    -0.298 C  
BRANCH   4   5
HETATM    5  O   UNL     1     -11.875   7.416  71.774  1.00  0.00    -0.273 OA 
BRANCH   5   6
HETATM    6  C   UNL     1     -11.412   8.470  71.038  1.00  0.00    -0.273 A  
HETATM    7  C   UNL     1     -11.673   9.809  71.255  1.00  0.00    -0.394 A  
HETATM    8  N   UNL     1     -11.176  10.810  70.505  1.00  0.00    -0.218 NA 
HETATM    9  C   UNL     1     -10.398  10.438  69.495  1.00  0.00    -0.237 A  
HETATM   10  C   UNL     1     -10.592   8.223  69.953  1.00  0.00    -0.232 A  
HETATM   11  N   UNL     1     -10.073   9.188  69.152  1.00  0.00    -0.188 NA 
BRANCH   9  12
HETATM   12  N   UNL     1      -9.825  11.464  68.747  1.00  0.00    -0.310 N  
HETATM   13  H   UNL     1      -8.875  11.800  68.899  1.00  0.00     0.000 HD 
BRANCH  12  14
HETATM   14  S   UNL     1     -10.844  12.097  67.573  1.00  0.00    -0.255 S  
HETATM   15  O   UNL     1     -12.148  11.467  67.608  1.00  0.00    -0.623 OA 
HETATM   16  O   UNL     1     -10.078  12.137  66.346  1.00  0.00    -0.213 OA 
BRANCH  14  17
HETATM   17  C   UNL     1     -11.058  13.797  68.080  1.00  0.00    -0.261 A  
HETATM   18  C   UNL     1     -10.465  14.818  67.330  1.00  0.00    -0.256 A  
HETATM   19  C   UNL     1     -10.640  16.145  67.721  1.00  0.00    -0.309 A  
HETATM   20  C   UNL     1     -11.410  16.448  68.846  1.00  0.00    -0.272 A  
HETATM   21  C   UNL     1     -12.024  15.428  69.573  1.00  0.00    -0.358 A  
HETATM   22  C   UNL     1     -11.863  14.098  69.183  1.00  0.00    -0.380 A  
ENDBRANCH  14  17
ENDBRANCH  12  14
ENDBRANCH   9  12
ENDBRANCH   5   6
ENDBRANCH   4   5
ENDBRANCH   3   4
ENDBRANCH   2   3
TORSDOF 7
ENDMDL
MODEL      115
REMARK 921   NORMALIZED FREE ENERGY PREDICTED BY IDOCK:   -4.21 KCAL/MOL
REMARK 922        TOTAL FREE ENERGY PREDICTED BY IDOCK:   -6.47 KCAL/MOL
REMARK 923 INTER-LIGAND FREE ENERGY PREDICTED BY IDOCK:   -5.92 KCAL/MOL
REMARK 924 INTRA-LIGAND FREE ENERGY PREDICTED BY IDOCK:   -0.55 KCAL/MOL
REMARK 927      BINDING AFFINITY PREDICTED BY RF-SCORE:    0.00 PKD
ROOT
HETATM    1  C   UNL     1     -10.057   5.019  66.060  1.00  0.00    -0.209 C  
HETATM    2  O   UNL     1      -9.441   6.011  66.865  1.00  0.00    -0.125 OA 
ENDROOT
BRANCH   2   3
HETATM    3  C   UNL     1     -10.211   6.327  68.028  1.00  0.00    -0.172 C  
BRANCH   3   4
HETATM    4  C   UNL     1     -10.020   7.813  68.304  1.00  0.00    -0.178 C  
BRANCH   4   5
HETATM    5  O   UNL     1      -8.935   8.366  67.550  1.00  0.00    -0.134 OA 
BRANCH   5   6
HETATM    6  C   UNL     1      -9.230   9.547  66.931  1.00  0.00    -0.143 A  
HETATM    7  C   UNL     1      -8.805  10.807  67.305  1.00  0.00    -0.133 A  
HETATM    8  N   UNL     1      -9.114  11.939  66.646  1.00  0.00    -0.200 NA 
HETATM    9  C   UNL     1      -9.890  11.788  65.579  1.00  0.00    -0.234 A  
HETATM   10  C   UNL     1     -10.034   9.533  65.805  1.00  0.00    -0.245 A  
HETATM   11  N   UNL     1     -10.392  10.642  65.108  1.00  0.00    -0.289 NA 
BRANCH   9  12
HETATM   12  N   UNL     1     -10.169  12.942  64.850  1.00  0.00    -0.423 N  
HETATM   13  H   UNL     1      -9.542  13.314  64.137  1.00  0.00     0.000 HD 
BRANCH  12  14
HETATM   14  S   UNL     1     -11.629  13.663  65.254  1.00  0.00    -0.334 S  
HETATM   15  O   UNL     1     -12.400  12.830  66.155  1.00  0.00    -0.542 OA 
HETATM   16  O   UNL     1     -12.206  14.138  64.015  1.00  0.00    -0.571 OA 
BRANCH  14  17
HETATM   17  C   UNL     1     -11.137  15.120  66.163  1.00  0.00    -0.311 A  
HETATM   18  C   UNL     1     -10.776  16.277  65.465  1.00  0.00    -0.326 A  
HETATM   19  C   UNL     1     -10.401  17.417  66.175  1.00  0.00    -0.329 A  
HETATM   20  C   UNL     1     -10.397  17.402  67.571  1.00  0.00    -0.351 A  
HETATM   21  C   UNL     1     -10.787  16.255  68.264  1.00  0.00    -0.340 A  
HETATM   22  C   UNL     1     -11.175  15.114  67.561  1.00  0.00    -0.331 A  
ENDBRANCH  14  17
ENDBRANCH  12  14
ENDBRANCH   9  12
ENDBRANCH   5   6
ENDBRANCH   4   5
ENDBRANCH   3   4
ENDBRANCH   2   3
TORSDOF 7
ENDMDL
MODEL      116
REMARK 921   NORMALIZED FREE ENERGY PREDICTED BY IDOCK:   -4.19 KCAL/MOL
REMARK 922        TOTAL FREE ENERGY PREDICTED BY IDOCK:   -6.44 KCAL/MOL
REMARK 923 INTER-LIGAND FREE ENERGY PREDICTED BY IDOCK:   -6.36 KCAL/MOL
REMARK 924 INTRA-LIGAND FREE ENERGY PREDICTED BY IDOCK:   -0.08 KCAL/MOL
REMARK 927      BINDING AFFINITY PREDICTED BY RF-SCORE:    0.00 PKD
ROOT
HETATM    1  C   UNL     1      -9.575  10.563  64.642  1.00  0.00    -0.292 C  
HETATM    2  O   UNL     1      -9.883  11.097  63.365  1.00  0.00    -0.288 OA 
ENDROOT
BRANCH   2   3
HETATM    3  C   UNL     1     -10.892  12.108  63.424  1.00  0.00    -0.414 C  
BRANCH   3   4
HETATM    4  C   UNL     1     -11.236  12.314  64.893  1.00  0.00    -0.319 C  
BRANCH   4   5
HETATM    5  O   UNL     1     -12.157  13.393  65.086  1.00  0.00    -0.365 OA 
BRANCH   5   6
HETATM    6  C   UNL     1     -11.574  14.556  65.503  1.00  0.00    -0.350 A  
HETATM    7  C   UNL     1     -11.138  15.596  64.705  1.00  0.00    -0.412 A  
HETATM    8  N   UNL     1     -10.584  16.730  65.172  1.00  0.00    -0.682 NA 
HETATM    9  C   UNL     1     -10.459  16.806  66.492  1.00  0.00    -0.258 A  
HETATM   10  C   UNL     1     -11.382  14.764  66.856  1.00  0.00    -0.355 A  
HETATM   11  N   UNL     1     -10.816  15.879  67.386  1.00  0.00    -0.313 NA 
BRANCH   9  12
HETATM   12  N   UNL     1      -9.945  17.998  66.996  1.00  0.00    -0.314 N  
HETATM   13  H   UNL     1     -10.534  18.761  67.330  1.00  0.00     0.000 HD 
BRANCH  12  14
HETATM   14  S   UNL     1      -8.268  18.066  67.001  1.00  0.00    -0.233 S  
HETATM   15  O   UNL     1      -7.785  19.150  67.832  1.00  0.00    -0.263 OA 
HETATM   16  O   UNL     1      -7.851  17.954  65.620  1.00  0.00    -0.534 OA 
BRANCH  14  17
HETATM   17  C   UNL     1      -7.792  16.535  67.790  1.00  0.00    -0.152 A  
HETATM   18  C   UNL     1      -7.789  16.454  69.186  1.00  0.00    -0.214 A  
HETATM   19  C   UNL     1      -7.427  15.256  69.802  1.00  0.00    -0.122 A  
HETATM   20  C   UNL     1      -7.080  14.148  69.026  1.00  0.00    -0.111 A  
HETATM   21  C   UNL     1      -7.112  14.226  67.634  1.00  0.00    -0.200 A  
HETATM   22  C   UNL     1      -7.485  15.417  67.010  1.00  0.00    -0.166 A  
ENDBRANCH  14  17
ENDBRANCH  12  14
ENDBRANCH   9  12
ENDBRANCH   5   6
ENDBRANCH   4   5
ENDBRANCH   3   4
ENDBRANCH   2   3
TORSDOF 7
ENDMDL
MODEL      117
REMARK 921   NORMALIZED FREE ENERGY PREDICTED BY IDOCK:   -4.18 KCAL/MOL
REMARK 922        TOTAL FREE ENERGY PREDICTED BY IDOCK:   -6.43 KCAL/MOL
REMARK 923 INTER-LIGAND FREE ENERGY PREDICTED BY IDOCK:   -5.88 KCAL/MOL
REMARK 924 INTRA-LIGAND FREE ENERGY PREDICTED BY IDOCK:   -0.55 KCAL/MOL
REMARK 927      BINDING AFFINITY PREDICTED BY RF-SCORE:    0.00 PKD
ROOT
HETATM    1  C   UNL     1     -10.065   5.779  68.461  1.00  0.00    -0.178 C  
HETATM    2  O   UNL     1     -10.973   6.784  68.882  1.00  0.00    -0.242 OA 
ENDROOT
BRANCH   2   3
HETATM    3  C   UNL     1     -11.282   6.694  70.275  1.00  0.00    -0.353 C  
BRANCH   3   4
HETATM    4  C   UNL     1     -11.420   8.118  70.798  1.00  0.00    -0.261 C  
BRANCH   4   5
HETATM    5  O   UNL     1     -10.392   8.978  70.297  1.00  0.00    -0.190 OA 
BRANCH   5   6
HETATM    6  C   UNL     1     -10.835  10.210  69.906  1.00  0.00    -0.299 A  
HETATM    7  C   UNL     1     -10.356  10.968  68.855  1.00  0.00    -0.205 A  
HETATM    8  N   UNL     1     -10.843  12.172  68.504  1.00  0.00    -0.226 NA 
HETATM    9  C   UNL     1     -11.842  12.627  69.252  1.00  0.00    -0.302 A  
HETATM   10  C   UNL     1     -11.872  10.803  70.603  1.00  0.00    -0.360 A  
HETATM   11  N   UNL     1     -12.395  12.020  70.306  1.00  0.00    -0.240 NA 
BRANCH   9  12
HETATM   12  N   UNL     1     -12.398  13.844  68.864  1.00  0.00    -0.454 N  
HETATM   13  H   UNL     1     -13.124  13.922  68.152  1.00  0.00     0.000 HD 
BRANCH  12  14
HETATM   14  S   UNL     1     -11.764  15.169  69.675  1.00  0.00    -0.350 S  
HETATM   15  O   UNL     1     -10.653  14.788  70.524  1.00  0.00     0.010 OA 
HETATM   16  O   UNL     1     -12.892  15.893  70.219  1.00  0.00    -0.335 OA 
BRANCH  14  17
HETATM   17  C   UNL     1     -11.107  16.186  68.361  1.00  0.00    -0.359 A  
HETATM   18  C   UNL     1     -11.016  15.664  67.067  1.00  0.00    -0.261 A  
HETATM   19  C   UNL     1     -10.512  16.461  66.040  1.00  0.00    -0.333 A  
HETATM   20  C   UNL     1     -10.112  17.773  66.305  1.00  0.00    -0.345 A  
HETATM   21  C   UNL     1     -10.232  18.299  67.591  1.00  0.00    -0.397 A  
HETATM   22  C   UNL     1     -10.747  17.512  68.622  1.00  0.00    -0.201 A  
ENDBRANCH  14  17
ENDBRANCH  12  14
ENDBRANCH   9  12
ENDBRANCH   5   6
ENDBRANCH   4   5
ENDBRANCH   3   4
ENDBRANCH   2   3
TORSDOF 7
ENDMDL
MODEL      118
REMARK 921   NORMALIZED FREE ENERGY PREDICTED BY IDOCK:   -4.18 KCAL/MOL
REMARK 922        TOTAL FREE ENERGY PREDICTED BY IDOCK:   -6.42 KCAL/MOL
REMARK 923 INTER-LIGAND FREE ENERGY PREDICTED BY IDOCK:   -5.86 KCAL/MOL
REMARK 924 INTRA-LIGAND FREE ENERGY PREDICTED BY IDOCK:   -0.56 KCAL/MOL
REMARK 927      BINDING AFFINITY PREDICTED BY RF-SCORE:    0.00 PKD
ROOT
HETATM    1  C   UNL     1      -6.100   7.966  70.163  1.00  0.00    -0.032 C  
HETATM    2  O   UNL     1      -7.212   7.421  69.472  1.00  0.00    -0.078 OA 
ENDROOT
BRANCH   2   3
HETATM    3  C   UNL     1      -8.445   8.044  69.842  1.00  0.00    -0.126 C  
BRANCH   3   4
HETATM    4  C   UNL     1      -9.217   8.312  68.556  1.00  0.00    -0.136 C  
BRANCH   4   5
HETATM    5  O   UNL     1      -8.349   8.627  67.462  1.00  0.00    -0.118 OA 
BRANCH   5   6
HETATM    6  C   UNL     1      -8.767   9.684  66.704  1.00  0.00    -0.134 A  
HETATM    7  C   UNL     1      -9.315   9.629  65.437  1.00  0.00    -0.259 A  
HETATM    8  N   UNL     1      -9.726  10.705  64.741  1.00  0.00    -0.264 NA 
HETATM    9  C   UNL     1      -9.564  11.876  65.346  1.00  0.00    -0.165 A  
HETATM   10  C   UNL     1      -8.653  10.964  67.215  1.00  0.00    -0.128 A  
HETATM   11  N   UNL     1      -9.035  12.087  66.555  1.00  0.00    -0.207 NA 
BRANCH   9  12
HETATM   12  N   UNL     1     -10.041  12.993  64.665  1.00  0.00    -0.568 N  
HETATM   13  H   UNL     1      -9.494  13.494  63.965  1.00  0.00     0.000 HD 
BRANCH  12  14
HETATM   14  S   UNL     1     -11.598  13.441  65.102  1.00  0.00    -0.321 S  
HETATM   15  O   UNL     1     -12.308  12.344  65.728  1.00  0.00    -0.644 OA 
HETATM   16  O   UNL     1     -12.162  14.128  63.960  1.00  0.00    -0.571 OA 
BRANCH  14  17
HETATM   17  C   UNL     1     -11.337  14.690  66.353  1.00  0.00    -0.348 A  
HETATM   18  C   UNL     1     -11.896  14.519  67.623  1.00  0.00    -0.395 A  
HETATM   19  C   UNL     1     -11.684  15.489  68.602  1.00  0.00    -0.363 A  
HETATM   20  C   UNL     1     -10.911  16.615  68.315  1.00  0.00    -0.356 A  
HETATM   21  C   UNL     1     -10.330  16.767  67.056  1.00  0.00    -0.300 A  
HETATM   22  C   UNL     1     -10.527  15.796  66.074  1.00  0.00    -0.350 A  
ENDBRANCH  14  17
ENDBRANCH  12  14
ENDBRANCH   9  12
ENDBRANCH   5   6
ENDBRANCH   4   5
ENDBRANCH   3   4
ENDBRANCH   2   3
TORSDOF 7
ENDMDL
MODEL      119
REMARK 921   NORMALIZED FREE ENERGY PREDICTED BY IDOCK:   -4.17 KCAL/MOL
REMARK 922        TOTAL FREE ENERGY PREDICTED BY IDOCK:   -6.42 KCAL/MOL
REMARK 923 INTER-LIGAND FREE ENERGY PREDICTED BY IDOCK:   -5.83 KCAL/MOL
REMARK 924 INTRA-LIGAND FREE ENERGY PREDICTED BY IDOCK:   -0.59 KCAL/MOL
REMARK 927      BINDING AFFINITY PREDICTED BY RF-SCORE:    0.00 PKD
ROOT
HETATM    1  C   UNL     1     -12.276  14.128  66.448  1.00  0.00    -0.446 C  
HETATM    2  O   UNL     1     -12.964  14.065  65.209  1.00  0.00    -0.743 OA 
ENDROOT
BRANCH   2   3
HETATM    3  C   UNL     1     -12.084  14.189  64.088  1.00  0.00    -0.406 C  
BRANCH   3   4
HETATM    4  C   UNL     1     -12.008  12.820  63.424  1.00  0.00    -0.535 C  
BRANCH   4   5
HETATM    5  O   UNL     1     -10.657  12.397  63.214  1.00  0.00    -0.410 OA 
BRANCH   5   6
HETATM    6  C   UNL     1     -10.291  11.307  63.952  1.00  0.00    -0.381 A  
HETATM    7  C   UNL     1     -10.738  10.978  65.217  1.00  0.00    -0.164 A  
HETATM    8  N   UNL     1     -10.356   9.879  65.894  1.00  0.00    -0.179 NA 
HETATM    9  C   UNL     1      -9.482   9.096  65.272  1.00  0.00    -0.099 A  
HETATM   10  C   UNL     1      -9.384  10.410  63.422  1.00  0.00    -0.300 A  
HETATM   11  N   UNL     1      -8.949   9.294  64.062  1.00  0.00    -0.142 NA 
BRANCH   9  12
HETATM   12  N   UNL     1      -9.123   7.924  65.933  1.00  0.00    -0.339 N  
HETATM   13  H   UNL     1      -9.452   7.002  65.648  1.00  0.00     0.000 HD 
BRANCH  12  14
HETATM   14  S   UNL     1      -8.101   8.169  67.241  1.00  0.00    -0.122 S  
HETATM   15  O   UNL     1      -7.424   9.447  67.152  1.00  0.00    -0.090 OA 
HETATM   16  O   UNL     1      -7.347   6.945  67.404  1.00  0.00    -0.087 OA 
BRANCH  14  17
HETATM   17  C   UNL     1      -9.219   8.253  68.633  1.00  0.00    -0.143 A  
HETATM   18  C   UNL     1      -9.284   9.425  69.392  1.00  0.00    -0.167 A  
HETATM   19  C   UNL     1     -10.163   9.494  70.473  1.00  0.00    -0.349 A  
HETATM   20  C   UNL     1     -10.976   8.402  70.783  1.00  0.00    -0.276 A  
HETATM   21  C   UNL     1     -10.929   7.245  70.005  1.00  0.00    -0.273 A  
HETATM   22  C   UNL     1     -10.061   7.172  68.915  1.00  0.00    -0.177 A  
ENDBRANCH  14  17
ENDBRANCH  12  14
ENDBRANCH   9  12
ENDBRANCH   5   6
ENDBRANCH   4   5
ENDBRANCH   3   4
ENDBRANCH   2   3
TORSDOF 7
ENDMDL
MODEL      120
REMARK 921   NORMALIZED FREE ENERGY PREDICTED BY IDOCK:   -4.17 KCAL/MOL
REMARK 922        TOTAL FREE ENERGY PREDICTED BY IDOCK:   -6.40 KCAL/MOL
REMARK 923 INTER-LIGAND FREE ENERGY PREDICTED BY IDOCK:   -5.92 KCAL/MOL
REMARK 924 INTRA-LIGAND FREE ENERGY PREDICTED BY IDOCK:   -0.48 KCAL/MOL
REMARK 927      BINDING AFFINITY PREDICTED BY RF-SCORE:    0.00 PKD
ROOT
HETATM    1  C   UNL     1     -13.377  11.972  72.046  1.00  0.00    -0.341 C  
HETATM    2  O   UNL     1     -14.066  13.135  72.474  1.00  0.00    -0.672 OA 
ENDROOT
BRANCH   2   3
HETATM    3  C   UNL     1     -13.486  14.336  71.958  1.00  0.00    -0.412 C  
BRANCH   3   4
HETATM    4  C   UNL     1     -12.428  13.923  70.944  1.00  0.00    -0.375 C  
BRANCH   4   5
HETATM    5  O   UNL     1     -12.642  14.527  69.663  1.00  0.00    -0.242 OA 
BRANCH   5   6
HETATM    6  C   UNL     1     -12.156  13.800  68.614  1.00  0.00    -0.298 A  
HETATM    7  C   UNL     1     -11.650  14.295  67.428  1.00  0.00    -0.369 A  
HETATM    8  N   UNL     1     -11.167  13.531  66.431  1.00  0.00    -0.303 NA 
HETATM    9  C   UNL     1     -11.211  12.220  66.640  1.00  0.00    -0.316 A  
HETATM   10  C   UNL     1     -12.146  12.420  68.700  1.00  0.00    -0.090 A  
HETATM   11  N   UNL     1     -11.687  11.597  67.723  1.00  0.00    -0.557 NA 
BRANCH   9  12
HETATM   12  N   UNL     1     -10.659  11.417  65.645  1.00  0.00    -0.260 N  
HETATM   13  H   UNL     1     -11.183  11.105  64.828  1.00  0.00     0.000 HD 
BRANCH  12  14
HETATM   14  S   UNL     1      -9.053  11.012  65.914  1.00  0.00    -0.200 S  
HETATM   15  O   UNL     1      -8.375  12.026  66.695  1.00  0.00    -0.165 OA 
HETATM   16  O   UNL     1      -8.520  10.586  64.638  1.00  0.00    -0.174 OA 
BRANCH  14  17
HETATM   17  C   UNL     1      -9.157   9.542  66.924  1.00  0.00    -0.135 A  
HETATM   18  C   UNL     1     -10.193   8.628  66.703  1.00  0.00    -0.343 A  
HETATM   19  C   UNL     1     -10.269   7.476  67.485  1.00  0.00    -0.288 A  
HETATM   20  C   UNL     1      -9.311   7.236  68.472  1.00  0.00    -0.141 A  
HETATM   21  C   UNL     1      -8.263   8.136  68.669  1.00  0.00    -0.125 A  
HETATM   22  C   UNL     1      -8.173   9.285  67.883  1.00  0.00    -0.115 A  
ENDBRANCH  14  17
ENDBRANCH  12  14
ENDBRANCH   9  12
ENDBRANCH   5   6
ENDBRANCH   4   5
ENDBRANCH   3   4
ENDBRANCH   2   3
TORSDOF 7
ENDMDL
MODEL      121
REMARK 921   NORMALIZED FREE ENERGY PREDICTED BY IDOCK:   -4.16 KCAL/MOL
REMARK 922        TOTAL FREE ENERGY PREDICTED BY IDOCK:   -6.40 KCAL/MOL
REMARK 923 INTER-LIGAND FREE ENERGY PREDICTED BY IDOCK:   -6.16 KCAL/MOL
REMARK 924 INTRA-LIGAND FREE ENERGY PREDICTED BY IDOCK:   -0.24 KCAL/MOL
REMARK 927      BINDING AFFINITY PREDICTED BY RF-SCORE:    0.00 PKD
ROOT
HETATM    1  C   UNL     1     -10.656  16.785  68.831  1.00  0.00    -0.350 C  
HETATM    2  O   UNL     1     -11.718  15.894  69.133  1.00  0.00    -0.376 OA 
ENDROOT
BRANCH   2   3
HETATM    3  C   UNL     1     -11.836  14.839  68.175  1.00  0.00    -0.287 C  
BRANCH   3   4
HETATM    4  C   UNL     1     -11.257  13.584  68.814  1.00  0.00    -0.274 C  
BRANCH   4   5
HETATM    5  O   UNL     1     -11.795  12.388  68.240  1.00  0.00    -0.326 OA 
BRANCH   5   6
HETATM    6  C   UNL     1     -11.512  11.254  68.947  1.00  0.00    -0.297 A  
HETATM    7  C   UNL     1     -10.781  10.166  68.509  1.00  0.00    -0.230 A  
HETATM    8  N   UNL     1     -10.519   9.078  69.255  1.00  0.00    -0.226 NA 
HETATM    9  C   UNL     1     -11.026   9.089  70.483  1.00  0.00    -0.252 A  
HETATM   10  C   UNL     1     -11.983  11.133  70.241  1.00  0.00    -0.373 A  
HETATM   11  N   UNL     1     -11.765  10.055  71.037  1.00  0.00    -0.364 NA 
BRANCH   9  12
HETATM   12  N   UNL     1     -10.712   7.998  71.290  1.00  0.00    -0.226 N  
HETATM   13  H   UNL     1      -9.973   8.020  71.992  1.00  0.00     0.000 HD 
BRANCH  12  14
HETATM   14  S   UNL     1     -11.661   6.644  71.000  1.00  0.00    -0.360 S  
HETATM   15  O   UNL     1     -11.650   6.281  69.597  1.00  0.00    -0.430 OA 
HETATM   16  O   UNL     1     -12.911   6.865  71.693  1.00  0.00    -0.373 OA 
BRANCH  14  17
HETATM   17  C   UNL     1     -10.819   5.346  71.894  1.00  0.00    -0.186 A  
HETATM   18  C   UNL     1     -11.283   4.971  73.159  1.00  0.00    -0.408 A  
HETATM   19  C   UNL     1     -10.632   3.951  73.852  1.00  0.00    -0.291 A  
HETATM   20  C   UNL     1      -9.533   3.307  73.281  1.00  0.00    -0.129 A  
HETATM   21  C   UNL     1      -9.092   3.665  72.007  1.00  0.00    -0.156 A  
HETATM   22  C   UNL     1      -9.745   4.676  71.301  1.00  0.00    -0.251 A  
ENDBRANCH  14  17
ENDBRANCH  12  14
ENDBRANCH   9  12
ENDBRANCH   5   6
ENDBRANCH   4   5
ENDBRANCH   3   4
ENDBRANCH   2   3
TORSDOF 7
ENDMDL
MODEL      122
REMARK 921   NORMALIZED FREE ENERGY PREDICTED BY IDOCK:   -4.15 KCAL/MOL
REMARK 922        TOTAL FREE ENERGY PREDICTED BY IDOCK:   -6.38 KCAL/MOL
REMARK 923 INTER-LIGAND FREE ENERGY PREDICTED BY IDOCK:   -5.94 KCAL/MOL
REMARK 924 INTRA-LIGAND FREE ENERGY PREDICTED BY IDOCK:   -0.44 KCAL/MOL
REMARK 927      BINDING AFFINITY PREDICTED BY RF-SCORE:    0.00 PKD
ROOT
HETATM    1  C   UNL     1      -8.062   3.984  67.962  1.00  0.00    -0.088 C  
HETATM    2  O   UNL     1      -8.933   3.762  69.060  1.00  0.00    -0.100 OA 
ENDROOT
BRANCH   2   3
HETATM    3  C   UNL     1      -8.816   4.776  70.063  1.00  0.00    -0.086 C  
BRANCH   3   4
HETATM    4  C   UNL     1     -10.227   5.246  70.391  1.00  0.00    -0.268 C  
BRANCH   4   5
HETATM    5  O   UNL     1     -10.939   5.673  69.224  1.00  0.00    -0.304 OA 
BRANCH   5   6
HETATM    6  C   UNL     1     -10.676   6.960  68.849  1.00  0.00    -0.222 A  
HETATM    7  C   UNL     1     -10.375   8.020  69.681  1.00  0.00    -0.220 A  
HETATM    8  N   UNL     1     -10.107   9.268  69.254  1.00  0.00    -0.192 NA 
HETATM    9  C   UNL     1     -10.159   9.448  67.939  1.00  0.00    -0.194 A  
HETATM   10  C   UNL     1     -10.699   7.285  67.505  1.00  0.00    -0.256 A  
HETATM   11  N   UNL     1     -10.453   8.528  67.016  1.00  0.00    -0.308 NA 
BRANCH   9  12
HETATM   12  N   UNL     1      -9.824  10.718  67.477  1.00  0.00    -0.170 N  
HETATM   13  H   UNL     1      -8.941  10.925  67.010  1.00  0.00     0.000 HD 
BRANCH  12  14
HETATM   14  S   UNL     1     -11.005  11.876  67.759  1.00  0.00    -0.245 S  
HETATM   15  O   UNL     1     -10.486  12.983  68.537  1.00  0.00    -0.249 OA 
HETATM   16  O   UNL     1     -12.184  11.159  68.194  1.00  0.00    -0.612 OA 
BRANCH  14  17
HETATM   17  C   UNL     1     -11.376  12.499  66.126  1.00  0.00    -0.343 A  
HETATM   18  C   UNL     1     -11.471  11.605  65.055  1.00  0.00    -0.189 A  
HETATM   19  C   UNL     1     -11.770  12.090  63.782  1.00  0.00    -0.575 A  
HETATM   20  C   UNL     1     -11.982  13.456  63.586  1.00  0.00    -0.504 A  
HETATM   21  C   UNL     1     -11.916  14.340  64.663  1.00  0.00    -0.468 A  
HETATM   22  C   UNL     1     -11.628  13.862  65.942  1.00  0.00    -0.348 A  
ENDBRANCH  14  17
ENDBRANCH  12  14
ENDBRANCH   9  12
ENDBRANCH   5   6
ENDBRANCH   4   5
ENDBRANCH   3   4
ENDBRANCH   2   3
TORSDOF 7
ENDMDL
MODEL      123
REMARK 921   NORMALIZED FREE ENERGY PREDICTED BY IDOCK:   -4.13 KCAL/MOL
REMARK 922        TOTAL FREE ENERGY PREDICTED BY IDOCK:   -6.36 KCAL/MOL
REMARK 923 INTER-LIGAND FREE ENERGY PREDICTED BY IDOCK:   -5.71 KCAL/MOL
REMARK 924 INTRA-LIGAND FREE ENERGY PREDICTED BY IDOCK:   -0.65 KCAL/MOL
REMARK 927      BINDING AFFINITY PREDICTED BY RF-SCORE:    0.00 PKD
ROOT
HETATM    1  C   UNL     1      -7.844  15.674  68.669  1.00  0.00    -0.152 C  
HETATM    2  O   UNL     1      -8.747  16.732  68.946  1.00  0.00    -0.255 OA 
ENDROOT
BRANCH   2   3
HETATM    3  C   UNL     1      -9.546  17.079  67.812  1.00  0.00    -0.244 C  
BRANCH   3   4
HETATM    4  C   UNL     1     -10.946  16.536  68.065  1.00  0.00    -0.320 C  
BRANCH   4   5
HETATM    5  O   UNL     1     -11.370  15.637  67.034  1.00  0.00    -0.209 OA 
BRANCH   5   6
HETATM    6  C   UNL     1     -11.389  14.324  67.410  1.00  0.00    -0.332 A  
HETATM    7  C   UNL     1     -11.126  13.820  68.669  1.00  0.00    -0.267 A  
HETATM    8  N   UNL     1     -11.175  12.514  68.988  1.00  0.00    -0.264 NA 
HETATM    9  C   UNL     1     -11.489  11.691  67.993  1.00  0.00    -0.315 A  
HETATM   10  C   UNL     1     -11.699  13.360  66.469  1.00  0.00    -0.373 A  
HETATM   11  N   UNL     1     -11.749  12.028  66.727  1.00  0.00    -0.580 NA 
BRANCH   9  12
HETATM   12  N   UNL     1     -11.604  10.343  68.321  1.00  0.00    -0.501 N  
HETATM   13  H   UNL     1     -12.462   9.930  68.687  1.00  0.00     0.000 HD 
BRANCH  12  14
HETATM   14  S   UNL     1     -10.202   9.458  68.059  1.00  0.00    -0.215 S  
HETATM   15  O   UNL     1      -9.065  10.326  67.827  1.00  0.00    -0.134 OA 
HETATM   16  O   UNL     1     -10.544   8.422  67.109  1.00  0.00    -0.311 OA 
BRANCH  14  17
HETATM   17  C   UNL     1      -9.933   8.631  69.620  1.00  0.00    -0.191 A  
HETATM   18  C   UNL     1      -8.811   7.811  69.779  1.00  0.00    -0.139 A  
HETATM   19  C   UNL     1      -8.596   7.174  71.000  1.00  0.00    -0.133 A  
HETATM   20  C   UNL     1      -9.490   7.363  72.055  1.00  0.00    -0.162 A  
HETATM   21  C   UNL     1     -10.592   8.206  71.902  1.00  0.00    -0.324 A  
HETATM   22  C   UNL     1     -10.808   8.857  70.686  1.00  0.00    -0.286 A  
ENDBRANCH  14  17
ENDBRANCH  12  14
ENDBRANCH   9  12
ENDBRANCH   5   6
ENDBRANCH   4   5
ENDBRANCH   3   4
ENDBRANCH   2   3
TORSDOF 7
ENDMDL
MODEL      124
REMARK 921   NORMALIZED FREE ENERGY PREDICTED BY IDOCK:   -4.13 KCAL/MOL
REMARK 922        TOTAL FREE ENERGY PREDICTED BY IDOCK:   -6.35 KCAL/MOL
REMARK 923 INTER-LIGAND FREE ENERGY PREDICTED BY IDOCK:   -6.32 KCAL/MOL
REMARK 924 INTRA-LIGAND FREE ENERGY PREDICTED BY IDOCK:   -0.03 KCAL/MOL
REMARK 927      BINDING AFFINITY PREDICTED BY RF-SCORE:    0.00 PKD
ROOT
HETATM    1  C   UNL     1      -7.991   3.791  67.656  1.00  0.00    -0.085 C  
HETATM    2  O   UNL     1      -9.059   3.630  68.576  1.00  0.00    -0.120 OA 
ENDROOT
BRANCH   2   3
HETATM    3  C   UNL     1      -8.964   4.526  69.686  1.00  0.00    -0.096 C  
BRANCH   3   4
HETATM    4  C   UNL     1     -10.346   5.133  69.893  1.00  0.00    -0.277 C  
BRANCH   4   5
HETATM    5  O   UNL     1     -10.773   5.900  68.762  1.00  0.00    -0.255 OA 
BRANCH   5   6
HETATM    6  C   UNL     1     -10.611   7.248  68.908  1.00  0.00    -0.191 A  
HETATM    7  C   UNL     1     -10.797   7.984  70.062  1.00  0.00    -0.235 A  
HETATM    8  N   UNL     1     -10.606   9.313  70.153  1.00  0.00    -0.217 NA 
HETATM    9  C   UNL     1     -10.224   9.917  69.033  1.00  0.00    -0.200 A  
HETATM   10  C   UNL     1     -10.217   8.000  67.816  1.00  0.00    -0.222 A  
HETATM   11  N   UNL     1     -10.023   9.343  67.843  1.00  0.00    -0.173 NA 
BRANCH   9  12
HETATM   12  N   UNL     1      -9.962  11.281  69.126  1.00  0.00    -0.410 N  
HETATM   13  H   UNL     1      -9.100  11.657  69.519  1.00  0.00     0.000 HD 
BRANCH  12  14
HETATM   14  S   UNL     1     -11.197  12.251  68.531  1.00  0.00    -0.296 S  
HETATM   15  O   UNL     1     -12.092  11.501  67.673  1.00  0.00    -0.623 OA 
HETATM   16  O   UNL     1     -10.570  13.467  68.060  1.00  0.00    -0.232 OA 
BRANCH  14  17
HETATM   17  C   UNL     1     -12.115  12.701  69.997  1.00  0.00    -0.269 A  
HETATM   18  C   UNL     1     -12.453  11.713  70.927  1.00  0.00    -0.440 A  
HETATM   19  C   UNL     1     -13.161  12.066  72.075  1.00  0.00    -0.481 A  
HETATM   20  C   UNL     1     -13.519  13.398  72.294  1.00  0.00    -0.683 A  
HETATM   21  C   UNL     1     -13.154  14.385  71.378  1.00  0.00    -0.416 A  
HETATM   22  C   UNL     1     -12.435  14.042  70.232  1.00  0.00    -0.403 A  
ENDBRANCH  14  17
ENDBRANCH  12  14
ENDBRANCH   9  12
ENDBRANCH   5   6
ENDBRANCH   4   5
ENDBRANCH   3   4
ENDBRANCH   2   3
TORSDOF 7
ENDMDL
MODEL      125
REMARK 921   NORMALIZED FREE ENERGY PREDICTED BY IDOCK:   -4.11 KCAL/MOL
REMARK 922        TOTAL FREE ENERGY PREDICTED BY IDOCK:   -6.33 KCAL/MOL
REMARK 923 INTER-LIGAND FREE ENERGY PREDICTED BY IDOCK:   -6.29 KCAL/MOL
REMARK 924 INTRA-LIGAND FREE ENERGY PREDICTED BY IDOCK:   -0.03 KCAL/MOL
REMARK 927      BINDING AFFINITY PREDICTED BY RF-SCORE:    0.00 PKD
ROOT
HETATM    1  C   UNL     1     -13.817  14.541  71.885  1.00  0.00    -0.457 C  
HETATM    2  O   UNL     1     -13.048  14.501  70.694  1.00  0.00    -0.357 OA 
ENDROOT
BRANCH   2   3
HETATM    3  C   UNL     1     -12.407  13.238  70.499  1.00  0.00    -0.316 C  
BRANCH   3   4
HETATM    4  C   UNL     1     -11.609  13.335  69.205  1.00  0.00    -0.319 C  
BRANCH   4   5
HETATM    5  O   UNL     1     -11.654  14.649  68.640  1.00  0.00    -0.284 OA 
BRANCH   5   6
HETATM    6  C   UNL     1     -10.461  15.080  68.131  1.00  0.00    -0.245 A  
HETATM    7  C   UNL     1     -10.184  15.379  66.811  1.00  0.00    -0.271 A  
HETATM    8  N   UNL     1      -8.992  15.817  66.367  1.00  0.00    -0.303 NA 
HETATM    9  C   UNL     1      -8.046  15.944  67.292  1.00  0.00    -0.184 A  
HETATM   10  C   UNL     1      -9.389  15.253  68.987  1.00  0.00    -0.231 A  
HETATM   11  N   UNL     1      -8.160  15.677  68.596  1.00  0.00    -0.148 NA 
BRANCH   9  12
HETATM   12  N   UNL     1      -6.825  16.455  66.859  1.00  0.00    -0.211 N  
HETATM   13  H   UNL     1      -6.198  15.946  66.237  1.00  0.00     0.000 HD 
BRANCH  12  14
HETATM   14  S   UNL     1      -6.480  17.985  67.456  1.00  0.00    -0.174 S  
HETATM   15  O   UNL     1      -5.583  18.707  66.576  1.00  0.00    -0.144 OA 
HETATM   16  O   UNL     1      -6.158  17.814  68.857  1.00  0.00    -0.187 OA 
BRANCH  14  17
HETATM   17  C   UNL     1      -8.060  18.818  67.408  1.00  0.00    -0.251 A  
HETATM   18  C   UNL     1      -8.600  19.196  66.175  1.00  0.00    -0.233 A  
HETATM   19  C   UNL     1      -9.838  19.838  66.136  1.00  0.00    -0.544 A  
HETATM   20  C   UNL     1     -10.533  20.089  67.321  1.00  0.00    -0.505 A  
HETATM   21  C   UNL     1     -10.004  19.683  68.546  1.00  0.00    -0.542 A  
HETATM   22  C   UNL     1      -8.771  19.030  68.593  1.00  0.00    -0.387 A  
ENDBRANCH  14  17
ENDBRANCH  12  14
ENDBRANCH   9  12
ENDBRANCH   5   6
ENDBRANCH   4   5
ENDBRANCH   3   4
ENDBRANCH   2   3
TORSDOF 7
ENDMDL
MODEL      126
REMARK 921   NORMALIZED FREE ENERGY PREDICTED BY IDOCK:   -4.11 KCAL/MOL
REMARK 922        TOTAL FREE ENERGY PREDICTED BY IDOCK:   -6.33 KCAL/MOL
REMARK 923 INTER-LIGAND FREE ENERGY PREDICTED BY IDOCK:   -5.87 KCAL/MOL
REMARK 924 INTRA-LIGAND FREE ENERGY PREDICTED BY IDOCK:   -0.46 KCAL/MOL
REMARK 927      BINDING AFFINITY PREDICTED BY RF-SCORE:    0.00 PKD
ROOT
HETATM    1  C   UNL     1      -6.430  19.733  69.539  1.00  0.00    -0.348 C  
HETATM    2  O   UNL     1      -5.905  19.926  68.236  1.00  0.00    -0.224 OA 
ENDROOT
BRANCH   2   3
HETATM    3  C   UNL     1      -5.717  18.694  67.534  1.00  0.00    -0.156 C  
BRANCH   3   4
HETATM    4  C   UNL     1      -6.676  17.680  68.144  1.00  0.00    -0.205 C  
BRANCH   4   5
HETATM    5  O   UNL     1      -6.792  16.498  67.344  1.00  0.00    -0.130 OA 
BRANCH   5   6
HETATM    6  C   UNL     1      -7.913  15.760  67.597  1.00  0.00    -0.146 A  
HETATM    7  C   UNL     1      -8.718  15.132  66.666  1.00  0.00    -0.272 A  
HETATM    8  N   UNL     1      -9.806  14.401  66.974  1.00  0.00    -0.246 NA 
HETATM    9  C   UNL     1     -10.092  14.315  68.268  1.00  0.00    -0.238 A  
HETATM   10  C   UNL     1      -8.326  15.592  68.906  1.00  0.00    -0.205 A  
HETATM   11  N   UNL     1      -9.421  14.880  69.276  1.00  0.00    -0.158 NA 
BRANCH   9  12
HETATM   12  N   UNL     1     -11.178  13.512  68.607  1.00  0.00    -0.262 N  
HETATM   13  H   UNL     1     -12.067  13.888  68.934  1.00  0.00     0.000 HD 
BRANCH  12  14
HETATM   14  S   UNL     1     -10.888  11.869  68.430  1.00  0.00    -0.243 S  
HETATM   15  O   UNL     1      -9.472  11.570  68.508  1.00  0.00    -0.185 OA 
HETATM   16  O   UNL     1     -11.670  11.436  67.292  1.00  0.00    -0.577 OA 
BRANCH  14  17
HETATM   17  C   UNL     1     -11.665  11.150  69.869  1.00  0.00    -0.355 A  
HETATM   18  C   UNL     1     -12.592  11.903  70.598  1.00  0.00    -0.269 A  
HETATM   19  C   UNL     1     -13.206  11.339  71.715  1.00  0.00    -0.480 A  
HETATM   20  C   UNL     1     -12.901  10.030  72.095  1.00  0.00    -0.414 A  
HETATM   21  C   UNL     1     -11.998   9.273  71.348  1.00  0.00    -0.424 A  
HETATM   22  C   UNL     1     -11.389   9.826  70.221  1.00  0.00    -0.333 A  
ENDBRANCH  14  17
ENDBRANCH  12  14
ENDBRANCH   9  12
ENDBRANCH   5   6
ENDBRANCH   4   5
ENDBRANCH   3   4
ENDBRANCH   2   3
TORSDOF 7
ENDMDL
MODEL      127
REMARK 921   NORMALIZED FREE ENERGY PREDICTED BY IDOCK:   -4.11 KCAL/MOL
REMARK 922        TOTAL FREE ENERGY PREDICTED BY IDOCK:   -6.32 KCAL/MOL
REMARK 923 INTER-LIGAND FREE ENERGY PREDICTED BY IDOCK:   -6.25 KCAL/MOL
REMARK 924 INTRA-LIGAND FREE ENERGY PREDICTED BY IDOCK:   -0.08 KCAL/MOL
REMARK 927      BINDING AFFINITY PREDICTED BY RF-SCORE:    0.00 PKD
ROOT
HETATM    1  C   UNL     1     -10.922   9.420  71.342  1.00  0.00    -0.373 C  
HETATM    2  O   UNL     1     -12.271   9.766  71.613  1.00  0.00    -0.371 OA 
ENDROOT
BRANCH   2   3
HETATM    3  C   UNL     1     -12.753  10.803  70.755  1.00  0.00    -0.360 C  
BRANCH   3   4
HETATM    4  C   UNL     1     -11.600  11.204  69.843  1.00  0.00    -0.337 C  
BRANCH   4   5
HETATM    5  O   UNL     1     -12.058  11.780  68.616  1.00  0.00    -0.406 OA 
BRANCH   5   6
HETATM    6  C   UNL     1     -11.811  13.119  68.500  1.00  0.00    -0.342 A  
HETATM    7  C   UNL     1     -11.481  13.990  69.520  1.00  0.00    -0.275 A  
HETATM    8  N   UNL     1     -11.231  15.301  69.347  1.00  0.00    -0.265 NA 
HETATM    9  C   UNL     1     -11.330  15.744  68.098  1.00  0.00    -0.337 A  
HETATM   10  C   UNL     1     -11.883  13.710  67.253  1.00  0.00    -0.391 A  
HETATM   11  N   UNL     1     -11.656  15.028  67.018  1.00  0.00    -0.295 NA 
BRANCH   9  12
HETATM   12  N   UNL     1     -11.013  17.084  67.892  1.00  0.00    -0.298 N  
HETATM   13  H   UNL     1     -11.528  17.850  68.326  1.00  0.00     0.000 HD 
BRANCH  12  14
HETATM   14  S   UNL     1      -9.708  17.323  66.864  1.00  0.00    -0.286 S  
HETATM   15  O   UNL     1      -9.274  18.705  66.873  1.00  0.00    -0.286 OA 
HETATM   16  O   UNL     1     -10.042  16.664  65.621  1.00  0.00    -0.508 OA 
BRANCH  14  17
HETATM   17  C   UNL     1      -8.408  16.350  67.609  1.00  0.00    -0.165 A  
HETATM   18  C   UNL     1      -7.882  16.738  68.846  1.00  0.00    -0.244 A  
HETATM   19  C   UNL     1      -6.873  15.973  69.432  1.00  0.00    -0.215 A  
HETATM   20  C   UNL     1      -6.403  14.825  68.790  1.00  0.00    -0.086 A  
HETATM   21  C   UNL     1      -6.952  14.426  67.570  1.00  0.00    -0.182 A  
HETATM   22  C   UNL     1      -7.969  15.179  66.983  1.00  0.00    -0.223 A  
ENDBRANCH  14  17
ENDBRANCH  12  14
ENDBRANCH   9  12
ENDBRANCH   5   6
ENDBRANCH   4   5
ENDBRANCH   3   4
ENDBRANCH   2   3
TORSDOF 7
ENDMDL
MODEL      128
REMARK 921   NORMALIZED FREE ENERGY PREDICTED BY IDOCK:   -4.07 KCAL/MOL
REMARK 922        TOTAL FREE ENERGY PREDICTED BY IDOCK:   -6.27 KCAL/MOL
REMARK 923 INTER-LIGAND FREE ENERGY PREDICTED BY IDOCK:   -6.72 KCAL/MOL
REMARK 924 INTRA-LIGAND FREE ENERGY PREDICTED BY IDOCK:    0.46 KCAL/MOL
REMARK 927      BINDING AFFINITY PREDICTED BY RF-SCORE:    0.00 PKD
ROOT
HETATM    1  C   UNL     1      -6.723  18.619  68.733  1.00  0.00    -0.270 C  
HETATM    2  O   UNL     1      -6.547  19.229  67.465  1.00  0.00    -0.200 OA 
ENDROOT
BRANCH   2   3
HETATM    3  C   UNL     1      -7.213  18.516  66.419  1.00  0.00    -0.240 C  
BRANCH   3   4
HETATM    4  C   UNL     1      -8.545  18.035  66.981  1.00  0.00    -0.245 C  
BRANCH   4   5
HETATM    5  O   UNL     1      -9.566  17.982  65.978  1.00  0.00    -0.499 OA 
BRANCH   5   6
HETATM    6  C   UNL     1     -10.252  16.802  65.942  1.00  0.00    -0.328 A  
HETATM    7  C   UNL     1     -10.417  15.907  66.982  1.00  0.00    -0.306 A  
HETATM    8  N   UNL     1     -11.119  14.763  66.894  1.00  0.00    -0.332 NA 
HETATM    9  C   UNL     1     -11.663  14.513  65.709  1.00  0.00    -0.344 A  
HETATM   10  C   UNL     1     -10.867  16.418  64.764  1.00  0.00    -0.178 A  
HETATM   11  N   UNL     1     -11.575  15.269  64.611  1.00  0.00    -0.383 NA 
BRANCH   9  12
HETATM   12  N   UNL     1     -12.445  13.364  65.619  1.00  0.00    -0.469 N  
HETATM   13  H   UNL     1     -13.073  13.059  66.362  1.00  0.00     0.000 HD 
BRANCH  12  14
HETATM   14  S   UNL     1     -12.258  12.527  64.176  1.00  0.00    -0.482 S  
HETATM   15  O   UNL     1     -11.908  13.419  63.089  1.00  0.00    -0.327 OA 
HETATM   16  O   UNL     1     -13.399  11.644  64.065  1.00  0.00    -0.377 OA 
BRANCH  14  17
HETATM   17  C   UNL     1     -10.846  11.477  64.482  1.00  0.00    -0.327 A  
HETATM   18  C   UNL     1     -10.495  11.164  65.799  1.00  0.00    -0.305 A  
HETATM   19  C   UNL     1      -9.398  10.337  66.038  1.00  0.00    -0.224 A  
HETATM   20  C   UNL     1      -8.665   9.821  64.967  1.00  0.00    -0.198 A  
HETATM   21  C   UNL     1      -9.036  10.112  63.655  1.00  0.00    -0.289 A  
HETATM   22  C   UNL     1     -10.140  10.929  63.407  1.00  0.00    -0.398 A  
ENDBRANCH  14  17
ENDBRANCH  12  14
ENDBRANCH   9  12
ENDBRANCH   5   6
ENDBRANCH   4   5
ENDBRANCH   3   4
ENDBRANCH   2   3
TORSDOF 7
ENDMDL
MODEL      129
REMARK 921   NORMALIZED FREE ENERGY PREDICTED BY IDOCK:   -4.07 KCAL/MOL
REMARK 922        TOTAL FREE ENERGY PREDICTED BY IDOCK:   -6.26 KCAL/MOL
REMARK 923 INTER-LIGAND FREE ENERGY PREDICTED BY IDOCK:   -5.81 KCAL/MOL
REMARK 924 INTRA-LIGAND FREE ENERGY PREDICTED BY IDOCK:   -0.46 KCAL/MOL
REMARK 927      BINDING AFFINITY PREDICTED BY RF-SCORE:    0.00 PKD
ROOT
HETATM    1  C   UNL     1      -7.742   5.078  70.309  1.00  0.00    -0.067 C  
HETATM    2  O   UNL     1      -9.023   5.002  69.705  1.00  0.00    -0.096 OA 
ENDROOT
BRANCH   2   3
HETATM    3  C   UNL     1     -10.066   5.452  70.574  1.00  0.00    -0.236 C  
BRANCH   3   4
HETATM    4  C   UNL     1     -11.054   6.237  69.722  1.00  0.00    -0.406 C  
BRANCH   4   5
HETATM    5  O   UNL     1     -10.438   6.793  68.555  1.00  0.00    -0.178 OA 
BRANCH   5   6
HETATM    6  C   UNL     1     -10.218   8.139  68.627  1.00  0.00    -0.207 A  
HETATM    7  C   UNL     1      -9.682   8.944  67.641  1.00  0.00    -0.161 A  
HETATM    8  N   UNL     1      -9.502  10.273  67.760  1.00  0.00    -0.147 NA 
HETATM    9  C   UNL     1      -9.867  10.799  68.924  1.00  0.00    -0.199 A  
HETATM   10  C   UNL     1     -10.551   8.813  69.788  1.00  0.00    -0.224 A  
HETATM   11  N   UNL     1     -10.379  10.147  69.973  1.00  0.00    -0.265 NA 
BRANCH   9  12
HETATM   12  N   UNL     1      -9.745  12.181  69.042  1.00  0.00    -0.400 N  
HETATM   13  H   UNL     1      -8.930  12.634  69.453  1.00  0.00     0.000 HD 
BRANCH  12  14
HETATM   14  S   UNL     1     -11.062  13.031  68.444  1.00  0.00    -0.279 S  
HETATM   15  O   UNL     1     -12.117  12.137  68.011  1.00  0.00    -0.478 OA 
HETATM   16  O   UNL     1     -10.529  14.032  67.545  1.00  0.00    -0.250 OA 
BRANCH  14  17
HETATM   17  C   UNL     1     -11.668  13.919  69.872  1.00  0.00    -0.291 A  
HETATM   18  C   UNL     1     -11.089  15.145  70.215  1.00  0.00    -0.289 A  
HETATM   19  C   UNL     1     -11.568  15.842  71.324  1.00  0.00    -0.509 A  
HETATM   20  C   UNL     1     -12.623  15.321  72.076  1.00  0.00    -0.429 A  
HETATM   21  C   UNL     1     -13.217  14.113  71.711  1.00  0.00    -0.450 A  
HETATM   22  C   UNL     1     -12.751  13.414  70.596  1.00  0.00    -0.246 A  
ENDBRANCH  14  17
ENDBRANCH  12  14
ENDBRANCH   9  12
ENDBRANCH   5   6
ENDBRANCH   4   5
ENDBRANCH   3   4
ENDBRANCH   2   3
TORSDOF 7
ENDMDL
MODEL      130
REMARK 921   NORMALIZED FREE ENERGY PREDICTED BY IDOCK:   -4.06 KCAL/MOL
REMARK 922        TOTAL FREE ENERGY PREDICTED BY IDOCK:   -6.25 KCAL/MOL
REMARK 923 INTER-LIGAND FREE ENERGY PREDICTED BY IDOCK:   -5.91 KCAL/MOL
REMARK 924 INTRA-LIGAND FREE ENERGY PREDICTED BY IDOCK:   -0.34 KCAL/MOL
REMARK 927      BINDING AFFINITY PREDICTED BY RF-SCORE:    0.00 PKD
ROOT
HETATM    1  C   UNL     1     -13.708  13.819  72.686  1.00  0.00    -0.454 C  
HETATM    2  O   UNL     1     -14.044  14.619  71.564  1.00  0.00    -0.410 OA 
ENDROOT
BRANCH   2   3
HETATM    3  C   UNL     1     -12.917  14.888  70.727  1.00  0.00    -0.365 C  
BRANCH   3   4
HETATM    4  C   UNL     1     -11.951  13.720  70.885  1.00  0.00    -0.192 C  
BRANCH   4   5
HETATM    5  O   UNL     1     -11.879  12.916  69.702  1.00  0.00    -0.311 OA 
BRANCH   5   6
HETATM    6  C   UNL     1     -11.763  11.577  69.944  1.00  0.00    -0.343 A  
HETATM    7  C   UNL     1     -11.030  10.664  69.210  1.00  0.00    -0.245 A  
HETATM    8  N   UNL     1     -10.938   9.354  69.504  1.00  0.00    -0.212 NA 
HETATM    9  C   UNL     1     -11.622   8.955  70.571  1.00  0.00    -0.160 A  
HETATM   10  C   UNL     1     -12.428  11.029  71.025  1.00  0.00    -0.409 A  
HETATM   11  N   UNL     1     -12.386   9.714  71.362  1.00  0.00    -0.352 NA 
BRANCH   9  12
HETATM   12  N   UNL     1     -11.488   7.615  70.924  1.00  0.00    -0.280 N  
HETATM   13  H   UNL     1     -11.864   6.852  70.364  1.00  0.00     0.000 HD 
BRANCH  12  14
HETATM   14  S   UNL     1     -10.650   7.373  72.358  1.00  0.00    -0.265 S  
HETATM   15  O   UNL     1     -11.428   7.797  73.504  1.00  0.00    -0.112 OA 
HETATM   16  O   UNL     1      -9.315   7.888  72.143  1.00  0.00    -0.145 OA 
BRANCH  14  17
HETATM   17  C   UNL     1     -10.487   5.596  72.451  1.00  0.00    -0.211 A  
HETATM   18  C   UNL     1     -11.015   4.914  73.552  1.00  0.00    -0.397 A  
HETATM   19  C   UNL     1     -10.897   3.526  73.619  1.00  0.00    -0.324 A  
HETATM   20  C   UNL     1     -10.265   2.827  72.589  1.00  0.00    -0.236 A  
HETATM   21  C   UNL     1      -9.766   3.509  71.478  1.00  0.00    -0.237 A  
HETATM   22  C   UNL     1      -9.891   4.896  71.397  1.00  0.00    -0.252 A  
ENDBRANCH  14  17
ENDBRANCH  12  14
ENDBRANCH   9  12
ENDBRANCH   5   6
ENDBRANCH   4   5
ENDBRANCH   3   4
ENDBRANCH   2   3
TORSDOF 7
ENDMDL
MODEL      131
REMARK 921   NORMALIZED FREE ENERGY PREDICTED BY IDOCK:   -4.04 KCAL/MOL
REMARK 922        TOTAL FREE ENERGY PREDICTED BY IDOCK:   -6.23 KCAL/MOL
REMARK 923 INTER-LIGAND FREE ENERGY PREDICTED BY IDOCK:   -5.76 KCAL/MOL
REMARK 924 INTRA-LIGAND FREE ENERGY PREDICTED BY IDOCK:   -0.48 KCAL/MOL
REMARK 927      BINDING AFFINITY PREDICTED BY RF-SCORE:    0.00 PKD
ROOT
HETATM    1  C   UNL     1      -6.452  20.331  68.206  1.00  0.00    -0.305 C  
HETATM    2  O   UNL     1      -6.949  21.062  67.097  1.00  0.00    -0.345 OA 
ENDROOT
BRANCH   2   3
HETATM    3  C   UNL     1      -7.513  20.215  66.092  1.00  0.00    -0.278 C  
BRANCH   3   4
HETATM    4  C   UNL     1      -7.887  18.903  66.769  1.00  0.00    -0.251 C  
BRANCH   4   5
HETATM    5  O   UNL     1      -7.718  17.779  65.899  1.00  0.00    -0.501 OA 
BRANCH   5   6
HETATM    6  C   UNL     1      -8.426  16.672  66.272  1.00  0.00    -0.320 A  
HETATM    7  C   UNL     1      -7.914  15.496  66.786  1.00  0.00    -0.179 A  
HETATM    8  N   UNL     1      -8.662  14.440  67.154  1.00  0.00    -0.216 NA 
HETATM    9  C   UNL     1      -9.972  14.577  66.984  1.00  0.00    -0.255 A  
HETATM   10  C   UNL     1      -9.803  16.680  66.145  1.00  0.00    -0.318 A  
HETATM   11  N   UNL     1     -10.608  15.641  66.484  1.00  0.00    -0.305 NA 
BRANCH   9  12
HETATM   12  N   UNL     1     -10.765  13.517  67.417  1.00  0.00    -0.261 N  
HETATM   13  H   UNL     1     -11.147  13.457  68.360  1.00  0.00     0.000 HD 
BRANCH  12  14
HETATM   14  S   UNL     1     -11.033  12.347  66.244  1.00  0.00    -0.300 S  
HETATM   15  O   UNL     1     -10.319  12.651  65.020  1.00  0.00    -0.289 OA 
HETATM   16  O   UNL     1     -12.460  12.108  66.224  1.00  0.00    -0.321 OA 
BRANCH  14  17
HETATM   17  C   UNL     1     -10.293  10.879  66.943  1.00  0.00    -0.238 A  
HETATM   18  C   UNL     1      -9.934  10.867  68.295  1.00  0.00    -0.187 A  
HETATM   19  C   UNL     1      -9.366   9.718  68.843  1.00  0.00    -0.158 A  
HETATM   20  C   UNL     1      -9.168   8.587  68.047  1.00  0.00    -0.143 A  
HETATM   21  C   UNL     1      -9.555   8.594  66.707  1.00  0.00    -0.269 A  
HETATM   22  C   UNL     1     -10.135   9.736  66.154  1.00  0.00    -0.315 A  
ENDBRANCH  14  17
ENDBRANCH  12  14
ENDBRANCH   9  12
ENDBRANCH   5   6
ENDBRANCH   4   5
ENDBRANCH   3   4
ENDBRANCH   2   3
TORSDOF 7
ENDMDL
MODEL      132
REMARK 921   NORMALIZED FREE ENERGY PREDICTED BY IDOCK:   -4.03 KCAL/MOL
REMARK 922        TOTAL FREE ENERGY PREDICTED BY IDOCK:   -6.21 KCAL/MOL
REMARK 923 INTER-LIGAND FREE ENERGY PREDICTED BY IDOCK:   -5.86 KCAL/MOL
REMARK 924 INTRA-LIGAND FREE ENERGY PREDICTED BY IDOCK:   -0.35 KCAL/MOL
REMARK 927      BINDING AFFINITY PREDICTED BY RF-SCORE:    0.00 PKD
ROOT
HETATM    1  C   UNL     1     -12.215  14.275  64.814  1.00  0.00    -0.443 C  
HETATM    2  O   UNL     1     -12.209  13.548  66.032  1.00  0.00    -0.414 OA 
ENDROOT
BRANCH   2   3
HETATM    3  C   UNL     1     -12.073  14.397  67.174  1.00  0.00    -0.333 C  
BRANCH   3   4
HETATM    4  C   UNL     1     -11.910  13.492  68.389  1.00  0.00    -0.373 C  
BRANCH   4   5
HETATM    5  O   UNL     1     -11.226  12.276  68.067  1.00  0.00    -0.233 OA 
BRANCH   5   6
HETATM    6  C   UNL     1     -11.352  11.298  69.013  1.00  0.00    -0.278 A  
HETATM    7  C   UNL     1     -12.020  11.392  70.218  1.00  0.00    -0.373 A  
HETATM    8  N   UNL     1     -12.126  10.389  71.108  1.00  0.00    -0.375 NA 
HETATM    9  C   UNL     1     -11.524   9.255  70.768  1.00  0.00    -0.292 A  
HETATM   10  C   UNL     1     -10.768  10.065  68.786  1.00  0.00    -0.223 A  
HETATM   11  N   UNL     1     -10.828   9.020  69.652  1.00  0.00    -0.218 NA 
BRANCH   9  12
HETATM   12  N   UNL     1     -11.676   8.187  71.649  1.00  0.00    -0.274 N  
HETATM   13  H   UNL     1     -12.552   7.678  71.760  1.00  0.00     0.000 HD 
BRANCH  12  14
HETATM   14  S   UNL     1     -10.285   7.816  72.513  1.00  0.00    -0.287 S  
HETATM   15  O   UNL     1     -10.599   7.368  73.854  1.00  0.00    -0.307 OA 
HETATM   16  O   UNL     1      -9.366   8.912  72.298  1.00  0.00    -0.360 OA 
BRANCH  14  17
HETATM   17  C   UNL     1      -9.607   6.419  71.629  1.00  0.00    -0.160 A  
HETATM   18  C   UNL     1     -10.457   5.603  70.876  1.00  0.00    -0.323 A  
HETATM   19  C   UNL     1      -9.926   4.518  70.179  1.00  0.00    -0.278 A  
HETATM   20  C   UNL     1      -8.554   4.260  70.227  1.00  0.00    -0.102 A  
HETATM   21  C   UNL     1      -7.706   5.094  70.955  1.00  0.00    -0.095 A  
HETATM   22  C   UNL     1      -8.228   6.188  71.647  1.00  0.00    -0.118 A  
ENDBRANCH  14  17
ENDBRANCH  12  14
ENDBRANCH   9  12
ENDBRANCH   5   6
ENDBRANCH   4   5
ENDBRANCH   3   4
ENDBRANCH   2   3
TORSDOF 7
ENDMDL
MODEL      133
REMARK 921   NORMALIZED FREE ENERGY PREDICTED BY IDOCK:   -4.02 KCAL/MOL
REMARK 922        TOTAL FREE ENERGY PREDICTED BY IDOCK:   -6.20 KCAL/MOL
REMARK 923 INTER-LIGAND FREE ENERGY PREDICTED BY IDOCK:   -5.94 KCAL/MOL
REMARK 924 INTRA-LIGAND FREE ENERGY PREDICTED BY IDOCK:   -0.26 KCAL/MOL
REMARK 927      BINDING AFFINITY PREDICTED BY RF-SCORE:    0.00 PKD
ROOT
HETATM    1  C   UNL     1     -11.995  13.040  68.175  1.00  0.00    -0.280 C  
HETATM    2  O   UNL     1     -12.029  11.873  67.370  1.00  0.00    -0.603 OA 
ENDROOT
BRANCH   2   3
HETATM    3  C   UNL     1     -10.856  11.732  66.564  1.00  0.00    -0.282 C  
BRANCH   3   4
HETATM    4  C   UNL     1     -10.022  10.615  67.177  1.00  0.00    -0.195 C  
BRANCH   4   5
HETATM    5  O   UNL     1      -9.404  11.015  68.406  1.00  0.00    -0.164 OA 
BRANCH   5   6
HETATM    6  C   UNL     1      -9.749  10.246  69.481  1.00  0.00    -0.211 A  
HETATM    7  C   UNL     1     -10.967  10.231  70.132  1.00  0.00    -0.314 A  
HETATM    8  N   UNL     1     -11.258   9.438  71.180  1.00  0.00    -0.325 NA 
HETATM    9  C   UNL     1     -10.275   8.642  71.587  1.00  0.00    -0.295 A  
HETATM   10  C   UNL     1      -8.816   9.372  70.008  1.00  0.00    -0.211 A  
HETATM   11  N   UNL     1      -9.045   8.559  71.071  1.00  0.00    -0.163 NA 
BRANCH   9  12
HETATM   12  N   UNL     1     -10.579   7.771  72.630  1.00  0.00    -0.287 N  
HETATM   13  H   UNL     1     -10.206   7.880  73.572  1.00  0.00     0.000 HD 
BRANCH  12  14
HETATM   14  S   UNL     1     -11.616   6.525  72.193  1.00  0.00    -0.306 S  
HETATM   15  O   UNL     1     -12.924   7.030  71.826  1.00  0.00    -0.359 OA 
HETATM   16  O   UNL     1     -11.479   5.505  73.209  1.00  0.00    -0.230 OA 
BRANCH  14  17
HETATM   17  C   UNL     1     -10.867   5.858  70.714  1.00  0.00    -0.283 A  
HETATM   18  C   UNL     1     -11.357   6.242  69.462  1.00  0.00    -0.475 A  
HETATM   19  C   UNL     1     -10.766   5.729  68.308  1.00  0.00    -0.285 A  
HETATM   20  C   UNL     1      -9.688   4.847  68.407  1.00  0.00    -0.212 A  
HETATM   21  C   UNL     1      -9.183   4.491  69.658  1.00  0.00    -0.195 A  
HETATM   22  C   UNL     1      -9.761   5.009  70.818  1.00  0.00    -0.263 A  
ENDBRANCH  14  17
ENDBRANCH  12  14
ENDBRANCH   9  12
ENDBRANCH   5   6
ENDBRANCH   4   5
ENDBRANCH   3   4
ENDBRANCH   2   3
TORSDOF 7
ENDMDL
MODEL      134
REMARK 921   NORMALIZED FREE ENERGY PREDICTED BY IDOCK:   -4.00 KCAL/MOL
REMARK 922        TOTAL FREE ENERGY PREDICTED BY IDOCK:   -6.16 KCAL/MOL
REMARK 923 INTER-LIGAND FREE ENERGY PREDICTED BY IDOCK:   -5.98 KCAL/MOL
REMARK 924 INTRA-LIGAND FREE ENERGY PREDICTED BY IDOCK:   -0.19 KCAL/MOL
REMARK 927      BINDING AFFINITY PREDICTED BY RF-SCORE:    0.00 PKD
ROOT
HETATM    1  C   UNL     1      -8.017  10.230  69.309  1.00  0.00    -0.149 C  
HETATM    2  O   UNL     1      -9.423  10.318  69.474  1.00  0.00    -0.214 OA 
ENDROOT
BRANCH   2   3
HETATM    3  C   UNL     1     -10.134   9.467  68.571  1.00  0.00    -0.187 C  
BRANCH   3   4
HETATM    4  C   UNL     1     -10.610  10.337  67.415  1.00  0.00    -0.270 C  
BRANCH   4   5
HETATM    5  O   UNL     1     -11.788  11.079  67.748  1.00  0.00    -0.605 OA 
BRANCH   5   6
HETATM    6  C   UNL     1     -11.641  12.434  67.654  1.00  0.00    -0.357 A  
HETATM    7  C   UNL     1     -12.192  13.262  66.695  1.00  0.00    -0.298 A  
HETATM    8  N   UNL     1     -12.027  14.597  66.660  1.00  0.00    -0.332 NA 
HETATM    9  C   UNL     1     -11.268  15.107  67.623  1.00  0.00    -0.327 A  
HETATM   10  C   UNL     1     -10.871  13.093  68.594  1.00  0.00    -0.259 A  
HETATM   11  N   UNL     1     -10.656  14.433  68.602  1.00  0.00    -0.245 NA 
BRANCH   9  12
HETATM   12  N   UNL     1     -11.137  16.493  67.638  1.00  0.00    -0.199 N  
HETATM   13  H   UNL     1     -11.622  17.090  68.307  1.00  0.00     0.000 HD 
BRANCH  12  14
HETATM   14  S   UNL     1     -10.110  17.090  66.452  1.00  0.00    -0.326 S  
HETATM   15  O   UNL     1     -10.401  18.477  66.150  1.00  0.00    -0.414 OA 
HETATM   16  O   UNL     1     -10.080  16.097  65.400  1.00  0.00    -0.485 OA 
BRANCH  14  17
HETATM   17  C   UNL     1      -8.502  17.039  67.230  1.00  0.00    -0.194 A  
HETATM   18  C   UNL     1      -7.632  15.983  66.942  1.00  0.00    -0.268 A  
HETATM   19  C   UNL     1      -6.374  15.949  67.541  1.00  0.00    -0.198 A  
HETATM   20  C   UNL     1      -5.987  16.968  68.414  1.00  0.00    -0.143 A  
HETATM   21  C   UNL     1      -6.847  18.035  68.676  1.00  0.00    -0.249 A  
HETATM   22  C   UNL     1      -8.103  18.083  68.071  1.00  0.00    -0.259 A  
ENDBRANCH  14  17
ENDBRANCH  12  14
ENDBRANCH   9  12
ENDBRANCH   5   6
ENDBRANCH   4   5
ENDBRANCH   3   4
ENDBRANCH   2   3
TORSDOF 7
ENDMDL
MODEL      135
REMARK 921   NORMALIZED FREE ENERGY PREDICTED BY IDOCK:   -3.99 KCAL/MOL
REMARK 922        TOTAL FREE ENERGY PREDICTED BY IDOCK:   -6.16 KCAL/MOL
REMARK 923 INTER-LIGAND FREE ENERGY PREDICTED BY IDOCK:   -5.91 KCAL/MOL
REMARK 924 INTRA-LIGAND FREE ENERGY PREDICTED BY IDOCK:   -0.25 KCAL/MOL
REMARK 927      BINDING AFFINITY PREDICTED BY RF-SCORE:    0.00 PKD
ROOT
HETATM    1  C   UNL     1     -13.600  12.992  72.254  1.00  0.00    -0.547 C  
HETATM    2  O   UNL     1     -14.303  14.210  72.442  1.00  0.00    -0.586 OA 
ENDROOT
BRANCH   2   3
HETATM    3  C   UNL     1     -13.573  15.342  71.962  1.00  0.00    -0.487 C  
BRANCH   3   4
HETATM    4  C   UNL     1     -12.244  14.826  71.427  1.00  0.00    -0.342 C  
BRANCH   4   5
HETATM    5  O   UNL     1     -11.671  15.711  70.459  1.00  0.00    -0.305 OA 
BRANCH   5   6
HETATM    6  C   UNL     1     -11.175  15.083  69.352  1.00  0.00    -0.284 A  
HETATM    7  C   UNL     1      -9.957  14.439  69.241  1.00  0.00     0.021 A  
HETATM    8  N   UNL     1      -9.525  13.821  68.127  1.00  0.00    -0.207 NA 
HETATM    9  C   UNL     1     -10.350  13.868  67.087  1.00  0.00    -0.265 A  
HETATM   10  C   UNL     1     -11.933  15.060  68.196  1.00  0.00    -0.165 A  
HETATM   11  N   UNL     1     -11.544  14.466  67.038  1.00  0.00    -0.369 NA 
BRANCH   9  12
HETATM   12  N   UNL     1      -9.944  13.180  65.947  1.00  0.00    -0.309 N  
HETATM   13  H   UNL     1      -9.268  13.555  65.282  1.00  0.00     0.000 HD 
BRANCH  12  14
HETATM   14  S   UNL     1     -10.671  11.678  65.766  1.00  0.00    -0.276 S  
HETATM   15  O   UNL     1     -11.096  11.457  64.399  1.00  0.00    -0.329 OA 
HETATM   16  O   UNL     1     -11.608  11.543  66.860  1.00  0.00    -0.503 OA 
BRANCH  14  17
HETATM   17  C   UNL     1      -9.343  10.530  66.104  1.00  0.00    -0.176 A  
HETATM   18  C   UNL     1      -9.462   9.200  65.689  1.00  0.00    -0.309 A  
HETATM   19  C   UNL     1      -8.423   8.307  65.944  1.00  0.00    -0.151 A  
HETATM   20  C   UNL     1      -7.270   8.744  66.601  1.00  0.00    -0.081 A  
HETATM   21  C   UNL     1      -7.144  10.078  66.987  1.00  0.00    -0.089 A  
HETATM   22  C   UNL     1      -8.175  10.982  66.725  1.00  0.00    -0.149 A  
ENDBRANCH  14  17
ENDBRANCH  12  14
ENDBRANCH   9  12
ENDBRANCH   5   6
ENDBRANCH   4   5
ENDBRANCH   3   4
ENDBRANCH   2   3
TORSDOF 7
ENDMDL
MODEL      136
REMARK 921   NORMALIZED FREE ENERGY PREDICTED BY IDOCK:   -3.99 KCAL/MOL
REMARK 922        TOTAL FREE ENERGY PREDICTED BY IDOCK:   -6.16 KCAL/MOL
REMARK 923 INTER-LIGAND FREE ENERGY PREDICTED BY IDOCK:   -6.32 KCAL/MOL
REMARK 924 INTRA-LIGAND FREE ENERGY PREDICTED BY IDOCK:    0.16 KCAL/MOL
REMARK 927      BINDING AFFINITY PREDICTED BY RF-SCORE:    0.00 PKD
ROOT
HETATM    1  C   UNL     1     -13.148  12.561  71.742  1.00  0.00    -0.347 C  
HETATM    2  O   UNL     1     -13.200  11.190  72.102  1.00  0.00    -0.481 OA 
ENDROOT
BRANCH   2   3
HETATM    3  C   UNL     1     -12.925  10.323  70.998  1.00  0.00    -0.397 C  
BRANCH   3   4
HETATM    4  C   UNL     1     -11.573   9.673  71.264  1.00  0.00    -0.393 C  
BRANCH   4   5
HETATM    5  O   UNL     1     -10.513  10.322  70.553  1.00  0.00    -0.208 OA 
BRANCH   5   6
HETATM    6  C   UNL     1     -10.865  10.768  69.311  1.00  0.00    -0.242 A  
HETATM    7  C   UNL     1     -11.012  10.005  68.168  1.00  0.00    -0.235 A  
HETATM    8  N   UNL     1     -11.377  10.497  66.970  1.00  0.00    -0.226 NA 
HETATM    9  C   UNL     1     -11.589  11.808  66.928  1.00  0.00    -0.234 A  
HETATM   10  C   UNL     1     -11.112  12.116  69.126  1.00  0.00    -0.205 A  
HETATM   11  N   UNL     1     -11.468  12.672  67.940  1.00  0.00    -0.288 NA 
BRANCH   9  12
HETATM   12  N   UNL     1     -12.027  12.322  65.711  1.00  0.00    -0.372 N  
HETATM   13  H   UNL     1     -13.013  12.439  65.479  1.00  0.00     0.000 HD 
BRANCH  12  14
HETATM   14  S   UNL     1     -10.784  12.732  64.660  1.00  0.00    -0.359 S  
HETATM   15  O   UNL     1     -11.257  12.830  63.294  1.00  0.00    -0.397 OA 
HETATM   16  O   UNL     1      -9.668  11.875  64.994  1.00  0.00    -0.232 OA 
BRANCH  14  17
HETATM   17  C   UNL     1     -10.322  14.377  65.183  1.00  0.00    -0.421 A  
HETATM   18  C   UNL     1      -9.175  14.553  65.963  1.00  0.00    -0.098 A  
HETATM   19  C   UNL     1      -8.808  15.837  66.364  1.00  0.00    -0.371 A  
HETATM   20  C   UNL     1      -9.578  16.936  65.978  1.00  0.00    -0.238 A  
HETATM   21  C   UNL     1     -10.705  16.759  65.175  1.00  0.00    -0.159 A  
HETATM   22  C   UNL     1     -11.072  15.478  64.760  1.00  0.00    -0.421 A  
ENDBRANCH  14  17
ENDBRANCH  12  14
ENDBRANCH   9  12
ENDBRANCH   5   6
ENDBRANCH   4   5
ENDBRANCH   3   4
ENDBRANCH   2   3
TORSDOF 7
ENDMDL
MODEL      137
REMARK 921   NORMALIZED FREE ENERGY PREDICTED BY IDOCK:   -3.99 KCAL/MOL
REMARK 922        TOTAL FREE ENERGY PREDICTED BY IDOCK:   -6.16 KCAL/MOL
REMARK 923 INTER-LIGAND FREE ENERGY PREDICTED BY IDOCK:   -5.82 KCAL/MOL
REMARK 924 INTRA-LIGAND FREE ENERGY PREDICTED BY IDOCK:   -0.34 KCAL/MOL
REMARK 927      BINDING AFFINITY PREDICTED BY RF-SCORE:    0.00 PKD
ROOT
HETATM    1  C   UNL     1      -8.333   9.703  64.413  1.00  0.00    -0.168 C  
HETATM    2  O   UNL     1      -8.047  10.170  63.104  1.00  0.00    -0.148 OA 
ENDROOT
BRANCH   2   3
HETATM    3  C   UNL     1      -9.080  11.011  62.585  1.00  0.00    -0.343 C  
BRANCH   3   4
HETATM    4  C   UNL     1     -10.135  11.151  63.675  1.00  0.00    -0.379 C  
BRANCH   4   5
HETATM    5  O   UNL     1     -11.006  12.263  63.443  1.00  0.00    -0.441 OA 
BRANCH   5   6
HETATM    6  C   UNL     1     -11.413  12.901  64.581  1.00  0.00    -0.327 A  
HETATM    7  C   UNL     1     -11.450  14.265  64.797  1.00  0.00    -0.393 A  
HETATM    8  N   UNL     1     -11.877  14.841  65.936  1.00  0.00    -0.266 NA 
HETATM    9  C   UNL     1     -12.267  14.004  66.891  1.00  0.00    -0.380 A  
HETATM   10  C   UNL     1     -11.843  12.146  65.656  1.00  0.00    -0.276 A  
HETATM   11  N   UNL     1     -12.270  12.669  66.835  1.00  0.00    -0.454 NA 
BRANCH   9  12
HETATM   12  N   UNL     1     -12.770  14.585  68.052  1.00  0.00     0.012 N  
HETATM   13  H   UNL     1     -13.690  15.022  68.103  1.00  0.00     0.000 HD 
BRANCH  12  14
HETATM   14  S   UNL     1     -11.723  14.501  69.361  1.00  0.00    -0.338 S  
HETATM   15  O   UNL     1     -11.247  13.149  69.571  1.00  0.00    -0.192 OA 
HETATM   16  O   UNL     1     -12.353  15.236  70.436  1.00  0.00    -0.333 OA 
BRANCH  14  17
HETATM   17  C   UNL     1     -10.325  15.484  68.840  1.00  0.00    -0.221 A  
HETATM   18  C   UNL     1     -10.413  16.879  68.878  1.00  0.00    -0.346 A  
HETATM   19  C   UNL     1      -9.319  17.647  68.481  1.00  0.00    -0.291 A  
HETATM   20  C   UNL     1      -8.143  17.023  68.059  1.00  0.00    -0.204 A  
HETATM   21  C   UNL     1      -8.049  15.631  68.051  1.00  0.00    -0.140 A  
HETATM   22  C   UNL     1      -9.136  14.856  68.458  1.00  0.00    -0.191 A  
ENDBRANCH  14  17
ENDBRANCH  12  14
ENDBRANCH   9  12
ENDBRANCH   5   6
ENDBRANCH   4   5
ENDBRANCH   3   4
ENDBRANCH   2   3
TORSDOF 7
ENDMDL
MODEL      138
REMARK 921   NORMALIZED FREE ENERGY PREDICTED BY IDOCK:   -3.98 KCAL/MOL
REMARK 922        TOTAL FREE ENERGY PREDICTED BY IDOCK:   -6.14 KCAL/MOL
REMARK 923 INTER-LIGAND FREE ENERGY PREDICTED BY IDOCK:   -5.72 KCAL/MOL
REMARK 924 INTRA-LIGAND FREE ENERGY PREDICTED BY IDOCK:   -0.42 KCAL/MOL
REMARK 927      BINDING AFFINITY PREDICTED BY RF-SCORE:    0.00 PKD
ROOT
HETATM    1  C   UNL     1      -8.454   5.164  64.446  1.00  0.00    -0.138 C  
HETATM    2  O   UNL     1      -8.734   5.186  65.836  1.00  0.00    -0.125 OA 
ENDROOT
BRANCH   2   3
HETATM    3  C   UNL     1      -8.166   6.323  66.491  1.00  0.00    -0.112 C  
BRANCH   3   4
HETATM    4  C   UNL     1      -9.290   7.329  66.701  1.00  0.00    -0.171 C  
BRANCH   4   5
HETATM    5  O   UNL     1      -9.257   8.386  65.736  1.00  0.00    -0.182 OA 
BRANCH   5   6
HETATM    6  C   UNL     1      -9.987   9.486  66.087  1.00  0.00    -0.272 A  
HETATM    7  C   UNL     1     -10.784   9.628  67.206  1.00  0.00    -0.214 A  
HETATM    8  N   UNL     1     -11.470  10.744  67.512  1.00  0.00    -0.487 NA 
HETATM    9  C   UNL     1     -11.352  11.746  66.647  1.00  0.00    -0.316 A  
HETATM   10  C   UNL     1      -9.956  10.601  65.270  1.00  0.00    -0.294 A  
HETATM   11  N   UNL     1     -10.638  11.749  65.518  1.00  0.00    -0.267 NA 
BRANCH   9  12
HETATM   12  N   UNL     1     -12.006  12.929  66.980  1.00  0.00    -0.369 N  
HETATM   13  H   UNL     1     -12.860  13.242  66.519  1.00  0.00     0.000 HD 
BRANCH  12  14
HETATM   14  S   UNL     1     -11.259  13.794  68.210  1.00  0.00    -0.291 S  
HETATM   15  O   UNL     1      -9.996  13.193  68.587  1.00  0.00    -0.204 OA 
HETATM   16  O   UNL     1     -12.278  14.052  69.204  1.00  0.00    -0.346 OA 
BRANCH  14  17
HETATM   17  C   UNL     1     -10.895  15.369  67.450  1.00  0.00    -0.309 A  
HETATM   18  C   UNL     1     -10.604  15.422  66.083  1.00  0.00    -0.321 A  
HETATM   19  C   UNL     1     -10.329  16.653  65.488  1.00  0.00    -0.268 A  
HETATM   20  C   UNL     1     -10.356  17.821  66.253  1.00  0.00    -0.358 A  
HETATM   21  C   UNL     1     -10.677  17.767  67.609  1.00  0.00    -0.330 A  
HETATM   22  C   UNL     1     -10.964  16.541  68.210  1.00  0.00    -0.346 A  
ENDBRANCH  14  17
ENDBRANCH  12  14
ENDBRANCH   9  12
ENDBRANCH   5   6
ENDBRANCH   4   5
ENDBRANCH   3   4
ENDBRANCH   2   3
TORSDOF 7
ENDMDL
MODEL      139
REMARK 921   NORMALIZED FREE ENERGY PREDICTED BY IDOCK:   -3.96 KCAL/MOL
REMARK 922        TOTAL FREE ENERGY PREDICTED BY IDOCK:   -6.12 KCAL/MOL
REMARK 923 INTER-LIGAND FREE ENERGY PREDICTED BY IDOCK:   -5.55 KCAL/MOL
REMARK 924 INTRA-LIGAND FREE ENERGY PREDICTED BY IDOCK:   -0.56 KCAL/MOL
REMARK 927      BINDING AFFINITY PREDICTED BY RF-SCORE:    0.00 PKD
ROOT
HETATM    1  C   UNL     1     -12.154  14.269  64.460  1.00  0.00    -0.480 C  
HETATM    2  O   UNL     1     -10.857  14.641  64.898  1.00  0.00    -0.388 OA 
ENDROOT
BRANCH   2   3
HETATM    3  C   UNL     1     -10.867  15.220  66.206  1.00  0.00    -0.312 C  
BRANCH   3   4
HETATM    4  C   UNL     1     -10.261  14.195  67.155  1.00  0.00    -0.258 C  
BRANCH   4   5
HETATM    5  O   UNL     1      -9.498  13.201  66.462  1.00  0.00    -0.252 OA 
BRANCH   5   6
HETATM    6  C   UNL     1      -9.857  11.916  66.755  1.00  0.00    -0.197 A  
HETATM    7  C   UNL     1      -9.666  10.802  65.962  1.00  0.00    -0.217 A  
HETATM    8  N   UNL     1     -10.025   9.552  66.309  1.00  0.00    -0.268 NA 
HETATM    9  C   UNL     1     -10.610   9.432  67.496  1.00  0.00    -0.267 A  
HETATM   10  C   UNL     1     -10.478  11.651  67.962  1.00  0.00    -0.194 A  
HETATM   11  N   UNL     1     -10.877  10.415  68.360  1.00  0.00    -0.227 NA 
BRANCH   9  12
HETATM   12  N   UNL     1     -10.932   8.138  67.897  1.00  0.00    -0.478 N  
HETATM   13  H   UNL     1     -11.849   7.720  67.744  1.00  0.00     0.000 HD 
BRANCH  12  14
HETATM   14  S   UNL     1      -9.672   7.329  68.655  1.00  0.00    -0.149 S  
HETATM   15  O   UNL     1      -8.588   8.231  68.987  1.00  0.00    -0.133 OA 
HETATM   16  O   UNL     1      -9.424   6.136  67.875  1.00  0.00    -0.117 OA 
BRANCH  14  17
HETATM   17  C   UNL     1     -10.396   6.776  70.192  1.00  0.00    -0.202 A  
HETATM   18  C   UNL     1     -11.236   7.638  70.905  1.00  0.00    -0.282 A  
HETATM   19  C   UNL     1     -11.809   7.203  72.099  1.00  0.00    -0.315 A  
HETATM   20  C   UNL     1     -11.551   5.914  72.571  1.00  0.00    -0.327 A  
HETATM   21  C   UNL     1     -10.736   5.048  71.841  1.00  0.00    -0.181 A  
HETATM   22  C   UNL     1     -10.168   5.471  70.639  1.00  0.00    -0.308 A  
ENDBRANCH  14  17
ENDBRANCH  12  14
ENDBRANCH   9  12
ENDBRANCH   5   6
ENDBRANCH   4   5
ENDBRANCH   3   4
ENDBRANCH   2   3
TORSDOF 7
ENDMDL
MODEL      140
REMARK 921   NORMALIZED FREE ENERGY PREDICTED BY IDOCK:   -3.96 KCAL/MOL
REMARK 922        TOTAL FREE ENERGY PREDICTED BY IDOCK:   -6.11 KCAL/MOL
REMARK 923 INTER-LIGAND FREE ENERGY PREDICTED BY IDOCK:   -5.76 KCAL/MOL
REMARK 924 INTRA-LIGAND FREE ENERGY PREDICTED BY IDOCK:   -0.35 KCAL/MOL
REMARK 927      BINDING AFFINITY PREDICTED BY RF-SCORE:    0.00 PKD
ROOT
HETATM    1  C   UNL     1      -6.396   7.969  62.375  1.00  0.00    -0.086 C  
HETATM    2  O   UNL     1      -6.006   9.332  62.342  1.00  0.00    -0.090 OA 
ENDROOT
BRANCH   2   3
HETATM    3  C   UNL     1      -6.884  10.170  63.097  1.00  0.00    -0.131 C  
BRANCH   3   4
HETATM    4  C   UNL     1      -8.308   9.802  62.701  1.00  0.00    -0.156 C  
BRANCH   4   5
HETATM    5  O   UNL     1      -9.144  10.955  62.559  1.00  0.00    -0.286 OA 
BRANCH   5   6
HETATM    6  C   UNL     1      -9.837  11.285  63.689  1.00  0.00    -0.340 A  
HETATM    7  C   UNL     1     -10.452  12.492  63.961  1.00  0.00    -0.422 A  
HETATM    8  N   UNL     1     -11.138  12.757  65.088  1.00  0.00    -0.285 NA 
HETATM    9  C   UNL     1     -11.192  11.769  65.973  1.00  0.00    -0.296 A  
HETATM   10  C   UNL     1      -9.967  10.346  64.695  1.00  0.00    -0.338 A  
HETATM   11  N   UNL     1     -10.633  10.560  65.859  1.00  0.00    -0.136 NA 
BRANCH   9  12
HETATM   12  N   UNL     1     -11.950  12.005  67.117  1.00  0.00    -0.162 N  
HETATM   13  H   UNL     1     -12.956  12.167  67.094  1.00  0.00     0.000 HD 
BRANCH  12  14
HETATM   14  S   UNL     1     -11.055  12.000  68.537  1.00  0.00    -0.265 S  
HETATM   15  O   UNL     1      -9.663  12.316  68.286  1.00  0.00    -0.214 OA 
HETATM   16  O   UNL     1     -11.420  10.794  69.246  1.00  0.00    -0.254 OA 
BRANCH  14  17
HETATM   17  C   UNL     1     -11.749  13.356  69.472  1.00  0.00    -0.324 A  
HETATM   18  C   UNL     1     -11.727  14.646  68.932  1.00  0.00    -0.343 A  
HETATM   19  C   UNL     1     -12.277  15.702  69.658  1.00  0.00    -0.264 A  
HETATM   20  C   UNL     1     -12.854  15.466  70.908  1.00  0.00    -0.536 A  
HETATM   21  C   UNL     1     -12.900  14.173  71.429  1.00  0.00    -0.428 A  
HETATM   22  C   UNL     1     -12.362  13.109  70.704  1.00  0.00    -0.405 A  
ENDBRANCH  14  17
ENDBRANCH  12  14
ENDBRANCH   9  12
ENDBRANCH   5   6
ENDBRANCH   4   5
ENDBRANCH   3   4
ENDBRANCH   2   3
TORSDOF 7
ENDMDL
MODEL      141
REMARK 921   NORMALIZED FREE ENERGY PREDICTED BY IDOCK:   -3.95 KCAL/MOL
REMARK 922        TOTAL FREE ENERGY PREDICTED BY IDOCK:   -6.11 KCAL/MOL
REMARK 923 INTER-LIGAND FREE ENERGY PREDICTED BY IDOCK:   -5.59 KCAL/MOL
REMARK 924 INTRA-LIGAND FREE ENERGY PREDICTED BY IDOCK:   -0.51 KCAL/MOL
REMARK 927      BINDING AFFINITY PREDICTED BY RF-SCORE:    0.00 PKD
ROOT
HETATM    1  C   UNL     1      -7.923   7.201  62.458  1.00  0.00    -0.125 C  
HETATM    2  O   UNL     1      -6.858   6.927  63.354  1.00  0.00    -0.045 OA 
ENDROOT
BRANCH   2   3
HETATM    3  C   UNL     1      -5.936   8.016  63.455  1.00  0.00    -0.063 C  
BRANCH   3   4
HETATM    4  C   UNL     1      -6.759   9.290  63.597  1.00  0.00    -0.092 C  
BRANCH   4   5
HETATM    5  O   UNL     1      -7.006   9.623  64.967  1.00  0.00    -0.100 OA 
BRANCH   5   6
HETATM    6  C   UNL     1      -8.207  10.237  65.185  1.00  0.00    -0.161 A  
HETATM    7  C   UNL     1      -9.347  10.122  64.414  1.00  0.00    -0.293 A  
HETATM    8  N   UNL     1     -10.512  10.740  64.685  1.00  0.00    -0.329 NA 
HETATM    9  C   UNL     1     -10.515  11.509  65.768  1.00  0.00    -0.259 A  
HETATM   10  C   UNL     1      -8.347  11.070  66.280  1.00  0.00    -0.166 A  
HETATM   11  N   UNL     1      -9.490  11.731  66.596  1.00  0.00    -0.199 NA 
BRANCH   9  12
HETATM   12  N   UNL     1     -11.729  12.106  66.097  1.00  0.00    -0.368 N  
HETATM   13  H   UNL     1     -12.468  11.620  66.605  1.00  0.00     0.000 HD 
BRANCH  12  14
HETATM   14  S   UNL     1     -11.865  13.697  65.581  1.00  0.00    -0.387 S  
HETATM   15  O   UNL     1     -13.245  14.052  65.318  1.00  0.00    -0.782 OA 
HETATM   16  O   UNL     1     -10.849  13.886  64.569  1.00  0.00    -0.398 OA 
BRANCH  14  17
HETATM   17  C   UNL     1     -11.333  14.642  67.001  1.00  0.00    -0.355 A  
HETATM   18  C   UNL     1     -11.885  14.368  68.256  1.00  0.00    -0.361 A  
HETATM   19  C   UNL     1     -11.463  15.099  69.366  1.00  0.00    -0.322 A  
HETATM   20  C   UNL     1     -10.489  16.090  69.221  1.00  0.00    -0.257 A  
HETATM   21  C   UNL     1      -9.919  16.340  67.973  1.00  0.00    -0.240 A  
HETATM   22  C   UNL     1     -10.328  15.604  66.859  1.00  0.00    -0.293 A  
ENDBRANCH  14  17
ENDBRANCH  12  14
ENDBRANCH   9  12
ENDBRANCH   5   6
ENDBRANCH   4   5
ENDBRANCH   3   4
ENDBRANCH   2   3
TORSDOF 7
ENDMDL
MODEL      142
REMARK 921   NORMALIZED FREE ENERGY PREDICTED BY IDOCK:   -3.94 KCAL/MOL
REMARK 922        TOTAL FREE ENERGY PREDICTED BY IDOCK:   -6.08 KCAL/MOL
REMARK 923 INTER-LIGAND FREE ENERGY PREDICTED BY IDOCK:   -5.79 KCAL/MOL
REMARK 924 INTRA-LIGAND FREE ENERGY PREDICTED BY IDOCK:   -0.30 KCAL/MOL
REMARK 927      BINDING AFFINITY PREDICTED BY RF-SCORE:    0.00 PKD
ROOT
HETATM    1  C   UNL     1     -10.510  11.953  63.414  1.00  0.00    -0.441 C  
HETATM    2  O   UNL     1     -10.670  10.876  64.322  1.00  0.00    -0.353 OA 
ENDROOT
BRANCH   2   3
HETATM    3  C   UNL     1      -9.508  10.045  64.396  1.00  0.00    -0.286 C  
BRANCH   3   4
HETATM    4  C   UNL     1      -9.433   9.503  65.817  1.00  0.00    -0.250 C  
BRANCH   4   5
HETATM    5  O   UNL     1     -10.501   9.988  66.637  1.00  0.00    -0.223 OA 
BRANCH   5   6
HETATM    6  C   UNL     1     -10.219  11.154  67.291  1.00  0.00    -0.193 A  
HETATM    7  C   UNL     1      -8.975  11.593  67.701  1.00  0.00    -0.166 A  
HETATM    8  N   UNL     1      -8.752  12.761  68.329  1.00  0.00    -0.184 NA 
HETATM    9  C   UNL     1      -9.829  13.504  68.560  1.00  0.00    -0.189 A  
HETATM   10  C   UNL     1     -11.252  12.020  67.596  1.00  0.00    -0.282 A  
HETATM   11  N   UNL     1     -11.091  13.204  68.241  1.00  0.00    -0.253 NA 
BRANCH   9  12
HETATM   12  N   UNL     1      -9.608  14.744  69.153  1.00  0.00    -0.350 N  
HETATM   13  H   UNL     1      -9.265  14.851  70.107  1.00  0.00     0.000 HD 
BRANCH  12  14
HETATM   14  S   UNL     1      -9.957  16.046  68.154  1.00  0.00    -0.231 S  
HETATM   15  O   UNL     1     -11.236  16.640  68.486  1.00  0.00    -0.344 OA 
HETATM   16  O   UNL     1      -9.676  15.612  66.803  1.00  0.00    -0.229 OA 
BRANCH  14  17
HETATM   17  C   UNL     1      -8.692  17.239  68.566  1.00  0.00    -0.273 A  
HETATM   18  C   UNL     1      -7.408  16.792  68.897  1.00  0.00    -0.235 A  
HETATM   19  C   UNL     1      -6.418  17.723  69.209  1.00  0.00    -0.244 A  
HETATM   20  C   UNL     1      -6.708  19.089  69.180  1.00  0.00    -0.337 A  
HETATM   21  C   UNL     1      -7.981  19.531  68.820  1.00  0.00    -0.362 A  
HETATM   22  C   UNL     1      -8.975  18.606  68.495  1.00  0.00    -0.364 A  
ENDBRANCH  14  17
ENDBRANCH  12  14
ENDBRANCH   9  12
ENDBRANCH   5   6
ENDBRANCH   4   5
ENDBRANCH   3   4
ENDBRANCH   2   3
TORSDOF 7
ENDMDL
MODEL      143
REMARK 921   NORMALIZED FREE ENERGY PREDICTED BY IDOCK:   -3.92 KCAL/MOL
REMARK 922        TOTAL FREE ENERGY PREDICTED BY IDOCK:   -6.06 KCAL/MOL
REMARK 923 INTER-LIGAND FREE ENERGY PREDICTED BY IDOCK:   -5.70 KCAL/MOL
REMARK 924 INTRA-LIGAND FREE ENERGY PREDICTED BY IDOCK:   -0.36 KCAL/MOL
REMARK 927      BINDING AFFINITY PREDICTED BY RF-SCORE:    0.00 PKD
ROOT
HETATM    1  C   UNL     1      -9.649   3.105  71.180  1.00  0.00    -0.160 C  
HETATM    2  O   UNL     1     -10.016   4.093  72.130  1.00  0.00    -0.162 OA 
ENDROOT
BRANCH   2   3
HETATM    3  C   UNL     1     -10.513   5.284  71.515  1.00  0.00    -0.210 C  
BRANCH   3   4
HETATM    4  C   UNL     1      -9.317   6.018  70.924  1.00  0.00    -0.161 C  
BRANCH   4   5
HETATM    5  O   UNL     1      -9.557   6.447  69.579  1.00  0.00    -0.144 OA 
BRANCH   5   6
HETATM    6  C   UNL     1      -9.693   7.799  69.440  1.00  0.00    -0.169 A  
HETATM    7  C   UNL     1      -9.865   8.722  70.453  1.00  0.00    -0.182 A  
HETATM    8  N   UNL     1      -9.978  10.049  70.259  1.00  0.00    -0.202 NA 
HETATM    9  C   UNL     1      -9.926  10.450  68.994  1.00  0.00    -0.214 A  
HETATM   10  C   UNL     1      -9.661   8.350  68.172  1.00  0.00    -0.143 A  
HETATM   11  N   UNL     1      -9.784   9.677  67.913  1.00  0.00    -0.143 NA 
BRANCH   9  12
HETATM   12  N   UNL     1      -9.979  11.825  68.780  1.00  0.00    -0.367 N  
HETATM   13  H   UNL     1      -9.148  12.413  68.729  1.00  0.00     0.000 HD 
BRANCH  12  14
HETATM   14  S   UNL     1     -11.538  12.427  68.614  1.00  0.00    -0.338 S  
HETATM   15  O   UNL     1     -11.865  13.348  69.683  1.00  0.00    -0.299 OA 
HETATM   16  O   UNL     1     -12.387  11.289  68.336  1.00  0.00    -0.545 OA 
BRANCH  14  17
HETATM   17  C   UNL     1     -11.461  13.371  67.099  1.00  0.00    -0.339 A  
HETATM   18  C   UNL     1     -11.926  12.802  65.910  1.00  0.00    -0.506 A  
HETATM   19  C   UNL     1     -11.875  13.543  64.730  1.00  0.00    -0.412 A  
HETATM   20  C   UNL     1     -11.371  14.845  64.742  1.00  0.00    -0.400 A  
HETATM   21  C   UNL     1     -10.935  15.419  65.936  1.00  0.00    -0.293 A  
HETATM   22  C   UNL     1     -10.994  14.689  67.124  1.00  0.00    -0.316 A  
ENDBRANCH  14  17
ENDBRANCH  12  14
ENDBRANCH   9  12
ENDBRANCH   5   6
ENDBRANCH   4   5
ENDBRANCH   3   4
ENDBRANCH   2   3
TORSDOF 7
ENDMDL
MODEL      144
REMARK 921   NORMALIZED FREE ENERGY PREDICTED BY IDOCK:   -3.92 KCAL/MOL
REMARK 922        TOTAL FREE ENERGY PREDICTED BY IDOCK:   -6.05 KCAL/MOL
REMARK 923 INTER-LIGAND FREE ENERGY PREDICTED BY IDOCK:   -5.94 KCAL/MOL
REMARK 924 INTRA-LIGAND FREE ENERGY PREDICTED BY IDOCK:   -0.11 KCAL/MOL
REMARK 927      BINDING AFFINITY PREDICTED BY RF-SCORE:    0.00 PKD
ROOT
HETATM    1  C   UNL     1     -12.909  11.779  63.366  1.00  0.00    -0.176 C  
HETATM    2  O   UNL     1     -11.491  11.727  63.380  1.00  0.00    -0.402 OA 
ENDROOT
BRANCH   2   3
HETATM    3  C   UNL     1     -10.904  12.943  63.851  1.00  0.00    -0.367 C  
BRANCH   3   4
HETATM    4  C   UNL     1     -12.047  13.877  64.227  1.00  0.00    -0.440 C  
BRANCH   4   5
HETATM    5  O   UNL     1     -11.944  14.339  65.578  1.00  0.00    -0.364 OA 
BRANCH   5   6
HETATM    6  C   UNL     1     -10.708  14.816  65.913  1.00  0.00    -0.316 A  
HETATM    7  C   UNL     1     -10.118  15.979  65.459  1.00  0.00    -0.304 A  
HETATM    8  N   UNL     1      -8.900  16.410  65.836  1.00  0.00    -0.456 NA 
HETATM    9  C   UNL     1      -8.255  15.627  66.694  1.00  0.00    -0.249 A  
HETATM   10  C   UNL     1      -9.928  14.095  66.798  1.00  0.00    -0.267 A  
HETATM   11  N   UNL     1      -8.687  14.470  67.204  1.00  0.00    -0.209 NA 
BRANCH   9  12
HETATM   12  N   UNL     1      -7.020  16.090  67.142  1.00  0.00    -0.208 N  
HETATM   13  H   UNL     1      -6.138  15.841  66.696  1.00  0.00     0.000 HD 
BRANCH  12  14
HETATM   14  S   UNL     1      -7.118  17.094  68.483  1.00  0.00    -0.223 S  
HETATM   15  O   UNL     1      -6.182  16.692  69.514  1.00  0.00    -0.198 OA 
HETATM   16  O   UNL     1      -8.525  17.240  68.783  1.00  0.00    -0.274 OA 
BRANCH  14  17
HETATM   17  C   UNL     1      -6.576  18.677  67.859  1.00  0.00    -0.213 A  
HETATM   18  C   UNL     1      -7.110  19.850  68.402  1.00  0.00    -0.330 A  
HETATM   19  C   UNL     1      -6.680  21.086  67.921  1.00  0.00    -0.298 A  
HETATM   20  C   UNL     1      -5.716  21.147  66.912  1.00  0.00    -0.322 A  
HETATM   21  C   UNL     1      -5.165  19.976  66.394  1.00  0.00    -0.171 A  
HETATM   22  C   UNL     1      -5.581  18.735  66.877  1.00  0.00    -0.154 A  
ENDBRANCH  14  17
ENDBRANCH  12  14
ENDBRANCH   9  12
ENDBRANCH   5   6
ENDBRANCH   4   5
ENDBRANCH   3   4
ENDBRANCH   2   3
TORSDOF 7
ENDMDL
MODEL      145
REMARK 921   NORMALIZED FREE ENERGY PREDICTED BY IDOCK:   -3.92 KCAL/MOL
REMARK 922        TOTAL FREE ENERGY PREDICTED BY IDOCK:   -6.05 KCAL/MOL
REMARK 923 INTER-LIGAND FREE ENERGY PREDICTED BY IDOCK:   -5.48 KCAL/MOL
REMARK 924 INTRA-LIGAND FREE ENERGY PREDICTED BY IDOCK:   -0.57 KCAL/MOL
REMARK 927      BINDING AFFINITY PREDICTED BY RF-SCORE:    0.00 PKD
ROOT
HETATM    1  C   UNL     1     -10.189  11.275  63.341  1.00  0.00    -0.403 C  
HETATM    2  O   UNL     1     -10.715  12.592  63.371  1.00  0.00    -0.384 OA 
ENDROOT
BRANCH   2   3
HETATM    3  C   UNL     1     -12.113  12.616  63.668  1.00  0.00    -0.547 C  
BRANCH   3   4
HETATM    4  C   UNL     1     -12.296  13.497  64.897  1.00  0.00    -0.407 C  
BRANCH   4   5
HETATM    5  O   UNL     1     -11.056  13.755  65.565  1.00  0.00    -0.293 OA 
BRANCH   5   6
HETATM    6  C   UNL     1     -10.841  12.975  66.665  1.00  0.00    -0.275 A  
HETATM    7  C   UNL     1      -9.628  12.487  67.110  1.00  0.00    -0.208 A  
HETATM    8  N   UNL     1      -9.471  11.733  68.214  1.00  0.00    -0.190 NA 
HETATM    9  C   UNL     1     -10.586  11.456  68.882  1.00  0.00    -0.202 A  
HETATM   10  C   UNL     1     -11.919  12.609  67.451  1.00  0.00    -0.242 A  
HETATM   11  N   UNL     1     -11.826  11.839  68.566  1.00  0.00    -0.412 NA 
BRANCH   9  12
HETATM   12  N   UNL     1     -10.434  10.729  70.060  1.00  0.00    -0.435 N  
HETATM   13  H   UNL     1     -10.150  11.153  70.942  1.00  0.00     0.000 HD 
BRANCH  12  14
HETATM   14  S   UNL     1     -10.761   9.091  69.894  1.00  0.00    -0.221 S  
HETATM   15  O   UNL     1     -10.552   8.646  68.531  1.00  0.00    -0.196 OA 
HETATM   16  O   UNL     1     -12.023   8.857  70.560  1.00  0.00    -0.149 OA 
BRANCH  14  17
HETATM   17  C   UNL     1      -9.512   8.312  70.907  1.00  0.00    -0.162 A  
HETATM   18  C   UNL     1      -8.260   8.025  70.356  1.00  0.00    -0.118 A  
HETATM   19  C   UNL     1      -7.282   7.426  71.150  1.00  0.00    -0.071 A  
HETATM   20  C   UNL     1      -7.554   7.126  72.486  1.00  0.00    -0.089 A  
HETATM   21  C   UNL     1      -8.795   7.441  73.040  1.00  0.00    -0.184 A  
HETATM   22  C   UNL     1      -9.775   8.051  72.256  1.00  0.00    -0.294 A  
ENDBRANCH  14  17
ENDBRANCH  12  14
ENDBRANCH   9  12
ENDBRANCH   5   6
ENDBRANCH   4   5
ENDBRANCH   3   4
ENDBRANCH   2   3
TORSDOF 7
ENDMDL
MODEL      146
REMARK 921   NORMALIZED FREE ENERGY PREDICTED BY IDOCK:   -3.90 KCAL/MOL
REMARK 922        TOTAL FREE ENERGY PREDICTED BY IDOCK:   -6.03 KCAL/MOL
REMARK 923 INTER-LIGAND FREE ENERGY PREDICTED BY IDOCK:   -5.65 KCAL/MOL
REMARK 924 INTRA-LIGAND FREE ENERGY PREDICTED BY IDOCK:   -0.38 KCAL/MOL
REMARK 927      BINDING AFFINITY PREDICTED BY RF-SCORE:    0.00 PKD
ROOT
HETATM    1  C   UNL     1      -9.731   2.754  72.038  1.00  0.00    -0.153 C  
HETATM    2  O   UNL     1     -10.051   4.010  72.614  1.00  0.00    -0.152 OA 
ENDROOT
BRANCH   2   3
HETATM    3  C   UNL     1     -10.275   5.022  71.629  1.00  0.00    -0.208 C  
BRANCH   3   4
HETATM    4  C   UNL     1      -9.169   4.891  70.590  1.00  0.00    -0.136 C  
BRANCH   4   5
HETATM    5  O   UNL     1      -9.686   4.616  69.283  1.00  0.00    -0.170 OA 
BRANCH   5   6
HETATM    6  C   UNL     1      -9.631   5.678  68.426  1.00  0.00    -0.126 A  
HETATM    7  C   UNL     1      -8.496   6.343  68.004  1.00  0.00    -0.118 A  
HETATM    8  N   UNL     1      -8.499   7.377  67.142  1.00  0.00    -0.117 NA 
HETATM    9  C   UNL     1      -9.694   7.755  66.704  1.00  0.00    -0.222 A  
HETATM   10  C   UNL     1     -10.807   6.175  67.896  1.00  0.00    -0.319 A  
HETATM   11  N   UNL     1     -10.874   7.223  67.035  1.00  0.00    -0.354 NA 
BRANCH   9  12
HETATM   12  N   UNL     1      -9.710   8.783  65.764  1.00  0.00    -0.461 N  
HETATM   13  H   UNL     1      -9.866   8.624  64.769  1.00  0.00     0.000 HD 
BRANCH  12  14
HETATM   14  S   UNL     1      -9.448  10.306  66.419  1.00  0.00    -0.182 S  
HETATM   15  O   UNL     1      -8.086  10.748  66.203  1.00  0.00    -0.152 OA 
HETATM   16  O   UNL     1     -10.011  10.279  67.752  1.00  0.00    -0.165 OA 
BRANCH  14  17
HETATM   17  C   UNL     1     -10.513  11.364  65.451  1.00  0.00    -0.280 A  
HETATM   18  C   UNL     1     -11.531  12.082  66.087  1.00  0.00    -0.401 A  
HETATM   19  C   UNL     1     -12.356  12.916  65.332  1.00  0.00    -0.538 A  
HETATM   20  C   UNL     1     -12.157  13.037  63.955  1.00  0.00    -0.519 A  
HETATM   21  C   UNL     1     -11.121  12.342  63.330  1.00  0.00    -0.487 A  
HETATM   22  C   UNL     1     -10.284  11.514  64.080  1.00  0.00    -0.394 A  
ENDBRANCH  14  17
ENDBRANCH  12  14
ENDBRANCH   9  12
ENDBRANCH   5   6
ENDBRANCH   4   5
ENDBRANCH   3   4
ENDBRANCH   2   3
TORSDOF 7
ENDMDL
MODEL      147
REMARK 921   NORMALIZED FREE ENERGY PREDICTED BY IDOCK:   -3.90 KCAL/MOL
REMARK 922        TOTAL FREE ENERGY PREDICTED BY IDOCK:   -6.03 KCAL/MOL
REMARK 923 INTER-LIGAND FREE ENERGY PREDICTED BY IDOCK:   -5.57 KCAL/MOL
REMARK 924 INTRA-LIGAND FREE ENERGY PREDICTED BY IDOCK:   -0.45 KCAL/MOL
REMARK 927      BINDING AFFINITY PREDICTED BY RF-SCORE:    0.00 PKD
ROOT
HETATM    1  C   UNL     1     -12.495  14.095  70.147  1.00  0.00    -0.331 C  
HETATM    2  O   UNL     1     -12.203  15.481  70.069  1.00  0.00    -0.358 OA 
ENDROOT
BRANCH   2   3
HETATM    3  C   UNL     1     -11.583  15.841  68.832  1.00  0.00    -0.394 C  
BRANCH   3   4
HETATM    4  C   UNL     1     -11.970  14.779  67.811  1.00  0.00    -0.216 C  
BRANCH   4   5
HETATM    5  O   UNL     1     -11.259  14.931  66.578  1.00  0.00    -0.340 OA 
BRANCH   5   6
HETATM    6  C   UNL     1     -11.004  13.756  65.930  1.00  0.00    -0.283 A  
HETATM    7  C   UNL     1     -10.532  13.606  64.641  1.00  0.00    -0.423 A  
HETATM    8  N   UNL     1     -10.283  12.419  64.057  1.00  0.00    -0.380 NA 
HETATM    9  C   UNL     1     -10.532  11.349  64.803  1.00  0.00    -0.308 A  
HETATM   10  C   UNL     1     -11.225  12.562  66.593  1.00  0.00    -0.307 A  
HETATM   11  N   UNL     1     -11.006  11.336  66.053  1.00  0.00    -0.223 NA 
BRANCH   9  12
HETATM   12  N   UNL     1     -10.221  10.116  64.236  1.00  0.00    -0.425 N  
HETATM   13  H   UNL     1     -10.868   9.597  63.644  1.00  0.00     0.000 HD 
BRANCH  12  14
HETATM   14  S   UNL     1      -8.684   9.562  64.619  1.00  0.00    -0.214 S  
HETATM   15  O   UNL     1      -7.966  10.516  65.440  1.00  0.00    -0.152 OA 
HETATM   16  O   UNL     1      -8.108   9.072  63.386  1.00  0.00    -0.149 OA 
BRANCH  14  17
HETATM   17  C   UNL     1      -8.999   8.121  65.627  1.00  0.00    -0.080 A  
HETATM   18  C   UNL     1      -8.251   6.958  65.417  1.00  0.00    -0.134 A  
HETATM   19  C   UNL     1      -8.490   5.837  66.211  1.00  0.00    -0.126 A  
HETATM   20  C   UNL     1      -9.463   5.883  67.212  1.00  0.00    -0.117 A  
HETATM   21  C   UNL     1     -10.186   7.054  67.437  1.00  0.00    -0.278 A  
HETATM   22  C   UNL     1      -9.944   8.185  66.655  1.00  0.00    -0.339 A  
ENDBRANCH  14  17
ENDBRANCH  12  14
ENDBRANCH   9  12
ENDBRANCH   5   6
ENDBRANCH   4   5
ENDBRANCH   3   4
ENDBRANCH   2   3
TORSDOF 7
ENDMDL
MODEL      148
REMARK 921   NORMALIZED FREE ENERGY PREDICTED BY IDOCK:   -3.88 KCAL/MOL
REMARK 922        TOTAL FREE ENERGY PREDICTED BY IDOCK:   -6.00 KCAL/MOL
REMARK 923 INTER-LIGAND FREE ENERGY PREDICTED BY IDOCK:   -5.64 KCAL/MOL
REMARK 924 INTRA-LIGAND FREE ENERGY PREDICTED BY IDOCK:   -0.36 KCAL/MOL
REMARK 927      BINDING AFFINITY PREDICTED BY RF-SCORE:    0.00 PKD
ROOT
HETATM    1  C   UNL     1      -5.841  20.897  64.108  1.00  0.00    -0.285 C  
HETATM    2  O   UNL     1      -6.897  20.416  64.925  1.00  0.00    -0.308 OA 
ENDROOT
BRANCH   2   3
HETATM    3  C   UNL     1      -6.443  19.998  66.215  1.00  0.00    -0.205 C  
BRANCH   3   4
HETATM    4  C   UNL     1      -7.225  20.800  67.247  1.00  0.00    -0.360 C  
BRANCH   4   5
HETATM    5  O   UNL     1      -8.618  20.881  66.926  1.00  0.00    -0.088 OA 
BRANCH   5   6
HETATM    6  C   UNL     1      -9.323  19.747  67.209  1.00  0.00    -0.346 A  
HETATM    7  C   UNL     1     -10.055  18.983  66.320  1.00  0.00    -0.422 A  
HETATM    8  N   UNL     1     -10.720  17.861  66.652  1.00  0.00    -0.210 NA 
HETATM    9  C   UNL     1     -10.649  17.509  67.931  1.00  0.00    -0.390 A  
HETATM   10  C   UNL     1      -9.336  19.270  68.507  1.00  0.00    -0.388 A  
HETATM   11  N   UNL     1     -10.000  18.154  68.905  1.00  0.00    -0.366 NA 
BRANCH   9  12
HETATM   12  N   UNL     1     -11.280  16.318  68.279  1.00  0.00    -0.348 N  
HETATM   13  H   UNL     1     -12.144  16.282  68.818  1.00  0.00     0.000 HD 
BRANCH  12  14
HETATM   14  S   UNL     1     -10.487  14.945  67.728  1.00  0.00    -0.258 S  
HETATM   15  O   UNL     1     -10.662  14.769  66.300  1.00  0.00    -0.299 OA 
HETATM   16  O   UNL     1     -10.826  13.881  68.648  1.00  0.00    -0.248 OA 
BRANCH  14  17
HETATM   17  C   UNL     1      -8.763  15.317  68.013  1.00  0.00    -0.160 A  
HETATM   18  C   UNL     1      -8.233  15.177  69.299  1.00  0.00    -0.216 A  
HETATM   19  C   UNL     1      -6.885  15.458  69.519  1.00  0.00    -0.181 A  
HETATM   20  C   UNL     1      -6.073  15.866  68.459  1.00  0.00    -0.105 A  
HETATM   21  C   UNL     1      -6.599  15.975  67.172  1.00  0.00    -0.177 A  
HETATM   22  C   UNL     1      -7.945  15.685  66.940  1.00  0.00    -0.278 A  
ENDBRANCH  14  17
ENDBRANCH  12  14
ENDBRANCH   9  12
ENDBRANCH   5   6
ENDBRANCH   4   5
ENDBRANCH   3   4
ENDBRANCH   2   3
TORSDOF 7
ENDMDL
MODEL      149
REMARK 921   NORMALIZED FREE ENERGY PREDICTED BY IDOCK:   -3.87 KCAL/MOL
REMARK 922        TOTAL FREE ENERGY PREDICTED BY IDOCK:   -5.99 KCAL/MOL
REMARK 923 INTER-LIGAND FREE ENERGY PREDICTED BY IDOCK:   -5.65 KCAL/MOL
REMARK 924 INTRA-LIGAND FREE ENERGY PREDICTED BY IDOCK:   -0.34 KCAL/MOL
REMARK 927      BINDING AFFINITY PREDICTED BY RF-SCORE:    0.00 PKD
ROOT
HETATM    1  C   UNL     1     -10.411  16.586  66.327  1.00  0.00    -0.320 C  
HETATM    2  O   UNL     1     -10.303  15.174  66.236  1.00  0.00    -0.273 OA 
ENDROOT
BRANCH   2   3
HETATM    3  C   UNL     1     -11.181  14.500  67.141  1.00  0.00    -0.333 C  
BRANCH   3   4
HETATM    4  C   UNL     1     -11.476  13.130  66.544  1.00  0.00    -0.338 C  
BRANCH   4   5
HETATM    5  O   UNL     1     -12.279  12.324  67.413  1.00  0.00    -0.478 OA 
BRANCH   5   6
HETATM    6  C   UNL     1     -11.561  11.490  68.223  1.00  0.00    -0.308 A  
HETATM    7  C   UNL     1     -10.354  10.887  67.928  1.00  0.00    -0.187 A  
HETATM    8  N   UNL     1      -9.680  10.085  68.773  1.00  0.00    -0.164 NA 
HETATM    9  C   UNL     1     -10.257   9.880  69.952  1.00  0.00    -0.257 A  
HETATM   10  C   UNL     1     -12.051  11.190  69.481  1.00  0.00    -0.326 A  
HETATM   11  N   UNL     1     -11.425  10.377  70.370  1.00  0.00    -0.315 NA 
BRANCH   9  12
HETATM   12  N   UNL     1      -9.543   9.103  70.861  1.00  0.00    -0.262 N  
HETATM   13  H   UNL     1      -9.147   9.477  71.722  1.00  0.00     0.000 HD 
BRANCH  12  14
HETATM   14  S   UNL     1      -9.395   7.493  70.407  1.00  0.00    -0.160 S  
HETATM   15  O   UNL     1      -8.016   7.149  70.124  1.00  0.00    -0.109 OA 
HETATM   16  O   UNL     1     -10.432   7.247  69.429  1.00  0.00    -0.206 OA 
BRANCH  14  17
HETATM   17  C   UNL     1      -9.876   6.600  71.878  1.00  0.00    -0.166 A  
HETATM   18  C   UNL     1      -9.935   7.273  73.103  1.00  0.00    -0.295 A  
HETATM   19  C   UNL     1     -10.320   6.578  74.249  1.00  0.00    -0.309 A  
HETATM   20  C   UNL     1     -10.653   5.224  74.167  1.00  0.00    -0.301 A  
HETATM   21  C   UNL     1     -10.621   4.564  72.938  1.00  0.00    -0.275 A  
HETATM   22  C   UNL     1     -10.248   5.255  71.785  1.00  0.00    -0.269 A  
ENDBRANCH  14  17
ENDBRANCH  12  14
ENDBRANCH   9  12
ENDBRANCH   5   6
ENDBRANCH   4   5
ENDBRANCH   3   4
ENDBRANCH   2   3
TORSDOF 7
ENDMDL
MODEL      150
REMARK 921   NORMALIZED FREE ENERGY PREDICTED BY IDOCK:   -3.86 KCAL/MOL
REMARK 922        TOTAL FREE ENERGY PREDICTED BY IDOCK:   -5.97 KCAL/MOL
REMARK 923 INTER-LIGAND FREE ENERGY PREDICTED BY IDOCK:   -6.24 KCAL/MOL
REMARK 924 INTRA-LIGAND FREE ENERGY PREDICTED BY IDOCK:    0.27 KCAL/MOL
REMARK 927      BINDING AFFINITY PREDICTED BY RF-SCORE:    0.00 PKD
ROOT
HETATM    1  C   UNL     1     -10.222   9.403  70.397  1.00  0.00    -0.255 C  
HETATM    2  O   UNL     1     -11.288  10.232  70.832  1.00  0.00    -0.337 OA 
ENDROOT
BRANCH   2   3
HETATM    3  C   UNL     1     -11.868  10.982  69.762  1.00  0.00    -0.347 C  
BRANCH   3   4
HETATM    4  C   UNL     1     -10.903  10.907  68.586  1.00  0.00    -0.217 C  
BRANCH   4   5
HETATM    5  O   UNL     1     -11.574  11.039  67.328  1.00  0.00    -0.496 OA 
BRANCH   5   6
HETATM    6  C   UNL     1     -11.484  12.284  66.774  1.00  0.00    -0.361 A  
HETATM    7  C   UNL     1     -12.486  13.232  66.701  1.00  0.00    -0.066 A  
HETATM    8  N   UNL     1     -12.337  14.454  66.157  1.00  0.00    -0.369 NA 
HETATM    9  C   UNL     1     -11.133  14.718  65.661  1.00  0.00    -0.342 A  
HETATM   10  C   UNL     1     -10.284  12.687  66.219  1.00  0.00    -0.251 A  
HETATM   11  N   UNL     1     -10.077  13.900  65.644  1.00  0.00    -0.319 NA 
BRANCH   9  12
HETATM   12  N   UNL     1     -10.944  16.000  65.151  1.00  0.00    -0.380 N  
HETATM   13  H   UNL     1     -11.373  16.323  64.285  1.00  0.00     0.000 HD 
BRANCH  12  14
HETATM   14  S   UNL     1      -9.943  16.964  66.093  1.00  0.00    -0.297 S  
HETATM   15  O   UNL     1     -10.385  18.344  66.093  1.00  0.00    -0.406 OA 
HETATM   16  O   UNL     1      -8.586  16.626  65.726  1.00  0.00    -0.464 OA 
BRANCH  14  17
HETATM   17  C   UNL     1     -10.185  16.326  67.745  1.00  0.00    -0.270 A  
HETATM   18  C   UNL     1      -9.098  15.782  68.437  1.00  0.00    -0.188 A  
HETATM   19  C   UNL     1      -9.285  15.293  69.729  1.00  0.00    -0.060 A  
HETATM   20  C   UNL     1     -10.545  15.358  70.327  1.00  0.00    -0.299 A  
HETATM   21  C   UNL     1     -11.619  15.929  69.644  1.00  0.00    -0.339 A  
HETATM   22  C   UNL     1     -11.439  16.431  68.354  1.00  0.00    -0.181 A  
ENDBRANCH  14  17
ENDBRANCH  12  14
ENDBRANCH   9  12
ENDBRANCH   5   6
ENDBRANCH   4   5
ENDBRANCH   3   4
ENDBRANCH   2   3
TORSDOF 7
ENDMDL
MODEL      151
REMARK 921   NORMALIZED FREE ENERGY PREDICTED BY IDOCK:   -3.84 KCAL/MOL
REMARK 922        TOTAL FREE ENERGY PREDICTED BY IDOCK:   -5.94 KCAL/MOL
REMARK 923 INTER-LIGAND FREE ENERGY PREDICTED BY IDOCK:   -6.07 KCAL/MOL
REMARK 924 INTRA-LIGAND FREE ENERGY PREDICTED BY IDOCK:    0.13 KCAL/MOL
REMARK 927      BINDING AFFINITY PREDICTED BY RF-SCORE:    0.00 PKD
ROOT
HETATM    1  C   UNL     1      -9.783  10.932  63.393  1.00  0.00    -0.352 C  
HETATM    2  O   UNL     1     -10.562  10.756  64.566  1.00  0.00    -0.336 OA 
ENDROOT
BRANCH   2   3
HETATM    3  C   UNL     1      -9.871  11.169  65.748  1.00  0.00    -0.235 C  
BRANCH   3   4
HETATM    4  C   UNL     1     -10.911  11.757  66.693  1.00  0.00    -0.276 C  
BRANCH   4   5
HETATM    5  O   UNL     1     -11.749  12.718  66.043  1.00  0.00    -0.372 OA 
BRANCH   5   6
HETATM    6  C   UNL     1     -11.345  14.013  66.206  1.00  0.00    -0.333 A  
HETATM    7  C   UNL     1     -10.598  14.764  65.319  1.00  0.00    -0.395 A  
HETATM    8  N   UNL     1     -10.240  16.045  65.523  1.00  0.00    -0.458 NA 
HETATM    9  C   UNL     1     -10.645  16.577  66.671  1.00  0.00    -0.216 A  
HETATM   10  C   UNL     1     -11.697  14.687  67.360  1.00  0.00    -0.390 A  
HETATM   11  N   UNL     1     -11.353  15.973  67.629  1.00  0.00    -0.184 NA 
BRANCH   9  12
HETATM   12  N   UNL     1     -10.337  17.921  66.870  1.00  0.00    -0.354 N  
HETATM   13  H   UNL     1     -10.436  18.628  66.143  1.00  0.00     0.000 HD 
BRANCH  12  14
HETATM   14  S   UNL     1      -9.788  18.268  68.418  1.00  0.00    -0.385 S  
HETATM   15  O   UNL     1     -10.527  17.528  69.420  1.00  0.00    -0.278 OA 
HETATM   16  O   UNL     1      -9.677  19.708  68.498  1.00  0.00    -0.369 OA 
BRANCH  14  17
HETATM   17  C   UNL     1      -8.114  17.641  68.417  1.00  0.00    -0.285 A  
HETATM   18  C   UNL     1      -7.868  16.340  68.865  1.00  0.00    -0.224 A  
HETATM   19  C   UNL     1      -6.563  15.847  68.855  1.00  0.00    -0.126 A  
HETATM   20  C   UNL     1      -5.517  16.647  68.392  1.00  0.00    -0.121 A  
HETATM   21  C   UNL     1      -5.772  17.935  67.918  1.00  0.00    -0.156 A  
HETATM   22  C   UNL     1      -7.076  18.431  67.914  1.00  0.00    -0.229 A  
ENDBRANCH  14  17
ENDBRANCH  12  14
ENDBRANCH   9  12
ENDBRANCH   5   6
ENDBRANCH   4   5
ENDBRANCH   3   4
ENDBRANCH   2   3
TORSDOF 7
ENDMDL
MODEL      152
REMARK 921   NORMALIZED FREE ENERGY PREDICTED BY IDOCK:   -3.83 KCAL/MOL
REMARK 922        TOTAL FREE ENERGY PREDICTED BY IDOCK:   -5.93 KCAL/MOL
REMARK 923 INTER-LIGAND FREE ENERGY PREDICTED BY IDOCK:   -6.16 KCAL/MOL
REMARK 924 INTRA-LIGAND FREE ENERGY PREDICTED BY IDOCK:    0.22 KCAL/MOL
REMARK 927      BINDING AFFINITY PREDICTED BY RF-SCORE:    0.00 PKD
ROOT
HETATM    1  C   UNL     1     -11.073  12.272  69.074  1.00  0.00    -0.236 C  
HETATM    2  O   UNL     1     -10.222  11.382  68.369  1.00  0.00    -0.185 OA 
ENDROOT
BRANCH   2   3
HETATM    3  C   UNL     1     -10.458  11.401  66.959  1.00  0.00    -0.236 C  
BRANCH   3   4
HETATM    4  C   UNL     1     -10.123  12.803  66.467  1.00  0.00    -0.258 C  
BRANCH   4   5
HETATM    5  O   UNL     1     -11.298  13.585  66.228  1.00  0.00    -0.299 OA 
BRANCH   5   6
HETATM    6  C   UNL     1     -11.100  14.934  66.323  1.00  0.00    -0.340 A  
HETATM    7  C   UNL     1     -11.226  15.711  67.458  1.00  0.00    -0.245 A  
HETATM    8  N   UNL     1     -11.002  17.038  67.497  1.00  0.00    -0.197 NA 
HETATM    9  C   UNL     1     -10.649  17.595  66.345  1.00  0.00    -0.208 A  
HETATM   10  C   UNL     1     -10.730  15.639  65.193  1.00  0.00    -0.443 A  
HETATM   11  N   UNL     1     -10.505  16.978  65.168  1.00  0.00    -0.655 NA 
BRANCH   9  12
HETATM   12  N   UNL     1     -10.353  18.955  66.382  1.00  0.00    -0.418 N  
HETATM   13  H   UNL     1     -10.673  19.614  65.673  1.00  0.00     0.000 HD 
BRANCH  12  14
HETATM   14  S   UNL     1      -9.421  19.411  67.701  1.00  0.00    -0.326 S  
HETATM   15  O   UNL     1     -10.135  19.213  68.947  1.00  0.00    -0.416 OA 
HETATM   16  O   UNL     1      -8.853  20.700  67.375  1.00  0.00    -0.334 OA 
BRANCH  14  17
HETATM   17  C   UNL     1      -8.064  18.249  67.674  1.00  0.00    -0.245 A  
HETATM   18  C   UNL     1      -7.878  17.383  68.756  1.00  0.00    -0.250 A  
HETATM   19  C   UNL     1      -6.824  16.470  68.730  1.00  0.00    -0.175 A  
HETATM   20  C   UNL     1      -5.970  16.418  67.626  1.00  0.00    -0.167 A  
HETATM   21  C   UNL     1      -6.177  17.264  66.536  1.00  0.00    -0.256 A  
HETATM   22  C   UNL     1      -7.237  18.173  66.549  1.00  0.00    -0.268 A  
ENDBRANCH  14  17
ENDBRANCH  12  14
ENDBRANCH   9  12
ENDBRANCH   5   6
ENDBRANCH   4   5
ENDBRANCH   3   4
ENDBRANCH   2   3
TORSDOF 7
ENDMDL
MODEL      153
REMARK 921   NORMALIZED FREE ENERGY PREDICTED BY IDOCK:   -3.82 KCAL/MOL
REMARK 922        TOTAL FREE ENERGY PREDICTED BY IDOCK:   -5.91 KCAL/MOL
REMARK 923 INTER-LIGAND FREE ENERGY PREDICTED BY IDOCK:   -5.52 KCAL/MOL
REMARK 924 INTRA-LIGAND FREE ENERGY PREDICTED BY IDOCK:   -0.39 KCAL/MOL
REMARK 927      BINDING AFFINITY PREDICTED BY RF-SCORE:    0.00 PKD
ROOT
HETATM    1  C   UNL     1      -8.570   3.201  67.018  1.00  0.00    -0.113 C  
HETATM    2  O   UNL     1      -8.301   3.916  68.213  1.00  0.00    -0.089 OA 
ENDROOT
BRANCH   2   3
HETATM    3  C   UNL     1      -9.494   4.339  68.878  1.00  0.00    -0.168 C  
BRANCH   3   4
HETATM    4  C   UNL     1      -9.341   5.826  69.170  1.00  0.00    -0.123 C  
BRANCH   4   5
HETATM    5  O   UNL     1      -9.353   6.615  67.975  1.00  0.00    -0.117 OA 
BRANCH   5   6
HETATM    6  C   UNL     1      -9.463   7.959  68.193  1.00  0.00    -0.147 A  
HETATM    7  C   UNL     1      -9.192   8.969  67.291  1.00  0.00    -0.134 A  
HETATM    8  N   UNL     1      -9.334  10.281  67.555  1.00  0.00    -0.147 NA 
HETATM    9  C   UNL     1      -9.753  10.577  68.781  1.00  0.00    -0.184 A  
HETATM   10  C   UNL     1      -9.888   8.406  69.431  1.00  0.00    -0.185 A  
HETATM   11  N   UNL     1     -10.035   9.715  69.761  1.00  0.00    -0.212 NA 
BRANCH   9  12
HETATM   12  N   UNL     1      -9.964  11.927  69.051  1.00  0.00    -0.416 N  
HETATM   13  H   UNL     1      -9.246  12.534  69.444  1.00  0.00     0.000 HD 
BRANCH  12  14
HETATM   14  S   UNL     1     -11.508  12.462  68.670  1.00  0.00    -0.327 S  
HETATM   15  O   UNL     1     -12.032  13.340  69.696  1.00  0.00    -0.308 OA 
HETATM   16  O   UNL     1     -12.252  11.295  68.248  1.00  0.00    -0.611 OA 
BRANCH  14  17
HETATM   17  C   UNL     1     -11.257  13.448  67.201  1.00  0.00    -0.302 A  
HETATM   18  C   UNL     1     -10.085  14.198  67.069  1.00  0.00    -0.261 A  
HETATM   19  C   UNL     1      -9.885  14.960  65.918  1.00  0.00    -0.362 A  
HETATM   20  C   UNL     1     -10.846  14.963  64.905  1.00  0.00    -0.431 A  
HETATM   21  C   UNL     1     -12.000  14.189  65.028  1.00  0.00    -0.412 A  
HETATM   22  C   UNL     1     -12.203  13.415  66.171  1.00  0.00    -0.471 A  
ENDBRANCH  14  17
ENDBRANCH  12  14
ENDBRANCH   9  12
ENDBRANCH   5   6
ENDBRANCH   4   5
ENDBRANCH   3   4
ENDBRANCH   2   3
TORSDOF 7
ENDMDL
MODEL      154
REMARK 921   NORMALIZED FREE ENERGY PREDICTED BY IDOCK:   -3.80 KCAL/MOL
REMARK 922        TOTAL FREE ENERGY PREDICTED BY IDOCK:   -5.89 KCAL/MOL
REMARK 923 INTER-LIGAND FREE ENERGY PREDICTED BY IDOCK:   -5.45 KCAL/MOL
REMARK 924 INTRA-LIGAND FREE ENERGY PREDICTED BY IDOCK:   -0.44 KCAL/MOL
REMARK 927      BINDING AFFINITY PREDICTED BY RF-SCORE:    0.00 PKD
ROOT
HETATM    1  C   UNL     1     -11.637  11.785  67.631  1.00  0.00    -0.294 C  
HETATM    2  O   UNL     1     -10.646  10.773  67.562  1.00  0.00    -0.205 OA 
ENDROOT
BRANCH   2   3
HETATM    3  C   UNL     1      -9.940  10.783  66.318  1.00  0.00    -0.222 C  
BRANCH   3   4
HETATM    4  C   UNL     1      -8.462  10.958  66.643  1.00  0.00    -0.151 C  
BRANCH   4   5
HETATM    5  O   UNL     1      -8.257  11.760  67.811  1.00  0.00    -0.130 OA 
BRANCH   5   6
HETATM    6  C   UNL     1      -7.859  13.040  67.546  1.00  0.00    -0.178 A  
HETATM    7  C   UNL     1      -8.661  14.091  67.149  1.00  0.00    -0.221 A  
HETATM    8  N   UNL     1      -8.216  15.340  66.917  1.00  0.00    -0.235 NA 
HETATM    9  C   UNL     1      -6.911  15.524  67.084  1.00  0.00    -0.090 A  
HETATM   10  C   UNL     1      -6.522  13.368  67.679  1.00  0.00    -0.162 A  
HETATM   11  N   UNL     1      -6.012  14.604  67.445  1.00  0.00    -0.315 NA 
BRANCH   9  12
HETATM   12  N   UNL     1      -6.445  16.824  66.908  1.00  0.00    -0.196 N  
HETATM   13  H   UNL     1      -5.951  17.130  66.070  1.00  0.00     0.000 HD 
BRANCH  12  14
HETATM   14  S   UNL     1      -6.769  17.842  68.203  1.00  0.00    -0.204 S  
HETATM   15  O   UNL     1      -5.726  18.833  68.371  1.00  0.00    -0.188 OA 
HETATM   16  O   UNL     1      -7.160  16.990  69.305  1.00  0.00    -0.237 OA 
BRANCH  14  17
HETATM   17  C   UNL     1      -8.248  18.705  67.694  1.00  0.00    -0.258 A  
HETATM   18  C   UNL     1      -9.231  19.004  68.643  1.00  0.00    -0.414 A  
HETATM   19  C   UNL     1     -10.381  19.686  68.247  1.00  0.00    -0.539 A  
HETATM   20  C   UNL     1     -10.541  20.074  66.915  1.00  0.00    -0.455 A  
HETATM   21  C   UNL     1      -9.544  19.800  65.978  1.00  0.00    -0.425 A  
HETATM   22  C   UNL     1      -8.385  19.128  66.368  1.00  0.00    -0.326 A  
ENDBRANCH  14  17
ENDBRANCH  12  14
ENDBRANCH   9  12
ENDBRANCH   5   6
ENDBRANCH   4   5
ENDBRANCH   3   4
ENDBRANCH   2   3
TORSDOF 7
ENDMDL
MODEL      155
REMARK 921   NORMALIZED FREE ENERGY PREDICTED BY IDOCK:   -3.78 KCAL/MOL
REMARK 922        TOTAL FREE ENERGY PREDICTED BY IDOCK:   -5.86 KCAL/MOL
REMARK 923 INTER-LIGAND FREE ENERGY PREDICTED BY IDOCK:   -6.01 KCAL/MOL
REMARK 924 INTRA-LIGAND FREE ENERGY PREDICTED BY IDOCK:    0.15 KCAL/MOL
REMARK 927      BINDING AFFINITY PREDICTED BY RF-SCORE:    0.00 PKD
ROOT
HETATM    1  C   UNL     1      -8.800   3.655  71.797  1.00  0.00    -0.099 C  
HETATM    2  O   UNL     1      -9.319   4.425  72.869  1.00  0.00    -0.124 OA 
ENDROOT
BRANCH   2   3
HETATM    3  C   UNL     1     -10.678   4.095  73.171  1.00  0.00    -0.194 C  
BRANCH   3   4
HETATM    4  C   UNL     1     -11.498   5.367  72.998  1.00  0.00    -0.259 C  
BRANCH   4   5
HETATM    5  O   UNL     1     -10.810   6.523  73.487  1.00  0.00    -0.272 OA 
BRANCH   5   6
HETATM    6  C   UNL     1     -10.842   7.593  72.638  1.00  0.00    -0.340 A  
HETATM    7  C   UNL     1     -11.701   8.673  72.700  1.00  0.00    -0.136 A  
HETATM    8  N   UNL     1     -11.678   9.711  71.844  1.00  0.00    -0.282 NA 
HETATM    9  C   UNL     1     -10.759   9.645  70.886  1.00  0.00    -0.332 A  
HETATM   10  C   UNL     1      -9.939   7.649  71.593  1.00  0.00    -0.176 A  
HETATM   11  N   UNL     1      -9.877   8.661  70.689  1.00  0.00    -0.175 NA 
BRANCH   9  12
HETATM   12  N   UNL     1     -10.681  10.740  70.030  1.00  0.00    -0.465 N  
HETATM   13  H   UNL     1      -9.797  11.147  69.727  1.00  0.00     0.000 HD 
BRANCH  12  14
HETATM   14  S   UNL     1     -12.175  11.328  69.542  1.00  0.00    -0.192 S  
HETATM   15  O   UNL     1     -13.248  10.437  69.934  1.00  0.00     0.001 OA 
HETATM   16  O   UNL     1     -12.023  11.736  68.163  1.00  0.00    -0.521 OA 
BRANCH  14  17
HETATM   17  C   UNL     1     -12.359  12.833  70.488  1.00  0.00    -0.275 A  
HETATM   18  C   UNL     1     -11.696  13.992  70.072  1.00  0.00    -0.349 A  
HETATM   19  C   UNL     1     -11.847  15.169  70.805  1.00  0.00    -0.371 A  
HETATM   20  C   UNL     1     -12.663  15.187  71.938  1.00  0.00    -0.414 A  
HETATM   21  C   UNL     1     -13.346  14.037  72.332  1.00  0.00    -0.617 A  
HETATM   22  C   UNL     1     -13.209  12.858  71.598  1.00  0.00    -0.416 A  
ENDBRANCH  14  17
ENDBRANCH  12  14
ENDBRANCH   9  12
ENDBRANCH   5   6
ENDBRANCH   4   5
ENDBRANCH   3   4
ENDBRANCH   2   3
TORSDOF 7
ENDMDL
MODEL      156
REMARK 921   NORMALIZED FREE ENERGY PREDICTED BY IDOCK:   -3.78 KCAL/MOL
REMARK 922        TOTAL FREE ENERGY PREDICTED BY IDOCK:   -5.86 KCAL/MOL
REMARK 923 INTER-LIGAND FREE ENERGY PREDICTED BY IDOCK:   -5.38 KCAL/MOL
REMARK 924 INTRA-LIGAND FREE ENERGY PREDICTED BY IDOCK:   -0.48 KCAL/MOL
REMARK 927      BINDING AFFINITY PREDICTED BY RF-SCORE:    0.00 PKD
ROOT
HETATM    1  C   UNL     1     -12.028  14.127  69.722  1.00  0.00    -0.339 C  
HETATM    2  O   UNL     1     -11.604  15.301  69.048  1.00  0.00    -0.304 OA 
ENDROOT
BRANCH   2   3
HETATM    3  C   UNL     1     -11.230  15.047  67.691  1.00  0.00    -0.326 C  
BRANCH   3   4
HETATM    4  C   UNL     1     -11.892  13.738  67.281  1.00  0.00    -0.401 C  
BRANCH   4   5
HETATM    5  O   UNL     1     -11.059  12.962  66.412  1.00  0.00    -0.274 OA 
BRANCH   5   6
HETATM    6  C   UNL     1     -10.937  11.652  66.779  1.00  0.00    -0.290 A  
HETATM    7  C   UNL     1     -10.327  10.644  66.058  1.00  0.00    -0.225 A  
HETATM    8  N   UNL     1     -10.221   9.370  66.477  1.00  0.00    -0.256 NA 
HETATM    9  C   UNL     1     -10.760   9.108  67.662  1.00  0.00    -0.189 A  
HETATM   10  C   UNL     1     -11.458  11.243  67.992  1.00  0.00    -0.298 A  
HETATM   11  N   UNL     1     -11.395   9.970  68.461  1.00  0.00    -0.123 NA 
BRANCH   9  12
HETATM   12  N   UNL     1     -10.604   7.808  68.137  1.00  0.00    -0.368 N  
HETATM   13  H   UNL     1     -11.260   7.057  67.928  1.00  0.00     0.000 HD 
BRANCH  12  14
HETATM   14  S   UNL     1      -9.237   7.593  69.086  1.00  0.00    -0.139 S  
HETATM   15  O   UNL     1      -8.468   8.817  69.192  1.00  0.00    -0.119 OA 
HETATM   16  O   UNL     1      -8.613   6.369  68.633  1.00  0.00    -0.122 OA 
BRANCH  14  17
HETATM   17  C   UNL     1      -9.904   7.241  70.706  1.00  0.00    -0.178 A  
HETATM   18  C   UNL     1      -9.784   5.951  71.233  1.00  0.00    -0.206 A  
HETATM   19  C   UNL     1     -10.297   5.679  72.501  1.00  0.00    -0.240 A  
HETATM   20  C   UNL     1     -10.916   6.691  73.238  1.00  0.00    -0.237 A  
HETATM   21  C   UNL     1     -11.007   7.983  72.719  1.00  0.00    -0.449 A  
HETATM   22  C   UNL     1     -10.486   8.267  71.456  1.00  0.00    -0.289 A  
ENDBRANCH  14  17
ENDBRANCH  12  14
ENDBRANCH   9  12
ENDBRANCH   5   6
ENDBRANCH   4   5
ENDBRANCH   3   4
ENDBRANCH   2   3
TORSDOF 7
ENDMDL
MODEL      157
REMARK 921   NORMALIZED FREE ENERGY PREDICTED BY IDOCK:   -3.78 KCAL/MOL
REMARK 922        TOTAL FREE ENERGY PREDICTED BY IDOCK:   -5.85 KCAL/MOL
REMARK 923 INTER-LIGAND FREE ENERGY PREDICTED BY IDOCK:   -6.15 KCAL/MOL
REMARK 924 INTRA-LIGAND FREE ENERGY PREDICTED BY IDOCK:    0.30 KCAL/MOL
REMARK 927      BINDING AFFINITY PREDICTED BY RF-SCORE:    0.00 PKD
ROOT
HETATM    1  C   UNL     1     -12.923  10.403  71.073  1.00  0.00    -0.399 C  
HETATM    2  O   UNL     1     -11.913  10.394  70.077  1.00  0.00    -0.268 OA 
ENDROOT
BRANCH   2   3
HETATM    3  C   UNL     1     -12.117  11.402  69.083  1.00  0.00    -0.264 C  
BRANCH   3   4
HETATM    4  C   UNL     1     -11.240  11.041  67.892  1.00  0.00    -0.310 C  
BRANCH   4   5
HETATM    5  O   UNL     1     -11.651  11.712  66.696  1.00  0.00    -0.493 OA 
BRANCH   5   6
HETATM    6  C   UNL     1     -11.143  12.973  66.559  1.00  0.00    -0.288 A  
HETATM    7  C   UNL     1     -11.820  14.096  66.123  1.00  0.00    -0.407 A  
HETATM    8  N   UNL     1     -11.272  15.321  66.023  1.00  0.00    -0.284 NA 
HETATM    9  C   UNL     1      -9.991  15.406  66.366  1.00  0.00    -0.278 A  
HETATM   10  C   UNL     1      -9.818  13.201  66.880  1.00  0.00    -0.249 A  
HETATM   11  N   UNL     1      -9.206  14.410  66.785  1.00  0.00    -0.259 NA 
BRANCH   9  12
HETATM   12  N   UNL     1      -9.426  16.678  66.327  1.00  0.00    -0.281 N  
HETATM   13  H   UNL     1      -9.854  17.462  65.836  1.00  0.00     0.000 HD 
BRANCH  12  14
HETATM   14  S   UNL     1      -7.975  16.802  67.162  1.00  0.00    -0.198 S  
HETATM   15  O   UNL     1      -7.023  15.803  66.719  1.00  0.00    -0.218 OA 
HETATM   16  O   UNL     1      -8.319  16.921  68.563  1.00  0.00    -0.236 OA 
BRANCH  14  17
HETATM   17  C   UNL     1      -7.344  18.398  66.668  1.00  0.00    -0.225 A  
HETATM   18  C   UNL     1      -6.566  18.501  65.511  1.00  0.00    -0.299 A  
HETATM   19  C   UNL     1      -6.081  19.749  65.119  1.00  0.00    -0.274 A  
HETATM   20  C   UNL     1      -6.381  20.884  65.874  1.00  0.00    -0.266 A  
HETATM   21  C   UNL     1      -7.183  20.781  67.012  1.00  0.00    -0.369 A  
HETATM   22  C   UNL     1      -7.682  19.538  67.404  1.00  0.00    -0.284 A  
ENDBRANCH  14  17
ENDBRANCH  12  14
ENDBRANCH   9  12
ENDBRANCH   5   6
ENDBRANCH   4   5
ENDBRANCH   3   4
ENDBRANCH   2   3
TORSDOF 7
ENDMDL
MODEL      158
REMARK 921   NORMALIZED FREE ENERGY PREDICTED BY IDOCK:   -3.76 KCAL/MOL
REMARK 922        TOTAL FREE ENERGY PREDICTED BY IDOCK:   -5.83 KCAL/MOL
REMARK 923 INTER-LIGAND FREE ENERGY PREDICTED BY IDOCK:   -5.40 KCAL/MOL
REMARK 924 INTRA-LIGAND FREE ENERGY PREDICTED BY IDOCK:   -0.43 KCAL/MOL
REMARK 927      BINDING AFFINITY PREDICTED BY RF-SCORE:    0.00 PKD
ROOT
HETATM    1  C   UNL     1     -10.192  19.666  65.965  1.00  0.00    -0.493 C  
HETATM    2  O   UNL     1      -9.525  18.435  66.197  1.00  0.00    -0.457 OA 
ENDROOT
BRANCH   2   3
HETATM    3  C   UNL     1     -10.309  17.526  66.974  1.00  0.00    -0.324 C  
BRANCH   3   4
HETATM    4  C   UNL     1     -10.731  16.393  66.048  1.00  0.00    -0.191 C  
BRANCH   4   5
HETATM    5  O   UNL     1      -9.616  15.605  65.617  1.00  0.00    -0.333 OA 
BRANCH   5   6
HETATM    6  C   UNL     1      -9.674  14.296  66.003  1.00  0.00    -0.287 A  
HETATM    7  C   UNL     1      -9.111  13.743  67.137  1.00  0.00    -0.239 A  
HETATM    8  N   UNL     1      -9.213  12.445  67.479  1.00  0.00    -0.177 NA 
HETATM    9  C   UNL     1      -9.899  11.682  66.635  1.00  0.00    -0.200 A  
HETATM   10  C   UNL     1     -10.357  13.391  65.212  1.00  0.00    -0.319 A  
HETATM   11  N   UNL     1     -10.481  12.069  65.496  1.00  0.00    -0.259 NA 
BRANCH   9  12
HETATM   12  N   UNL     1     -10.067  10.350  67.005  1.00  0.00    -0.206 N  
HETATM   13  H   UNL     1     -10.959   9.968  67.318  1.00  0.00     0.000 HD 
BRANCH  12  14
HETATM   14  S   UNL     1      -8.667   9.432  66.890  1.00  0.00    -0.128 S  
HETATM   15  O   UNL     1      -7.900   9.481  68.118  1.00  0.00    -0.083 OA 
HETATM   16  O   UNL     1      -8.055   9.778  65.625  1.00  0.00    -0.114 OA 
BRANCH  14  17
HETATM   17  C   UNL     1      -9.277   7.763  66.707  1.00  0.00    -0.163 A  
HETATM   18  C   UNL     1     -10.548   7.439  67.190  1.00  0.00    -0.413 A  
HETATM   19  C   UNL     1     -11.028   6.138  67.039  1.00  0.00    -0.414 A  
HETATM   20  C   UNL     1     -10.245   5.174  66.402  1.00  0.00    -0.303 A  
HETATM   21  C   UNL     1      -8.989   5.509  65.895  1.00  0.00    -0.158 A  
HETATM   22  C   UNL     1      -8.507   6.811  66.032  1.00  0.00    -0.143 A  
ENDBRANCH  14  17
ENDBRANCH  12  14
ENDBRANCH   9  12
ENDBRANCH   5   6
ENDBRANCH   4   5
ENDBRANCH   3   4
ENDBRANCH   2   3
TORSDOF 7
ENDMDL
MODEL      159
REMARK 921   NORMALIZED FREE ENERGY PREDICTED BY IDOCK:   -3.76 KCAL/MOL
REMARK 922        TOTAL FREE ENERGY PREDICTED BY IDOCK:   -5.83 KCAL/MOL
REMARK 923 INTER-LIGAND FREE ENERGY PREDICTED BY IDOCK:   -5.37 KCAL/MOL
REMARK 924 INTRA-LIGAND FREE ENERGY PREDICTED BY IDOCK:   -0.46 KCAL/MOL
REMARK 927      BINDING AFFINITY PREDICTED BY RF-SCORE:    0.00 PKD
ROOT
HETATM    1  C   UNL     1      -6.932   8.169  64.344  1.00  0.00    -0.076 C  
HETATM    2  O   UNL     1      -7.044   6.783  64.622  1.00  0.00    -0.055 OA 
ENDROOT
BRANCH   2   3
HETATM    3  C   UNL     1      -6.682   6.463  65.968  1.00  0.00    -0.049 C  
BRANCH   3   4
HETATM    4  C   UNL     1      -6.811   7.744  66.783  1.00  0.00    -0.071 C  
BRANCH   4   5
HETATM    5  O   UNL     1      -7.861   7.662  67.753  1.00  0.00    -0.115 OA 
BRANCH   5   6
HETATM    6  C   UNL     1      -8.426   8.866  68.067  1.00  0.00    -0.126 A  
HETATM    7  C   UNL     1      -9.140   9.173  69.209  1.00  0.00    -0.146 A  
HETATM    8  N   UNL     1      -9.661  10.384  69.475  1.00  0.00    -0.204 NA 
HETATM    9  C   UNL     1      -9.462  11.312  68.546  1.00  0.00    -0.191 A  
HETATM   10  C   UNL     1      -8.295   9.921  67.182  1.00  0.00    -0.121 A  
HETATM   11  N   UNL     1      -8.811  11.160  67.388  1.00  0.00    -0.138 NA 
BRANCH   9  12
HETATM   12  N   UNL     1      -9.941  12.587  68.834  1.00  0.00    -0.425 N  
HETATM   13  H   UNL     1      -9.369  13.313  69.263  1.00  0.00     0.000 HD 
BRANCH  12  14
HETATM   14  S   UNL     1     -11.549  12.819  68.410  1.00  0.00    -0.345 S  
HETATM   15  O   UNL     1     -12.251  13.602  69.406  1.00  0.00    -0.324 OA 
HETATM   16  O   UNL     1     -12.053  11.527  67.998  1.00  0.00    -0.617 OA 
BRANCH  14  17
HETATM   17  C   UNL     1     -11.450  13.809  66.926  1.00  0.00    -0.347 A  
HETATM   18  C   UNL     1     -10.436  14.764  66.803  1.00  0.00    -0.282 A  
HETATM   19  C   UNL     1     -10.353  15.530  65.641  1.00  0.00    -0.407 A  
HETATM   20  C   UNL     1     -11.270  15.335  64.607  1.00  0.00    -0.366 A  
HETATM   21  C   UNL     1     -12.262  14.360  64.721  1.00  0.00    -0.458 A  
HETATM   22  C   UNL     1     -12.345  13.581  65.876  1.00  0.00    -0.507 A  
ENDBRANCH  14  17
ENDBRANCH  12  14
ENDBRANCH   9  12
ENDBRANCH   5   6
ENDBRANCH   4   5
ENDBRANCH   3   4
ENDBRANCH   2   3
TORSDOF 7
ENDMDL
MODEL      160
REMARK 921   NORMALIZED FREE ENERGY PREDICTED BY IDOCK:   -3.75 KCAL/MOL
REMARK 922        TOTAL FREE ENERGY PREDICTED BY IDOCK:   -5.82 KCAL/MOL
REMARK 923 INTER-LIGAND FREE ENERGY PREDICTED BY IDOCK:   -5.74 KCAL/MOL
REMARK 924 INTRA-LIGAND FREE ENERGY PREDICTED BY IDOCK:   -0.08 KCAL/MOL
REMARK 927      BINDING AFFINITY PREDICTED BY RF-SCORE:    0.00 PKD
ROOT
HETATM    1  C   UNL     1     -10.268   5.529  68.106  1.00  0.00    -0.177 C  
HETATM    2  O   UNL     1     -11.219   6.492  68.531  1.00  0.00    -0.285 OA 
ENDROOT
BRANCH   2   3
HETATM    3  C   UNL     1     -11.232   6.659  69.951  1.00  0.00    -0.364 C  
BRANCH   3   4
HETATM    4  C   UNL     1     -11.155   8.155  70.228  1.00  0.00    -0.221 C  
BRANCH   4   5
HETATM    5  O   UNL     1     -10.178   8.806  69.410  1.00  0.00    -0.199 OA 
BRANCH   5   6
HETATM    6  C   UNL     1     -10.642   9.915  68.761  1.00  0.00    -0.222 A  
HETATM    7  C   UNL     1     -11.089   9.985  67.456  1.00  0.00    -0.120 A  
HETATM    8  N   UNL     1     -11.553  11.105  66.871  1.00  0.00    -0.382 NA 
HETATM    9  C   UNL     1     -11.551  12.193  67.633  1.00  0.00    -0.343 A  
HETATM   10  C   UNL     1     -10.691  11.119  69.440  1.00  0.00    -0.175 A  
HETATM   11  N   UNL     1     -11.133  12.283  68.899  1.00  0.00    -0.234 NA 
BRANCH   9  12
HETATM   12  N   UNL     1     -12.084  13.346  67.064  1.00  0.00    -0.369 N  
HETATM   13  H   UNL     1     -13.019  13.691  67.278  1.00  0.00     0.000 HD 
BRANCH  12  14
HETATM   14  S   UNL     1     -11.048  14.115  65.991  1.00  0.00    -0.320 S  
HETATM   15  O   UNL     1     -11.769  14.668  64.863  1.00  0.00    -0.372 OA 
HETATM   16  O   UNL     1      -9.934  13.216  65.783  1.00  0.00    -0.281 OA 
BRANCH  14  17
HETATM   17  C   UNL     1     -10.408  15.487  66.941  1.00  0.00    -0.290 A  
HETATM   18  C   UNL     1     -10.501  15.459  68.336  1.00  0.00    -0.239 A  
HETATM   19  C   UNL     1      -9.993  16.526  69.077  1.00  0.00    -0.275 A  
HETATM   20  C   UNL     1      -9.390  17.605  68.428  1.00  0.00    -0.289 A  
HETATM   21  C   UNL     1      -9.273  17.614  67.038  1.00  0.00    -0.254 A  
HETATM   22  C   UNL     1      -9.768  16.545  66.289  1.00  0.00    -0.328 A  
ENDBRANCH  14  17
ENDBRANCH  12  14
ENDBRANCH   9  12
ENDBRANCH   5   6
ENDBRANCH   4   5
ENDBRANCH   3   4
ENDBRANCH   2   3
TORSDOF 7
ENDMDL
MODEL      161
REMARK 921   NORMALIZED FREE ENERGY PREDICTED BY IDOCK:   -3.75 KCAL/MOL
REMARK 922        TOTAL FREE ENERGY PREDICTED BY IDOCK:   -5.82 KCAL/MOL
REMARK 923 INTER-LIGAND FREE ENERGY PREDICTED BY IDOCK:   -5.39 KCAL/MOL
REMARK 924 INTRA-LIGAND FREE ENERGY PREDICTED BY IDOCK:   -0.42 KCAL/MOL
REMARK 927      BINDING AFFINITY PREDICTED BY RF-SCORE:    0.00 PKD
ROOT
HETATM    1  C   UNL     1     -11.433   7.271  69.540  1.00  0.00     0.129 C  
HETATM    2  O   UNL     1     -11.803   8.472  70.198  1.00  0.00     0.069 OA 
ENDROOT
BRANCH   2   3
HETATM    3  C   UNL     1     -10.849   9.519  70.001  1.00  0.00    -0.252 C  
BRANCH   3   4
HETATM    4  C   UNL     1     -11.605  10.716  69.438  1.00  0.00    -0.280 C  
BRANCH   4   5
HETATM    5  O   UNL     1     -11.782  10.623  68.020  1.00  0.00    -0.495 OA 
BRANCH   5   6
HETATM    6  C   UNL     1     -11.251  11.670  67.321  1.00  0.00    -0.304 A  
HETATM    7  C   UNL     1     -11.861  12.384  66.308  1.00  0.00    -0.364 A  
HETATM    8  N   UNL     1     -11.295  13.420  65.663  1.00  0.00    -0.296 NA 
HETATM    9  C   UNL     1     -10.064  13.734  66.051  1.00  0.00    -0.311 A  
HETATM   10  C   UNL     1      -9.972  12.098  67.623  1.00  0.00    -0.197 A  
HETATM   11  N   UNL     1      -9.343  13.127  66.997  1.00  0.00    -0.230 NA 
BRANCH   9  12
HETATM   12  N   UNL     1      -9.488  14.843  65.436  1.00  0.00    -0.412 N  
HETATM   13  H   UNL     1      -9.038  14.801  64.522  1.00  0.00     0.000 HD 
BRANCH  12  14
HETATM   14  S   UNL     1      -9.602  16.254  66.337  1.00  0.00    -0.314 S  
HETATM   15  O   UNL     1     -10.176  16.002  67.644  1.00  0.00    -0.251 OA 
HETATM   16  O   UNL     1     -10.173  17.253  65.461  1.00  0.00    -0.602 OA 
BRANCH  14  17
HETATM   17  C   UNL     1      -7.897  16.728  66.586  1.00  0.00    -0.272 A  
HETATM   18  C   UNL     1      -7.104  15.998  67.477  1.00  0.00    -0.199 A  
HETATM   19  C   UNL     1      -5.771  16.362  67.664  1.00  0.00    -0.163 A  
HETATM   20  C   UNL     1      -5.235  17.441  66.958  1.00  0.00    -0.173 A  
HETATM   21  C   UNL     1      -6.022  18.148  66.048  1.00  0.00    -0.243 A  
HETATM   22  C   UNL     1      -7.353  17.782  65.847  1.00  0.00    -0.234 A  
ENDBRANCH  14  17
ENDBRANCH  12  14
ENDBRANCH   9  12
ENDBRANCH   5   6
ENDBRANCH   4   5
ENDBRANCH   3   4
ENDBRANCH   2   3
TORSDOF 7
ENDMDL
MODEL      162
REMARK 921   NORMALIZED FREE ENERGY PREDICTED BY IDOCK:   -3.73 KCAL/MOL
REMARK 922        TOTAL FREE ENERGY PREDICTED BY IDOCK:   -5.80 KCAL/MOL
REMARK 923 INTER-LIGAND FREE ENERGY PREDICTED BY IDOCK:   -5.19 KCAL/MOL
REMARK 924 INTRA-LIGAND FREE ENERGY PREDICTED BY IDOCK:   -0.61 KCAL/MOL
REMARK 927      BINDING AFFINITY PREDICTED BY RF-SCORE:    0.00 PKD
ROOT
HETATM    1  C   UNL     1     -11.009   7.916  72.958  1.00  0.00    -0.333 C  
HETATM    2  O   UNL     1     -12.317   7.852  72.414  1.00  0.00    -0.287 OA 
ENDROOT
BRANCH   2   3
HETATM    3  C   UNL     1     -12.476   6.763  71.500  1.00  0.00    -0.341 C  
BRANCH   3   4
HETATM    4  C   UNL     1     -11.106   6.476  70.900  1.00  0.00    -0.292 C  
BRANCH   4   5
HETATM    5  O   UNL     1     -11.176   6.217  69.494  1.00  0.00    -0.389 OA 
BRANCH   5   6
HETATM    6  C   UNL     1     -10.707   7.236  68.714  1.00  0.00    -0.139 A  
HETATM    7  C   UNL     1     -10.111   8.404  69.148  1.00  0.00    -0.203 A  
HETATM    8  N   UNL     1      -9.652   9.369  68.332  1.00  0.00    -0.145 NA 
HETATM    9  C   UNL     1      -9.813   9.147  67.032  1.00  0.00    -0.207 A  
HETATM   10  C   UNL     1     -10.815   7.133  67.339  1.00  0.00    -0.276 A  
HETATM   11  N   UNL     1     -10.384   8.080  66.466  1.00  0.00    -0.199 NA 
BRANCH   9  12
HETATM   12  N   UNL     1      -9.287  10.108  66.172  1.00  0.00    -0.165 N  
HETATM   13  H   UNL     1      -8.322  10.093  65.844  1.00  0.00     0.000 HD 
BRANCH  12  14
HETATM   14  S   UNL     1     -10.387  11.293  65.724  1.00  0.00    -0.262 S  
HETATM   15  O   UNL     1     -11.647  11.136  66.422  1.00  0.00    -0.227 OA 
HETATM   16  O   UNL     1     -10.349  11.362  64.280  1.00  0.00    -0.275 OA 
BRANCH  14  17
HETATM   17  C   UNL     1      -9.636  12.803  66.314  1.00  0.00    -0.242 A  
HETATM   18  C   UNL     1     -10.216  14.033  65.986  1.00  0.00    -0.313 A  
HETATM   19  C   UNL     1      -9.635  15.211  66.454  1.00  0.00    -0.309 A  
HETATM   20  C   UNL     1      -8.489  15.158  67.251  1.00  0.00    -0.220 A  
HETATM   21  C   UNL     1      -7.931  13.927  67.599  1.00  0.00    -0.181 A  
HETATM   22  C   UNL     1      -8.513  12.743  67.145  1.00  0.00    -0.181 A  
ENDBRANCH  14  17
ENDBRANCH  12  14
ENDBRANCH   9  12
ENDBRANCH   5   6
ENDBRANCH   4   5
ENDBRANCH   3   4
ENDBRANCH   2   3
TORSDOF 7
ENDMDL
MODEL      163
REMARK 921   NORMALIZED FREE ENERGY PREDICTED BY IDOCK:   -3.73 KCAL/MOL
REMARK 922        TOTAL FREE ENERGY PREDICTED BY IDOCK:   -5.79 KCAL/MOL
REMARK 923 INTER-LIGAND FREE ENERGY PREDICTED BY IDOCK:   -5.72 KCAL/MOL
REMARK 924 INTRA-LIGAND FREE ENERGY PREDICTED BY IDOCK:   -0.06 KCAL/MOL
REMARK 927      BINDING AFFINITY PREDICTED BY RF-SCORE:    0.00 PKD
ROOT
HETATM    1  C   UNL     1     -10.888   9.790  69.746  1.00  0.00    -0.257 C  
HETATM    2  O   UNL     1     -11.278  10.583  68.637  1.00  0.00    -0.252 OA 
ENDROOT
BRANCH   2   3
HETATM    3  C   UNL     1     -11.724  11.885  69.026  1.00  0.00    -0.331 C  
BRANCH   3   4
HETATM    4  C   UNL     1     -11.892  12.702  67.751  1.00  0.00    -0.323 C  
BRANCH   4   5
HETATM    5  O   UNL     1     -11.941  14.108  68.013  1.00  0.00    -0.355 OA 
BRANCH   5   6
HETATM    6  C   UNL     1     -10.716  14.711  68.060  1.00  0.00    -0.246 A  
HETATM    7  C   UNL     1     -10.060  15.167  69.187  1.00  0.00    -0.245 A  
HETATM    8  N   UNL     1      -8.843  15.741  69.176  1.00  0.00    -0.236 NA 
HETATM    9  C   UNL     1      -8.278  15.866  67.980  1.00  0.00    -0.148 A  
HETATM   10  C   UNL     1     -10.018  14.907  66.882  1.00  0.00    -0.242 A  
HETATM   11  N   UNL     1      -8.796  15.492  66.806  1.00  0.00    -0.242 NA 
BRANCH   9  12
HETATM   12  N   UNL     1      -6.992  16.401  67.958  1.00  0.00    -0.135 N  
HETATM   13  H   UNL     1      -6.215  16.002  68.483  1.00  0.00     0.000 HD 
BRANCH  12  14
HETATM   14  S   UNL     1      -6.841  17.762  66.988  1.00  0.00    -0.185 S  
HETATM   15  O   UNL     1      -6.945  17.425  65.583  1.00  0.00    -0.239 OA 
HETATM   16  O   UNL     1      -5.696  18.494  67.487  1.00  0.00    -0.149 OA 
BRANCH  14  17
HETATM   17  C   UNL     1      -8.277  18.738  67.411  1.00  0.00    -0.263 A  
HETATM   18  C   UNL     1      -9.226  19.026  66.426  1.00  0.00    -0.350 A  
HETATM   19  C   UNL     1     -10.352  19.779  66.759  1.00  0.00    -0.604 A  
HETATM   20  C   UNL     1     -10.529  20.231  68.068  1.00  0.00    -0.308 A  
HETATM   21  C   UNL     1      -9.594  19.917  69.054  1.00  0.00    -0.231 A  
HETATM   22  C   UNL     1      -8.471  19.153  68.732  1.00  0.00    -0.376 A  
ENDBRANCH  14  17
ENDBRANCH  12  14
ENDBRANCH   9  12
ENDBRANCH   5   6
ENDBRANCH   4   5
ENDBRANCH   3   4
ENDBRANCH   2   3
TORSDOF 7
ENDMDL
MODEL      164
REMARK 921   NORMALIZED FREE ENERGY PREDICTED BY IDOCK:   -3.72 KCAL/MOL
REMARK 922        TOTAL FREE ENERGY PREDICTED BY IDOCK:   -5.78 KCAL/MOL
REMARK 923 INTER-LIGAND FREE ENERGY PREDICTED BY IDOCK:   -5.40 KCAL/MOL
REMARK 924 INTRA-LIGAND FREE ENERGY PREDICTED BY IDOCK:   -0.38 KCAL/MOL
REMARK 927      BINDING AFFINITY PREDICTED BY RF-SCORE:    0.00 PKD
ROOT
HETATM    1  C   UNL     1     -10.175   4.968  71.149  1.00  0.00    -0.211 C  
HETATM    2  O   UNL     1      -9.931   6.337  71.428  1.00  0.00    -0.183 OA 
ENDROOT
BRANCH   2   3
HETATM    3  C   UNL     1      -8.598   6.571  71.890  1.00  0.00    -0.129 C  
BRANCH   3   4
HETATM    4  C   UNL     1      -7.851   7.277  70.766  1.00  0.00    -0.094 C  
BRANCH   4   5
HETATM    5  O   UNL     1      -8.504   7.120  69.502  1.00  0.00    -0.131 OA 
BRANCH   5   6
HETATM    6  C   UNL     1      -8.878   8.296  68.916  1.00  0.00    -0.140 A  
HETATM    7  C   UNL     1      -9.417   8.457  67.655  1.00  0.00    -0.149 A  
HETATM    8  N   UNL     1      -9.785   9.642  67.132  1.00  0.00    -0.166 NA 
HETATM    9  C   UNL     1      -9.587  10.699  67.912  1.00  0.00    -0.162 A  
HETATM   10  C   UNL     1      -8.724   9.476  69.620  1.00  0.00    -0.182 A  
HETATM   11  N   UNL     1      -9.061  10.701  69.141  1.00  0.00    -0.169 NA 
BRANCH   9  12
HETATM   12  N   UNL     1     -10.019  11.924  67.412  1.00  0.00    -0.189 N  
HETATM   13  H   UNL     1      -9.421  12.545  66.868  1.00  0.00     0.000 HD 
BRANCH  12  14
HETATM   14  S   UNL     1     -11.615  12.286  67.786  1.00  0.00    -0.346 S  
HETATM   15  O   UNL     1     -12.284  11.156  68.399  1.00  0.00    -0.610 OA 
HETATM   16  O   UNL     1     -12.174  12.926  66.615  1.00  0.00    -0.434 OA 
BRANCH  14  17
HETATM   17  C   UNL     1     -11.473  13.561  69.029  1.00  0.00    -0.303 A  
HETATM   18  C   UNL     1     -12.217  13.457  70.209  1.00  0.00    -0.405 A  
HETATM   19  C   UNL     1     -12.099  14.447  71.183  1.00  0.00    -0.410 A  
HETATM   20  C   UNL     1     -11.236  15.527  70.983  1.00  0.00    -0.419 A  
HETATM   21  C   UNL     1     -10.474  15.611  69.817  1.00  0.00    -0.312 A  
HETATM   22  C   UNL     1     -10.577  14.618  68.842  1.00  0.00    -0.253 A  
ENDBRANCH  14  17
ENDBRANCH  12  14
ENDBRANCH   9  12
ENDBRANCH   5   6
ENDBRANCH   4   5
ENDBRANCH   3   4
ENDBRANCH   2   3
TORSDOF 7
ENDMDL
MODEL      165
REMARK 921   NORMALIZED FREE ENERGY PREDICTED BY IDOCK:   -3.72 KCAL/MOL
REMARK 922        TOTAL FREE ENERGY PREDICTED BY IDOCK:   -5.78 KCAL/MOL
REMARK 923 INTER-LIGAND FREE ENERGY PREDICTED BY IDOCK:   -5.46 KCAL/MOL
REMARK 924 INTRA-LIGAND FREE ENERGY PREDICTED BY IDOCK:   -0.32 KCAL/MOL
REMARK 927      BINDING AFFINITY PREDICTED BY RF-SCORE:    0.00 PKD
ROOT
HETATM    1  C   UNL     1     -10.900   8.951  70.667  1.00  0.00    -0.239 C  
HETATM    2  O   UNL     1     -11.866   9.897  70.236  1.00  0.00    -0.249 OA 
ENDROOT
BRANCH   2   3
HETATM    3  C   UNL     1     -12.401  10.664  71.318  1.00  0.00    -0.383 C  
BRANCH   3   4
HETATM    4  C   UNL     1     -12.473  12.112  70.848  1.00  0.00    -0.279 C  
BRANCH   4   5
HETATM    5  O   UNL     1     -12.022  12.264  69.498  1.00  0.00    -0.302 OA 
BRANCH   5   6
HETATM    6  C   UNL     1     -11.112  13.267  69.323  1.00  0.00    -0.153 A  
HETATM    7  C   UNL     1     -11.190  14.553  69.822  1.00  0.00    -0.234 A  
HETATM    8  N   UNL     1     -10.253  15.499  69.631  1.00  0.00    -0.271 NA 
HETATM    9  C   UNL     1      -9.206  15.132  68.900  1.00  0.00    -0.209 A  
HETATM   10  C   UNL     1      -9.974  13.019  68.577  1.00  0.00    -0.172 A  
HETATM   11  N   UNL     1      -9.002  13.937  68.338  1.00  0.00    -0.189 NA 
BRANCH   9  12
HETATM   12  N   UNL     1      -8.198  16.080  68.745  1.00  0.00    -0.196 N  
HETATM   13  H   UNL     1      -7.781  16.581  69.528  1.00  0.00     0.000 HD 
BRANCH  12  14
HETATM   14  S   UNL     1      -7.733  16.321  67.150  1.00  0.00    -0.211 S  
HETATM   15  O   UNL     1      -8.827  16.065  66.236  1.00  0.00    -0.295 OA 
HETATM   16  O   UNL     1      -6.464  15.646  66.988  1.00  0.00    -0.295 OA 
BRANCH  14  17
HETATM   17  C   UNL     1      -7.378  18.071  67.081  1.00  0.00    -0.195 A  
HETATM   18  C   UNL     1      -7.107  18.668  65.846  1.00  0.00    -0.290 A  
HETATM   19  C   UNL     1      -6.839  20.036  65.790  1.00  0.00    -0.304 A  
HETATM   20  C   UNL     1      -6.853  20.800  66.959  1.00  0.00    -0.385 A  
HETATM   21  C   UNL     1      -7.153  20.205  68.185  1.00  0.00    -0.310 A  
HETATM   22  C   UNL     1      -7.433  18.839  68.248  1.00  0.00    -0.300 A  
ENDBRANCH  14  17
ENDBRANCH  12  14
ENDBRANCH   9  12
ENDBRANCH   5   6
ENDBRANCH   4   5
ENDBRANCH   3   4
ENDBRANCH   2   3
TORSDOF 7
ENDMDL
MODEL      166
REMARK 921   NORMALIZED FREE ENERGY PREDICTED BY IDOCK:   -3.72 KCAL/MOL
REMARK 922        TOTAL FREE ENERGY PREDICTED BY IDOCK:   -5.77 KCAL/MOL
REMARK 923 INTER-LIGAND FREE ENERGY PREDICTED BY IDOCK:   -5.38 KCAL/MOL
REMARK 924 INTRA-LIGAND FREE ENERGY PREDICTED BY IDOCK:   -0.39 KCAL/MOL
REMARK 927      BINDING AFFINITY PREDICTED BY RF-SCORE:    0.00 PKD
ROOT
HETATM    1  C   UNL     1      -7.919   3.276  64.213  1.00  0.00    -0.082 C  
HETATM    2  O   UNL     1      -7.422   4.575  64.491  1.00  0.00    -0.069 OA 
ENDROOT
BRANCH   2   3
HETATM    3  C   UNL     1      -8.443   5.464  64.951  1.00  0.00    -0.148 C  
BRANCH   3   4
HETATM    4  C   UNL     1      -7.897   6.880  64.822  1.00  0.00    -0.119 C  
BRANCH   4   5
HETATM    5  O   UNL     1      -7.924   7.585  66.068  1.00  0.00    -0.102 OA 
BRANCH   5   6
HETATM    6  C   UNL     1      -8.459   8.839  65.989  1.00  0.00    -0.135 A  
HETATM    7  C   UNL     1      -9.107   9.396  64.903  1.00  0.00    -0.202 A  
HETATM    8  N   UNL     1      -9.630  10.635  64.885  1.00  0.00    -0.244 NA 
HETATM    9  C   UNL     1      -9.481  11.337  66.003  1.00  0.00    -0.216 A  
HETATM   10  C   UNL     1      -8.370   9.678  67.084  1.00  0.00    -0.121 A  
HETATM   11  N   UNL     1      -8.865  10.942  67.121  1.00  0.00    -0.135 NA 
BRANCH   9  12
HETATM   12  N   UNL     1     -10.071  12.598  66.023  1.00  0.00    -0.259 N  
HETATM   13  H   UNL     1      -9.590  13.443  65.714  1.00  0.00     0.000 HD 
BRANCH  12  14
HETATM   14  S   UNL     1     -11.646  12.602  66.603  1.00  0.00    -0.394 S  
HETATM   15  O   UNL     1     -11.977  11.344  67.243  1.00  0.00    -0.580 OA 
HETATM   16  O   UNL     1     -12.473  13.126  65.538  1.00  0.00    -0.459 OA 
BRANCH  14  17
HETATM   17  C   UNL     1     -11.619  13.856  67.875  1.00  0.00    -0.342 A  
HETATM   18  C   UNL     1     -11.198  15.151  67.555  1.00  0.00    -0.331 A  
HETATM   19  C   UNL     1     -11.186  16.132  68.545  1.00  0.00    -0.365 A  
HETATM   20  C   UNL     1     -11.601  15.823  69.842  1.00  0.00    -0.355 A  
HETATM   21  C   UNL     1     -12.047  14.537  70.150  1.00  0.00    -0.394 A  
HETATM   22  C   UNL     1     -12.073  13.552  69.162  1.00  0.00    -0.331 A  
ENDBRANCH  14  17
ENDBRANCH  12  14
ENDBRANCH   9  12
ENDBRANCH   5   6
ENDBRANCH   4   5
ENDBRANCH   3   4
ENDBRANCH   2   3
TORSDOF 7
ENDMDL
MODEL      167
REMARK 921   NORMALIZED FREE ENERGY PREDICTED BY IDOCK:   -3.72 KCAL/MOL
REMARK 922        TOTAL FREE ENERGY PREDICTED BY IDOCK:   -5.77 KCAL/MOL
REMARK 923 INTER-LIGAND FREE ENERGY PREDICTED BY IDOCK:   -5.47 KCAL/MOL
REMARK 924 INTRA-LIGAND FREE ENERGY PREDICTED BY IDOCK:   -0.30 KCAL/MOL
REMARK 927      BINDING AFFINITY PREDICTED BY RF-SCORE:    0.00 PKD
ROOT
HETATM    1  C   UNL     1     -11.203   9.182  70.381  1.00  0.00    -0.240 C  
HETATM    2  O   UNL     1     -10.955   7.818  70.078  1.00  0.00    -0.249 OA 
ENDROOT
BRANCH   2   3
HETATM    3  C   UNL     1      -9.586   7.573  69.744  1.00  0.00    -0.163 C  
BRANCH   3   4
HETATM    4  C   UNL     1      -9.041   8.849  69.115  1.00  0.00    -0.141 C  
BRANCH   4   5
HETATM    5  O   UNL     1      -8.646   8.653  67.753  1.00  0.00    -0.134 OA 
BRANCH   5   6
HETATM    6  C   UNL     1      -8.991   9.678  66.918  1.00  0.00    -0.134 A  
HETATM    7  C   UNL     1      -8.610  11.001  67.031  1.00  0.00    -0.140 A  
HETATM    8  N   UNL     1      -8.966  11.969  66.168  1.00  0.00    -0.137 NA 
HETATM    9  C   UNL     1      -9.745  11.584  65.163  1.00  0.00    -0.237 A  
HETATM   10  C   UNL     1      -9.802   9.414  65.830  1.00  0.00    -0.291 A  
HETATM   11  N   UNL     1     -10.207  10.351  64.935  1.00  0.00    -0.319 NA 
BRANCH   9  12
HETATM   12  N   UNL     1     -10.072  12.561  64.226  1.00  0.00    -0.528 N  
HETATM   13  H   UNL     1      -9.451  12.831  63.464  1.00  0.00     0.000 HD 
BRANCH  12  14
HETATM   14  S   UNL     1     -11.582  13.254  64.467  1.00  0.00    -0.389 S  
HETATM   15  O   UNL     1     -12.604  12.244  64.653  1.00  0.00    -0.464 OA 
HETATM   16  O   UNL     1     -11.730  14.274  63.452  1.00  0.00     0.164 OA 
BRANCH  14  17
HETATM   17  C   UNL     1     -11.400  14.120  66.019  1.00  0.00    -0.330 A  
HETATM   18  C   UNL     1     -10.864  15.412  66.027  1.00  0.00    -0.315 A  
HETATM   19  C   UNL     1     -10.731  16.092  67.237  1.00  0.00    -0.295 A  
HETATM   20  C   UNL     1     -11.140  15.487  68.427  1.00  0.00    -0.315 A  
HETATM   21  C   UNL     1     -11.701  14.210  68.412  1.00  0.00    -0.380 A  
HETATM   22  C   UNL     1     -11.848  13.528  67.203  1.00  0.00    -0.430 A  
ENDBRANCH  14  17
ENDBRANCH  12  14
ENDBRANCH   9  12
ENDBRANCH   5   6
ENDBRANCH   4   5
ENDBRANCH   3   4
ENDBRANCH   2   3
TORSDOF 7
ENDMDL
MODEL      168
REMARK 921   NORMALIZED FREE ENERGY PREDICTED BY IDOCK:   -3.71 KCAL/MOL
REMARK 922        TOTAL FREE ENERGY PREDICTED BY IDOCK:   -5.76 KCAL/MOL
REMARK 923 INTER-LIGAND FREE ENERGY PREDICTED BY IDOCK:   -5.16 KCAL/MOL
REMARK 924 INTRA-LIGAND FREE ENERGY PREDICTED BY IDOCK:   -0.60 KCAL/MOL
REMARK 927      BINDING AFFINITY PREDICTED BY RF-SCORE:    0.00 PKD
ROOT
HETATM    1  C   UNL     1      -6.332  13.252  68.779  1.00  0.00    -0.094 C  
HETATM    2  O   UNL     1      -6.952  14.517  68.617  1.00  0.00    -0.092 OA 
ENDROOT
BRANCH   2   3
HETATM    3  C   UNL     1      -7.583  14.658  67.342  1.00  0.00    -0.192 C  
BRANCH   3   4
HETATM    4  C   UNL     1      -9.056  14.320  67.530  1.00  0.00    -0.193 C  
BRANCH   4   5
HETATM    5  O   UNL     1      -9.568  13.521  66.457  1.00  0.00    -0.269 OA 
BRANCH   5   6
HETATM    6  C   UNL     1      -9.920  12.253  66.823  1.00  0.00    -0.205 A  
HETATM    7  C   UNL     1     -10.438  11.857  68.041  1.00  0.00    -0.208 A  
HETATM    8  N   UNL     1     -10.784  10.592  68.343  1.00  0.00    -0.206 NA 
HETATM    9  C   UNL     1     -10.587   9.698  67.381  1.00  0.00    -0.268 A  
HETATM   10  C   UNL     1      -9.763  11.223  65.914  1.00  0.00    -0.224 A  
HETATM   11  N   UNL     1     -10.080   9.927  66.166  1.00  0.00    -0.255 NA 
BRANCH   9  12
HETATM   12  N   UNL     1     -10.997   8.396  67.655  1.00  0.00    -0.483 N  
HETATM   13  H   UNL     1     -11.904   8.027  67.372  1.00  0.00     0.000 HD 
BRANCH  12  14
HETATM   14  S   UNL     1      -9.861   7.489  68.495  1.00  0.00    -0.169 S  
HETATM   15  O   UNL     1      -8.568   8.142  68.508  1.00  0.00    -0.129 OA 
HETATM   16  O   UNL     1      -9.995   6.128  68.023  1.00  0.00    -0.128 OA 
BRANCH  14  17
HETATM   17  C   UNL     1     -10.480   7.496  70.171  1.00  0.00    -0.222 A  
HETATM   18  C   UNL     1     -11.583   6.702  70.500  1.00  0.00    -0.448 A  
HETATM   19  C   UNL     1     -12.059   6.700  71.811  1.00  0.00    -0.400 A  
HETATM   20  C   UNL     1     -11.431   7.479  72.785  1.00  0.00    -0.352 A  
HETATM   21  C   UNL     1     -10.314   8.247  72.459  1.00  0.00    -0.401 A  
HETATM   22  C   UNL     1      -9.823   8.246  71.152  1.00  0.00    -0.219 A  
ENDBRANCH  14  17
ENDBRANCH  12  14
ENDBRANCH   9  12
ENDBRANCH   5   6
ENDBRANCH   4   5
ENDBRANCH   3   4
ENDBRANCH   2   3
TORSDOF 7
ENDMDL
MODEL      169
REMARK 921   NORMALIZED FREE ENERGY PREDICTED BY IDOCK:   -3.68 KCAL/MOL
REMARK 922        TOTAL FREE ENERGY PREDICTED BY IDOCK:   -5.72 KCAL/MOL
REMARK 923 INTER-LIGAND FREE ENERGY PREDICTED BY IDOCK:   -5.33 KCAL/MOL
REMARK 924 INTRA-LIGAND FREE ENERGY PREDICTED BY IDOCK:   -0.39 KCAL/MOL
REMARK 927      BINDING AFFINITY PREDICTED BY RF-SCORE:    0.00 PKD
ROOT
HETATM    1  C   UNL     1      -8.293   4.217  70.126  1.00  0.00    -0.064 C  
HETATM    2  O   UNL     1      -8.676   5.179  71.095  1.00  0.00    -0.125 OA 
ENDROOT
BRANCH   2   3
HETATM    3  C   UNL     1     -10.068   5.111  71.413  1.00  0.00    -0.200 C  
BRANCH   3   4
HETATM    4  C   UNL     1     -10.755   6.247  70.667  1.00  0.00    -0.264 C  
BRANCH   4   5
HETATM    5  O   UNL     1      -9.872   7.349  70.430  1.00  0.00    -0.183 OA 
BRANCH   5   6
HETATM    6  C   UNL     1      -9.900   7.821  69.148  1.00  0.00    -0.173 A  
HETATM    7  C   UNL     1     -10.655   8.875  68.671  1.00  0.00    -0.147 A  
HETATM    8  N   UNL     1     -10.631   9.309  67.397  1.00  0.00    -0.278 NA 
HETATM    9  C   UNL     1      -9.824   8.644  66.579  1.00  0.00    -0.278 A  
HETATM   10  C   UNL     1      -9.107   7.216  68.191  1.00  0.00    -0.133 A  
HETATM   11  N   UNL     1      -9.052   7.599  66.890  1.00  0.00    -0.138 NA 
BRANCH   9  12
HETATM   12  N   UNL     1      -9.741   9.120  65.273  1.00  0.00    -0.443 N  
HETATM   13  H   UNL     1     -10.184   8.654  64.482  1.00  0.00     0.000 HD 
BRANCH  12  14
HETATM   14  S   UNL     1      -8.844  10.531  65.120  1.00  0.00    -0.194 S  
HETATM   15  O   UNL     1      -7.990  10.491  63.950  1.00  0.00    -0.112 OA 
HETATM   16  O   UNL     1      -8.290  10.806  66.428  1.00  0.00    -0.142 OA 
BRANCH  14  17
HETATM   17  C   UNL     1     -10.085  11.784  64.833  1.00  0.00    -0.259 A  
HETATM   18  C   UNL     1     -10.893  11.703  63.694  1.00  0.00    -0.503 A  
HETATM   19  C   UNL     1     -11.868  12.676  63.475  1.00  0.00    -0.619 A  
HETATM   20  C   UNL     1     -12.038  13.715  64.392  1.00  0.00    -0.470 A  
HETATM   21  C   UNL     1     -11.249  13.775  65.541  1.00  0.00    -0.303 A  
HETATM   22  C   UNL     1     -10.280  12.799  65.774  1.00  0.00    -0.302 A  
ENDBRANCH  14  17
ENDBRANCH  12  14
ENDBRANCH   9  12
ENDBRANCH   5   6
ENDBRANCH   4   5
ENDBRANCH   3   4
ENDBRANCH   2   3
TORSDOF 7
ENDMDL
MODEL      170
REMARK 921   NORMALIZED FREE ENERGY PREDICTED BY IDOCK:   -3.68 KCAL/MOL
REMARK 922        TOTAL FREE ENERGY PREDICTED BY IDOCK:   -5.72 KCAL/MOL
REMARK 923 INTER-LIGAND FREE ENERGY PREDICTED BY IDOCK:   -5.53 KCAL/MOL
REMARK 924 INTRA-LIGAND FREE ENERGY PREDICTED BY IDOCK:   -0.19 KCAL/MOL
REMARK 927      BINDING AFFINITY PREDICTED BY RF-SCORE:    0.00 PKD
ROOT
HETATM    1  C   UNL     1      -8.792  10.525  64.976  1.00  0.00    -0.191 C  
HETATM    2  O   UNL     1      -9.655   9.499  65.438  1.00  0.00    -0.276 OA 
ENDROOT
BRANCH   2   3
HETATM    3  C   UNL     1      -9.348   9.084  66.771  1.00  0.00    -0.165 C  
BRANCH   3   4
HETATM    4  C   UNL     1     -10.357   9.756  67.694  1.00  0.00    -0.230 C  
BRANCH   4   5
HETATM    5  O   UNL     1     -11.388  10.431  66.966  1.00  0.00    -0.222 OA 
BRANCH   5   6
HETATM    6  C   UNL     1     -11.513  11.756  67.272  1.00  0.00    -0.303 A  
HETATM    7  C   UNL     1     -11.299  12.345  68.504  1.00  0.00    -0.293 A  
HETATM    8  N   UNL     1     -11.421  13.663  68.746  1.00  0.00    -0.285 NA 
HETATM    9  C   UNL     1     -11.783  14.406  67.707  1.00  0.00    -0.376 A  
HETATM   10  C   UNL     1     -11.887  12.643  66.280  1.00  0.00    -0.410 A  
HETATM   11  N   UNL     1     -12.041  13.979  66.467  1.00  0.00    -0.446 NA 
BRANCH   9  12
HETATM   12  N   UNL     1     -11.853  15.780  67.926  1.00  0.00    -0.209 N  
HETATM   13  H   UNL     1     -12.583  16.217  68.487  1.00  0.00     0.000 HD 
BRANCH  12  14
HETATM   14  S   UNL     1     -10.626  16.649  67.181  1.00  0.00    -0.213 S  
HETATM   15  O   UNL     1     -10.627  18.035  67.604  1.00  0.00    -0.400 OA 
HETATM   16  O   UNL     1     -10.679  16.308  65.776  1.00  0.00    -0.318 OA 
BRANCH  14  17
HETATM   17  C   UNL     1      -9.136  15.897  67.818  1.00  0.00    -0.196 A  
HETATM   18  C   UNL     1      -8.440  14.975  67.031  1.00  0.00    -0.258 A  
HETATM   19  C   UNL     1      -7.271  14.396  67.525  1.00  0.00    -0.202 A  
HETATM   20  C   UNL     1      -6.800  14.744  68.792  1.00  0.00    -0.099 A  
HETATM   21  C   UNL     1      -7.482  15.686  69.562  1.00  0.00    -0.192 A  
HETATM   22  C   UNL     1      -8.645  16.280  69.070  1.00  0.00    -0.247 A  
ENDBRANCH  14  17
ENDBRANCH  12  14
ENDBRANCH   9  12
ENDBRANCH   5   6
ENDBRANCH   4   5
ENDBRANCH   3   4
ENDBRANCH   2   3
TORSDOF 7
ENDMDL
MODEL      171
REMARK 921   NORMALIZED FREE ENERGY PREDICTED BY IDOCK:   -3.68 KCAL/MOL
REMARK 922        TOTAL FREE ENERGY PREDICTED BY IDOCK:   -5.71 KCAL/MOL
REMARK 923 INTER-LIGAND FREE ENERGY PREDICTED BY IDOCK:   -5.65 KCAL/MOL
REMARK 924 INTRA-LIGAND FREE ENERGY PREDICTED BY IDOCK:   -0.07 KCAL/MOL
REMARK 927      BINDING AFFINITY PREDICTED BY RF-SCORE:    0.00 PKD
ROOT
HETATM    1  C   UNL     1      -6.883  20.309  64.459  1.00  0.00     0.033 C  
HETATM    2  O   UNL     1      -7.402  19.593  65.569  1.00  0.00    -0.362 OA 
ENDROOT
BRANCH   2   3
HETATM    3  C   UNL     1      -6.717  18.358  65.791  1.00  0.00    -0.280 C  
BRANCH   3   4
HETATM    4  C   UNL     1      -7.686  17.429  66.511  1.00  0.00    -0.284 C  
BRANCH   4   5
HETATM    5  O   UNL     1      -9.020  17.545  66.003  1.00  0.00    -0.497 OA 
BRANCH   5   6
HETATM    6  C   UNL     1      -9.768  16.409  66.136  1.00  0.00    -0.327 A  
HETATM    7  C   UNL     1      -9.800  15.333  65.270  1.00  0.00    -0.215 A  
HETATM    8  N   UNL     1     -10.546  14.229  65.459  1.00  0.00    -0.321 NA 
HETATM    9  C   UNL     1     -11.294  14.223  66.557  1.00  0.00    -0.346 A  
HETATM   10  C   UNL     1     -10.595  16.274  67.236  1.00  0.00    -0.298 A  
HETATM   11  N   UNL     1     -11.381  15.192  67.472  1.00  0.00    -0.333 NA 
BRANCH   9  12
HETATM   12  N   UNL     1     -12.024  13.062  66.799  1.00  0.00    -0.390 N  
HETATM   13  H   UNL     1     -12.868  12.818  66.282  1.00  0.00     0.000 HD 
BRANCH  12  14
HETATM   14  S   UNL     1     -11.388  12.102  68.020  1.00  0.00    -0.319 S  
HETATM   15  O   UNL     1     -11.920  10.756  67.966  1.00  0.00    -0.537 OA 
HETATM   16  O   UNL     1     -11.473  12.880  69.237  1.00  0.00    -0.268 OA 
BRANCH  14  17
HETATM   17  C   UNL     1      -9.651  12.007  67.612  1.00  0.00    -0.188 A  
HETATM   18  C   UNL     1      -9.217  11.069  66.670  1.00  0.00    -0.182 A  
HETATM   19  C   UNL     1      -7.862  11.001  66.345  1.00  0.00    -0.150 A  
HETATM   20  C   UNL     1      -6.953  11.870  66.951  1.00  0.00    -0.072 A  
HETATM   21  C   UNL     1      -7.395  12.823  67.868  1.00  0.00    -0.120 A  
HETATM   22  C   UNL     1      -8.750  12.906  68.191  1.00  0.00    -0.190 A  
ENDBRANCH  14  17
ENDBRANCH  12  14
ENDBRANCH   9  12
ENDBRANCH   5   6
ENDBRANCH   4   5
ENDBRANCH   3   4
ENDBRANCH   2   3
TORSDOF 7
ENDMDL
MODEL      172
REMARK 921   NORMALIZED FREE ENERGY PREDICTED BY IDOCK:   -3.67 KCAL/MOL
REMARK 922        TOTAL FREE ENERGY PREDICTED BY IDOCK:   -5.71 KCAL/MOL
REMARK 923 INTER-LIGAND FREE ENERGY PREDICTED BY IDOCK:   -5.21 KCAL/MOL
REMARK 924 INTRA-LIGAND FREE ENERGY PREDICTED BY IDOCK:   -0.50 KCAL/MOL
REMARK 927      BINDING AFFINITY PREDICTED BY RF-SCORE:    0.00 PKD
ROOT
HETATM    1  C   UNL     1      -6.729   8.459  65.157  1.00  0.00    -0.063 C  
HETATM    2  O   UNL     1      -7.041   7.119  65.501  1.00  0.00    -0.061 OA 
ENDROOT
BRANCH   2   3
HETATM    3  C   UNL     1      -6.973   6.886  66.910  1.00  0.00    -0.070 C  
BRANCH   3   4
HETATM    4  C   UNL     1      -7.360   8.187  67.600  1.00  0.00    -0.093 C  
BRANCH   4   5
HETATM    5  O   UNL     1      -8.594   8.071  68.317  1.00  0.00    -0.129 OA 
BRANCH   5   6
HETATM    6  C   UNL     1      -9.430   9.141  68.165  1.00  0.00    -0.142 A  
HETATM    7  C   UNL     1      -9.899   9.664  66.975  1.00  0.00    -0.195 A  
HETATM    8  N   UNL     1     -10.737  10.713  66.885  1.00  0.00    -0.255 NA 
HETATM    9  C   UNL     1     -11.102  11.256  68.041  1.00  0.00    -0.266 A  
HETATM   10  C   UNL     1      -9.885   9.803  69.291  1.00  0.00    -0.199 A  
HETATM   11  N   UNL     1     -10.719  10.875  69.263  1.00  0.00    -0.224 NA 
BRANCH   9  12
HETATM   12  N   UNL     1     -12.018  12.303  67.968  1.00  0.00    -0.292 N  
HETATM   13  H   UNL     1     -13.026  12.159  67.931  1.00  0.00     0.000 HD 
BRANCH  12  14
HETATM   14  S   UNL     1     -11.308  13.824  67.948  1.00  0.00    -0.317 S  
HETATM   15  O   UNL     1     -11.920  14.680  66.951  1.00  0.00    -0.373 OA 
HETATM   16  O   UNL     1      -9.878  13.608  67.955  1.00  0.00    -0.228 OA 
BRANCH  14  17
HETATM   17  C   UNL     1     -11.718  14.497  69.552  1.00  0.00    -0.314 A  
HETATM   18  C   UNL     1     -12.611  13.808  70.378  1.00  0.00    -0.325 A  
HETATM   19  C   UNL     1     -12.923  14.328  71.634  1.00  0.00    -0.420 A  
HETATM   20  C   UNL     1     -12.338  15.521  72.062  1.00  0.00    -0.478 A  
HETATM   21  C   UNL     1     -11.425  16.190  71.246  1.00  0.00    -0.433 A  
HETATM   22  C   UNL     1     -11.098  15.670  69.993  1.00  0.00    -0.332 A  
ENDBRANCH  14  17
ENDBRANCH  12  14
ENDBRANCH   9  12
ENDBRANCH   5   6
ENDBRANCH   4   5
ENDBRANCH   3   4
ENDBRANCH   2   3
TORSDOF 7
ENDMDL
MODEL      173
REMARK 921   NORMALIZED FREE ENERGY PREDICTED BY IDOCK:   -3.67 KCAL/MOL
REMARK 922        TOTAL FREE ENERGY PREDICTED BY IDOCK:   -5.71 KCAL/MOL
REMARK 923 INTER-LIGAND FREE ENERGY PREDICTED BY IDOCK:   -5.39 KCAL/MOL
REMARK 924 INTRA-LIGAND FREE ENERGY PREDICTED BY IDOCK:   -0.32 KCAL/MOL
REMARK 927      BINDING AFFINITY PREDICTED BY RF-SCORE:    0.00 PKD
ROOT
HETATM    1  C   UNL     1     -12.012  14.614  64.612  1.00  0.00    -0.462 C  
HETATM    2  O   UNL     1     -12.646  13.595  63.855  1.00  0.00    -0.687 OA 
ENDROOT
BRANCH   2   3
HETATM    3  C   UNL     1     -12.385  12.287  64.373  1.00  0.00    -0.404 C  
BRANCH   3   4
HETATM    4  C   UNL     1     -11.392  12.447  65.516  1.00  0.00    -0.346 C  
BRANCH   4   5
HETATM    5  O   UNL     1     -11.792  11.721  66.684  1.00  0.00    -0.569 OA 
BRANCH   5   6
HETATM    6  C   UNL     1     -10.839  10.868  67.165  1.00  0.00    -0.280 A  
HETATM    7  C   UNL     1     -11.013   9.540  67.503  1.00  0.00    -0.054 A  
HETATM    8  N   UNL     1     -10.032   8.739  67.958  1.00  0.00    -0.173 NA 
HETATM    9  C   UNL     1      -8.839   9.308  68.086  1.00  0.00    -0.129 A  
HETATM   10  C   UNL     1      -9.551  11.334  67.349  1.00  0.00    -0.169 A  
HETATM   11  N   UNL     1      -8.525  10.579  67.819  1.00  0.00    -0.114 NA 
BRANCH   9  12
HETATM   12  N   UNL     1      -7.800   8.477  68.497  1.00  0.00    -0.107 N  
HETATM   13  H   UNL     1      -7.215   7.954  67.847  1.00  0.00     0.000 HD 
BRANCH  12  14
HETATM   14  S   UNL     1      -7.598   8.417  70.163  1.00  0.00    -0.073 S  
HETATM   15  O   UNL     1      -7.680   9.737  70.754  1.00  0.00    -0.308 OA 
HETATM   16  O   UNL     1      -6.449   7.571  70.404  1.00  0.00    -0.038 OA 
BRANCH  14  17
HETATM   17  C   UNL     1      -9.022   7.493  70.721  1.00  0.00    -0.149 A  
HETATM   18  C   UNL     1      -9.196   6.173  70.293  1.00  0.00    -0.165 A  
HETATM   19  C   UNL     1     -10.302   5.449  70.737  1.00  0.00    -0.322 A  
HETATM   20  C   UNL     1     -11.219   6.038  71.609  1.00  0.00    -0.328 A  
HETATM   21  C   UNL     1     -11.025   7.345  72.057  1.00  0.00    -0.273 A  
HETATM   22  C   UNL     1      -9.915   8.072  71.627  1.00  0.00    -0.237 A  
ENDBRANCH  14  17
ENDBRANCH  12  14
ENDBRANCH   9  12
ENDBRANCH   5   6
ENDBRANCH   4   5
ENDBRANCH   3   4
ENDBRANCH   2   3
TORSDOF 7
ENDMDL
MODEL      174
REMARK 921   NORMALIZED FREE ENERGY PREDICTED BY IDOCK:   -3.63 KCAL/MOL
REMARK 922        TOTAL FREE ENERGY PREDICTED BY IDOCK:   -5.66 KCAL/MOL
REMARK 923 INTER-LIGAND FREE ENERGY PREDICTED BY IDOCK:   -5.40 KCAL/MOL
REMARK 924 INTRA-LIGAND FREE ENERGY PREDICTED BY IDOCK:   -0.25 KCAL/MOL
REMARK 927      BINDING AFFINITY PREDICTED BY RF-SCORE:    0.00 PKD
ROOT
HETATM    1  C   UNL     1      -8.071  10.189  64.671  1.00  0.00    -0.153 C  
HETATM    2  O   UNL     1      -8.750   9.085  64.094  1.00  0.00    -0.181 OA 
ENDROOT
BRANCH   2   3
HETATM    3  C   UNL     1      -8.225   7.830  64.534  1.00  0.00    -0.056 C  
BRANCH   3   4
HETATM    4  C   UNL     1      -8.366   7.791  66.050  1.00  0.00    -0.133 C  
BRANCH   4   5
HETATM    5  O   UNL     1      -9.676   7.383  66.460  1.00  0.00    -0.197 OA 
BRANCH   5   6
HETATM    6  C   UNL     1      -9.758   7.005  67.771  1.00  0.00    -0.135 A  
HETATM    7  C   UNL     1      -8.743   7.038  68.707  1.00  0.00    -0.127 A  
HETATM    8  N   UNL     1      -8.886   6.669  69.993  1.00  0.00    -0.141 NA 
HETATM    9  C   UNL     1     -10.095   6.241  70.337  1.00  0.00    -0.185 A  
HETATM   10  C   UNL     1     -10.964   6.537  68.260  1.00  0.00    -0.281 A  
HETATM   11  N   UNL     1     -11.164   6.136  69.542  1.00  0.00    -0.417 NA 
BRANCH   9  12
HETATM   12  N   UNL     1     -10.276   5.914  71.678  1.00  0.00    -0.196 N  
HETATM   13  H   UNL     1     -10.486   4.968  71.997  1.00  0.00     0.000 HD 
BRANCH  12  14
HETATM   14  S   UNL     1     -10.116   7.218  72.723  1.00  0.00    -0.233 S  
HETATM   15  O   UNL     1      -8.800   7.817  72.622  1.00  0.00    -0.132 OA 
HETATM   16  O   UNL     1     -10.631   6.782  74.002  1.00  0.00    -0.343 OA 
BRANCH  14  17
HETATM   17  C   UNL     1     -11.293   8.404  72.091  1.00  0.00    -0.366 A  
HETATM   18  C   UNL     1     -10.839   9.481  71.322  1.00  0.00    -0.413 A  
HETATM   19  C   UNL     1     -11.759  10.401  70.821  1.00  0.00    -0.464 A  
HETATM   20  C   UNL     1     -13.121  10.240  71.080  1.00  0.00    -0.458 A  
HETATM   21  C   UNL     1     -13.572   9.148  71.822  1.00  0.00    -0.476 A  
HETATM   22  C   UNL     1     -12.660   8.216  72.317  1.00  0.00    -0.314 A  
ENDBRANCH  14  17
ENDBRANCH  12  14
ENDBRANCH   9  12
ENDBRANCH   5   6
ENDBRANCH   4   5
ENDBRANCH   3   4
ENDBRANCH   2   3
TORSDOF 7
ENDMDL
MODEL      175
REMARK 921   NORMALIZED FREE ENERGY PREDICTED BY IDOCK:   -3.63 KCAL/MOL
REMARK 922        TOTAL FREE ENERGY PREDICTED BY IDOCK:   -5.66 KCAL/MOL
REMARK 923 INTER-LIGAND FREE ENERGY PREDICTED BY IDOCK:   -5.17 KCAL/MOL
REMARK 924 INTRA-LIGAND FREE ENERGY PREDICTED BY IDOCK:   -0.49 KCAL/MOL
REMARK 927      BINDING AFFINITY PREDICTED BY RF-SCORE:    0.00 PKD
ROOT
HETATM    1  C   UNL     1      -5.323  10.315  64.536  1.00  0.00    -0.126 C  
HETATM    2  O   UNL     1      -5.235   9.373  63.480  1.00  0.00    -0.064 OA 
ENDROOT
BRANCH   2   3
HETATM    3  C   UNL     1      -6.506   8.814  63.138  1.00  0.00    -0.090 C  
BRANCH   3   4
HETATM    4  C   UNL     1      -7.136   8.307  64.428  1.00  0.00    -0.078 C  
BRANCH   4   5
HETATM    5  O   UNL     1      -8.391   8.939  64.701  1.00  0.00    -0.155 OA 
BRANCH   5   6
HETATM    6  C   UNL     1      -9.100   8.359  65.714  1.00  0.00    -0.139 A  
HETATM    7  C   UNL     1     -10.107   8.942  66.460  1.00  0.00    -0.286 A  
HETATM    8  N   UNL     1     -10.786   8.315  67.438  1.00  0.00    -0.236 NA 
HETATM    9  C   UNL     1     -10.423   7.060  67.676  1.00  0.00    -0.237 A  
HETATM   10  C   UNL     1      -8.821   7.051  66.067  1.00  0.00    -0.135 A  
HETATM   11  N   UNL     1      -9.461   6.373  67.054  1.00  0.00    -0.134 NA 
BRANCH   9  12
HETATM   12  N   UNL     1     -11.157   6.378  68.642  1.00  0.00    -0.466 N  
HETATM   13  H   UNL     1     -11.965   5.797  68.421  1.00  0.00     0.000 HD 
BRANCH  12  14
HETATM   14  S   UNL     1     -10.590   6.600  70.207  1.00  0.00    -0.237 S  
HETATM   15  O   UNL     1      -9.264   7.184  70.211  1.00  0.00    -0.155 OA 
HETATM   16  O   UNL     1     -10.854   5.367  70.916  1.00  0.00    -0.218 OA 
BRANCH  14  17
HETATM   17  C   UNL     1     -11.711   7.814  70.888  1.00  0.00    -0.265 A  
HETATM   18  C   UNL     1     -11.320   9.155  70.943  1.00  0.00    -0.359 A  
HETATM   19  C   UNL     1     -12.198  10.104  71.466  1.00  0.00    -0.473 A  
HETATM   20  C   UNL     1     -13.460   9.714  71.920  1.00  0.00    -0.496 A  
HETATM   21  C   UNL     1     -13.857   8.380  71.835  1.00  0.00    -0.459 A  
HETATM   22  C   UNL     1     -12.988   7.426  71.302  1.00  0.00    -0.358 A  
ENDBRANCH  14  17
ENDBRANCH  12  14
ENDBRANCH   9  12
ENDBRANCH   5   6
ENDBRANCH   4   5
ENDBRANCH   3   4
ENDBRANCH   2   3
TORSDOF 7
ENDMDL
MODEL      176
REMARK 921   NORMALIZED FREE ENERGY PREDICTED BY IDOCK:   -3.63 KCAL/MOL
REMARK 922        TOTAL FREE ENERGY PREDICTED BY IDOCK:   -5.65 KCAL/MOL
REMARK 923 INTER-LIGAND FREE ENERGY PREDICTED BY IDOCK:   -5.72 KCAL/MOL
REMARK 924 INTRA-LIGAND FREE ENERGY PREDICTED BY IDOCK:    0.07 KCAL/MOL
REMARK 927      BINDING AFFINITY PREDICTED BY RF-SCORE:    0.00 PKD
ROOT
HETATM    1  C   UNL     1     -12.560  12.014  63.515  1.00  0.00    -0.507 C  
HETATM    2  O   UNL     1     -13.008  12.345  64.820  1.00  0.00    -0.786 OA 
ENDROOT
BRANCH   2   3
HETATM    3  C   UNL     1     -12.876  13.740  65.105  1.00  0.00    -0.340 C  
BRANCH   3   4
HETATM    4  C   UNL     1     -11.388  14.029  65.254  1.00  0.00    -0.321 C  
BRANCH   4   5
HETATM    5  O   UNL     1     -11.028  15.302  64.705  1.00  0.00    -0.410 OA 
BRANCH   5   6
HETATM    6  C   UNL     1     -10.692  16.239  65.642  1.00  0.00    -0.286 A  
HETATM    7  C   UNL     1     -10.468  16.021  66.987  1.00  0.00    -0.307 A  
HETATM    8  N   UNL     1     -10.122  16.981  67.864  1.00  0.00    -0.293 NA 
HETATM    9  C   UNL     1     -10.012  18.206  67.360  1.00  0.00    -0.323 A  
HETATM   10  C   UNL     1     -10.547  17.557  65.251  1.00  0.00     0.132 A  
HETATM   11  N   UNL     1     -10.215  18.571  66.091  1.00  0.00    -0.480 NA 
BRANCH   9  12
HETATM   12  N   UNL     1      -9.595  19.200  68.241  1.00  0.00    -0.334 N  
HETATM   13  H   UNL     1     -10.236  19.716  68.842  1.00  0.00     0.000 HD 
BRANCH  12  14
HETATM   14  S   UNL     1      -7.938  19.471  68.223  1.00  0.00    -0.333 S  
HETATM   15  O   UNL     1      -7.500  20.150  69.426  1.00  0.00    -0.064 OA 
HETATM   16  O   UNL     1      -7.627  20.011  66.917  1.00  0.00    -0.259 OA 
BRANCH  14  17
HETATM   17  C   UNL     1      -7.246  17.824  68.258  1.00  0.00    -0.237 A  
HETATM   18  C   UNL     1      -7.131  17.152  69.479  1.00  0.00     0.028 A  
HETATM   19  C   UNL     1      -6.600  15.863  69.504  1.00  0.00    -0.191 A  
HETATM   20  C   UNL     1      -6.196  15.249  68.317  1.00  0.00    -0.123 A  
HETATM   21  C   UNL     1      -6.340  15.912  67.098  1.00  0.00    -0.059 A  
HETATM   22  C   UNL     1      -6.882  17.197  67.062  1.00  0.00    -0.228 A  
ENDBRANCH  14  17
ENDBRANCH  12  14
ENDBRANCH   9  12
ENDBRANCH   5   6
ENDBRANCH   4   5
ENDBRANCH   3   4
ENDBRANCH   2   3
TORSDOF 7
ENDMDL
MODEL      177
REMARK 921   NORMALIZED FREE ENERGY PREDICTED BY IDOCK:   -3.63 KCAL/MOL
REMARK 922        TOTAL FREE ENERGY PREDICTED BY IDOCK:   -5.65 KCAL/MOL
REMARK 923 INTER-LIGAND FREE ENERGY PREDICTED BY IDOCK:   -5.23 KCAL/MOL
REMARK 924 INTRA-LIGAND FREE ENERGY PREDICTED BY IDOCK:   -0.42 KCAL/MOL
REMARK 927      BINDING AFFINITY PREDICTED BY RF-SCORE:    0.00 PKD
ROOT
HETATM    1  C   UNL     1     -13.874  13.522  72.444  1.00  0.00    -0.586 C  
HETATM    2  O   UNL     1     -14.361  14.704  71.829  1.00  0.00    -0.468 OA 
ENDROOT
BRANCH   2   3
HETATM    3  C   UNL     1     -13.308  15.557  71.374  1.00  0.00    -0.511 C  
BRANCH   3   4
HETATM    4  C   UNL     1     -12.172  14.657  70.905  1.00  0.00    -0.323 C  
BRANCH   4   5
HETATM    5  O   UNL     1     -12.060  14.628  69.478  1.00  0.00    -0.305 OA 
BRANCH   5   6
HETATM    6  C   UNL     1     -11.741  13.402  68.968  1.00  0.00    -0.323 A  
HETATM    7  C   UNL     1     -11.224  13.136  67.715  1.00  0.00    -0.277 A  
HETATM    8  N   UNL     1     -10.912  11.905  67.268  1.00  0.00    -0.252 NA 
HETATM    9  C   UNL     1     -11.143  10.911  68.118  1.00  0.00    -0.280 A  
HETATM   10  C   UNL     1     -11.935  12.277  69.749  1.00  0.00    -0.295 A  
HETATM   11  N   UNL     1     -11.654  11.011  69.348  1.00  0.00    -0.283 NA 
BRANCH   9  12
HETATM   12  N   UNL     1     -10.768   9.638  67.695  1.00  0.00    -0.335 N  
HETATM   13  H   UNL     1     -11.364   9.045  67.119  1.00  0.00     0.000 HD 
BRANCH  12  14
HETATM   14  S   UNL     1      -9.244   9.170  68.221  1.00  0.00    -0.131 S  
HETATM   15  O   UNL     1      -9.242   7.795  68.679  1.00  0.00    -0.139 OA 
HETATM   16  O   UNL     1      -8.764  10.232  69.078  1.00  0.00    -0.143 OA 
BRANCH  14  17
HETATM   17  C   UNL     1      -8.251   9.241  66.737  1.00  0.00    -0.115 A  
HETATM   18  C   UNL     1      -7.599  10.432  66.403  1.00  0.00    -0.123 A  
HETATM   19  C   UNL     1      -6.816  10.484  65.250  1.00  0.00    -0.050 A  
HETATM   20  C   UNL     1      -6.680   9.351  64.445  1.00  0.00    -0.090 A  
HETATM   21  C   UNL     1      -7.309   8.157  64.799  1.00  0.00    -0.089 A  
HETATM   22  C   UNL     1      -8.084   8.093  65.957  1.00  0.00    -0.112 A  
ENDBRANCH  14  17
ENDBRANCH  12  14
ENDBRANCH   9  12
ENDBRANCH   5   6
ENDBRANCH   4   5
ENDBRANCH   3   4
ENDBRANCH   2   3
TORSDOF 7
ENDMDL
MODEL      178
REMARK 921   NORMALIZED FREE ENERGY PREDICTED BY IDOCK:   -3.63 KCAL/MOL
REMARK 922        TOTAL FREE ENERGY PREDICTED BY IDOCK:   -5.64 KCAL/MOL
REMARK 923 INTER-LIGAND FREE ENERGY PREDICTED BY IDOCK:   -5.22 KCAL/MOL
REMARK 924 INTRA-LIGAND FREE ENERGY PREDICTED BY IDOCK:   -0.43 KCAL/MOL
REMARK 927      BINDING AFFINITY PREDICTED BY RF-SCORE:    0.00 PKD
ROOT
HETATM    1  C   UNL     1     -10.392  18.290  66.690  1.00  0.00    -0.381 C  
HETATM    2  O   UNL     1      -9.706  17.180  67.244  1.00  0.00    -0.245 OA 
ENDROOT
BRANCH   2   3
HETATM    3  C   UNL     1     -10.549  16.372  68.070  1.00  0.00    -0.314 C  
BRANCH   3   4
HETATM    4  C   UNL     1     -11.134  15.281  67.183  1.00  0.00    -0.323 C  
BRANCH   4   5
HETATM    5  O   UNL     1     -10.124  14.406  66.667  1.00  0.00    -0.262 OA 
BRANCH   5   6
HETATM    6  C   UNL     1     -10.281  13.098  67.028  1.00  0.00    -0.250 A  
HETATM    7  C   UNL     1      -9.386  12.323  67.740  1.00  0.00    -0.194 A  
HETATM    8  N   UNL     1      -9.600  11.039  68.083  1.00  0.00    -0.165 NA 
HETATM    9  C   UNL     1     -10.755  10.522  67.680  1.00  0.00    -0.275 A  
HETATM   10  C   UNL     1     -11.440  12.436  66.668  1.00  0.00    -0.370 A  
HETATM   11  N   UNL     1     -11.705  11.139  66.972  1.00  0.00    -0.389 NA 
BRANCH   9  12
HETATM   12  N   UNL     1     -11.018   9.214  68.079  1.00  0.00    -0.493 N  
HETATM   13  H   UNL     1     -11.660   8.983  68.837  1.00  0.00     0.000 HD 
BRANCH  12  14
HETATM   14  S   UNL     1     -10.183   8.055  67.200  1.00  0.00    -0.318 S  
HETATM   15  O   UNL     1      -9.404   8.656  66.137  1.00  0.00    -0.200 OA 
HETATM   16  O   UNL     1     -11.129   6.998  66.914  1.00  0.00    -0.359 OA 
BRANCH  14  17
HETATM   17  C   UNL     1      -9.031   7.381  68.389  1.00  0.00    -0.134 A  
HETATM   18  C   UNL     1      -9.098   7.796  69.722  1.00  0.00    -0.147 A  
HETATM   19  C   UNL     1      -8.205   7.263  70.652  1.00  0.00    -0.116 A  
HETATM   20  C   UNL     1      -7.261   6.315  70.251  1.00  0.00    -0.083 A  
HETATM   21  C   UNL     1      -7.217   5.882  68.926  1.00  0.00    -0.082 A  
HETATM   22  C   UNL     1      -8.115   6.402  67.992  1.00  0.00    -0.116 A  
ENDBRANCH  14  17
ENDBRANCH  12  14
ENDBRANCH   9  12
ENDBRANCH   5   6
ENDBRANCH   4   5
ENDBRANCH   3   4
ENDBRANCH   2   3
TORSDOF 7
ENDMDL
MODEL      179
REMARK 921   NORMALIZED FREE ENERGY PREDICTED BY IDOCK:   -3.62 KCAL/MOL
REMARK 922        TOTAL FREE ENERGY PREDICTED BY IDOCK:   -5.64 KCAL/MOL
REMARK 923 INTER-LIGAND FREE ENERGY PREDICTED BY IDOCK:   -5.22 KCAL/MOL
REMARK 924 INTRA-LIGAND FREE ENERGY PREDICTED BY IDOCK:   -0.41 KCAL/MOL
REMARK 927      BINDING AFFINITY PREDICTED BY RF-SCORE:    0.00 PKD
ROOT
HETATM    1  C   UNL     1     -10.548  14.763  67.994  1.00  0.00    -0.244 C  
HETATM    2  O   UNL     1     -10.099  14.513  66.672  1.00  0.00    -0.260 OA 
ENDROOT
BRANCH   2   3
HETATM    3  C   UNL     1     -11.066  13.807  65.891  1.00  0.00    -0.286 C  
BRANCH   3   4
HETATM    4  C   UNL     1     -10.313  12.754  65.088  1.00  0.00    -0.295 C  
BRANCH   4   5
HETATM    5  O   UNL     1      -9.344  12.061  65.883  1.00  0.00    -0.225 OA 
BRANCH   5   6
HETATM    6  C   UNL     1      -9.784  10.870  66.386  1.00  0.00    -0.201 A  
HETATM    7  C   UNL     1     -10.660  10.689  67.439  1.00  0.00    -0.256 A  
HETATM    8  N   UNL     1     -11.073   9.489  67.885  1.00  0.00    -0.103 NA 
HETATM    9  C   UNL     1     -10.572   8.436  67.248  1.00  0.00    -0.257 A  
HETATM   10  C   UNL     1      -9.336   9.693  65.816  1.00  0.00    -0.228 A  
HETATM   11  N   UNL     1      -9.705   8.454  66.231  1.00  0.00    -0.233 NA 
BRANCH   9  12
HETATM   12  N   UNL     1     -11.037   7.189  67.656  1.00  0.00    -0.554 N  
HETATM   13  H   UNL     1     -11.636   6.602  67.077  1.00  0.00     0.000 HD 
BRANCH  12  14
HETATM   14  S   UNL     1     -10.521   6.741  69.189  1.00  0.00    -0.230 S  
HETATM   15  O   UNL     1     -11.623   6.701  70.128  1.00  0.00    -0.382 OA 
HETATM   16  O   UNL     1      -9.342   7.530  69.470  1.00  0.00    -0.153 OA 
BRANCH  14  17
HETATM   17  C   UNL     1      -9.951   5.062  68.962  1.00  0.00    -0.181 A  
HETATM   18  C   UNL     1      -9.659   4.603  67.674  1.00  0.00    -0.200 A  
HETATM   19  C   UNL     1      -9.205   3.297  67.498  1.00  0.00    -0.233 A  
HETATM   20  C   UNL     1      -9.037   2.460  68.603  1.00  0.00    -0.200 A  
HETATM   21  C   UNL     1      -9.302   2.931  69.889  1.00  0.00    -0.213 A  
HETATM   22  C   UNL     1      -9.745   4.241  70.075  1.00  0.00    -0.287 A  
ENDBRANCH  14  17
ENDBRANCH  12  14
ENDBRANCH   9  12
ENDBRANCH   5   6
ENDBRANCH   4   5
ENDBRANCH   3   4
ENDBRANCH   2   3
TORSDOF 7
ENDMDL
MODEL      180
REMARK 921   NORMALIZED FREE ENERGY PREDICTED BY IDOCK:   -3.59 KCAL/MOL
REMARK 922        TOTAL FREE ENERGY PREDICTED BY IDOCK:   -5.60 KCAL/MOL
REMARK 923 INTER-LIGAND FREE ENERGY PREDICTED BY IDOCK:   -5.14 KCAL/MOL
REMARK 924 INTRA-LIGAND FREE ENERGY PREDICTED BY IDOCK:   -0.46 KCAL/MOL
REMARK 927      BINDING AFFINITY PREDICTED BY RF-SCORE:    0.00 PKD
ROOT
HETATM    1  C   UNL     1     -10.607  17.351  65.882  1.00  0.00    -0.200 C  
HETATM    2  O   UNL     1     -10.893  16.990  64.540  1.00  0.00    -0.825 OA 
ENDROOT
BRANCH   2   3
HETATM    3  C   UNL     1     -11.984  16.071  64.442  1.00  0.00     0.070 C  
BRANCH   3   4
HETATM    4  C   UNL     1     -11.632  14.863  65.300  1.00  0.00    -0.300 C  
BRANCH   4   5
HETATM    5  O   UNL     1     -11.275  13.724  64.508  1.00  0.00    -0.362 OA 
BRANCH   5   6
HETATM    6  C   UNL     1     -11.038  12.591  65.234  1.00  0.00    -0.297 A  
HETATM    7  C   UNL     1     -10.173  11.565  64.908  1.00  0.00    -0.275 A  
HETATM    8  N   UNL     1      -9.965  10.476  65.670  1.00  0.00    -0.254 NA 
HETATM    9  C   UNL     1     -10.669  10.421  66.796  1.00  0.00    -0.168 A  
HETATM   10  C   UNL     1     -11.709  12.406  66.429  1.00  0.00    -0.391 A  
HETATM   11  N   UNL     1     -11.553  11.323  67.232  1.00  0.00    -0.543 NA 
BRANCH   9  12
HETATM   12  N   UNL     1     -10.421   9.332  67.626  1.00  0.00    -0.253 N  
HETATM   13  H   UNL     1     -11.111   8.605  67.812  1.00  0.00     0.000 HD 
BRANCH  12  14
HETATM   14  S   UNL     1      -8.881   9.324  68.293  1.00  0.00    -0.128 S  
HETATM   15  O   UNL     1      -8.406  10.670  68.543  1.00  0.00    -0.116 OA 
HETATM   16  O   UNL     1      -8.097   8.401  67.501  1.00  0.00    -0.108 OA 
BRANCH  14  17
HETATM   17  C   UNL     1      -9.118   8.539  69.880  1.00  0.00    -0.150 A  
HETATM   18  C   UNL     1     -10.401   8.135  70.263  1.00  0.00    -0.209 A  
HETATM   19  C   UNL     1     -10.585   7.514  71.497  1.00  0.00    -0.236 A  
HETATM   20  C   UNL     1      -9.492   7.289  72.337  1.00  0.00    -0.178 A  
HETATM   21  C   UNL     1      -8.209   7.667  71.939  1.00  0.00    -0.121 A  
HETATM   22  C   UNL     1      -8.015   8.279  70.700  1.00  0.00    -0.094 A  
ENDBRANCH  14  17
ENDBRANCH  12  14
ENDBRANCH   9  12
ENDBRANCH   5   6
ENDBRANCH   4   5
ENDBRANCH   3   4
ENDBRANCH   2   3
TORSDOF 7
ENDMDL
MODEL      181
REMARK 921   NORMALIZED FREE ENERGY PREDICTED BY IDOCK:   -3.59 KCAL/MOL
REMARK 922        TOTAL FREE ENERGY PREDICTED BY IDOCK:   -5.59 KCAL/MOL
REMARK 923 INTER-LIGAND FREE ENERGY PREDICTED BY IDOCK:   -5.43 KCAL/MOL
REMARK 924 INTRA-LIGAND FREE ENERGY PREDICTED BY IDOCK:   -0.16 KCAL/MOL
REMARK 927      BINDING AFFINITY PREDICTED BY RF-SCORE:    0.00 PKD
ROOT
HETATM    1  C   UNL     1      -6.655   9.995  64.056  1.00  0.00    -0.130 C  
HETATM    2  O   UNL     1      -7.388  10.013  62.842  1.00  0.00    -0.123 OA 
ENDROOT
BRANCH   2   3
HETATM    3  C   UNL     1      -8.619  10.733  62.957  1.00  0.00    -0.162 C  
BRANCH   3   4
HETATM    4  C   UNL     1      -9.178  10.446  64.345  1.00  0.00    -0.251 C  
BRANCH   4   5
HETATM    5  O   UNL     1     -10.515  10.933  64.498  1.00  0.00    -0.346 OA 
BRANCH   5   6
HETATM    6  C   UNL     1     -10.603  12.122  65.165  1.00  0.00    -0.286 A  
HETATM    7  C   UNL     1     -11.281  13.254  64.755  1.00  0.00    -0.331 A  
HETATM    8  N   UNL     1     -11.348  14.397  65.462  1.00  0.00    -0.326 NA 
HETATM    9  C   UNL     1     -10.696  14.395  66.619  1.00  0.00    -0.292 A  
HETATM   10  C   UNL     1      -9.966  12.257  66.385  1.00  0.00    -0.228 A  
HETATM   11  N   UNL     1      -9.985  13.388  67.136  1.00  0.00    -0.238 NA 
BRANCH   9  12
HETATM   12  N   UNL     1     -10.807  15.548  67.391  1.00  0.00    -0.309 N  
HETATM   13  H   UNL     1     -11.343  15.588  68.257  1.00  0.00     0.000 HD 
BRANCH  12  14
HETATM   14  S   UNL     1      -9.977  16.866  66.766  1.00  0.00    -0.300 S  
HETATM   15  O   UNL     1     -10.483  18.113  67.303  1.00  0.00    -0.376 OA 
HETATM   16  O   UNL     1      -9.897  16.658  65.337  1.00  0.00    -0.538 OA 
BRANCH  14  17
HETATM   17  C   UNL     1      -8.318  16.649  67.393  1.00  0.00    -0.173 A  
HETATM   18  C   UNL     1      -7.227  16.930  66.563  1.00  0.00    -0.297 A  
HETATM   19  C   UNL     1      -5.933  16.770  67.056  1.00  0.00    -0.213 A  
HETATM   20  C   UNL     1      -5.732  16.342  68.370  1.00  0.00    -0.103 A  
HETATM   21  C   UNL     1      -6.822  16.091  69.203  1.00  0.00    -0.180 A  
HETATM   22  C   UNL     1      -8.121  16.260  68.722  1.00  0.00    -0.227 A  
ENDBRANCH  14  17
ENDBRANCH  12  14
ENDBRANCH   9  12
ENDBRANCH   5   6
ENDBRANCH   4   5
ENDBRANCH   3   4
ENDBRANCH   2   3
TORSDOF 7
ENDMDL
MODEL      182
REMARK 921   NORMALIZED FREE ENERGY PREDICTED BY IDOCK:   -3.58 KCAL/MOL
REMARK 922        TOTAL FREE ENERGY PREDICTED BY IDOCK:   -5.58 KCAL/MOL
REMARK 923 INTER-LIGAND FREE ENERGY PREDICTED BY IDOCK:   -5.26 KCAL/MOL
REMARK 924 INTRA-LIGAND FREE ENERGY PREDICTED BY IDOCK:   -0.32 KCAL/MOL
REMARK 927      BINDING AFFINITY PREDICTED BY RF-SCORE:    0.00 PKD
ROOT
HETATM    1  C   UNL     1      -7.355   7.586  71.044  1.00  0.00    -0.071 C  
HETATM    2  O   UNL     1      -8.653   7.712  70.485  1.00  0.00    -0.134 OA 
ENDROOT
BRANCH   2   3
HETATM    3  C   UNL     1      -9.555   8.407  71.351  1.00  0.00    -0.194 C  
BRANCH   3   4
HETATM    4  C   UNL     1     -10.442   9.278  70.470  1.00  0.00    -0.255 C  
BRANCH   4   5
HETATM    5  O   UNL     1      -9.959   9.352  69.124  1.00  0.00    -0.170 OA 
BRANCH   5   6
HETATM    6  C   UNL     1     -10.075  10.589  68.556  1.00  0.00    -0.173 A  
HETATM    7  C   UNL     1     -11.199  11.122  67.955  1.00  0.00    -0.296 A  
HETATM    8  N   UNL     1     -11.262  12.357  67.425  1.00  0.00    -0.278 NA 
HETATM    9  C   UNL     1     -10.143  13.070  67.496  1.00  0.00    -0.218 A  
HETATM   10  C   UNL     1      -8.981  11.435  68.560  1.00  0.00    -0.158 A  
HETATM   11  N   UNL     1      -8.979  12.684  68.027  1.00  0.00    -0.193 NA 
BRANCH   9  12
HETATM   12  N   UNL     1     -10.210  14.372  67.007  1.00  0.00    -0.260 N  
HETATM   13  H   UNL     1     -10.109  14.601  66.019  1.00  0.00     0.000 HD 
BRANCH  12  14
HETATM   14  S   UNL     1     -10.470  15.530  68.194  1.00  0.00    -0.266 S  
HETATM   15  O   UNL     1      -9.707  15.240  69.392  1.00  0.00    -0.237 OA 
HETATM   16  O   UNL     1     -11.901  15.730  68.263  1.00  0.00    -0.301 OA 
BRANCH  14  17
HETATM   17  C   UNL     1      -9.794  17.020  67.478  1.00  0.00    -0.258 A  
HETATM   18  C   UNL     1     -10.579  18.176  67.428  1.00  0.00    -0.406 A  
HETATM   19  C   UNL     1     -10.048  19.342  66.877  1.00  0.00    -0.491 A  
HETATM   20  C   UNL     1      -8.740  19.353  66.390  1.00  0.00    -0.376 A  
HETATM   21  C   UNL     1      -7.950  18.206  66.469  1.00  0.00    -0.290 A  
HETATM   22  C   UNL     1      -8.470  17.038  67.029  1.00  0.00    -0.234 A  
ENDBRANCH  14  17
ENDBRANCH  12  14
ENDBRANCH   9  12
ENDBRANCH   5   6
ENDBRANCH   4   5
ENDBRANCH   3   4
ENDBRANCH   2   3
TORSDOF 7
ENDMDL
MODEL      183
REMARK 921   NORMALIZED FREE ENERGY PREDICTED BY IDOCK:   -3.57 KCAL/MOL
REMARK 922        TOTAL FREE ENERGY PREDICTED BY IDOCK:   -5.57 KCAL/MOL
REMARK 923 INTER-LIGAND FREE ENERGY PREDICTED BY IDOCK:   -5.05 KCAL/MOL
REMARK 924 INTRA-LIGAND FREE ENERGY PREDICTED BY IDOCK:   -0.52 KCAL/MOL
REMARK 927      BINDING AFFINITY PREDICTED BY RF-SCORE:    0.00 PKD
ROOT
HETATM    1  C   UNL     1     -10.806  16.826  64.990  1.00  0.00    -0.117 C  
HETATM    2  O   UNL     1     -11.675  16.401  63.952  1.00  0.00    -1.085 OA 
ENDROOT
BRANCH   2   3
HETATM    3  C   UNL     1     -12.151  15.067  64.150  1.00  0.00    -0.223 C  
BRANCH   3   4
HETATM    4  C   UNL     1     -11.346  14.468  65.295  1.00  0.00    -0.353 C  
BRANCH   4   5
HETATM    5  O   UNL     1     -10.931  13.125  65.020  1.00  0.00    -0.286 OA 
BRANCH   5   6
HETATM    6  C   UNL     1     -10.475  12.446  66.114  1.00  0.00    -0.248 A  
HETATM    7  C   UNL     1      -9.451  11.519  66.144  1.00  0.00    -0.220 A  
HETATM    8  N   UNL     1      -9.030  10.890  67.257  1.00  0.00    -0.137 NA 
HETATM    9  C   UNL     1      -9.678  11.204  68.373  1.00  0.00    -0.191 A  
HETATM   10  C   UNL     1     -11.064  12.677  67.342  1.00  0.00    -0.273 A  
HETATM   11  N   UNL     1     -10.694  12.062  68.495  1.00  0.00    -0.226 NA 
BRANCH   9  12
HETATM   12  N   UNL     1      -9.214  10.608  69.543  1.00  0.00    -0.411 N  
HETATM   13  H   UNL     1      -8.441  10.985  70.091  1.00  0.00     0.000 HD 
BRANCH  12  14
HETATM   14  S   UNL     1     -10.044   9.213  69.970  1.00  0.00    -0.221 S  
HETATM   15  O   UNL     1     -10.900   8.757  68.894  1.00  0.00    -0.143 OA 
HETATM   16  O   UNL     1     -10.584   9.448  71.291  1.00  0.00    -0.313 OA 
BRANCH  14  17
HETATM   17  C   UNL     1      -8.747   8.001  70.171  1.00  0.00    -0.135 A  
HETATM   18  C   UNL     1      -8.931   6.939  71.062  1.00  0.00    -0.151 A  
HETATM   19  C   UNL     1      -7.922   5.988  71.212  1.00  0.00    -0.113 A  
HETATM   20  C   UNL     1      -6.744   6.095  70.470  1.00  0.00    -0.053 A  
HETATM   21  C   UNL     1      -6.577   7.140  69.561  1.00  0.00    -0.044 A  
HETATM   22  C   UNL     1      -7.587   8.089  69.396  1.00  0.00    -0.102 A  
ENDBRANCH  14  17
ENDBRANCH  12  14
ENDBRANCH   9  12
ENDBRANCH   5   6
ENDBRANCH   4   5
ENDBRANCH   3   4
ENDBRANCH   2   3
TORSDOF 7
ENDMDL
MODEL      184
REMARK 921   NORMALIZED FREE ENERGY PREDICTED BY IDOCK:   -3.56 KCAL/MOL
REMARK 922        TOTAL FREE ENERGY PREDICTED BY IDOCK:   -5.56 KCAL/MOL
REMARK 923 INTER-LIGAND FREE ENERGY PREDICTED BY IDOCK:   -5.10 KCAL/MOL
REMARK 924 INTRA-LIGAND FREE ENERGY PREDICTED BY IDOCK:   -0.45 KCAL/MOL
REMARK 927      BINDING AFFINITY PREDICTED BY RF-SCORE:    0.00 PKD
ROOT
HETATM    1  C   UNL     1      -9.540  11.064  62.720  1.00  0.00    -0.306 C  
HETATM    2  O   UNL     1     -10.000  12.193  63.444  1.00  0.00    -0.407 OA 
ENDROOT
BRANCH   2   3
HETATM    3  C   UNL     1     -11.423  12.210  63.586  1.00  0.00    -0.481 C  
BRANCH   3   4
HETATM    4  C   UNL     1     -11.725  12.366  65.070  1.00  0.00    -0.371 C  
BRANCH   4   5
HETATM    5  O   UNL     1     -10.533  12.468  65.856  1.00  0.00    -0.255 OA 
BRANCH   5   6
HETATM    6  C   UNL     1     -10.195  11.317  66.510  1.00  0.00    -0.228 A  
HETATM    7  C   UNL     1      -8.989  10.646  66.435  1.00  0.00    -0.162 A  
HETATM    8  N   UNL     1      -8.703   9.522  67.117  1.00  0.00    -0.131 NA 
HETATM    9  C   UNL     1      -9.678   9.056  67.890  1.00  0.00    -0.155 A  
HETATM   10  C   UNL     1     -11.121  10.723  67.347  1.00  0.00    -0.296 A  
HETATM   11  N   UNL     1     -10.896   9.582  68.048  1.00  0.00    -0.209 NA 
BRANCH   9  12
HETATM   12  N   UNL     1      -9.377   7.928  68.649  1.00  0.00    -0.146 N  
HETATM   13  H   UNL     1      -9.502   6.976  68.305  1.00  0.00     0.000 HD 
BRANCH  12  14
HETATM   14  S   UNL     1      -8.791   8.278  70.182  1.00  0.00    -0.143 S  
HETATM   15  O   UNL     1      -9.072   9.649  70.555  1.00  0.00    -0.242 OA 
HETATM   16  O   UNL     1      -7.439   7.764  70.229  1.00  0.00    -0.076 OA 
BRANCH  14  17
HETATM   17  C   UNL     1      -9.760   7.223  71.250  1.00  0.00    -0.166 A  
HETATM   18  C   UNL     1     -11.156   7.263  71.172  1.00  0.00    -0.275 A  
HETATM   19  C   UNL     1     -11.912   6.434  71.999  1.00  0.00    -0.375 A  
HETATM   20  C   UNL     1     -11.277   5.565  72.889  1.00  0.00    -0.358 A  
HETATM   21  C   UNL     1      -9.884   5.507  72.942  1.00  0.00    -0.182 A  
HETATM   22  C   UNL     1      -9.119   6.326  72.109  1.00  0.00    -0.141 A  
ENDBRANCH  14  17
ENDBRANCH  12  14
ENDBRANCH   9  12
ENDBRANCH   5   6
ENDBRANCH   4   5
ENDBRANCH   3   4
ENDBRANCH   2   3
TORSDOF 7
ENDMDL
MODEL      185
REMARK 921   NORMALIZED FREE ENERGY PREDICTED BY IDOCK:   -3.56 KCAL/MOL
REMARK 922        TOTAL FREE ENERGY PREDICTED BY IDOCK:   -5.55 KCAL/MOL
REMARK 923 INTER-LIGAND FREE ENERGY PREDICTED BY IDOCK:   -5.41 KCAL/MOL
REMARK 924 INTRA-LIGAND FREE ENERGY PREDICTED BY IDOCK:   -0.14 KCAL/MOL
REMARK 927      BINDING AFFINITY PREDICTED BY RF-SCORE:    0.00 PKD
ROOT
HETATM    1  C   UNL     1      -9.606   8.403  70.648  1.00  0.00    -0.171 C  
HETATM    2  O   UNL     1     -10.231   9.126  71.696  1.00  0.00    -0.336 OA 
ENDROOT
BRANCH   2   3
HETATM    3  C   UNL     1     -11.234  10.025  71.216  1.00  0.00    -0.200 C  
BRANCH   3   4
HETATM    4  C   UNL     1     -11.236   9.928  69.696  1.00  0.00    -0.208 C  
BRANCH   4   5
HETATM    5  O   UNL     1     -12.067  10.925  69.092  1.00  0.00    -0.362 OA 
BRANCH   5   6
HETATM    6  C   UNL     1     -11.416  12.087  68.790  1.00  0.00    -0.300 A  
HETATM    7  C   UNL     1     -10.070  12.234  68.516  1.00  0.00    -0.187 A  
HETATM    8  N   UNL     1      -9.482  13.404  68.206  1.00  0.00    -0.214 NA 
HETATM    9  C   UNL     1     -10.285  14.462  68.186  1.00  0.00    -0.232 A  
HETATM   10  C   UNL     1     -12.135  13.266  68.737  1.00  0.00    -0.219 A  
HETATM   11  N   UNL     1     -11.596  14.478  68.446  1.00  0.00    -0.309 NA 
BRANCH   9  12
HETATM   12  N   UNL     1      -9.705  15.670  67.807  1.00  0.00    -0.218 N  
HETATM   13  H   UNL     1      -9.701  16.496  68.403  1.00  0.00     0.000 HD 
BRANCH  12  14
HETATM   14  S   UNL     1      -9.013  15.640  66.278  1.00  0.00    -0.323 S  
HETATM   15  O   UNL     1      -7.792  14.860  66.266  1.00  0.00     0.557 OA 
HETATM   16  O   UNL     1      -9.019  17.005  65.800  1.00  0.00    -0.526 OA 
BRANCH  14  17
HETATM   17  C   UNL     1     -10.217  14.762  65.292  1.00  0.00    -0.384 A  
HETATM   18  C   UNL     1     -11.407  15.401  64.931  1.00  0.00    -0.367 A  
HETATM   19  C   UNL     1     -12.342  14.719  64.154  1.00  0.00    -0.259 A  
HETATM   20  C   UNL     1     -12.084  13.413  63.734  1.00  0.00    -0.516 A  
HETATM   21  C   UNL     1     -10.883  12.790  64.072  1.00  0.00    -0.458 A  
HETATM   22  C   UNL     1      -9.936  13.469  64.840  1.00  0.00    -0.176 A  
ENDBRANCH  14  17
ENDBRANCH  12  14
ENDBRANCH   9  12
ENDBRANCH   5   6
ENDBRANCH   4   5
ENDBRANCH   3   4
ENDBRANCH   2   3
TORSDOF 7
ENDMDL
MODEL      186
REMARK 921   NORMALIZED FREE ENERGY PREDICTED BY IDOCK:   -3.55 KCAL/MOL
REMARK 922        TOTAL FREE ENERGY PREDICTED BY IDOCK:   -5.54 KCAL/MOL
REMARK 923 INTER-LIGAND FREE ENERGY PREDICTED BY IDOCK:   -5.30 KCAL/MOL
REMARK 924 INTRA-LIGAND FREE ENERGY PREDICTED BY IDOCK:   -0.24 KCAL/MOL
REMARK 927      BINDING AFFINITY PREDICTED BY RF-SCORE:    0.00 PKD
ROOT
HETATM    1  C   UNL     1      -8.060   7.629  67.620  1.00  0.00    -0.121 C  
HETATM    2  O   UNL     1      -9.071   8.367  66.953  1.00  0.00    -0.137 OA 
ENDROOT
BRANCH   2   3
HETATM    3  C   UNL     1      -8.855   8.436  65.541  1.00  0.00    -0.130 C  
BRANCH   3   4
HETATM    4  C   UNL     1      -8.996   9.897  65.136  1.00  0.00    -0.198 C  
BRANCH   4   5
HETATM    5  O   UNL     1     -10.250  10.453  65.547  1.00  0.00    -0.278 OA 
BRANCH   5   6
HETATM    6  C   UNL     1     -10.141  11.461  66.463  1.00  0.00    -0.215 A  
HETATM    7  C   UNL     1     -10.699  11.495  67.726  1.00  0.00    -0.207 A  
HETATM    8  N   UNL     1     -10.545  12.510  68.596  1.00  0.00    -0.230 NA 
HETATM    9  C   UNL     1      -9.810  13.530  68.164  1.00  0.00    -0.237 A  
HETATM   10  C   UNL     1      -9.404  12.585  66.139  1.00  0.00    -0.134 A  
HETATM   11  N   UNL     1      -9.226  13.646  66.968  1.00  0.00    -0.242 NA 
BRANCH   9  12
HETATM   12  N   UNL     1      -9.590  14.560  69.074  1.00  0.00    -0.366 N  
HETATM   13  H   UNL     1      -8.808  14.567  69.728  1.00  0.00     0.000 HD 
BRANCH  12  14
HETATM   14  S   UNL     1     -10.729  15.790  68.995  1.00  0.00    -0.255 S  
HETATM   15  O   UNL     1     -11.151  16.206  70.317  1.00  0.00    -0.348 OA 
HETATM   16  O   UNL     1     -11.703  15.382  68.006  1.00  0.00    -0.336 OA 
BRANCH  14  17
HETATM   17  C   UNL     1      -9.824  17.150  68.271  1.00  0.00    -0.288 A  
HETATM   18  C   UNL     1      -9.129  16.953  67.073  1.00  0.00    -0.240 A  
HETATM   19  C   UNL     1      -8.431  18.017  66.503  1.00  0.00    -0.285 A  
HETATM   20  C   UNL     1      -8.438  19.269  67.121  1.00  0.00    -0.310 A  
HETATM   21  C   UNL     1      -9.157  19.469  68.299  1.00  0.00    -0.398 A  
HETATM   22  C   UNL     1      -9.867  18.412  68.871  1.00  0.00    -0.350 A  
ENDBRANCH  14  17
ENDBRANCH  12  14
ENDBRANCH   9  12
ENDBRANCH   5   6
ENDBRANCH   4   5
ENDBRANCH   3   4
ENDBRANCH   2   3
TORSDOF 7
ENDMDL
MODEL      187
REMARK 921   NORMALIZED FREE ENERGY PREDICTED BY IDOCK:   -3.55 KCAL/MOL
REMARK 922        TOTAL FREE ENERGY PREDICTED BY IDOCK:   -5.53 KCAL/MOL
REMARK 923 INTER-LIGAND FREE ENERGY PREDICTED BY IDOCK:   -5.63 KCAL/MOL
REMARK 924 INTRA-LIGAND FREE ENERGY PREDICTED BY IDOCK:    0.09 KCAL/MOL
REMARK 927      BINDING AFFINITY PREDICTED BY RF-SCORE:    0.00 PKD
ROOT
HETATM    1  C   UNL     1      -6.690   7.310  62.435  1.00  0.00    -0.068 C  
HETATM    2  O   UNL     1      -6.212   8.642  62.349  1.00  0.00    -0.094 OA 
ENDROOT
BRANCH   2   3
HETATM    3  C   UNL     1      -6.998   9.555  63.120  1.00  0.00    -0.102 C  
BRANCH   3   4
HETATM    4  C   UNL     1      -8.460   9.256  62.818  1.00  0.00    -0.211 C  
BRANCH   4   5
HETATM    5  O   UNL     1      -9.226  10.450  62.624  1.00  0.00    -0.246 OA 
BRANCH   5   6
HETATM    6  C   UNL     1      -9.797  10.939  63.764  1.00  0.00    -0.337 A  
HETATM    7  C   UNL     1     -10.339  12.197  63.945  1.00  0.00    -0.415 A  
HETATM    8  N   UNL     1     -10.906  12.622  65.089  1.00  0.00    -0.283 NA 
HETATM    9  C   UNL     1     -10.912  11.745  66.086  1.00  0.00    -0.307 A  
HETATM   10  C   UNL     1      -9.866  10.129  64.882  1.00  0.00    -0.319 A  
HETATM   11  N   UNL     1     -10.411  10.506  66.067  1.00  0.00    -0.197 NA 
BRANCH   9  12
HETATM   12  N   UNL     1     -11.550  12.147  67.257  1.00  0.00    -0.340 N  
HETATM   13  H   UNL     1     -12.549  12.341  67.308  1.00  0.00     0.000 HD 
BRANCH  12  14
HETATM   14  S   UNL     1     -10.522  12.281  68.577  1.00  0.00    -0.216 S  
HETATM   15  O   UNL     1     -10.630  13.585  69.201  1.00  0.00    -0.157 OA 
HETATM   16  O   UNL     1      -9.237  11.774  68.149  1.00  0.00    -0.174 OA 
BRANCH  14  17
HETATM   17  C   UNL     1     -11.169  11.082  69.733  1.00  0.00    -0.268 A  
HETATM   18  C   UNL     1     -12.488  11.203  70.183  1.00  0.00    -0.316 A  
HETATM   19  C   UNL     1     -12.996  10.262  71.078  1.00  0.00    -0.488 A  
HETATM   20  C   UNL     1     -12.194   9.204  71.510  1.00  0.00    -0.422 A  
HETATM   21  C   UNL     1     -10.889   9.071  71.036  1.00  0.00    -0.345 A  
HETATM   22  C   UNL     1     -10.376  10.002  70.131  1.00  0.00    -0.321 A  
ENDBRANCH  14  17
ENDBRANCH  12  14
ENDBRANCH   9  12
ENDBRANCH   5   6
ENDBRANCH   4   5
ENDBRANCH   3   4
ENDBRANCH   2   3
TORSDOF 7
ENDMDL
MODEL      188
REMARK 921   NORMALIZED FREE ENERGY PREDICTED BY IDOCK:   -3.55 KCAL/MOL
REMARK 922        TOTAL FREE ENERGY PREDICTED BY IDOCK:   -5.53 KCAL/MOL
REMARK 923 INTER-LIGAND FREE ENERGY PREDICTED BY IDOCK:   -5.06 KCAL/MOL
REMARK 924 INTRA-LIGAND FREE ENERGY PREDICTED BY IDOCK:   -0.47 KCAL/MOL
REMARK 927      BINDING AFFINITY PREDICTED BY RF-SCORE:    0.00 PKD
ROOT
HETATM    1  C   UNL     1      -7.306   6.059  74.014  1.00  0.00    -0.088 C  
HETATM    2  O   UNL     1      -7.714   4.961  73.213  1.00  0.00    -0.090 OA 
ENDROOT
BRANCH   2   3
HETATM    3  C   UNL     1      -8.431   5.372  72.046  1.00  0.00    -0.127 C  
BRANCH   3   4
HETATM    4  C   UNL     1      -8.336   6.890  71.972  1.00  0.00    -0.110 C  
BRANCH   4   5
HETATM    5  O   UNL     1      -7.623   7.331  70.812  1.00  0.00    -0.082 OA 
BRANCH   5   6
HETATM    6  C   UNL     1      -8.396   7.989  69.898  1.00  0.00    -0.121 A  
HETATM    7  C   UNL     1      -8.004   8.435  68.650  1.00  0.00    -0.121 A  
HETATM    8  N   UNL     1      -8.814   9.065  67.781  1.00  0.00    -0.125 NA 
HETATM    9  C   UNL     1     -10.061   9.260  68.196  1.00  0.00    -0.187 A  
HETATM   10  C   UNL     1      -9.716   8.260  70.205  1.00  0.00    -0.176 A  
HETATM   11  N   UNL     1     -10.577   8.905  69.376  1.00  0.00    -0.229 NA 
BRANCH   9  12
HETATM   12  N   UNL     1     -10.929   9.856  67.284  1.00  0.00    -0.280 N  
HETATM   13  H   UNL     1     -11.336   9.355  66.495  1.00  0.00     0.000 HD 
BRANCH  12  14
HETATM   14  S   UNL     1     -11.243  11.474  67.603  1.00  0.00    -0.290 S  
HETATM   15  O   UNL     1     -10.071  12.147  68.126  1.00  0.00    -0.194 OA 
HETATM   16  O   UNL     1     -12.497  11.512  68.324  1.00  0.00    -0.295 OA 
BRANCH  14  17
HETATM   17  C   UNL     1     -11.577  12.160  65.988  1.00  0.00    -0.358 A  
HETATM   18  C   UNL     1     -11.286  11.405  64.847  1.00  0.00    -0.180 A  
HETATM   19  C   UNL     1     -11.555  11.937  63.586  1.00  0.00    -0.559 A  
HETATM   20  C   UNL     1     -12.121  13.209  63.470  1.00  0.00    -0.585 A  
HETATM   21  C   UNL     1     -12.437  13.945  64.611  1.00  0.00    -0.361 A  
HETATM   22  C   UNL     1     -12.181  13.416  65.877  1.00  0.00    -0.502 A  
ENDBRANCH  14  17
ENDBRANCH  12  14
ENDBRANCH   9  12
ENDBRANCH   5   6
ENDBRANCH   4   5
ENDBRANCH   3   4
ENDBRANCH   2   3
TORSDOF 7
ENDMDL
MODEL      189
REMARK 921   NORMALIZED FREE ENERGY PREDICTED BY IDOCK:   -3.52 KCAL/MOL
REMARK 922        TOTAL FREE ENERGY PREDICTED BY IDOCK:   -5.50 KCAL/MOL
REMARK 923 INTER-LIGAND FREE ENERGY PREDICTED BY IDOCK:   -4.85 KCAL/MOL
REMARK 924 INTRA-LIGAND FREE ENERGY PREDICTED BY IDOCK:   -0.65 KCAL/MOL
REMARK 927      BINDING AFFINITY PREDICTED BY RF-SCORE:    0.00 PKD
ROOT
HETATM    1  C   UNL     1      -5.701   8.744  64.468  1.00  0.00    -0.064 C  
HETATM    2  O   UNL     1      -5.975   7.502  63.841  1.00  0.00    -0.047 OA 
ENDROOT
BRANCH   2   3
HETATM    3  C   UNL     1      -6.046   6.422  64.776  1.00  0.00    -0.030 C  
BRANCH   3   4
HETATM    4  C   UNL     1      -6.589   6.992  66.080  1.00  0.00    -0.052 C  
BRANCH   4   5
HETATM    5  O   UNL     1      -7.947   6.602  66.315  1.00  0.00    -0.102 OA 
BRANCH   5   6
HETATM    6  C   UNL     1      -8.772   7.633  66.662  1.00  0.00    -0.141 A  
HETATM    7  C   UNL     1      -9.168   8.684  65.857  1.00  0.00    -0.202 A  
HETATM    8  N   UNL     1      -9.999   9.667  66.247  1.00  0.00    -0.256 NA 
HETATM    9  C   UNL     1     -10.434   9.589  67.499  1.00  0.00    -0.275 A  
HETATM   10  C   UNL     1      -9.295   7.675  67.941  1.00  0.00    -0.139 A  
HETATM   11  N   UNL     1     -10.125   8.648  68.397  1.00  0.00    -0.185 NA 
BRANCH   9  12
HETATM   12  N   UNL     1     -11.343  10.564  67.899  1.00  0.00    -0.416 N  
HETATM   13  H   UNL     1     -12.351  10.410  67.921  1.00  0.00     0.000 HD 
BRANCH  12  14
HETATM   14  S   UNL     1     -10.628  12.017  68.342  1.00  0.00    -0.223 S  
HETATM   15  O   UNL     1      -9.196  11.873  68.509  1.00  0.00    -0.193 OA 
HETATM   16  O   UNL     1     -11.442  12.565  69.405  1.00  0.00    -0.270 OA 
BRANCH  14  17
HETATM   17  C   UNL     1     -10.898  13.064  66.920  1.00  0.00    -0.264 A  
HETATM   18  C   UNL     1     -12.077  12.930  66.180  1.00  0.00    -0.458 A  
HETATM   19  C   UNL     1     -12.291  13.754  65.076  1.00  0.00    -0.456 A  
HETATM   20  C   UNL     1     -11.338  14.711  64.722  1.00  0.00    -0.398 A  
HETATM   21  C   UNL     1     -10.176  14.861  65.480  1.00  0.00    -0.401 A  
HETATM   22  C   UNL     1      -9.959  14.048  66.593  1.00  0.00    -0.280 A  
ENDBRANCH  14  17
ENDBRANCH  12  14
ENDBRANCH   9  12
ENDBRANCH   5   6
ENDBRANCH   4   5
ENDBRANCH   3   4
ENDBRANCH   2   3
TORSDOF 7
ENDMDL
MODEL      190
REMARK 921   NORMALIZED FREE ENERGY PREDICTED BY IDOCK:   -3.51 KCAL/MOL
REMARK 922        TOTAL FREE ENERGY PREDICTED BY IDOCK:   -5.49 KCAL/MOL
REMARK 923 INTER-LIGAND FREE ENERGY PREDICTED BY IDOCK:   -5.13 KCAL/MOL
REMARK 924 INTRA-LIGAND FREE ENERGY PREDICTED BY IDOCK:   -0.36 KCAL/MOL
REMARK 927      BINDING AFFINITY PREDICTED BY RF-SCORE:    0.00 PKD
ROOT
HETATM    1  C   UNL     1     -11.936  12.571  69.286  1.00  0.00    -0.250 C  
HETATM    2  O   UNL     1     -11.966  13.773  68.533  1.00  0.00    -0.356 OA 
ENDROOT
BRANCH   2   3
HETATM    3  C   UNL     1     -11.502  13.591  67.193  1.00  0.00    -0.338 C  
BRANCH   3   4
HETATM    4  C   UNL     1     -11.533  12.095  66.906  1.00  0.00    -0.351 C  
BRANCH   4   5
HETATM    5  O   UNL     1     -10.299  11.625  66.355  1.00  0.00    -0.217 OA 
BRANCH   5   6
HETATM    6  C   UNL     1      -9.871  10.436  66.876  1.00  0.00    -0.191 A  
HETATM    7  C   UNL     1      -9.510  10.189  68.186  1.00  0.00    -0.142 A  
HETATM    8  N   UNL     1      -9.110   8.990  68.649  1.00  0.00    -0.137 NA 
HETATM    9  C   UNL     1      -9.064   8.014  67.750  1.00  0.00    -0.131 A  
HETATM   10  C   UNL     1      -9.775   9.335  66.045  1.00  0.00    -0.289 A  
HETATM   11  N   UNL     1      -9.364   8.106  66.451  1.00  0.00    -0.200 NA 
BRANCH   9  12
HETATM   12  N   UNL     1      -8.712   6.753  68.226  1.00  0.00    -0.123 N  
HETATM   13  H   UNL     1      -7.747   6.433  68.292  1.00  0.00     0.000 HD 
BRANCH  12  14
HETATM   14  S   UNL     1     -10.024   5.809  68.679  1.00  0.00    -0.168 S  
HETATM   15  O   UNL     1      -9.648   4.417  68.825  1.00  0.00    -0.152 OA 
HETATM   16  O   UNL     1     -11.120   6.190  67.816  1.00  0.00    -0.326 OA 
BRANCH  14  17
HETATM   17  C   UNL     1     -10.436   6.423  70.306  1.00  0.00    -0.219 A  
HETATM   18  C   UNL     1     -11.767   6.729  70.608  1.00  0.00    -0.440 A  
HETATM   19  C   UNL     1     -12.090   7.199  71.880  1.00  0.00    -0.357 A  
HETATM   20  C   UNL     1     -11.092   7.352  72.844  1.00  0.00    -0.397 A  
HETATM   21  C   UNL     1      -9.770   7.017  72.548  1.00  0.00    -0.170 A  
HETATM   22  C   UNL     1      -9.440   6.535  71.280  1.00  0.00    -0.172 A  
ENDBRANCH  14  17
ENDBRANCH  12  14
ENDBRANCH   9  12
ENDBRANCH   5   6
ENDBRANCH   4   5
ENDBRANCH   3   4
ENDBRANCH   2   3
TORSDOF 7
ENDMDL
MODEL      191
REMARK 921   NORMALIZED FREE ENERGY PREDICTED BY IDOCK:   -3.50 KCAL/MOL
REMARK 922        TOTAL FREE ENERGY PREDICTED BY IDOCK:   -5.47 KCAL/MOL
REMARK 923 INTER-LIGAND FREE ENERGY PREDICTED BY IDOCK:   -5.20 KCAL/MOL
REMARK 924 INTRA-LIGAND FREE ENERGY PREDICTED BY IDOCK:   -0.28 KCAL/MOL
REMARK 927      BINDING AFFINITY PREDICTED BY RF-SCORE:    0.00 PKD
ROOT
HETATM    1  C   UNL     1     -10.362   1.652  74.266  1.00  0.00    -0.109 C  
HETATM    2  O   UNL     1      -9.846   2.816  73.642  1.00  0.00    -0.097 OA 
ENDROOT
BRANCH   2   3
HETATM    3  C   UNL     1     -10.165   4.010  74.363  1.00  0.00    -0.201 C  
BRANCH   3   4
HETATM    4  C   UNL     1      -9.891   5.183  73.431  1.00  0.00    -0.154 C  
BRANCH   4   5
HETATM    5  O   UNL     1     -10.955   6.142  73.444  1.00  0.00    -0.246 OA 
BRANCH   5   6
HETATM    6  C   UNL     1     -11.017   6.923  72.325  1.00  0.00    -0.242 A  
HETATM    7  C   UNL     1     -11.010   6.491  71.013  1.00  0.00    -0.265 A  
HETATM    8  N   UNL     1     -11.090   7.306  69.945  1.00  0.00    -0.242 NA 
HETATM    9  C   UNL     1     -11.170   8.603  70.219  1.00  0.00    -0.184 A  
HETATM   10  C   UNL     1     -11.101   8.295  72.467  1.00  0.00    -0.368 A  
HETATM   11  N   UNL     1     -11.169   9.168  71.429  1.00  0.00    -0.320 NA 
BRANCH   9  12
HETATM   12  N   UNL     1     -11.316   9.455  69.127  1.00  0.00    -0.439 N  
HETATM   13  H   UNL     1     -12.223   9.783  68.795  1.00  0.00     0.000 HD 
BRANCH  12  14
HETATM   14  S   UNL     1      -9.864   9.894  68.409  1.00  0.00    -0.156 S  
HETATM   15  O   UNL     1      -9.118   8.732  67.971  1.00  0.00    -0.139 OA 
HETATM   16  O   UNL     1      -9.256  10.874  69.283  1.00  0.00    -0.117 OA 
BRANCH  14  17
HETATM   17  C   UNL     1     -10.375  10.783  66.946  1.00  0.00    -0.241 A  
HETATM   18  C   UNL     1     -10.914  12.067  67.074  1.00  0.00    -0.323 A  
HETATM   19  C   UNL     1     -11.304  12.764  65.932  1.00  0.00    -0.363 A  
HETATM   20  C   UNL     1     -11.146  12.185  64.671  1.00  0.00    -0.366 A  
HETATM   21  C   UNL     1     -10.580  10.916  64.545  1.00  0.00    -0.335 A  
HETATM   22  C   UNL     1     -10.177  10.216  65.683  1.00  0.00    -0.288 A  
ENDBRANCH  14  17
ENDBRANCH  12  14
ENDBRANCH   9  12
ENDBRANCH   5   6
ENDBRANCH   4   5
ENDBRANCH   3   4
ENDBRANCH   2   3
TORSDOF 7
ENDMDL
MODEL      192
REMARK 921   NORMALIZED FREE ENERGY PREDICTED BY IDOCK:   -3.50 KCAL/MOL
REMARK 922        TOTAL FREE ENERGY PREDICTED BY IDOCK:   -5.47 KCAL/MOL
REMARK 923 INTER-LIGAND FREE ENERGY PREDICTED BY IDOCK:   -5.04 KCAL/MOL
REMARK 924 INTRA-LIGAND FREE ENERGY PREDICTED BY IDOCK:   -0.43 KCAL/MOL
REMARK 927      BINDING AFFINITY PREDICTED BY RF-SCORE:    0.00 PKD
ROOT
HETATM    1  C   UNL     1      -8.082   2.235  63.993  1.00  0.00    -0.081 C  
HETATM    2  O   UNL     1      -7.796   3.623  63.928  1.00  0.00    -0.081 OA 
ENDROOT
BRANCH   2   3
HETATM    3  C   UNL     1      -8.812   4.419  64.543  1.00  0.00    -0.148 C  
BRANCH   3   4
HETATM    4  C   UNL     1      -8.310   5.857  64.554  1.00  0.00    -0.069 C  
BRANCH   4   5
HETATM    5  O   UNL     1      -7.935   6.287  65.867  1.00  0.00    -0.106 OA 
BRANCH   5   6
HETATM    6  C   UNL     1      -8.855   7.092  66.476  1.00  0.00    -0.141 A  
HETATM    7  C   UNL     1      -9.725   6.737  67.489  1.00  0.00    -0.128 A  
HETATM    8  N   UNL     1     -10.603   7.578  68.065  1.00  0.00    -0.185 NA 
HETATM    9  C   UNL     1     -10.606   8.818  67.590  1.00  0.00    -0.213 A  
HETATM   10  C   UNL     1      -8.965   8.410  66.074  1.00  0.00    -0.184 A  
HETATM   11  N   UNL     1      -9.841   9.301  66.606  1.00  0.00    -0.224 NA 
BRANCH   9  12
HETATM   12  N   UNL     1     -11.464   9.717  68.217  1.00  0.00    -0.479 N  
HETATM   13  H   UNL     1     -12.262  10.145  67.748  1.00  0.00     0.000 HD 
BRANCH  12  14
HETATM   14  S   UNL     1     -11.066  10.032  69.817  1.00  0.00    -0.278 S  
HETATM   15  O   UNL     1      -9.631  10.057  70.010  1.00  0.00    -0.231 OA 
HETATM   16  O   UNL     1     -11.903   9.169  70.623  1.00  0.00    -0.264 OA 
BRANCH  14  17
HETATM   17  C   UNL     1     -11.670  11.693  70.078  1.00  0.00    -0.321 A  
HETATM   18  C   UNL     1     -11.342  12.696  69.160  1.00  0.00    -0.339 A  
HETATM   19  C   UNL     1     -11.821  13.990  69.358  1.00  0.00    -0.381 A  
HETATM   20  C   UNL     1     -12.629  14.276  70.461  1.00  0.00    -0.418 A  
HETATM   21  C   UNL     1     -12.978  13.266  71.358  1.00  0.00    -0.398 A  
HETATM   22  C   UNL     1     -12.512  11.965  71.160  1.00  0.00    -0.365 A  
ENDBRANCH  14  17
ENDBRANCH  12  14
ENDBRANCH   9  12
ENDBRANCH   5   6
ENDBRANCH   4   5
ENDBRANCH   3   4
ENDBRANCH   2   3
TORSDOF 7
ENDMDL
MODEL      193
REMARK 921   NORMALIZED FREE ENERGY PREDICTED BY IDOCK:   -3.48 KCAL/MOL
REMARK 922        TOTAL FREE ENERGY PREDICTED BY IDOCK:   -5.43 KCAL/MOL
REMARK 923 INTER-LIGAND FREE ENERGY PREDICTED BY IDOCK:   -5.04 KCAL/MOL
REMARK 924 INTRA-LIGAND FREE ENERGY PREDICTED BY IDOCK:   -0.39 KCAL/MOL
REMARK 927      BINDING AFFINITY PREDICTED BY RF-SCORE:    0.00 PKD
ROOT
HETATM    1  C   UNL     1      -8.430   7.985  73.916  1.00  0.00    -0.260 C  
HETATM    2  O   UNL     1      -9.582   7.207  74.199  1.00  0.00    -0.257 OA 
ENDROOT
BRANCH   2   3
HETATM    3  C   UNL     1      -9.698   6.070  73.339  1.00  0.00    -0.158 C  
BRANCH   3   4
HETATM    4  C   UNL     1     -10.962   6.261  72.511  1.00  0.00    -0.251 C  
BRANCH   4   5
HETATM    5  O   UNL     1     -11.630   7.490  72.821  1.00  0.00    -0.314 OA 
BRANCH   5   6
HETATM    6  C   UNL     1     -11.721   8.357  71.770  1.00  0.00    -0.310 A  
HETATM    7  C   UNL     1     -12.202   9.651  71.804  1.00  0.00    -0.384 A  
HETATM    8  N   UNL     1     -12.254  10.470  70.737  1.00  0.00    -0.336 NA 
HETATM    9  C   UNL     1     -11.812   9.953  69.595  1.00  0.00     0.110 A  
HETATM   10  C   UNL     1     -11.296   7.945  70.520  1.00  0.00    -0.234 A  
HETATM   11  N   UNL     1     -11.337   8.719  69.405  1.00  0.00     0.197 NA 
BRANCH   9  12
HETATM   12  N   UNL     1     -11.800  10.807  68.496  1.00  0.00    -0.453 N  
HETATM   13  H   UNL     1     -12.629  11.007  67.938  1.00  0.00     0.000 HD 
BRANCH  12  14
HETATM   14  S   UNL     1     -10.295  11.477  68.173  1.00  0.00    -0.202 S  
HETATM   15  O   UNL     1      -9.243  10.785  68.889  1.00  0.00    -0.175 OA 
HETATM   16  O   UNL     1     -10.451  12.910  68.296  1.00  0.00    -0.229 OA 
BRANCH  14  17
HETATM   17  C   UNL     1     -10.059  11.152  66.432  1.00  0.00    -0.226 A  
HETATM   18  C   UNL     1     -10.872  11.798  65.495  1.00  0.00    -0.348 A  
HETATM   19  C   UNL     1     -10.681  11.551  64.136  1.00  0.00    -0.428 A  
HETATM   20  C   UNL     1      -9.679  10.672  63.719  1.00  0.00    -0.382 A  
HETATM   21  C   UNL     1      -8.852  10.053  64.655  1.00  0.00    -0.227 A  
HETATM   22  C   UNL     1      -9.028  10.303  66.017  1.00  0.00    -0.173 A  
ENDBRANCH  14  17
ENDBRANCH  12  14
ENDBRANCH   9  12
ENDBRANCH   5   6
ENDBRANCH   4   5
ENDBRANCH   3   4
ENDBRANCH   2   3
TORSDOF 7
ENDMDL
MODEL      194
REMARK 921   NORMALIZED FREE ENERGY PREDICTED BY IDOCK:   -3.46 KCAL/MOL
REMARK 922        TOTAL FREE ENERGY PREDICTED BY IDOCK:   -5.41 KCAL/MOL
REMARK 923 INTER-LIGAND FREE ENERGY PREDICTED BY IDOCK:   -5.09 KCAL/MOL
REMARK 924 INTRA-LIGAND FREE ENERGY PREDICTED BY IDOCK:   -0.31 KCAL/MOL
REMARK 927      BINDING AFFINITY PREDICTED BY RF-SCORE:    0.00 PKD
ROOT
HETATM    1  C   UNL     1      -6.181  19.761  64.400  1.00  0.00    -0.194 C  
HETATM    2  O   UNL     1      -6.939  18.650  64.854  1.00  0.00    -0.365 OA 
ENDROOT
BRANCH   2   3
HETATM    3  C   UNL     1      -6.370  18.037  66.013  1.00  0.00    -0.253 C  
BRANCH   3   4
HETATM    4  C   UNL     1      -7.519  17.435  66.812  1.00  0.00    -0.222 C  
BRANCH   4   5
HETATM    5  O   UNL     1      -8.357  16.599  66.005  1.00  0.00    -0.402 OA 
BRANCH   5   6
HETATM    6  C   UNL     1      -8.852  15.507  66.660  1.00  0.00    -0.290 A  
HETATM    7  C   UNL     1      -9.858  14.667  66.223  1.00  0.00    -0.300 A  
HETATM    8  N   UNL     1     -10.298  13.592  66.904  1.00  0.00    -0.260 NA 
HETATM    9  C   UNL     1      -9.704  13.370  68.071  1.00  0.00    -0.222 A  
HETATM   10  C   UNL     1      -8.323  15.164  67.890  1.00  0.00    -0.149 A  
HETATM   11  N   UNL     1      -8.735  14.102  68.629  1.00  0.00    -0.160 NA 
BRANCH   9  12
HETATM   12  N   UNL     1     -10.103  12.227  68.758  1.00  0.00    -0.401 N  
HETATM   13  H   UNL     1     -10.480  12.250  69.705  1.00  0.00     0.000 HD 
BRANCH  12  14
HETATM   14  S   UNL     1      -9.907  10.807  67.885  1.00  0.00    -0.170 S  
HETATM   15  O   UNL     1      -8.596  10.739  67.271  1.00  0.00    -0.129 OA 
HETATM   16  O   UNL     1     -11.103  10.650  67.086  1.00  0.00    -0.282 OA 
BRANCH  14  17
HETATM   17  C   UNL     1      -9.977   9.535  69.138  1.00  0.00    -0.183 A  
HETATM   18  C   UNL     1     -10.562   8.302  68.833  1.00  0.00    -0.160 A  
HETATM   19  C   UNL     1     -10.607   7.305  69.808  1.00  0.00    -0.247 A  
HETATM   20  C   UNL     1     -10.063   7.538  71.072  1.00  0.00    -0.190 A  
HETATM   21  C   UNL     1      -9.454   8.760  71.362  1.00  0.00    -0.330 A  
HETATM   22  C   UNL     1      -9.394   9.758  70.389  1.00  0.00    -0.184 A  
ENDBRANCH  14  17
ENDBRANCH  12  14
ENDBRANCH   9  12
ENDBRANCH   5   6
ENDBRANCH   4   5
ENDBRANCH   3   4
ENDBRANCH   2   3
TORSDOF 7
ENDMDL
MODEL      195
REMARK 921   NORMALIZED FREE ENERGY PREDICTED BY IDOCK:   -3.44 KCAL/MOL
REMARK 922        TOTAL FREE ENERGY PREDICTED BY IDOCK:   -5.38 KCAL/MOL
REMARK 923 INTER-LIGAND FREE ENERGY PREDICTED BY IDOCK:   -5.15 KCAL/MOL
REMARK 924 INTRA-LIGAND FREE ENERGY PREDICTED BY IDOCK:   -0.23 KCAL/MOL
REMARK 927      BINDING AFFINITY PREDICTED BY RF-SCORE:    0.00 PKD
ROOT
HETATM    1  C   UNL     1     -10.790  19.561  65.699  1.00  0.00    -0.256 C  
HETATM    2  O   UNL     1     -10.697  19.553  67.114  1.00  0.00    -0.468 OA 
ENDROOT
BRANCH   2   3
HETATM    3  C   UNL     1      -9.365  19.792  67.576  1.00  0.00    -0.340 C  
BRANCH   3   4
HETATM    4  C   UNL     1      -9.115  18.839  68.738  1.00  0.00    -0.293 C  
BRANCH   4   5
HETATM    5  O   UNL     1      -8.328  17.708  68.347  1.00  0.00    -0.273 OA 
BRANCH   5   6
HETATM    6  C   UNL     1      -9.057  16.667  67.846  1.00  0.00    -0.218 A  
HETATM    7  C   UNL     1      -8.727  15.870  66.767  1.00  0.00    -0.269 A  
HETATM    8  N   UNL     1      -9.477  14.844  66.325  1.00  0.00    -0.297 NA 
HETATM    9  C   UNL     1     -10.604  14.627  66.993  1.00  0.00    -0.280 A  
HETATM   10  C   UNL     1     -10.256  16.335  68.448  1.00  0.00    -0.249 A  
HETATM   11  N   UNL     1     -11.062  15.322  68.038  1.00  0.00    -0.300 NA 
BRANCH   9  12
HETATM   12  N   UNL     1     -11.360  13.530  66.587  1.00  0.00    -0.313 N  
HETATM   13  H   UNL     1     -11.956  13.541  65.759  1.00  0.00     0.000 HD 
BRANCH  12  14
HETATM   14  S   UNL     1     -11.203  12.190  67.585  1.00  0.00    -0.308 S  
HETATM   15  O   UNL     1     -12.024  11.089  67.126  1.00  0.00    -0.243 OA 
HETATM   16  O   UNL     1     -11.315  12.677  68.943  1.00  0.00    -0.260 OA 
BRANCH  14  17
HETATM   17  C   UNL     1      -9.496  11.709  67.369  1.00  0.00    -0.167 A  
HETATM   18  C   UNL     1      -8.638  11.705  68.473  1.00  0.00    -0.134 A  
HETATM   19  C   UNL     1      -7.308  11.320  68.306  1.00  0.00    -0.095 A  
HETATM   20  C   UNL     1      -6.844  10.933  67.047  1.00  0.00    -0.100 A  
HETATM   21  C   UNL     1      -7.711  10.910  65.955  1.00  0.00    -0.073 A  
HETATM   22  C   UNL     1      -9.046  11.283  66.115  1.00  0.00    -0.216 A  
ENDBRANCH  14  17
ENDBRANCH  12  14
ENDBRANCH   9  12
ENDBRANCH   5   6
ENDBRANCH   4   5
ENDBRANCH   3   4
ENDBRANCH   2   3
TORSDOF 7
ENDMDL
MODEL      196
REMARK 921   NORMALIZED FREE ENERGY PREDICTED BY IDOCK:   -3.44 KCAL/MOL
REMARK 922        TOTAL FREE ENERGY PREDICTED BY IDOCK:   -5.38 KCAL/MOL
REMARK 923 INTER-LIGAND FREE ENERGY PREDICTED BY IDOCK:   -4.92 KCAL/MOL
REMARK 924 INTRA-LIGAND FREE ENERGY PREDICTED BY IDOCK:   -0.46 KCAL/MOL
REMARK 927      BINDING AFFINITY PREDICTED BY RF-SCORE:    0.00 PKD
ROOT
HETATM    1  C   UNL     1     -12.200  11.418  70.551  1.00  0.00    -0.386 C  
HETATM    2  O   UNL     1     -10.942  10.764  70.569  1.00  0.00    -0.159 OA 
ENDROOT
BRANCH   2   3
HETATM    3  C   UNL     1     -10.975   9.497  69.906  1.00  0.00    -0.238 C  
BRANCH   3   4
HETATM    4  C   UNL     1     -10.243   9.665  68.580  1.00  0.00    -0.189 C  
BRANCH   4   5
HETATM    5  O   UNL     1      -8.904  10.139  68.760  1.00  0.00    -0.131 OA 
BRANCH   5   6
HETATM    6  C   UNL     1      -8.695  11.409  68.301  1.00  0.00    -0.160 A  
HETATM    7  C   UNL     1      -9.581  12.184  67.579  1.00  0.00    -0.179 A  
HETATM    8  N   UNL     1      -9.328  13.440  67.165  1.00  0.00    -0.231 NA 
HETATM    9  C   UNL     1      -8.131  13.919  67.486  1.00  0.00    -0.182 A  
HETATM   10  C   UNL     1      -7.487  12.027  68.565  1.00  0.00    -0.117 A  
HETATM   11  N   UNL     1      -7.168  13.284  68.161  1.00  0.00    -0.097 NA 
BRANCH   9  12
HETATM   12  N   UNL     1      -7.877  15.238  67.120  1.00  0.00    -0.209 N  
HETATM   13  H   UNL     1      -7.587  15.509  66.181  1.00  0.00     0.000 HD 
BRANCH  12  14
HETATM   14  S   UNL     1      -8.091  16.342  68.367  1.00  0.00    -0.192 S  
HETATM   15  O   UNL     1      -6.839  16.633  69.037  1.00  0.00    -0.182 OA 
HETATM   16  O   UNL     1      -9.241  15.891  69.119  1.00  0.00    -0.225 OA 
BRANCH  14  17
HETATM   17  C   UNL     1      -8.603  17.831  67.522  1.00  0.00    -0.228 A  
HETATM   18  C   UNL     1      -9.711  17.791  66.671  1.00  0.00    -0.314 A  
HETATM   19  C   UNL     1     -10.116  18.956  66.019  1.00  0.00    -0.372 A  
HETATM   20  C   UNL     1      -9.423  20.150  66.225  1.00  0.00    -0.450 A  
HETATM   21  C   UNL     1      -8.336  20.191  67.098  1.00  0.00    -0.391 A  
HETATM   22  C   UNL     1      -7.931  19.033  67.763  1.00  0.00    -0.292 A  
ENDBRANCH  14  17
ENDBRANCH  12  14
ENDBRANCH   9  12
ENDBRANCH   5   6
ENDBRANCH   4   5
ENDBRANCH   3   4
ENDBRANCH   2   3
TORSDOF 7
ENDMDL
MODEL      197
REMARK 921   NORMALIZED FREE ENERGY PREDICTED BY IDOCK:   -3.42 KCAL/MOL
REMARK 922        TOTAL FREE ENERGY PREDICTED BY IDOCK:   -5.35 KCAL/MOL
REMARK 923 INTER-LIGAND FREE ENERGY PREDICTED BY IDOCK:   -4.97 KCAL/MOL
REMARK 924 INTRA-LIGAND FREE ENERGY PREDICTED BY IDOCK:   -0.38 KCAL/MOL
REMARK 927      BINDING AFFINITY PREDICTED BY RF-SCORE:    0.00 PKD
ROOT
HETATM    1  C   UNL     1      -6.531  19.223  69.476  1.00  0.00    -0.303 C  
HETATM    2  O   UNL     1      -5.452  19.486  68.593  1.00  0.00    -0.198 OA 
ENDROOT
BRANCH   2   3
HETATM    3  C   UNL     1      -5.676  18.955  67.284  1.00  0.00    -0.162 C  
BRANCH   3   4
HETATM    4  C   UNL     1      -7.080  18.366  67.272  1.00  0.00    -0.200 C  
BRANCH   4   5
HETATM    5  O   UNL     1      -7.268  17.439  66.197  1.00  0.00    -0.285 OA 
BRANCH   5   6
HETATM    6  C   UNL     1      -8.149  16.433  66.474  1.00  0.00    -0.310 A  
HETATM    7  C   UNL     1      -9.243  16.060  65.719  1.00  0.00    -0.180 A  
HETATM    8  N   UNL     1     -10.072  15.047  66.032  1.00  0.00    -0.282 NA 
HETATM    9  C   UNL     1      -9.786  14.398  67.156  1.00  0.00    -0.248 A  
HETATM   10  C   UNL     1      -7.969  15.678  67.619  1.00  0.00    -0.153 A  
HETATM   11  N   UNL     1      -8.778  14.655  67.995  1.00  0.00    -0.161 NA 
BRANCH   9  12
HETATM   12  N   UNL     1     -10.596  13.308  67.462  1.00  0.00    -0.244 N  
HETATM   13  H   UNL     1     -11.493  13.398  67.938  1.00  0.00     0.000 HD 
BRANCH  12  14
HETATM   14  S   UNL     1      -9.961  11.833  66.974  1.00  0.00    -0.206 S  
HETATM   15  O   UNL     1      -8.559  11.948  66.628  1.00  0.00    -0.187 OA 
HETATM   16  O   UNL     1     -10.908  11.271  66.035  1.00  0.00    -0.267 OA 
BRANCH  14  17
HETATM   17  C   UNL     1     -10.067  10.827  68.447  1.00  0.00    -0.169 A  
HETATM   18  C   UNL     1      -8.894  10.340  69.032  1.00  0.00    -0.170 A  
HETATM   19  C   UNL     1      -8.975   9.563  70.187  1.00  0.00    -0.269 A  
HETATM   20  C   UNL     1     -10.220   9.284  70.756  1.00  0.00    -0.353 A  
HETATM   21  C   UNL     1     -11.385   9.796  70.185  1.00  0.00    -0.305 A  
HETATM   22  C   UNL     1     -11.311  10.584  69.036  1.00  0.00    -0.319 A  
ENDBRANCH  14  17
ENDBRANCH  12  14
ENDBRANCH   9  12
ENDBRANCH   5   6
ENDBRANCH   4   5
ENDBRANCH   3   4
ENDBRANCH   2   3
TORSDOF 7
ENDMDL
MODEL      198
REMARK 921   NORMALIZED FREE ENERGY PREDICTED BY IDOCK:   -3.41 KCAL/MOL
REMARK 922        TOTAL FREE ENERGY PREDICTED BY IDOCK:   -5.34 KCAL/MOL
REMARK 923 INTER-LIGAND FREE ENERGY PREDICTED BY IDOCK:   -4.84 KCAL/MOL
REMARK 924 INTRA-LIGAND FREE ENERGY PREDICTED BY IDOCK:   -0.50 KCAL/MOL
REMARK 927      BINDING AFFINITY PREDICTED BY RF-SCORE:    0.00 PKD
ROOT
HETATM    1  C   UNL     1      -7.696   7.110  67.191  1.00  0.00    -0.108 C  
HETATM    2  O   UNL     1      -8.325   8.189  66.519  1.00  0.00    -0.107 OA 
ENDROOT
BRANCH   2   3
HETATM    3  C   UNL     1      -7.432   8.884  65.645  1.00  0.00    -0.086 C  
BRANCH   3   4
HETATM    4  C   UNL     1      -7.767  10.367  65.747  1.00  0.00    -0.146 C  
BRANCH   4   5
HETATM    5  O   UNL     1      -8.892  10.608  66.599  1.00  0.00    -0.138 OA 
BRANCH   5   6
HETATM    6  C   UNL     1      -8.897  11.845  67.181  1.00  0.00    -0.180 A  
HETATM    7  C   UNL     1      -8.005  12.319  68.124  1.00  0.00    -0.155 A  
HETATM    8  N   UNL     1      -8.048  13.556  68.653  1.00  0.00    -0.102 NA 
HETATM    9  C   UNL     1      -9.034  14.332  68.219  1.00  0.00    -0.187 A  
HETATM   10  C   UNL     1      -9.874  12.753  66.820  1.00  0.00    -0.242 A  
HETATM   11  N   UNL     1      -9.977  14.008  67.329  1.00  0.00    -0.239 NA 
BRANCH   9  12
HETATM   12  N   UNL     1      -9.055  15.635  68.710  1.00  0.00    -0.194 N  
HETATM   13  H   UNL     1      -9.687  15.941  69.449  1.00  0.00     0.000 HD 
BRANCH  12  14
HETATM   14  S   UNL     1      -7.946  16.656  67.972  1.00  0.00    -0.176 S  
HETATM   15  O   UNL     1      -7.359  16.041  66.799  1.00  0.00    -0.216 OA 
HETATM   16  O   UNL     1      -7.106  17.177  69.028  1.00  0.00    -0.226 OA 
BRANCH  14  17
HETATM   17  C   UNL     1      -8.948  18.026  67.413  1.00  0.00    -0.246 A  
HETATM   18  C   UNL     1      -9.864  17.828  66.374  1.00  0.00    -0.328 A  
HETATM   19  C   UNL     1     -10.652  18.895  65.944  1.00  0.00    -0.438 A  
HETATM   20  C   UNL     1     -10.532  20.145  66.555  1.00  0.00    -0.438 A  
HETATM   21  C   UNL     1      -9.638  20.329  67.610  1.00  0.00    -0.530 A  
HETATM   22  C   UNL     1      -8.853  19.264  68.054  1.00  0.00    -0.360 A  
ENDBRANCH  14  17
ENDBRANCH  12  14
ENDBRANCH   9  12
ENDBRANCH   5   6
ENDBRANCH   4   5
ENDBRANCH   3   4
ENDBRANCH   2   3
TORSDOF 7
ENDMDL
MODEL      199
REMARK 921   NORMALIZED FREE ENERGY PREDICTED BY IDOCK:   -3.41 KCAL/MOL
REMARK 922        TOTAL FREE ENERGY PREDICTED BY IDOCK:   -5.34 KCAL/MOL
REMARK 923 INTER-LIGAND FREE ENERGY PREDICTED BY IDOCK:   -4.80 KCAL/MOL
REMARK 924 INTRA-LIGAND FREE ENERGY PREDICTED BY IDOCK:   -0.54 KCAL/MOL
REMARK 927      BINDING AFFINITY PREDICTED BY RF-SCORE:    0.00 PKD
ROOT
HETATM    1  C   UNL     1     -10.559   4.447  65.481  1.00  0.00    -0.159 C  
HETATM    2  O   UNL     1      -9.346   5.051  65.900  1.00  0.00    -0.151 OA 
ENDROOT
BRANCH   2   3
HETATM    3  C   UNL     1      -9.055   4.795  67.277  1.00  0.00    -0.119 C  
BRANCH   3   4
HETATM    4  C   UNL     1      -8.354   6.031  67.825  1.00  0.00    -0.112 C  
BRANCH   4   5
HETATM    5  O   UNL     1      -8.272   7.080  66.855  1.00  0.00    -0.114 OA 
BRANCH   5   6
HETATM    6  C   UNL     1      -8.590   8.317  67.341  1.00  0.00    -0.125 A  
HETATM    7  C   UNL     1      -9.405   8.597  68.420  1.00  0.00    -0.138 A  
HETATM    8  N   UNL     1      -9.672   9.838  68.867  1.00  0.00    -0.165 NA 
HETATM    9  C   UNL     1      -9.101  10.827  68.189  1.00  0.00    -0.151 A  
HETATM   10  C   UNL     1      -8.063   9.436  66.724  1.00  0.00    -0.109 A  
HETATM   11  N   UNL     1      -8.308  10.712  67.119  1.00  0.00    -0.124 NA 
BRANCH   9  12
HETATM   12  N   UNL     1      -9.316  12.114  68.675  1.00  0.00    -0.385 N  
HETATM   13  H   UNL     1      -8.751  12.531  69.414  1.00  0.00     0.000 HD 
BRANCH  12  14
HETATM   14  S   UNL     1     -10.592  12.915  67.935  1.00  0.00    -0.227 S  
HETATM   15  O   UNL     1     -11.465  11.990  67.240  1.00  0.00    -0.311 OA 
HETATM   16  O   UNL     1     -10.017  14.047  67.242  1.00  0.00    -0.236 OA 
BRANCH  14  17
HETATM   17  C   UNL     1     -11.514  13.589  69.309  1.00  0.00    -0.291 A  
HETATM   18  C   UNL     1     -11.870  14.941  69.301  1.00  0.00    -0.350 A  
HETATM   19  C   UNL     1     -12.598  15.466  70.368  1.00  0.00    -0.433 A  
HETATM   20  C   UNL     1     -12.974  14.641  71.430  1.00  0.00    -0.404 A  
HETATM   21  C   UNL     1     -12.643  13.286  71.420  1.00  0.00    -0.365 A  
HETATM   22  C   UNL     1     -11.924  12.751  70.350  1.00  0.00    -0.331 A  
ENDBRANCH  14  17
ENDBRANCH  12  14
ENDBRANCH   9  12
ENDBRANCH   5   6
ENDBRANCH   4   5
ENDBRANCH   3   4
ENDBRANCH   2   3
TORSDOF 7
ENDMDL
MODEL      200
REMARK 921   NORMALIZED FREE ENERGY PREDICTED BY IDOCK:   -3.41 KCAL/MOL
REMARK 922        TOTAL FREE ENERGY PREDICTED BY IDOCK:   -5.34 KCAL/MOL
REMARK 923 INTER-LIGAND FREE ENERGY PREDICTED BY IDOCK:   -4.91 KCAL/MOL
REMARK 924 INTRA-LIGAND FREE ENERGY PREDICTED BY IDOCK:   -0.42 KCAL/MOL
REMARK 927      BINDING AFFINITY PREDICTED BY RF-SCORE:    0.00 PKD
ROOT
HETATM    1  C   UNL     1      -9.481  17.752  68.055  1.00  0.00    -0.281 C  
HETATM    2  O   UNL     1     -10.302  16.671  67.645  1.00  0.00    -0.288 OA 
ENDROOT
BRANCH   2   3
HETATM    3  C   UNL     1     -10.523  16.657  66.232  1.00  0.00    -0.268 C  
BRANCH   3   4
HETATM    4  C   UNL     1      -9.758  15.467  65.670  1.00  0.00    -0.331 C  
BRANCH   4   5
HETATM    5  O   UNL     1     -10.534  14.725  64.723  1.00  0.00    -0.406 OA 
BRANCH   5   6
HETATM    6  C   UNL     1     -10.362  13.371  64.797  1.00  0.00    -0.379 A  
HETATM    7  C   UNL     1     -10.584  12.452  63.790  1.00  0.00    -0.452 A  
HETATM    8  N   UNL     1     -10.382  11.128  63.914  1.00  0.00    -0.352 NA 
HETATM    9  C   UNL     1      -9.950  10.722  65.103  1.00  0.00    -0.291 A  
HETATM   10  C   UNL     1      -9.917  12.815  65.982  1.00  0.00    -0.271 A  
HETATM   11  N   UNL     1      -9.709  11.487  66.172  1.00  0.00    -0.215 NA 
BRANCH   9  12
HETATM   12  N   UNL     1      -9.676   9.362  65.229  1.00  0.00    -0.453 N  
HETATM   13  H   UNL     1     -10.273   8.720  65.748  1.00  0.00     0.000 HD 
BRANCH  12  14
HETATM   14  S   UNL     1      -8.272   8.878  64.446  1.00  0.00    -0.164 S  
HETATM   15  O   UNL     1      -7.176   9.786  64.716  1.00  0.00    -0.117 OA 
HETATM   16  O   UNL     1      -8.651   8.563  63.086  1.00  0.00    -0.113 OA 
BRANCH  14  17
HETATM   17  C   UNL     1      -7.878   7.319  65.226  1.00  0.00    -0.121 A  
HETATM   18  C   UNL     1      -8.403   7.030  66.489  1.00  0.00    -0.121 A  
HETATM   19  C   UNL     1      -8.103   5.809  67.093  1.00  0.00    -0.102 A  
HETATM   20  C   UNL     1      -7.292   4.883  66.434  1.00  0.00    -0.082 A  
HETATM   21  C   UNL     1      -6.794   5.164  65.162  1.00  0.00    -0.049 A  
HETATM   22  C   UNL     1      -7.099   6.378  64.545  1.00  0.00    -0.057 A  
ENDBRANCH  14  17
ENDBRANCH  12  14
ENDBRANCH   9  12
ENDBRANCH   5   6
ENDBRANCH   4   5
ENDBRANCH   3   4
ENDBRANCH   2   3
TORSDOF 7
ENDMDL
MODEL      201
REMARK 921   NORMALIZED FREE ENERGY PREDICTED BY IDOCK:   -3.38 KCAL/MOL
REMARK 922        TOTAL FREE ENERGY PREDICTED BY IDOCK:   -5.30 KCAL/MOL
REMARK 923 INTER-LIGAND FREE ENERGY PREDICTED BY IDOCK:   -4.98 KCAL/MOL
REMARK 924 INTRA-LIGAND FREE ENERGY PREDICTED BY IDOCK:   -0.32 KCAL/MOL
REMARK 927      BINDING AFFINITY PREDICTED BY RF-SCORE:    0.00 PKD
ROOT
HETATM    1  C   UNL     1      -7.761   5.190  68.744  1.00  0.00    -0.078 C  
HETATM    2  O   UNL     1      -8.735   5.589  69.695  1.00  0.00    -0.106 OA 
ENDROOT
BRANCH   2   3
HETATM    3  C   UNL     1     -10.071   5.372  69.233  1.00  0.00    -0.231 C  
BRANCH   3   4
HETATM    4  C   UNL     1     -10.931   6.493  69.803  1.00  0.00    -0.338 C  
BRANCH   4   5
HETATM    5  O   UNL     1     -10.144   7.602  70.250  1.00  0.00    -0.195 OA 
BRANCH   5   6
HETATM    6  C   UNL     1     -10.497   8.799  69.694  1.00  0.00    -0.220 A  
HETATM    7  C   UNL     1     -10.621  10.010  70.346  1.00  0.00    -0.280 A  
HETATM    8  N   UNL     1     -10.958  11.165  69.743  1.00  0.00    -0.201 NA 
HETATM    9  C   UNL     1     -11.188  11.085  68.437  1.00  0.00    -0.274 A  
HETATM   10  C   UNL     1     -10.768   8.856  68.339  1.00  0.00    -0.076 A  
HETATM   11  N   UNL     1     -11.127   9.987  67.679  1.00  0.00    -0.239 NA 
BRANCH   9  12
HETATM   12  N   UNL     1     -11.477  12.282  67.787  1.00  0.00    -0.307 N  
HETATM   13  H   UNL     1     -12.414  12.683  67.750  1.00  0.00     0.000 HD 
BRANCH  12  14
HETATM   14  S   UNL     1     -10.142  13.005  67.071  1.00  0.00    -0.247 S  
HETATM   15  O   UNL     1      -8.973  12.917  67.921  1.00  0.00    -0.176 OA 
HETATM   16  O   UNL     1     -10.592  14.283  66.565  1.00  0.00    -0.281 OA 
BRANCH  14  17
HETATM   17  C   UNL     1      -9.836  11.984  65.636  1.00  0.00    -0.243 A  
HETATM   18  C   UNL     1     -10.641  12.133  64.502  1.00  0.00    -0.350 A  
HETATM   19  C   UNL     1     -10.396  11.343  63.379  1.00  0.00    -0.458 A  
HETATM   20  C   UNL     1      -9.349  10.419  63.389  1.00  0.00    -0.334 A  
HETATM   21  C   UNL     1      -8.531  10.295  64.512  1.00  0.00    -0.183 A  
HETATM   22  C   UNL     1      -8.762  11.089  65.636  1.00  0.00    -0.162 A  
ENDBRANCH  14  17
ENDBRANCH  12  14
ENDBRANCH   9  12
ENDBRANCH   5   6
ENDBRANCH   4   5
ENDBRANCH   3   4
ENDBRANCH   2   3
TORSDOF 7
ENDMDL
MODEL      202
REMARK 921   NORMALIZED FREE ENERGY PREDICTED BY IDOCK:   -3.38 KCAL/MOL
REMARK 922        TOTAL FREE ENERGY PREDICTED BY IDOCK:   -5.30 KCAL/MOL
REMARK 923 INTER-LIGAND FREE ENERGY PREDICTED BY IDOCK:   -4.86 KCAL/MOL
REMARK 924 INTRA-LIGAND FREE ENERGY PREDICTED BY IDOCK:   -0.44 KCAL/MOL
REMARK 927      BINDING AFFINITY PREDICTED BY RF-SCORE:    0.00 PKD
ROOT
HETATM    1  C   UNL     1      -7.606   4.225  66.442  1.00  0.00    -0.089 C  
HETATM    2  O   UNL     1      -8.582   3.867  67.407  1.00  0.00    -0.098 OA 
ENDROOT
BRANCH   2   3
HETATM    3  C   UNL     1      -8.427   4.586  68.633  1.00  0.00    -0.085 C  
BRANCH   3   4
HETATM    4  C   UNL     1      -9.823   4.822  69.195  1.00  0.00    -0.184 C  
BRANCH   4   5
HETATM    5  O   UNL     1     -10.670   5.506  68.265  1.00  0.00    -0.179 OA 
BRANCH   5   6
HETATM    6  C   UNL     1     -10.493   6.861  68.241  1.00  0.00    -0.206 A  
HETATM    7  C   UNL     1     -10.102   7.664  69.294  1.00  0.00    -0.190 A  
HETATM    8  N   UNL     1      -9.928   8.995  69.209  1.00  0.00    -0.183 NA 
HETATM    9  C   UNL     1     -10.169   9.531  68.018  1.00  0.00    -0.201 A  
HETATM   10  C   UNL     1     -10.714   7.545  67.060  1.00  0.00    -0.297 A  
HETATM   11  N   UNL     1     -10.569   8.888  66.917  1.00  0.00    -0.236 NA 
BRANCH   9  12
HETATM   12  N   UNL     1      -9.933  10.898  67.897  1.00  0.00    -0.173 N  
HETATM   13  H   UNL     1      -9.017  11.287  67.677  1.00  0.00     0.000 HD 
BRANCH  12  14
HETATM   14  S   UNL     1     -11.296  11.846  68.145  1.00  0.00    -0.315 S  
HETATM   15  O   UNL     1     -12.043  11.404  69.305  1.00  0.00    -0.325 OA 
HETATM   16  O   UNL     1     -11.943  11.977  66.858  1.00  0.00    -0.612 OA 
BRANCH  14  17
HETATM   17  C   UNL     1     -10.619  13.455  68.527  1.00  0.00    -0.253 A  
HETATM   18  C   UNL     1     -11.388  14.368  69.256  1.00  0.00    -0.319 A  
HETATM   19  C   UNL     1     -10.857  15.620  69.562  1.00  0.00    -0.271 A  
HETATM   20  C   UNL     1      -9.564  15.951  69.151  1.00  0.00    -0.253 A  
HETATM   21  C   UNL     1      -8.790  15.026  68.451  1.00  0.00    -0.178 A  
HETATM   22  C   UNL     1      -9.310  13.766  68.150  1.00  0.00    -0.211 A  
ENDBRANCH  14  17
ENDBRANCH  12  14
ENDBRANCH   9  12
ENDBRANCH   5   6
ENDBRANCH   4   5
ENDBRANCH   3   4
ENDBRANCH   2   3
TORSDOF 7
ENDMDL
MODEL      203
REMARK 921   NORMALIZED FREE ENERGY PREDICTED BY IDOCK:   -3.37 KCAL/MOL
REMARK 922        TOTAL FREE ENERGY PREDICTED BY IDOCK:   -5.29 KCAL/MOL
REMARK 923 INTER-LIGAND FREE ENERGY PREDICTED BY IDOCK:   -4.95 KCAL/MOL
REMARK 924 INTRA-LIGAND FREE ENERGY PREDICTED BY IDOCK:   -0.33 KCAL/MOL
REMARK 927      BINDING AFFINITY PREDICTED BY RF-SCORE:    0.00 PKD
ROOT
HETATM    1  C   UNL     1      -8.530   5.019  64.320  1.00  0.00    -0.138 C  
HETATM    2  O   UNL     1      -7.344   5.597  64.842  1.00  0.00    -0.067 OA 
ENDROOT
BRANCH   2   3
HETATM    3  C   UNL     1      -7.611   6.588  65.838  1.00  0.00    -0.087 C  
BRANCH   3   4
HETATM    4  C   UNL     1      -8.533   7.623  65.206  1.00  0.00    -0.076 C  
BRANCH   4   5
HETATM    5  O   UNL     1      -7.901   8.901  65.076  1.00  0.00    -0.102 OA 
BRANCH   5   6
HETATM    6  C   UNL     1      -8.587   9.926  65.663  1.00  0.00    -0.145 A  
HETATM    7  C   UNL     1      -8.046  11.042  66.271  1.00  0.00    -0.159 A  
HETATM    8  N   UNL     1      -8.772  12.033  66.821  1.00  0.00    -0.196 NA 
HETATM    9  C   UNL     1     -10.090  11.879  66.762  1.00  0.00    -0.202 A  
HETATM   10  C   UNL     1      -9.969   9.890  65.674  1.00  0.00    -0.283 A  
HETATM   11  N   UNL     1     -10.754  10.850  66.226  1.00  0.00    -0.217 NA 
BRANCH   9  12
HETATM   12  N   UNL     1     -10.857  12.924  67.271  1.00  0.00    -0.252 N  
HETATM   13  H   UNL     1     -11.126  12.991  68.252  1.00  0.00     0.000 HD 
BRANCH  12  14
HETATM   14  S   UNL     1     -11.297  14.065  66.121  1.00  0.00    -0.330 S  
HETATM   15  O   UNL     1     -12.735  14.234  66.067  1.00  0.00    -0.430 OA 
HETATM   16  O   UNL     1     -10.547  13.750  64.925  1.00  0.00    -0.365 OA 
BRANCH  14  17
HETATM   17  C   UNL     1     -10.605  15.585  66.756  1.00  0.00    -0.307 A  
HETATM   18  C   UNL     1      -9.590  16.229  66.041  1.00  0.00    -0.371 A  
HETATM   19  C   UNL     1      -9.057  17.421  66.531  1.00  0.00    -0.288 A  
HETATM   20  C   UNL     1      -9.541  17.967  67.721  1.00  0.00    -0.277 A  
HETATM   21  C   UNL     1     -10.574  17.336  68.416  1.00  0.00    -0.368 A  
HETATM   22  C   UNL     1     -11.121  16.149  67.926  1.00  0.00    -0.293 A  
ENDBRANCH  14  17
ENDBRANCH  12  14
ENDBRANCH   9  12
ENDBRANCH   5   6
ENDBRANCH   4   5
ENDBRANCH   3   4
ENDBRANCH   2   3
TORSDOF 7
ENDMDL
MODEL      204
REMARK 921   NORMALIZED FREE ENERGY PREDICTED BY IDOCK:   -3.37 KCAL/MOL
REMARK 922        TOTAL FREE ENERGY PREDICTED BY IDOCK:   -5.28 KCAL/MOL
REMARK 923 INTER-LIGAND FREE ENERGY PREDICTED BY IDOCK:   -5.72 KCAL/MOL
REMARK 924 INTRA-LIGAND FREE ENERGY PREDICTED BY IDOCK:    0.44 KCAL/MOL
REMARK 927      BINDING AFFINITY PREDICTED BY RF-SCORE:    0.00 PKD
ROOT
HETATM    1  C   UNL     1      -9.580  10.507  63.332  1.00  0.00    -0.331 C  
HETATM    2  O   UNL     1     -10.739  11.008  63.978  1.00  0.00    -0.379 OA 
ENDROOT
BRANCH   2   3
HETATM    3  C   UNL     1     -11.547  11.805  63.109  1.00  0.00    -0.085 C  
BRANCH   3   4
HETATM    4  C   UNL     1     -12.664  12.403  63.955  1.00  0.00    -0.349 C  
BRANCH   4   5
HETATM    5  O   UNL     1     -12.347  12.390  65.352  1.00  0.00    -0.596 OA 
BRANCH   5   6
HETATM    6  C   UNL     1     -11.812  13.559  65.814  1.00  0.00    -0.372 A  
HETATM    7  C   UNL     1     -12.127  14.203  66.995  1.00  0.00    -0.414 A  
HETATM    8  N   UNL     1     -11.554  15.348  67.410  1.00  0.00    -0.209 NA 
HETATM    9  C   UNL     1     -10.641  15.862  66.594  1.00  0.00    -0.305 A  
HETATM   10  C   UNL     1     -10.849  14.202  65.059  1.00  0.00    -0.398 A  
HETATM   11  N   UNL     1     -10.248  15.365  65.418  1.00  0.00    -0.370 NA 
BRANCH   9  12
HETATM   12  N   UNL     1      -9.995  17.013  67.038  1.00  0.00    -0.278 N  
HETATM   13  H   UNL     1      -9.965  17.877  66.499  1.00  0.00     0.000 HD 
BRANCH  12  14
HETATM   14  S   UNL     1      -9.269  16.846  68.542  1.00  0.00    -0.266 S  
HETATM   15  O   UNL     1     -10.191  16.299  69.517  1.00  0.00    -0.257 OA 
HETATM   16  O   UNL     1      -8.576  18.089  68.801  1.00  0.00    -0.283 OA 
BRANCH  14  17
HETATM   17  C   UNL     1      -8.001  15.620  68.260  1.00  0.00    -0.129 A  
HETATM   18  C   UNL     1      -8.338  14.263  68.287  1.00  0.00    -0.165 A  
HETATM   19  C   UNL     1      -7.350  13.306  68.057  1.00  0.00    -0.127 A  
HETATM   20  C   UNL     1      -6.038  13.705  67.792  1.00  0.00    -0.143 A  
HETATM   21  C   UNL     1      -5.713  15.060  67.737  1.00  0.00    -0.108 A  
HETATM   22  C   UNL     1      -6.698  16.025  67.954  1.00  0.00    -0.158 A  
ENDBRANCH  14  17
ENDBRANCH  12  14
ENDBRANCH   9  12
ENDBRANCH   5   6
ENDBRANCH   4   5
ENDBRANCH   3   4
ENDBRANCH   2   3
TORSDOF 7
ENDMDL
MODEL      205
REMARK 921   NORMALIZED FREE ENERGY PREDICTED BY IDOCK:   -3.36 KCAL/MOL
REMARK 922        TOTAL FREE ENERGY PREDICTED BY IDOCK:   -5.27 KCAL/MOL
REMARK 923 INTER-LIGAND FREE ENERGY PREDICTED BY IDOCK:   -4.85 KCAL/MOL
REMARK 924 INTRA-LIGAND FREE ENERGY PREDICTED BY IDOCK:   -0.42 KCAL/MOL
REMARK 927      BINDING AFFINITY PREDICTED BY RF-SCORE:    0.00 PKD
ROOT
HETATM    1  C   UNL     1      -9.436   3.883  71.801  1.00  0.00    -0.144 C  
HETATM    2  O   UNL     1      -9.581   4.965  72.706  1.00  0.00    -0.137 OA 
ENDROOT
BRANCH   2   3
HETATM    3  C   UNL     1     -10.944   5.187  73.078  1.00  0.00    -0.294 C  
BRANCH   3   4
HETATM    4  C   UNL     1     -11.416   6.430  72.335  1.00  0.00    -0.282 C  
BRANCH   4   5
HETATM    5  O   UNL     1     -10.334   7.310  72.014  1.00  0.00    -0.190 OA 
BRANCH   5   6
HETATM    6  C   UNL     1     -10.369   7.797  70.738  1.00  0.00    -0.203 A  
HETATM    7  C   UNL     1     -10.965   8.970  70.315  1.00  0.00    -0.244 A  
HETATM    8  N   UNL     1     -10.955   9.411  69.044  1.00  0.00    -0.129 NA 
HETATM    9  C   UNL     1     -10.330   8.629  68.171  1.00  0.00    -0.216 A  
HETATM   10  C   UNL     1      -9.757   7.079  69.727  1.00  0.00    -0.168 A  
HETATM   11  N   UNL     1      -9.728   7.464  68.426  1.00  0.00    -0.151 NA 
BRANCH   9  12
HETATM   12  N   UNL     1     -10.258   9.101  66.863  1.00  0.00    -0.258 N  
HETATM   13  H   UNL     1     -10.797   8.701  66.096  1.00  0.00     0.000 HD 
BRANCH  12  14
HETATM   14  S   UNL     1      -9.200  10.389  66.664  1.00  0.00    -0.158 S  
HETATM   15  O   UNL     1      -8.729  10.480  65.296  1.00  0.00    -0.177 OA 
HETATM   16  O   UNL     1      -8.262  10.320  67.763  1.00  0.00    -0.109 OA 
BRANCH  14  17
HETATM   17  C   UNL     1     -10.223  11.820  66.973  1.00  0.00    -0.214 A  
HETATM   18  C   UNL     1     -11.346  12.049  66.170  1.00  0.00    -0.407 A  
HETATM   19  C   UNL     1     -12.150  13.161  66.418  1.00  0.00    -0.447 A  
HETATM   20  C   UNL     1     -11.838  14.031  67.465  1.00  0.00    -0.442 A  
HETATM   21  C   UNL     1     -10.735  13.782  68.281  1.00  0.00    -0.264 A  
HETATM   22  C   UNL     1      -9.931  12.665  68.048  1.00  0.00    -0.220 A  
ENDBRANCH  14  17
ENDBRANCH  12  14
ENDBRANCH   9  12
ENDBRANCH   5   6
ENDBRANCH   4   5
ENDBRANCH   3   4
ENDBRANCH   2   3
TORSDOF 7
ENDMDL
MODEL      206
REMARK 921   NORMALIZED FREE ENERGY PREDICTED BY IDOCK:   -3.32 KCAL/MOL
REMARK 922        TOTAL FREE ENERGY PREDICTED BY IDOCK:   -5.22 KCAL/MOL
REMARK 923 INTER-LIGAND FREE ENERGY PREDICTED BY IDOCK:   -4.86 KCAL/MOL
REMARK 924 INTRA-LIGAND FREE ENERGY PREDICTED BY IDOCK:   -0.36 KCAL/MOL
REMARK 927      BINDING AFFINITY PREDICTED BY RF-SCORE:    0.00 PKD
ROOT
HETATM    1  C   UNL     1      -6.001  10.761  66.322  1.00  0.00    -0.126 C  
HETATM    2  O   UNL     1      -6.620  10.035  65.272  1.00  0.00    -0.102 OA 
ENDROOT
BRANCH   2   3
HETATM    3  C   UNL     1      -8.044  10.161  65.286  1.00  0.00    -0.151 C  
BRANCH   3   4
HETATM    4  C   UNL     1      -8.410  10.992  66.509  1.00  0.00    -0.163 C  
BRANCH   4   5
HETATM    5  O   UNL     1      -9.174  12.152  66.164  1.00  0.00    -0.220 OA 
BRANCH   5   6
HETATM    6  C   UNL     1      -8.878  13.258  66.909  1.00  0.00    -0.178 A  
HETATM    7  C   UNL     1      -9.645  14.400  67.038  1.00  0.00    -0.247 A  
HETATM    8  N   UNL     1      -9.311  15.457  67.800  1.00  0.00    -0.195 NA 
HETATM    9  C   UNL     1      -8.154  15.356  68.445  1.00  0.00    -0.140 A  
HETATM   10  C   UNL     1      -7.698  13.287  67.630  1.00  0.00    -0.171 A  
HETATM   11  N   UNL     1      -7.301  14.329  68.404  1.00  0.00    -0.110 NA 
BRANCH   9  12
HETATM   12  N   UNL     1      -7.823  16.415  69.287  1.00  0.00    -0.212 N  
HETATM   13  H   UNL     1      -8.034  16.419  70.284  1.00  0.00     0.000 HD 
BRANCH  12  14
HETATM   14  S   UNL     1      -7.046  17.683  68.509  1.00  0.00    -0.248 S  
HETATM   15  O   UNL     1      -6.329  17.225  67.337  1.00  0.00    -0.133 OA 
HETATM   16  O   UNL     1      -6.367  18.439  69.539  1.00  0.00    -0.261 OA 
BRANCH  14  17
HETATM   17  C   UNL     1      -8.393  18.713  67.944  1.00  0.00    -0.272 A  
HETATM   18  C   UNL     1      -9.230  19.326  68.881  1.00  0.00    -0.383 A  
HETATM   19  C   UNL     1     -10.275  20.137  68.440  1.00  0.00    -0.438 A  
HETATM   20  C   UNL     1     -10.473  20.340  67.072  1.00  0.00    -0.320 A  
HETATM   21  C   UNL     1      -9.618  19.750  66.142  1.00  0.00    -0.484 A  
HETATM   22  C   UNL     1      -8.562  18.946  66.576  1.00  0.00    -0.309 A  
ENDBRANCH  14  17
ENDBRANCH  12  14
ENDBRANCH   9  12
ENDBRANCH   5   6
ENDBRANCH   4   5
ENDBRANCH   3   4
ENDBRANCH   2   3
TORSDOF 7
ENDMDL
MODEL      207
REMARK 921   NORMALIZED FREE ENERGY PREDICTED BY IDOCK:   -3.32 KCAL/MOL
REMARK 922        TOTAL FREE ENERGY PREDICTED BY IDOCK:   -5.21 KCAL/MOL
REMARK 923 INTER-LIGAND FREE ENERGY PREDICTED BY IDOCK:   -5.38 KCAL/MOL
REMARK 924 INTRA-LIGAND FREE ENERGY PREDICTED BY IDOCK:    0.18 KCAL/MOL
REMARK 927      BINDING AFFINITY PREDICTED BY RF-SCORE:    0.00 PKD
ROOT
HETATM    1  C   UNL     1     -10.345   6.987  73.631  1.00  0.00    -0.373 C  
HETATM    2  O   UNL     1      -9.961   6.399  72.399  1.00  0.00    -0.171 OA 
ENDROOT
BRANCH   2   3
HETATM    3  C   UNL     1     -11.074   5.861  71.680  1.00  0.00    -0.258 C  
BRANCH   3   4
HETATM    4  C   UNL     1     -10.963   6.357  70.244  1.00  0.00    -0.318 C  
BRANCH   4   5
HETATM    5  O   UNL     1     -10.002   7.410  70.109  1.00  0.00    -0.183 OA 
BRANCH   5   6
HETATM    6  C   UNL     1     -10.525   8.588  69.655  1.00  0.00    -0.221 A  
HETATM    7  C   UNL     1     -10.512   9.052  68.354  1.00  0.00    -0.192 A  
HETATM    8  N   UNL     1     -11.058  10.216  67.958  1.00  0.00    -0.270 NA 
HETATM    9  C   UNL     1     -11.626  10.939  68.917  1.00  0.00    -0.309 A  
HETATM   10  C   UNL     1     -11.144   9.438  70.552  1.00  0.00    -0.273 A  
HETATM   11  N   UNL     1     -11.699  10.631  70.216  1.00  0.00    -0.315 NA 
BRANCH   9  12
HETATM   12  N   UNL     1     -12.250  12.117  68.515  1.00  0.00    -0.034 N  
HETATM   13  H   UNL     1     -13.185  12.383  68.819  1.00  0.00     0.000 HD 
BRANCH  12  14
HETATM   14  S   UNL     1     -11.320  13.058  67.481  1.00  0.00    -0.324 S  
HETATM   15  O   UNL     1     -12.048  13.397  66.275  1.00  0.00    -0.403 OA 
HETATM   16  O   UNL     1     -10.023  12.421  67.404  1.00  0.00    -0.200 OA 
BRANCH  14  17
HETATM   17  C   UNL     1     -11.077  14.571  68.401  1.00  0.00    -0.256 A  
HETATM   18  C   UNL     1     -11.665  14.710  69.662  1.00  0.00    -0.358 A  
HETATM   19  C   UNL     1     -11.467  15.887  70.383  1.00  0.00    -0.393 A  
HETATM   20  C   UNL     1     -10.680  16.910  69.851  1.00  0.00    -0.016 A  
HETATM   21  C   UNL     1     -10.072  16.755  68.605  1.00  0.00    -0.279 A  
HETATM   22  C   UNL     1     -10.255  15.575  67.882  1.00  0.00    -0.238 A  
ENDBRANCH  14  17
ENDBRANCH  12  14
ENDBRANCH   9  12
ENDBRANCH   5   6
ENDBRANCH   4   5
ENDBRANCH   3   4
ENDBRANCH   2   3
TORSDOF 7
ENDMDL
MODEL      208
REMARK 921   NORMALIZED FREE ENERGY PREDICTED BY IDOCK:   -3.30 KCAL/MOL
REMARK 922        TOTAL FREE ENERGY PREDICTED BY IDOCK:   -5.18 KCAL/MOL
REMARK 923 INTER-LIGAND FREE ENERGY PREDICTED BY IDOCK:   -4.80 KCAL/MOL
REMARK 924 INTRA-LIGAND FREE ENERGY PREDICTED BY IDOCK:   -0.39 KCAL/MOL
REMARK 927      BINDING AFFINITY PREDICTED BY RF-SCORE:    0.00 PKD
ROOT
HETATM    1  C   UNL     1      -6.873   8.335  68.950  1.00  0.00    -0.061 C  
HETATM    2  O   UNL     1      -7.864   9.103  68.288  1.00  0.00    -0.100 OA 
ENDROOT
BRANCH   2   3
HETATM    3  C   UNL     1      -7.423   9.587  67.017  1.00  0.00    -0.091 C  
BRANCH   3   4
HETATM    4  C   UNL     1      -7.728  11.079  66.973  1.00  0.00    -0.134 C  
BRANCH   4   5
HETATM    5  O   UNL     1      -8.535  11.497  68.079  1.00  0.00    -0.135 OA 
BRANCH   5   6
HETATM    6  C   UNL     1      -8.923  12.806  68.024  1.00  0.00    -0.196 A  
HETATM    7  C   UNL     1      -8.292  13.882  68.617  1.00  0.00    -0.088 A  
HETATM    8  N   UNL     1      -8.710  15.157  68.516  1.00  0.00    -0.164 NA 
HETATM    9  C   UNL     1      -9.813  15.344  67.799  1.00  0.00    -0.220 A  
HETATM   10  C   UNL     1     -10.059  13.140  67.310  1.00  0.00    -0.233 A  
HETATM   11  N   UNL     1     -10.539  14.404  67.185  1.00  0.00    -0.275 NA 
BRANCH   9  12
HETATM   12  N   UNL     1     -10.224  16.664  67.633  1.00  0.00    -0.277 N  
HETATM   13  H   UNL     1     -10.801  17.156  68.313  1.00  0.00     0.000 HD 
BRANCH  12  14
HETATM   14  S   UNL     1      -9.683  17.369  66.209  1.00  0.00    -0.231 S  
HETATM   15  O   UNL     1     -10.775  17.965  65.466  1.00  0.00    -0.585 OA 
HETATM   16  O   UNL     1      -8.806  16.404  65.583  1.00  0.00    -0.406 OA 
BRANCH  14  17
HETATM   17  C   UNL     1      -8.634  18.700  66.776  1.00  0.00    -0.288 A  
HETATM   18  C   UNL     1      -9.147  19.999  66.843  1.00  0.00    -0.467 A  
HETATM   19  C   UNL     1      -8.331  21.035  67.294  1.00  0.00    -0.017 A  
HETATM   20  C   UNL     1      -7.016  20.772  67.684  1.00  0.00    -0.375 A  
HETATM   21  C   UNL     1      -6.518  19.469  67.643  1.00  0.00    -0.239 A  
HETATM   22  C   UNL     1      -7.332  18.424  67.204  1.00  0.00    -0.217 A  
ENDBRANCH  14  17
ENDBRANCH  12  14
ENDBRANCH   9  12
ENDBRANCH   5   6
ENDBRANCH   4   5
ENDBRANCH   3   4
ENDBRANCH   2   3
TORSDOF 7
ENDMDL
MODEL      209
REMARK 921   NORMALIZED FREE ENERGY PREDICTED BY IDOCK:   -3.23 KCAL/MOL
REMARK 922        TOTAL FREE ENERGY PREDICTED BY IDOCK:   -5.09 KCAL/MOL
REMARK 923 INTER-LIGAND FREE ENERGY PREDICTED BY IDOCK:   -5.44 KCAL/MOL
REMARK 924 INTRA-LIGAND FREE ENERGY PREDICTED BY IDOCK:    0.35 KCAL/MOL
REMARK 927      BINDING AFFINITY PREDICTED BY RF-SCORE:    0.00 PKD
ROOT
HETATM    1  C   UNL     1     -10.596  17.134  65.662  1.00  0.00    -0.179 C  
HETATM    2  O   UNL     1     -10.973  16.372  64.526  1.00  0.00    -0.750 OA 
ENDROOT
BRANCH   2   3
HETATM    3  C   UNL     1     -11.616  15.145  64.880  1.00  0.00    -0.336 C  
BRANCH   3   4
HETATM    4  C   UNL     1     -10.551  14.056  64.852  1.00  0.00    -0.424 C  
BRANCH   4   5
HETATM    5  O   UNL     1     -10.827  13.056  63.865  1.00  0.00    -0.395 OA 
BRANCH   5   6
HETATM    6  C   UNL     1     -10.342  11.817  64.173  1.00  0.00    -0.331 A  
HETATM    7  C   UNL     1      -9.775  10.909  63.300  1.00  0.00    -0.362 A  
HETATM    8  N   UNL     1      -9.297   9.704  63.663  1.00  0.00    -0.125 NA 
HETATM    9  C   UNL     1      -9.410   9.407  64.953  1.00  0.00    -0.150 A  
HETATM   10  C   UNL     1     -10.400  11.380  65.484  1.00  0.00    -0.266 A  
HETATM   11  N   UNL     1      -9.949  10.172  65.907  1.00  0.00    -0.257 NA 
BRANCH   9  12
HETATM   12  N   UNL     1      -8.864   8.191  65.356  1.00  0.00    -0.365 N  
HETATM   13  H   UNL     1      -8.215   7.655  64.781  1.00  0.00     0.000 HD 
BRANCH  12  14
HETATM   14  S   UNL     1      -9.374   7.688  66.874  1.00  0.00    -0.171 S  
HETATM   15  O   UNL     1     -10.730   8.118  67.146  1.00  0.00    -0.316 OA 
HETATM   16  O   UNL     1      -8.302   8.008  67.791  1.00  0.00    -0.126 OA 
BRANCH  14  17
HETATM   17  C   UNL     1      -9.395   5.907  66.737  1.00  0.00    -0.136 A  
HETATM   18  C   UNL     1      -9.170   5.310  65.493  1.00  0.00    -0.122 A  
HETATM   19  C   UNL     1      -9.177   3.919  65.388  1.00  0.00    -0.151 A  
HETATM   20  C   UNL     1      -9.398   3.134  66.521  1.00  0.00    -0.120 A  
HETATM   21  C   UNL     1      -9.593   3.733  67.766  1.00  0.00    -0.193 A  
HETATM   22  C   UNL     1      -9.576   5.124  67.881  1.00  0.00    -0.167 A  
ENDBRANCH  14  17
ENDBRANCH  12  14
ENDBRANCH   9  12
ENDBRANCH   5   6
ENDBRANCH   4   5
ENDBRANCH   3   4
ENDBRANCH   2   3
TORSDOF 7
ENDMDL
MODEL      210
REMARK 921   NORMALIZED FREE ENERGY PREDICTED BY IDOCK:   -3.22 KCAL/MOL
REMARK 922        TOTAL FREE ENERGY PREDICTED BY IDOCK:   -5.08 KCAL/MOL
REMARK 923 INTER-LIGAND FREE ENERGY PREDICTED BY IDOCK:   -4.58 KCAL/MOL
REMARK 924 INTRA-LIGAND FREE ENERGY PREDICTED BY IDOCK:   -0.49 KCAL/MOL
REMARK 927      BINDING AFFINITY PREDICTED BY RF-SCORE:    0.00 PKD
ROOT
HETATM    1  C   UNL     1      -7.966   9.723  64.513  1.00  0.00    -0.144 C  
HETATM    2  O   UNL     1      -8.314   8.754  63.538  1.00  0.00    -0.178 OA 
ENDROOT
BRANCH   2   3
HETATM    3  C   UNL     1      -7.698   7.487  63.782  1.00  0.00    -0.126 C  
BRANCH   3   4
HETATM    4  C   UNL     1      -7.440   7.394  65.280  1.00  0.00    -0.085 C  
BRANCH   4   5
HETATM    5  O   UNL     1      -8.146   6.304  65.883  1.00  0.00    -0.111 OA 
BRANCH   5   6
HETATM    6  C   UNL     1      -8.916   6.660  66.953  1.00  0.00    -0.127 A  
HETATM    7  C   UNL     1      -8.680   6.356  68.280  1.00  0.00    -0.116 A  
HETATM    8  N   UNL     1      -9.466   6.748  69.300  1.00  0.00    -0.143 NA 
HETATM    9  C   UNL     1     -10.533   7.463  68.960  1.00  0.00    -0.210 A  
HETATM   10  C   UNL     1     -10.061   7.405  66.740  1.00  0.00    -0.235 A  
HETATM   11  N   UNL     1     -10.900   7.817  67.725  1.00  0.00    -0.108 NA 
BRANCH   9  12
HETATM   12  N   UNL     1     -11.322   7.929  70.008  1.00  0.00    -0.456 N  
HETATM   13  H   UNL     1     -12.196   7.483  70.287  1.00  0.00     0.000 HD 
BRANCH  12  14
HETATM   14  S   UNL     1     -10.705   9.291  70.769  1.00  0.00    -0.312 S  
HETATM   15  O   UNL     1      -9.348   9.073  71.226  1.00  0.00    -0.240 OA 
HETATM   16  O   UNL     1     -11.727   9.746  71.686  1.00  0.00    -0.385 OA 
BRANCH  14  17
HETATM   17  C   UNL     1     -10.638  10.505  69.459  1.00  0.00    -0.246 A  
HETATM   18  C   UNL     1     -11.827  11.053  68.968  1.00  0.00    -0.399 A  
HETATM   19  C   UNL     1     -11.775  12.007  67.953  1.00  0.00    -0.393 A  
HETATM   20  C   UNL     1     -10.541  12.417  67.441  1.00  0.00    -0.237 A  
HETATM   21  C   UNL     1      -9.356  11.890  67.955  1.00  0.00    -0.187 A  
HETATM   22  C   UNL     1      -9.400  10.943  68.979  1.00  0.00    -0.144 A  
ENDBRANCH  14  17
ENDBRANCH  12  14
ENDBRANCH   9  12
ENDBRANCH   5   6
ENDBRANCH   4   5
ENDBRANCH   3   4
ENDBRANCH   2   3
TORSDOF 7
ENDMDL
MODEL      211
REMARK 921   NORMALIZED FREE ENERGY PREDICTED BY IDOCK:   -3.22 KCAL/MOL
REMARK 922        TOTAL FREE ENERGY PREDICTED BY IDOCK:   -5.07 KCAL/MOL
REMARK 923 INTER-LIGAND FREE ENERGY PREDICTED BY IDOCK:   -4.65 KCAL/MOL
REMARK 924 INTRA-LIGAND FREE ENERGY PREDICTED BY IDOCK:   -0.42 KCAL/MOL
REMARK 927      BINDING AFFINITY PREDICTED BY RF-SCORE:    0.00 PKD
ROOT
HETATM    1  C   UNL     1      -9.903   3.254  72.092  1.00  0.00    -0.167 C  
HETATM    2  O   UNL     1     -10.088   4.471  72.796  1.00  0.00    -0.153 OA 
ENDROOT
BRANCH   2   3
HETATM    3  C   UNL     1     -10.635   5.502  71.970  1.00  0.00    -0.228 C  
BRANCH   3   4
HETATM    4  C   UNL     1      -9.474   6.375  71.513  1.00  0.00    -0.154 C  
BRANCH   4   5
HETATM    5  O   UNL     1      -9.497   6.609  70.101  1.00  0.00    -0.158 OA 
BRANCH   5   6
HETATM    6  C   UNL     1      -9.477   7.930  69.753  1.00  0.00    -0.163 A  
HETATM    7  C   UNL     1      -8.422   8.810  69.903  1.00  0.00    -0.131 A  
HETATM    8  N   UNL     1      -8.453  10.101  69.527  1.00  0.00    -0.171 NA 
HETATM    9  C   UNL     1      -9.595  10.516  68.990  1.00  0.00    -0.202 A  
HETATM   10  C   UNL     1     -10.605   8.492  69.185  1.00  0.00    -0.173 A  
HETATM   11  N   UNL     1     -10.700   9.791  68.799  1.00  0.00    -0.221 NA 
BRANCH   9  12
HETATM   12  N   UNL     1      -9.622  11.833  68.539  1.00  0.00    -0.278 N  
HETATM   13  H   UNL     1     -10.096  12.584  69.039  1.00  0.00     0.000 HD 
BRANCH  12  14
HETATM   14  S   UNL     1      -8.801  12.072  67.094  1.00  0.00    -0.194 S  
HETATM   15  O   UNL     1      -9.052  10.994  66.159  1.00  0.00    -0.180 OA 
HETATM   16  O   UNL     1      -7.448  12.439  67.448  1.00  0.00    -0.141 OA 
BRANCH  14  17
HETATM   17  C   UNL     1      -9.557  13.546  66.424  1.00  0.00    -0.259 A  
HETATM   18  C   UNL     1     -10.606  13.426  65.509  1.00  0.00    -0.294 A  
HETATM   19  C   UNL     1     -11.202  14.576  64.993  1.00  0.00    -0.384 A  
HETATM   20  C   UNL     1     -10.757  15.836  65.399  1.00  0.00    -0.420 A  
HETATM   21  C   UNL     1      -9.729  15.951  66.335  1.00  0.00    -0.310 A  
HETATM   22  C   UNL     1      -9.135  14.805  66.865  1.00  0.00    -0.268 A  
ENDBRANCH  14  17
ENDBRANCH  12  14
ENDBRANCH   9  12
ENDBRANCH   5   6
ENDBRANCH   4   5
ENDBRANCH   3   4
ENDBRANCH   2   3
TORSDOF 7
ENDMDL
MODEL      212
REMARK 921   NORMALIZED FREE ENERGY PREDICTED BY IDOCK:   -3.19 KCAL/MOL
REMARK 922        TOTAL FREE ENERGY PREDICTED BY IDOCK:   -5.02 KCAL/MOL
REMARK 923 INTER-LIGAND FREE ENERGY PREDICTED BY IDOCK:   -4.87 KCAL/MOL
REMARK 924 INTRA-LIGAND FREE ENERGY PREDICTED BY IDOCK:   -0.15 KCAL/MOL
REMARK 927      BINDING AFFINITY PREDICTED BY RF-SCORE:    0.00 PKD
ROOT
HETATM    1  C   UNL     1     -12.197  10.800  70.933  1.00  0.00    -0.384 C  
HETATM    2  O   UNL     1     -11.717  11.070  69.626  1.00  0.00    -0.269 OA 
ENDROOT
BRANCH   2   3
HETATM    3  C   UNL     1     -11.743  12.464  69.311  1.00  0.00    -0.329 C  
BRANCH   3   4
HETATM    4  C   UNL     1     -11.907  12.580  67.801  1.00  0.00    -0.313 C  
BRANCH   4   5
HETATM    5  O   UNL     1     -12.271  13.905  67.398  1.00  0.00    -0.378 OA 
BRANCH   5   6
HETATM    6  C   UNL     1     -11.208  14.726  67.151  1.00  0.00    -0.343 A  
HETATM    7  C   UNL     1     -10.949  15.946  67.746  1.00  0.00    -0.315 A  
HETATM    8  N   UNL     1      -9.873  16.708  67.476  1.00  0.00    -0.249 NA 
HETATM    9  C   UNL     1      -9.040  16.222  66.564  1.00  0.00    -0.269 A  
HETATM   10  C   UNL     1     -10.263  14.341  66.219  1.00  0.00    -0.301 A  
HETATM   11  N   UNL     1      -9.167  15.073  65.893  1.00  0.00    -0.226 NA 
BRANCH   9  12
HETATM   12  N   UNL     1      -7.890  16.969  66.318  1.00  0.00    -0.306 N  
HETATM   13  H   UNL     1      -7.594  17.242  65.382  1.00  0.00     0.000 HD 
BRANCH  12  14
HETATM   14  S   UNL     1      -7.038  17.378  67.705  1.00  0.00    -0.165 S  
HETATM   15  O   UNL     1      -7.890  18.035  68.675  1.00  0.00    -0.294 OA 
HETATM   16  O   UNL     1      -5.810  18.002  67.260  1.00  0.00    -0.131 OA 
BRANCH  14  17
HETATM   17  C   UNL     1      -6.570  15.795  68.389  1.00  0.00    -0.116 A  
HETATM   18  C   UNL     1      -6.966  15.464  69.688  1.00  0.00    -0.184 A  
HETATM   19  C   UNL     1      -6.610  14.225  70.219  1.00  0.00    -0.042 A  
HETATM   20  C   UNL     1      -5.872  13.321  69.451  1.00  0.00    -0.094 A  
HETATM   21  C   UNL     1      -5.504  13.644  68.145  1.00  0.00    -0.114 A  
HETATM   22  C   UNL     1      -5.867  14.877  67.602  1.00  0.00    -0.050 A  
ENDBRANCH  14  17
ENDBRANCH  12  14
ENDBRANCH   9  12
ENDBRANCH   5   6
ENDBRANCH   4   5
ENDBRANCH   3   4
ENDBRANCH   2   3
TORSDOF 7
ENDMDL
MODEL      213
REMARK 921   NORMALIZED FREE ENERGY PREDICTED BY IDOCK:   -3.17 KCAL/MOL
REMARK 922        TOTAL FREE ENERGY PREDICTED BY IDOCK:   -5.00 KCAL/MOL
REMARK 923 INTER-LIGAND FREE ENERGY PREDICTED BY IDOCK:   -4.62 KCAL/MOL
REMARK 924 INTRA-LIGAND FREE ENERGY PREDICTED BY IDOCK:   -0.38 KCAL/MOL
REMARK 927      BINDING AFFINITY PREDICTED BY RF-SCORE:    0.00 PKD
ROOT
HETATM    1  C   UNL     1      -8.954   7.097  73.941  1.00  0.00    -0.200 C  
HETATM    2  O   UNL     1     -10.371   7.072  73.895  1.00  0.00    -0.363 OA 
ENDROOT
BRANCH   2   3
HETATM    3  C   UNL     1     -10.882   5.810  73.459  1.00  0.00    -0.237 C  
BRANCH   3   4
HETATM    4  C   UNL     1      -9.788   5.143  72.635  1.00  0.00    -0.161 C  
BRANCH   4   5
HETATM    5  O   UNL     1     -10.301   4.550  71.437  1.00  0.00    -0.152 OA 
BRANCH   5   6
HETATM    6  C   UNL     1     -10.266   5.372  70.347  1.00  0.00    -0.262 A  
HETATM    7  C   UNL     1     -11.208   6.320  69.996  1.00  0.00    -0.412 A  
HETATM    8  N   UNL     1     -11.115   7.117  68.915  1.00  0.00    -0.057 NA 
HETATM    9  C   UNL     1     -10.037   6.938  68.161  1.00  0.00    -0.166 A  
HETATM   10  C   UNL     1      -9.197   5.287  69.474  1.00  0.00    -0.118 A  
HETATM   11  N   UNL     1      -9.056   6.053  68.362  1.00  0.00    -0.113 NA 
BRANCH   9  12
HETATM   12  N   UNL     1      -9.895   7.797  67.074  1.00  0.00    -0.197 N  
HETATM   13  H   UNL     1     -10.357   7.642  66.178  1.00  0.00     0.000 HD 
BRANCH  12  14
HETATM   14  S   UNL     1      -8.894   9.110  67.373  1.00  0.00    -0.117 S  
HETATM   15  O   UNL     1      -8.076   9.426  66.220  1.00  0.00    -0.109 OA 
HETATM   16  O   UNL     1      -8.286   8.875  68.665  1.00  0.00    -0.121 OA 
BRANCH  14  17
HETATM   17  C   UNL     1     -10.038  10.463  67.602  1.00  0.00    -0.188 A  
HETATM   18  C   UNL     1     -10.646  11.046  66.485  1.00  0.00    -0.310 A  
HETATM   19  C   UNL     1     -11.546  12.095  66.665  1.00  0.00    -0.416 A  
HETATM   20  C   UNL     1     -11.843  12.550  67.951  1.00  0.00    -0.383 A  
HETATM   21  C   UNL     1     -11.257  11.946  69.064  1.00  0.00    -0.316 A  
HETATM   22  C   UNL     1     -10.364  10.888  68.894  1.00  0.00    -0.222 A  
ENDBRANCH  14  17
ENDBRANCH  12  14
ENDBRANCH   9  12
ENDBRANCH   5   6
ENDBRANCH   4   5
ENDBRANCH   3   4
ENDBRANCH   2   3
TORSDOF 7
ENDMDL
MODEL      214
REMARK 921   NORMALIZED FREE ENERGY PREDICTED BY IDOCK:   -3.16 KCAL/MOL
REMARK 922        TOTAL FREE ENERGY PREDICTED BY IDOCK:   -4.98 KCAL/MOL
REMARK 923 INTER-LIGAND FREE ENERGY PREDICTED BY IDOCK:   -6.03 KCAL/MOL
REMARK 924 INTRA-LIGAND FREE ENERGY PREDICTED BY IDOCK:    1.05 KCAL/MOL
REMARK 927      BINDING AFFINITY PREDICTED BY RF-SCORE:    0.00 PKD
ROOT
HETATM    1  C   UNL     1      -6.163  20.087  69.996  1.00  0.00    -0.359 C  
HETATM    2  O   UNL     1      -6.217  20.836  68.793  1.00  0.00    -0.326 OA 
ENDROOT
BRANCH   2   3
HETATM    3  C   UNL     1      -6.824  20.108  67.722  1.00  0.00    -0.274 C  
BRANCH   3   4
HETATM    4  C   UNL     1      -8.128  19.529  68.255  1.00  0.00    -0.334 C  
BRANCH   4   5
HETATM    5  O   UNL     1      -9.042  19.201  67.203  1.00  0.00    -0.279 OA 
BRANCH   5   6
HETATM    6  C   UNL     1      -9.740  18.045  67.411  1.00  0.00    -0.296 A  
HETATM    7  C   UNL     1     -10.164  17.541  68.625  1.00  0.00    -0.373 A  
HETATM    8  N   UNL     1     -10.866  16.402  68.770  1.00  0.00    -0.318 NA 
HETATM    9  C   UNL     1     -11.137  15.748  67.646  1.00  0.00    -0.283 A  
HETATM   10  C   UNL     1     -10.087  17.265  66.323  1.00  0.00    -0.316 A  
HETATM   11  N   UNL     1     -10.780  16.100  66.408  1.00  0.00    -0.261 NA 
BRANCH   9  12
HETATM   12  N   UNL     1     -11.915  14.600  67.773  1.00  0.00    -0.545 N  
HETATM   13  H   UNL     1     -12.650  14.501  68.473  1.00  0.00     0.000 HD 
BRANCH  12  14
HETATM   14  S   UNL     1     -11.534  13.396  66.668  1.00  0.00    -0.361 S  
HETATM   15  O   UNL     1     -11.487  13.914  65.316  1.00  0.00    -0.303 OA 
HETATM   16  O   UNL     1     -12.372  12.262  66.994  1.00  0.00    -0.393 OA 
BRANCH  14  17
HETATM   17  C   UNL     1      -9.869  12.929  67.119  1.00  0.00    -0.225 A  
HETATM   18  C   UNL     1      -9.215  11.928  66.393  1.00  0.00    -0.218 A  
HETATM   19  C   UNL     1      -7.913  11.571  66.739  1.00  0.00    -0.152 A  
HETATM   20  C   UNL     1      -7.267  12.216  67.796  1.00  0.00    -0.113 A  
HETATM   21  C   UNL     1      -7.913  13.234  68.498  1.00  0.00    -0.097 A  
HETATM   22  C   UNL     1      -9.212  13.606  68.151  1.00  0.00    -0.204 A  
ENDBRANCH  14  17
ENDBRANCH  12  14
ENDBRANCH   9  12
ENDBRANCH   5   6
ENDBRANCH   4   5
ENDBRANCH   3   4
ENDBRANCH   2   3
TORSDOF 7
ENDMDL
MODEL      215
REMARK 921   NORMALIZED FREE ENERGY PREDICTED BY IDOCK:   -3.15 KCAL/MOL
REMARK 922        TOTAL FREE ENERGY PREDICTED BY IDOCK:   -4.98 KCAL/MOL
REMARK 923 INTER-LIGAND FREE ENERGY PREDICTED BY IDOCK:   -4.49 KCAL/MOL
REMARK 924 INTRA-LIGAND FREE ENERGY PREDICTED BY IDOCK:   -0.48 KCAL/MOL
REMARK 927      BINDING AFFINITY PREDICTED BY RF-SCORE:    0.00 PKD
ROOT
HETATM    1  C   UNL     1      -8.424  14.217  68.473  1.00  0.00    -0.157 C  
HETATM    2  O   UNL     1      -9.802  14.382  68.765  1.00  0.00    -0.232 OA 
ENDROOT
BRANCH   2   3
HETATM    3  C   UNL     1     -10.646  13.835  67.749  1.00  0.00    -0.246 C  
BRANCH   3   4
HETATM    4  C   UNL     1     -11.771  13.088  68.453  1.00  0.00    -0.351 C  
BRANCH   4   5
HETATM    5  O   UNL     1     -12.083  11.848  67.809  1.00  0.00    -0.564 OA 
BRANCH   5   6
HETATM    6  C   UNL     1     -11.434  10.767  68.334  1.00  0.00    -0.288 A  
HETATM    7  C   UNL     1     -11.536  10.287  69.625  1.00  0.00    -0.235 A  
HETATM    8  N   UNL     1     -10.884   9.204  70.086  1.00  0.00    -0.234 NA 
HETATM    9  C   UNL     1     -10.093   8.595  69.210  1.00  0.00    -0.202 A  
HETATM   10  C   UNL     1     -10.575  10.042  67.528  1.00  0.00    -0.280 A  
HETATM   11  N   UNL     1      -9.879   8.951  67.940  1.00  0.00    -0.161 NA 
BRANCH   9  12
HETATM   12  N   UNL     1      -9.459   7.436  69.653  1.00  0.00    -0.156 N  
HETATM   13  H   UNL     1      -8.603   7.448  70.207  1.00  0.00     0.000 HD 
BRANCH  12  14
HETATM   14  S   UNL     1     -10.232   6.021  69.190  1.00  0.00    -0.228 S  
HETATM   15  O   UNL     1     -11.463   6.299  68.478  1.00  0.00    -0.229 OA 
HETATM   16  O   UNL     1     -10.231   5.156  70.350  1.00  0.00    -0.240 OA 
BRANCH  14  17
HETATM   17  C   UNL     1      -9.095   5.287  68.023  1.00  0.00    -0.110 A  
HETATM   18  C   UNL     1      -9.475   4.139  67.321  1.00  0.00    -0.220 A  
HETATM   19  C   UNL     1      -8.591   3.572  66.404  1.00  0.00    -0.117 A  
HETATM   20  C   UNL     1      -7.342   4.156  66.184  1.00  0.00    -0.080 A  
HETATM   21  C   UNL     1      -6.979   5.318  66.864  1.00  0.00    -0.065 A  
HETATM   22  C   UNL     1      -7.862   5.898  67.775  1.00  0.00    -0.098 A  
ENDBRANCH  14  17
ENDBRANCH  12  14
ENDBRANCH   9  12
ENDBRANCH   5   6
ENDBRANCH   4   5
ENDBRANCH   3   4
ENDBRANCH   2   3
TORSDOF 7
ENDMDL
MODEL      216
REMARK 921   NORMALIZED FREE ENERGY PREDICTED BY IDOCK:   -3.14 KCAL/MOL
REMARK 922        TOTAL FREE ENERGY PREDICTED BY IDOCK:   -4.96 KCAL/MOL
REMARK 923 INTER-LIGAND FREE ENERGY PREDICTED BY IDOCK:   -4.92 KCAL/MOL
REMARK 924 INTRA-LIGAND FREE ENERGY PREDICTED BY IDOCK:   -0.04 KCAL/MOL
REMARK 927      BINDING AFFINITY PREDICTED BY RF-SCORE:    0.00 PKD
ROOT
HETATM    1  C   UNL     1     -14.401  14.722  71.955  1.00  0.00    -0.554 C  
HETATM    2  O   UNL     1     -13.171  15.305  72.353  1.00  0.00    -0.342 OA 
ENDROOT
BRANCH   2   3
HETATM    3  C   UNL     1     -12.427  15.821  71.246  1.00  0.00    -0.448 C  
BRANCH   3   4
HETATM    4  C   UNL     1     -12.280  14.690  70.237  1.00  0.00    -0.331 C  
BRANCH   4   5
HETATM    5  O   UNL     1     -11.047  14.768  69.515  1.00  0.00    -0.261 OA 
BRANCH   5   6
HETATM    6  C   UNL     1     -10.824  13.714  68.675  1.00  0.00    -0.263 A  
HETATM    7  C   UNL     1     -11.777  12.891  68.108  1.00  0.00    -0.352 A  
HETATM    8  N   UNL     1     -11.501  11.874  67.271  1.00  0.00    -0.415 NA 
HETATM    9  C   UNL     1     -10.213  11.679  67.010  1.00  0.00    -0.212 A  
HETATM   10  C   UNL     1      -9.524  13.399  68.323  1.00  0.00    -0.209 A  
HETATM   11  N   UNL     1      -9.183  12.377  67.496  1.00  0.00    -0.177 NA 
BRANCH   9  12
HETATM   12  N   UNL     1      -9.915  10.671  66.098  1.00  0.00    -0.220 N  
HETATM   13  H   UNL     1      -9.782  10.843  65.102  1.00  0.00     0.000 HD 
BRANCH  12  14
HETATM   14  S   UNL     1      -9.793   9.145  66.788  1.00  0.00    -0.248 S  
HETATM   15  O   UNL     1      -9.219   8.190  65.862  1.00  0.00    -0.171 OA 
HETATM   16  O   UNL     1     -11.065   8.882  67.424  1.00  0.00    -0.008 OA 
BRANCH  14  17
HETATM   17  C   UNL     1      -8.615   9.380  68.111  1.00  0.00    -0.120 A  
HETATM   18  C   UNL     1      -7.271   9.608  67.803  1.00  0.00    -0.085 A  
HETATM   19  C   UNL     1      -6.354   9.800  68.835  1.00  0.00    -0.041 A  
HETATM   20  C   UNL     1      -6.781   9.774  70.165  1.00  0.00    -0.100 A  
HETATM   21  C   UNL     1      -8.129   9.576  70.466  1.00  0.00    -0.199 A  
HETATM   22  C   UNL     1      -9.055   9.394  69.439  1.00  0.00    -0.162 A  
ENDBRANCH  14  17
ENDBRANCH  12  14
ENDBRANCH   9  12
ENDBRANCH   5   6
ENDBRANCH   4   5
ENDBRANCH   3   4
ENDBRANCH   2   3
TORSDOF 7
ENDMDL
MODEL      217
REMARK 921   NORMALIZED FREE ENERGY PREDICTED BY IDOCK:   -3.13 KCAL/MOL
REMARK 922        TOTAL FREE ENERGY PREDICTED BY IDOCK:   -4.94 KCAL/MOL
REMARK 923 INTER-LIGAND FREE ENERGY PREDICTED BY IDOCK:   -4.75 KCAL/MOL
REMARK 924 INTRA-LIGAND FREE ENERGY PREDICTED BY IDOCK:   -0.19 KCAL/MOL
REMARK 927      BINDING AFFINITY PREDICTED BY RF-SCORE:    0.00 PKD
ROOT
HETATM    1  C   UNL     1      -7.297   8.803  74.024  1.00  0.00     0.111 C  
HETATM    2  O   UNL     1      -8.488   8.510  73.311  1.00  0.00    -0.372 OA 
ENDROOT
BRANCH   2   3
HETATM    3  C   UNL     1      -8.229   7.939  72.026  1.00  0.00    -0.119 C  
BRANCH   3   4
HETATM    4  C   UNL     1      -8.664   6.481  72.087  1.00  0.00    -0.131 C  
BRANCH   4   5
HETATM    5  O   UNL     1      -9.968   6.283  71.529  1.00  0.00    -0.183 OA 
BRANCH   5   6
HETATM    6  C   UNL     1     -10.109   6.760  70.256  1.00  0.00    -0.179 A  
HETATM    7  C   UNL     1     -10.910   7.810  69.851  1.00  0.00    -0.226 A  
HETATM    8  N   UNL     1     -10.999   8.250  68.582  1.00  0.00     0.105 NA 
HETATM    9  C   UNL     1     -10.259   7.595  67.694  1.00  0.00    -0.214 A  
HETATM   10  C   UNL     1      -9.396   6.165  69.232  1.00  0.00    -0.134 A  
HETATM   11  N   UNL     1      -9.456   6.554  67.933  1.00  0.00    -0.121 NA 
BRANCH   9  12
HETATM   12  N   UNL     1     -10.292   8.077  66.388  1.00  0.00    -0.441 N  
HETATM   13  H   UNL     1     -10.893   7.683  65.665  1.00  0.00     0.000 HD 
BRANCH  12  14
HETATM   14  S   UNL     1      -9.252   9.366  66.114  1.00  0.00    -0.208 S  
HETATM   15  O   UNL     1      -8.311   9.070  65.053  1.00  0.00    -0.146 OA 
HETATM   16  O   UNL     1      -8.786   9.798  67.414  1.00  0.00    -0.131 OA 
BRANCH  14  17
HETATM   17  C   UNL     1     -10.336  10.657  65.522  1.00  0.00    -0.227 A  
HETATM   18  C   UNL     1     -11.145  11.346  66.430  1.00  0.00    -0.301 A  
HETATM   19  C   UNL     1     -11.984  12.360  65.969  1.00  0.00    -0.419 A  
HETATM   20  C   UNL     1     -12.005  12.688  64.612  1.00  0.00    -0.463 A  
HETATM   21  C   UNL     1     -11.174  12.017  63.714  1.00  0.00    -0.516 A  
HETATM   22  C   UNL     1     -10.324  11.009  64.169  1.00  0.00    -0.434 A  
ENDBRANCH  14  17
ENDBRANCH  12  14
ENDBRANCH   9  12
ENDBRANCH   5   6
ENDBRANCH   4   5
ENDBRANCH   3   4
ENDBRANCH   2   3
TORSDOF 7
ENDMDL
MODEL      218
REMARK 921   NORMALIZED FREE ENERGY PREDICTED BY IDOCK:   -3.11 KCAL/MOL
REMARK 922        TOTAL FREE ENERGY PREDICTED BY IDOCK:   -4.92 KCAL/MOL
REMARK 923 INTER-LIGAND FREE ENERGY PREDICTED BY IDOCK:   -5.08 KCAL/MOL
REMARK 924 INTRA-LIGAND FREE ENERGY PREDICTED BY IDOCK:    0.16 KCAL/MOL
REMARK 927      BINDING AFFINITY PREDICTED BY RF-SCORE:    0.00 PKD
ROOT
HETATM    1  C   UNL     1     -11.053  16.825  65.144  1.00  0.00    -0.033 C  
HETATM    2  O   UNL     1      -9.837  17.465  65.496  1.00  0.00    -0.536 OA 
ENDROOT
BRANCH   2   3
HETATM    3  C   UNL     1     -10.041  18.787  66.000  1.00  0.00    -0.317 C  
BRANCH   3   4
HETATM    4  C   UNL     1     -10.699  18.650  67.367  1.00  0.00    -0.402 C  
BRANCH   4   5
HETATM    5  O   UNL     1      -9.804  18.107  68.344  1.00  0.00    -0.329 OA 
BRANCH   5   6
HETATM    6  C   UNL     1      -9.831  16.744  68.429  1.00  0.00    -0.253 A  
HETATM    7  C   UNL     1      -8.752  15.887  68.334  1.00  0.00    -0.183 A  
HETATM    8  N   UNL     1      -8.834  14.548  68.442  1.00  0.00    -0.175 NA 
HETATM    9  C   UNL     1     -10.054  14.063  68.642  1.00  0.00    -0.217 A  
HETATM   10  C   UNL     1     -11.041  16.108  68.635  1.00  0.00    -0.356 A  
HETATM   11  N   UNL     1     -11.189  14.761  68.737  1.00  0.00    -0.257 NA 
BRANCH   9  12
HETATM   12  N   UNL     1     -10.148  12.685  68.818  1.00  0.00    -0.417 N  
HETATM   13  H   UNL     1     -10.621  12.256  69.613  1.00  0.00     0.000 HD 
BRANCH  12  14
HETATM   14  S   UNL     1      -9.412  11.793  67.601  1.00  0.00    -0.185 S  
HETATM   15  O   UNL     1      -7.996  12.088  67.512  1.00  0.00    -0.140 OA 
HETATM   16  O   UNL     1     -10.263  11.909  66.437  1.00  0.00    -0.203 OA 
BRANCH  14  17
HETATM   17  C   UNL     1      -9.571  10.106  68.167  1.00  0.00    -0.139 A  
HETATM   18  C   UNL     1      -9.305   9.056  67.282  1.00  0.00    -0.172 A  
HETATM   19  C   UNL     1      -9.419   7.739  67.725  1.00  0.00    -0.163 A  
HETATM   20  C   UNL     1      -9.789   7.476  69.046  1.00  0.00    -0.170 A  
HETATM   21  C   UNL     1     -10.025   8.526  69.933  1.00  0.00    -0.189 A  
HETATM   22  C   UNL     1      -9.901   9.847  69.501  1.00  0.00    -0.241 A  
ENDBRANCH  14  17
ENDBRANCH  12  14
ENDBRANCH   9  12
ENDBRANCH   5   6
ENDBRANCH   4   5
ENDBRANCH   3   4
ENDBRANCH   2   3
TORSDOF 7
ENDMDL
MODEL      219
REMARK 921   NORMALIZED FREE ENERGY PREDICTED BY IDOCK:   -3.10 KCAL/MOL
REMARK 922        TOTAL FREE ENERGY PREDICTED BY IDOCK:   -4.91 KCAL/MOL
REMARK 923 INTER-LIGAND FREE ENERGY PREDICTED BY IDOCK:   -4.43 KCAL/MOL
REMARK 924 INTRA-LIGAND FREE ENERGY PREDICTED BY IDOCK:   -0.48 KCAL/MOL
REMARK 927      BINDING AFFINITY PREDICTED BY RF-SCORE:    0.00 PKD
ROOT
HETATM    1  C   UNL     1      -9.394  17.440  68.228  1.00  0.00    -0.278 C  
HETATM    2  O   UNL     1     -10.425  16.470  68.137  1.00  0.00    -0.285 OA 
ENDROOT
BRANCH   2   3
HETATM    3  C   UNL     1     -10.780  16.176  66.783  1.00  0.00    -0.235 C  
BRANCH   3   4
HETATM    4  C   UNL     1      -9.844  15.075  66.302  1.00  0.00    -0.285 C  
BRANCH   4   5
HETATM    5  O   UNL     1     -10.555  13.985  65.705  1.00  0.00    -0.287 OA 
BRANCH   5   6
HETATM    6  C   UNL     1     -10.030  12.756  65.986  1.00  0.00    -0.271 A  
HETATM    7  C   UNL     1     -10.094  11.627  65.192  1.00  0.00    -0.262 A  
HETATM    8  N   UNL     1      -9.544  10.442  65.513  1.00  0.00    -0.215 NA 
HETATM    9  C   UNL     1      -8.919  10.397  66.684  1.00  0.00    -0.141 A  
HETATM   10  C   UNL     1      -9.354  12.570  67.178  1.00  0.00    -0.201 A  
HETATM   11  N   UNL     1      -8.792  11.396  67.563  1.00  0.00    -0.144 NA 
BRANCH   9  12
HETATM   12  N   UNL     1      -8.291   9.196  67.003  1.00  0.00    -0.119 N  
HETATM   13  H   UNL     1      -7.320   8.996  66.767  1.00  0.00     0.000 HD 
BRANCH  12  14
HETATM   14  S   UNL     1      -9.280   8.108  67.812  1.00  0.00    -0.134 S  
HETATM   15  O   UNL     1     -10.626   8.624  67.959  1.00  0.00    -0.212 OA 
HETATM   16  O   UNL     1      -8.533   7.657  68.967  1.00  0.00    -0.130 OA 
BRANCH  14  17
HETATM   17  C   UNL     1      -9.362   6.712  66.699  1.00  0.00    -0.163 A  
HETATM   18  C   UNL     1      -8.272   6.429  65.870  1.00  0.00    -0.130 A  
HETATM   19  C   UNL     1      -8.332   5.334  65.009  1.00  0.00    -0.146 A  
HETATM   20  C   UNL     1      -9.470   4.526  64.984  1.00  0.00    -0.156 A  
HETATM   21  C   UNL     1     -10.543   4.795  65.833  1.00  0.00    -0.290 A  
HETATM   22  C   UNL     1     -10.486   5.881  66.707  1.00  0.00    -0.344 A  
ENDBRANCH  14  17
ENDBRANCH  12  14
ENDBRANCH   9  12
ENDBRANCH   5   6
ENDBRANCH   4   5
ENDBRANCH   3   4
ENDBRANCH   2   3
TORSDOF 7
ENDMDL
MODEL      220
REMARK 921   NORMALIZED FREE ENERGY PREDICTED BY IDOCK:   -3.09 KCAL/MOL
REMARK 922        TOTAL FREE ENERGY PREDICTED BY IDOCK:   -4.88 KCAL/MOL
REMARK 923 INTER-LIGAND FREE ENERGY PREDICTED BY IDOCK:   -4.68 KCAL/MOL
REMARK 924 INTRA-LIGAND FREE ENERGY PREDICTED BY IDOCK:   -0.20 KCAL/MOL
REMARK 927      BINDING AFFINITY PREDICTED BY RF-SCORE:    0.00 PKD
ROOT
HETATM    1  C   UNL     1      -7.493   7.219  65.548  1.00  0.00    -0.085 C  
HETATM    2  O   UNL     1      -6.555   7.539  66.563  1.00  0.00    -0.051 OA 
ENDROOT
BRANCH   2   3
HETATM    3  C   UNL     1      -6.946   8.682  67.328  1.00  0.00    -0.075 C  
BRANCH   3   4
HETATM    4  C   UNL     1      -6.827   9.895  66.415  1.00  0.00    -0.090 C  
BRANCH   4   5
HETATM    5  O   UNL     1      -6.218  11.010  67.076  1.00  0.00    -0.066 OA 
BRANCH   5   6
HETATM    6  C   UNL     1      -7.097  11.990  67.443  1.00  0.00    -0.136 A  
HETATM    7  C   UNL     1      -6.791  13.299  67.761  1.00  0.00    -0.153 A  
HETATM    8  N   UNL     1      -7.702  14.229  68.101  1.00  0.00    -0.128 NA 
HETATM    9  C   UNL     1      -8.963  13.813  68.132  1.00  0.00    -0.190 A  
HETATM   10  C   UNL     1      -8.444  11.690  67.518  1.00  0.00    -0.150 A  
HETATM   11  N   UNL     1      -9.407  12.581  67.870  1.00  0.00    -0.193 NA 
BRANCH   9  12
HETATM   12  N   UNL     1      -9.924  14.779  68.421  1.00  0.00    -0.217 N  
HETATM   13  H   UNL     1     -10.180  15.041  69.373  1.00  0.00     0.000 HD 
BRANCH  12  14
HETATM   14  S   UNL     1     -10.623  15.471  67.061  1.00  0.00    -0.312 S  
HETATM   15  O   UNL     1     -12.027  15.131  66.957  1.00  0.00    -0.147 OA 
HETATM   16  O   UNL     1      -9.719  15.212  65.961  1.00  0.00    -0.287 OA 
BRANCH  14  17
HETATM   17  C   UNL     1     -10.520  17.225  67.386  1.00  0.00    -0.338 A  
HETATM   18  C   UNL     1     -10.184  17.667  68.670  1.00  0.00    -0.377 A  
HETATM   19  C   UNL     1     -10.094  19.036  68.921  1.00  0.00    -0.396 A  
HETATM   20  C   UNL     1     -10.329  19.952  67.894  1.00  0.00    -0.545 A  
HETATM   21  C   UNL     1     -10.635  19.506  66.609  1.00  0.00    -0.583 A  
HETATM   22  C   UNL     1     -10.716  18.138  66.346  1.00  0.00    -0.163 A  
ENDBRANCH  14  17
ENDBRANCH  12  14
ENDBRANCH   9  12
ENDBRANCH   5   6
ENDBRANCH   4   5
ENDBRANCH   3   4
ENDBRANCH   2   3
TORSDOF 7
ENDMDL
MODEL      221
REMARK 921   NORMALIZED FREE ENERGY PREDICTED BY IDOCK:   -3.07 KCAL/MOL
REMARK 922        TOTAL FREE ENERGY PREDICTED BY IDOCK:   -4.86 KCAL/MOL
REMARK 923 INTER-LIGAND FREE ENERGY PREDICTED BY IDOCK:   -4.27 KCAL/MOL
REMARK 924 INTRA-LIGAND FREE ENERGY PREDICTED BY IDOCK:   -0.59 KCAL/MOL
REMARK 927      BINDING AFFINITY PREDICTED BY RF-SCORE:    0.00 PKD
ROOT
HETATM    1  C   UNL     1     -12.611  13.935  65.356  1.00  0.00    -0.507 C  
HETATM    2  O   UNL     1     -11.343  14.477  65.687  1.00  0.00    -0.326 OA 
ENDROOT
BRANCH   2   3
HETATM    3  C   UNL     1     -11.293  14.970  67.029  1.00  0.00    -0.318 C  
BRANCH   3   4
HETATM    4  C   UNL     1     -10.217  14.178  67.759  1.00  0.00    -0.242 C  
BRANCH   4   5
HETATM    5  O   UNL     1      -9.494  13.311  66.878  1.00  0.00    -0.233 OA 
BRANCH   5   6
HETATM    6  C   UNL     1      -9.497  11.999  67.259  1.00  0.00    -0.181 A  
HETATM    7  C   UNL     1      -9.122  10.913  66.491  1.00  0.00    -0.169 A  
HETATM    8  N   UNL     1      -9.129   9.639  66.924  1.00  0.00    -0.137 NA 
HETATM    9  C   UNL     1      -9.541   9.460  68.174  1.00  0.00    -0.142 A  
HETATM   10  C   UNL     1      -9.907  11.672  68.538  1.00  0.00    -0.193 A  
HETATM   11  N   UNL     1      -9.950  10.405  69.026  1.00  0.00    -0.204 NA 
BRANCH   9  12
HETATM   12  N   UNL     1      -9.495   8.155  68.658  1.00  0.00    -0.147 N  
HETATM   13  H   UNL     1     -10.263   7.493  68.546  1.00  0.00     0.000 HD 
BRANCH  12  14
HETATM   14  S   UNL     1      -8.062   7.772  69.442  1.00  0.00    -0.128 S  
HETATM   15  O   UNL     1      -7.058   8.798  69.241  1.00  0.00    -0.060 OA 
HETATM   16  O   UNL     1      -7.778   6.390  69.121  1.00  0.00    -0.097 OA 
BRANCH  14  17
HETATM   17  C   UNL     1      -8.513   7.798  71.171  1.00  0.00    -0.112 A  
HETATM   18  C   UNL     1      -7.516   7.958  72.138  1.00  0.00    -0.096 A  
HETATM   19  C   UNL     1      -7.869   7.988  73.487  1.00  0.00    -0.231 A  
HETATM   20  C   UNL     1      -9.209   7.868  73.863  1.00  0.00    -0.171 A  
HETATM   21  C   UNL     1     -10.202   7.739  72.892  1.00  0.00    -0.377 A  
HETATM   22  C   UNL     1      -9.859   7.720  71.540  1.00  0.00    -0.200 A  
ENDBRANCH  14  17
ENDBRANCH  12  14
ENDBRANCH   9  12
ENDBRANCH   5   6
ENDBRANCH   4   5
ENDBRANCH   3   4
ENDBRANCH   2   3
TORSDOF 7
ENDMDL
MODEL      222
REMARK 921   NORMALIZED FREE ENERGY PREDICTED BY IDOCK:   -3.04 KCAL/MOL
REMARK 922        TOTAL FREE ENERGY PREDICTED BY IDOCK:   -4.82 KCAL/MOL
REMARK 923 INTER-LIGAND FREE ENERGY PREDICTED BY IDOCK:   -4.41 KCAL/MOL
REMARK 924 INTRA-LIGAND FREE ENERGY PREDICTED BY IDOCK:   -0.40 KCAL/MOL
REMARK 927      BINDING AFFINITY PREDICTED BY RF-SCORE:    0.00 PKD
ROOT
HETATM    1  C   UNL     1      -6.658   8.455  74.509  1.00  0.00    -0.140 C  
HETATM    2  O   UNL     1      -8.075   8.506  74.505  1.00  0.00    -0.270 OA 
ENDROOT
BRANCH   2   3
HETATM    3  C   UNL     1      -8.637   8.011  73.287  1.00  0.00    -0.235 C  
BRANCH   3   4
HETATM    4  C   UNL     1     -10.087   7.646  73.577  1.00  0.00    -0.285 C  
BRANCH   4   5
HETATM    5  O   UNL     1     -11.005   8.426  72.803  1.00  0.00    -0.317 OA 
BRANCH   5   6
HETATM    6  C   UNL     1     -10.997   8.136  71.468  1.00  0.00    -0.243 A  
HETATM    7  C   UNL     1     -10.727   9.009  70.433  1.00  0.00    -0.227 A  
HETATM    8  N   UNL     1     -10.717   8.664  69.132  1.00  0.00    -0.170 NA 
HETATM    9  C   UNL     1     -11.004   7.393  68.873  1.00  0.00     0.029 A  
HETATM   10  C   UNL     1     -11.282   6.846  71.060  1.00  0.00    -0.282 A  
HETATM   11  N   UNL     1     -11.303   6.442  69.763  1.00  0.00    -0.416 NA 
BRANCH   9  12
HETATM   12  N   UNL     1     -10.938   7.005  67.538  1.00  0.00    -0.519 N  
HETATM   13  H   UNL     1     -11.741   7.029  66.911  1.00  0.00     0.000 HD 
BRANCH  12  14
HETATM   14  S   UNL     1      -9.414   6.495  67.054  1.00  0.00    -0.143 S  
HETATM   15  O   UNL     1      -9.498   5.456  66.047  1.00  0.00    -0.158 OA 
HETATM   16  O   UNL     1      -8.649   6.286  68.265  1.00  0.00    -0.117 OA 
BRANCH  14  17
HETATM   17  C   UNL     1      -8.719   7.942  66.271  1.00  0.00    -0.154 A  
HETATM   18  C   UNL     1      -9.572   8.897  65.710  1.00  0.00    -0.245 A  
HETATM   19  C   UNL     1      -9.030  10.032  65.107  1.00  0.00    -0.227 A  
HETATM   20  C   UNL     1      -7.646  10.213  65.075  1.00  0.00    -0.141 A  
HETATM   21  C   UNL     1      -6.799   9.272  65.662  1.00  0.00    -0.074 A  
HETATM   22  C   UNL     1      -7.334   8.140  66.277  1.00  0.00    -0.078 A  
ENDBRANCH  14  17
ENDBRANCH  12  14
ENDBRANCH   9  12
ENDBRANCH   5   6
ENDBRANCH   4   5
ENDBRANCH   3   4
ENDBRANCH   2   3
TORSDOF 7
ENDMDL
MODEL      223
REMARK 921   NORMALIZED FREE ENERGY PREDICTED BY IDOCK:   -3.03 KCAL/MOL
REMARK 922        TOTAL FREE ENERGY PREDICTED BY IDOCK:   -4.81 KCAL/MOL
REMARK 923 INTER-LIGAND FREE ENERGY PREDICTED BY IDOCK:   -4.32 KCAL/MOL
REMARK 924 INTRA-LIGAND FREE ENERGY PREDICTED BY IDOCK:   -0.49 KCAL/MOL
REMARK 927      BINDING AFFINITY PREDICTED BY RF-SCORE:    0.00 PKD
ROOT
HETATM    1  C   UNL     1      -6.630   8.481  74.465  1.00  0.00    -0.145 C  
HETATM    2  O   UNL     1      -8.048   8.489  74.416  1.00  0.00    -0.312 OA 
ENDROOT
BRANCH   2   3
HETATM    3  C   UNL     1      -8.555   7.969  73.184  1.00  0.00    -0.220 C  
BRANCH   3   4
HETATM    4  C   UNL     1      -9.977   7.492  73.449  1.00  0.00    -0.323 C  
BRANCH   4   5
HETATM    5  O   UNL     1     -10.931   8.140  72.601  1.00  0.00    -0.351 OA 
BRANCH   5   6
HETATM    6  C   UNL     1     -10.863   7.759  71.290  1.00  0.00    -0.231 A  
HETATM    7  C   UNL     1     -10.638   8.578  70.201  1.00  0.00    -0.232 A  
HETATM    8  N   UNL     1     -10.564   8.145  68.929  1.00  0.00    -0.184 NA 
HETATM    9  C   UNL     1     -10.736   6.839  68.756  1.00  0.00    -0.239 A  
HETATM   10  C   UNL     1     -11.027   6.424  70.970  1.00  0.00    -0.274 A  
HETATM   11  N   UNL     1     -10.979   5.930  69.706  1.00  0.00    -0.378 NA 
BRANCH   9  12
HETATM   12  N   UNL     1     -10.601   6.366  67.454  1.00  0.00    -0.251 N  
HETATM   13  H   UNL     1     -11.395   6.101  66.873  1.00  0.00     0.000 HD 
BRANCH  12  14
HETATM   14  S   UNL     1      -9.010   6.272  66.927  1.00  0.00    -0.123 S  
HETATM   15  O   UNL     1      -8.119   5.886  68.003  1.00  0.00    -0.104 OA 
HETATM   16  O   UNL     1      -8.761   7.473  66.161  1.00  0.00    -0.144 OA 
BRANCH  14  17
HETATM   17  C   UNL     1      -9.039   4.928  65.750  1.00  0.00    -0.148 A  
HETATM   18  C   UNL     1     -10.261   4.514  65.210  1.00  0.00    -0.186 A  
HETATM   19  C   UNL     1     -10.282   3.472  64.284  1.00  0.00    -0.200 A  
HETATM   20  C   UNL     1      -9.091   2.857  63.894  1.00  0.00    -0.103 A  
HETATM   21  C   UNL     1      -7.871   3.293  64.413  1.00  0.00    -0.082 A  
HETATM   22  C   UNL     1      -7.840   4.343  65.332  1.00  0.00    -0.090 A  
ENDBRANCH  14  17
ENDBRANCH  12  14
ENDBRANCH   9  12
ENDBRANCH   5   6
ENDBRANCH   4   5
ENDBRANCH   3   4
ENDBRANCH   2   3
TORSDOF 7
ENDMDL
MODEL      224
REMARK 921   NORMALIZED FREE ENERGY PREDICTED BY IDOCK:   -3.01 KCAL/MOL
REMARK 922        TOTAL FREE ENERGY PREDICTED BY IDOCK:   -4.78 KCAL/MOL
REMARK 923 INTER-LIGAND FREE ENERGY PREDICTED BY IDOCK:   -4.36 KCAL/MOL
REMARK 924 INTRA-LIGAND FREE ENERGY PREDICTED BY IDOCK:   -0.41 KCAL/MOL
REMARK 927      BINDING AFFINITY PREDICTED BY RF-SCORE:    0.00 PKD
ROOT
HETATM    1  C   UNL     1      -9.260   1.788  64.750  1.00  0.00    -0.124 C  
HETATM    2  O   UNL     1      -8.813   2.989  64.143  1.00  0.00    -0.096 OA 
ENDROOT
BRANCH   2   3
HETATM    3  C   UNL     1      -9.598   4.121  64.526  1.00  0.00    -0.168 C  
BRANCH   3   4
HETATM    4  C   UNL     1      -8.630   5.255  64.836  1.00  0.00    -0.145 C  
BRANCH   4   5
HETATM    5  O   UNL     1      -8.450   5.442  66.244  1.00  0.00    -0.113 OA 
BRANCH   5   6
HETATM    6  C   UNL     1      -8.726   6.707  66.680  1.00  0.00    -0.126 A  
HETATM    7  C   UNL     1      -7.818   7.726  66.892  1.00  0.00    -0.107 A  
HETATM    8  N   UNL     1      -8.149   8.962  67.308  1.00  0.00    -0.104 NA 
HETATM    9  C   UNL     1      -9.443   9.167  67.527  1.00  0.00    -0.139 A  
HETATM   10  C   UNL     1     -10.037   7.053  66.948  1.00  0.00    -0.226 A  
HETATM   11  N   UNL     1     -10.430   8.278  67.384  1.00  0.00    -0.280 NA 
BRANCH   9  12
HETATM   12  N   UNL     1      -9.809  10.458  67.898  1.00  0.00    -0.152 N  
HETATM   13  H   UNL     1      -9.609  10.850  68.817  1.00  0.00     0.000 HD 
BRANCH  12  14
HETATM   14  S   UNL     1     -10.610  11.309  66.693  1.00  0.00    -0.269 S  
HETATM   15  O   UNL     1     -12.026  11.424  66.979  1.00  0.00    -0.492 OA 
HETATM   16  O   UNL     1     -10.155  10.760  65.434  1.00  0.00    -0.255 OA 
BRANCH  14  17
HETATM   17  C   UNL     1      -9.908  12.948  66.804  1.00  0.00    -0.241 A  
HETATM   18  C   UNL     1      -9.077  13.269  67.882  1.00  0.00    -0.203 A  
HETATM   19  C   UNL     1      -8.522  14.545  67.963  1.00  0.00    -0.161 A  
HETATM   20  C   UNL     1      -8.787  15.488  66.968  1.00  0.00    -0.255 A  
HETATM   21  C   UNL     1      -9.592  15.154  65.879  1.00  0.00    -0.373 A  
HETATM   22  C   UNL     1     -10.143  13.876  65.784  1.00  0.00    -0.336 A  
ENDBRANCH  14  17
ENDBRANCH  12  14
ENDBRANCH   9  12
ENDBRANCH   5   6
ENDBRANCH   4   5
ENDBRANCH   3   4
ENDBRANCH   2   3
TORSDOF 7
ENDMDL
MODEL      225
REMARK 921   NORMALIZED FREE ENERGY PREDICTED BY IDOCK:   -3.00 KCAL/MOL
REMARK 922        TOTAL FREE ENERGY PREDICTED BY IDOCK:   -4.77 KCAL/MOL
REMARK 923 INTER-LIGAND FREE ENERGY PREDICTED BY IDOCK:   -4.47 KCAL/MOL
REMARK 924 INTRA-LIGAND FREE ENERGY PREDICTED BY IDOCK:   -0.30 KCAL/MOL
REMARK 927      BINDING AFFINITY PREDICTED BY RF-SCORE:    0.00 PKD
ROOT
HETATM    1  C   UNL     1      -7.907   2.595  64.854  1.00  0.00    -0.081 C  
HETATM    2  O   UNL     1      -7.496   3.923  64.571  1.00  0.00    -0.073 OA 
ENDROOT
BRANCH   2   3
HETATM    3  C   UNL     1      -8.545   4.874  64.772  1.00  0.00    -0.149 C  
BRANCH   3   4
HETATM    4  C   UNL     1      -7.963   6.252  64.488  1.00  0.00    -0.121 C  
BRANCH   4   5
HETATM    5  O   UNL     1      -7.842   7.042  65.675  1.00  0.00    -0.099 OA 
BRANCH   5   6
HETATM    6  C   UNL     1      -8.400   8.286  65.578  1.00  0.00    -0.155 A  
HETATM    7  C   UNL     1      -9.663   8.661  65.993  1.00  0.00    -0.168 A  
HETATM    8  N   UNL     1     -10.157   9.908  65.887  1.00  0.00    -0.268 NA 
HETATM    9  C   UNL     1      -9.345  10.801  65.331  1.00  0.00    -0.207 A  
HETATM   10  C   UNL     1      -7.662   9.310  65.015  1.00  0.00    -0.109 A  
HETATM   11  N   UNL     1      -8.111  10.583  64.867  1.00  0.00    -0.129 NA 
BRANCH   9  12
HETATM   12  N   UNL     1      -9.817  12.110  65.270  1.00  0.00    -0.352 N  
HETATM   13  H   UNL     1      -9.910  12.628  64.397  1.00  0.00     0.000 HD 
BRANCH  12  14
HETATM   14  S   UNL     1     -10.219  12.756  66.766  1.00  0.00    -0.242 S  
HETATM   15  O   UNL     1      -9.416  12.178  67.825  1.00  0.00    -0.181 OA 
HETATM   16  O   UNL     1     -11.663  12.740  66.844  1.00  0.00    -0.346 OA 
BRANCH  14  17
HETATM   17  C   UNL     1      -9.749  14.474  66.618  1.00  0.00    -0.273 A  
HETATM   18  C   UNL     1      -8.460  14.868  66.987  1.00  0.00    -0.260 A  
HETATM   19  C   UNL     1      -8.090  16.207  66.862  1.00  0.00    -0.275 A  
HETATM   20  C   UNL     1      -9.001  17.140  66.363  1.00  0.00    -0.291 A  
HETATM   21  C   UNL     1     -10.277  16.737  65.967  1.00  0.00    -0.361 A  
HETATM   22  C   UNL     1     -10.650  15.397  66.078  1.00  0.00    -0.330 A  
ENDBRANCH  14  17
ENDBRANCH  12  14
ENDBRANCH   9  12
ENDBRANCH   5   6
ENDBRANCH   4   5
ENDBRANCH   3   4
ENDBRANCH   2   3
TORSDOF 7
ENDMDL
MODEL      226
REMARK 921   NORMALIZED FREE ENERGY PREDICTED BY IDOCK:   -2.92 KCAL/MOL
REMARK 922        TOTAL FREE ENERGY PREDICTED BY IDOCK:   -4.64 KCAL/MOL
REMARK 923 INTER-LIGAND FREE ENERGY PREDICTED BY IDOCK:   -4.71 KCAL/MOL
REMARK 924 INTRA-LIGAND FREE ENERGY PREDICTED BY IDOCK:    0.06 KCAL/MOL
REMARK 927      BINDING AFFINITY PREDICTED BY RF-SCORE:    0.00 PKD
ROOT
HETATM    1  C   UNL     1      -9.145  10.223  62.597  1.00  0.00    -0.286 C  
HETATM    2  O   UNL     1     -10.203  10.723  63.399  1.00  0.00    -0.330 OA 
ENDROOT
BRANCH   2   3
HETATM    3  C   UNL     1      -9.769  11.747  64.298  1.00  0.00    -0.146 C  
BRANCH   3   4
HETATM    4  C   UNL     1     -10.917  12.012  65.264  1.00  0.00    -0.308 C  
BRANCH   4   5
HETATM    5  O   UNL     1     -10.453  12.281  66.591  1.00  0.00    -0.219 OA 
BRANCH   5   6
HETATM    6  C   UNL     1     -10.584  11.229  67.453  1.00  0.00    -0.224 A  
HETATM    7  C   UNL     1     -10.641   9.889  67.121  1.00  0.00    -0.228 A  
HETATM    8  N   UNL     1     -10.754   8.890  68.015  1.00  0.00    -0.162 NA 
HETATM    9  C   UNL     1     -10.823   9.264  69.287  1.00  0.00    -0.152 A  
HETATM   10  C   UNL     1     -10.669  11.479  68.810  1.00  0.00    -0.211 A  
HETATM   11  N   UNL     1     -10.799  10.514  69.758  1.00  0.00    -0.273 NA 
BRANCH   9  12
HETATM   12  N   UNL     1     -10.878   8.240  70.229  1.00  0.00    -0.240 N  
HETATM   13  H   UNL     1     -11.487   8.266  71.046  1.00  0.00     0.000 HD 
BRANCH  12  14
HETATM   14  S   UNL     1      -9.848   6.957  69.896  1.00  0.00    -0.165 S  
HETATM   15  O   UNL     1      -8.461   7.375  69.907  1.00  0.00    -0.135 OA 
HETATM   16  O   UNL     1     -10.403   6.275  68.747  1.00  0.00    -0.168 OA 
BRANCH  14  17
HETATM   17  C   UNL     1     -10.086   5.860  71.287  1.00  0.00    -0.196 A  
HETATM   18  C   UNL     1      -9.405   4.639  71.324  1.00  0.00    -0.205 A  
HETATM   19  C   UNL     1      -9.583   3.788  72.414  1.00  0.00    -0.198 A  
HETATM   20  C   UNL     1     -10.428   4.160  73.462  1.00  0.00    -0.257 A  
HETATM   21  C   UNL     1     -11.082   5.392  73.434  1.00  0.00    -0.326 A  
HETATM   22  C   UNL     1     -10.900   6.255  72.353  1.00  0.00    -0.277 A  
ENDBRANCH  14  17
ENDBRANCH  12  14
ENDBRANCH   9  12
ENDBRANCH   5   6
ENDBRANCH   4   5
ENDBRANCH   3   4
ENDBRANCH   2   3
TORSDOF 7
ENDMDL
MODEL      227
REMARK 921   NORMALIZED FREE ENERGY PREDICTED BY IDOCK:   -2.89 KCAL/MOL
REMARK 922        TOTAL FREE ENERGY PREDICTED BY IDOCK:   -4.61 KCAL/MOL
REMARK 923 INTER-LIGAND FREE ENERGY PREDICTED BY IDOCK:   -5.24 KCAL/MOL
REMARK 924 INTRA-LIGAND FREE ENERGY PREDICTED BY IDOCK:    0.63 KCAL/MOL
REMARK 927      BINDING AFFINITY PREDICTED BY RF-SCORE:    0.00 PKD
ROOT
HETATM    1  C   UNL     1      -6.135   6.345  62.426  1.00  0.00    -0.030 C  
HETATM    2  O   UNL     1      -5.390   7.533  62.642  1.00  0.00    -0.044 OA 
ENDROOT
BRANCH   2   3
HETATM    3  C   UNL     1      -6.138   8.527  63.347  1.00  0.00    -0.077 C  
BRANCH   3   4
HETATM    4  C   UNL     1      -7.601   8.105  63.301  1.00  0.00    -0.132 C  
BRANCH   4   5
HETATM    5  O   UNL     1      -8.403   9.021  62.548  1.00  0.00    -0.170 OA 
BRANCH   5   6
HETATM    6  C   UNL     1      -8.995   9.995  63.302  1.00  0.00    -0.258 A  
HETATM    7  C   UNL     1      -9.536  11.181  62.845  1.00  0.00    -0.359 A  
HETATM    8  N   UNL     1     -10.123  12.100  63.633  1.00  0.00    -0.409 NA 
HETATM    9  C   UNL     1     -10.151  11.811  64.929  1.00  0.00    -0.259 A  
HETATM   10  C   UNL     1      -9.088   9.821  64.670  1.00  0.00    -0.245 A  
HETATM   11  N   UNL     1      -9.655  10.719  65.518  1.00  0.00    -0.207 NA 
BRANCH   9  12
HETATM   12  N   UNL     1     -10.810  12.722  65.751  1.00  0.00    -0.269 N  
HETATM   13  H   UNL     1     -11.247  13.574  65.399  1.00  0.00     0.000 HD 
BRANCH  12  14
HETATM   14  S   UNL     1     -10.821  12.290  67.372  1.00  0.00    -0.250 S  
HETATM   15  O   UNL     1      -9.607  11.590  67.741  1.00  0.00    -0.168 OA 
HETATM   16  O   UNL     1     -12.117  11.703  67.630  1.00  0.00    -0.615 OA 
BRANCH  14  17
HETATM   17  C   UNL     1     -10.810  13.862  68.222  1.00  0.00    -0.249 A  
HETATM   18  C   UNL     1     -12.015  14.408  68.673  1.00  0.00    -0.332 A  
HETATM   19  C   UNL     1     -12.006  15.630  69.345  1.00  0.00    -0.349 A  
HETATM   20  C   UNL     1     -10.798  16.294  69.571  1.00  0.00    -0.342 A  
HETATM   21  C   UNL     1      -9.595  15.731  69.146  1.00  0.00    -0.255 A  
HETATM   22  C   UNL     1      -9.595  14.503  68.483  1.00  0.00    -0.220 A  
ENDBRANCH  14  17
ENDBRANCH  12  14
ENDBRANCH   9  12
ENDBRANCH   5   6
ENDBRANCH   4   5
ENDBRANCH   3   4
ENDBRANCH   2   3
TORSDOF 7
ENDMDL
MODEL      228
REMARK 921   NORMALIZED FREE ENERGY PREDICTED BY IDOCK:   -2.89 KCAL/MOL
REMARK 922        TOTAL FREE ENERGY PREDICTED BY IDOCK:   -4.61 KCAL/MOL
REMARK 923 INTER-LIGAND FREE ENERGY PREDICTED BY IDOCK:   -4.17 KCAL/MOL
REMARK 924 INTRA-LIGAND FREE ENERGY PREDICTED BY IDOCK:   -0.44 KCAL/MOL
REMARK 927      BINDING AFFINITY PREDICTED BY RF-SCORE:    0.00 PKD
ROOT
HETATM    1  C   UNL     1      -5.572   5.409  65.910  1.00  0.00    -0.013 C  
HETATM    2  O   UNL     1      -6.939   5.043  65.818  1.00  0.00    -0.063 OA 
ENDROOT
BRANCH   2   3
HETATM    3  C   UNL     1      -7.689   5.432  66.972  1.00  0.00    -0.100 C  
BRANCH   3   4
HETATM    4  C   UNL     1      -9.066   5.865  66.487  1.00  0.00    -0.143 C  
BRANCH   4   5
HETATM    5  O   UNL     1      -9.045   7.169  65.896  1.00  0.00    -0.122 OA 
BRANCH   5   6
HETATM    6  C   UNL     1      -9.422   8.173  66.743  1.00  0.00    -0.198 A  
HETATM    7  C   UNL     1     -10.457   8.138  67.657  1.00  0.00    -0.231 A  
HETATM    8  N   UNL     1     -10.775   9.154  68.481  1.00  0.00    -0.164 NA 
HETATM    9  C   UNL     1     -10.026  10.245  68.363  1.00  0.00    -0.157 A  
HETATM   10  C   UNL     1      -8.726   9.367  66.722  1.00  0.00    -0.127 A  
HETATM   11  N   UNL     1      -9.010  10.431  67.516  1.00  0.00    -0.135 NA 
BRANCH   9  12
HETATM   12  N   UNL     1     -10.303  11.281  69.251  1.00  0.00    -0.407 N  
HETATM   13  H   UNL     1      -9.857  11.366  70.164  1.00  0.00     0.000 HD 
BRANCH  12  14
HETATM   14  S   UNL     1     -11.437  12.379  68.680  1.00  0.00    -0.327 S  
HETATM   15  O   UNL     1     -12.341  12.801  69.730  1.00  0.00    -0.170 OA 
HETATM   16  O   UNL     1     -11.950  11.830  67.443  1.00  0.00    -0.617 OA 
BRANCH  14  17
HETATM   17  C   UNL     1     -10.451  13.797  68.222  1.00  0.00    -0.248 A  
HETATM   18  C   UNL     1      -9.178  13.958  68.778  1.00  0.00    -0.013 A  
HETATM   19  C   UNL     1      -8.405  15.059  68.413  1.00  0.00    -0.154 A  
HETATM   20  C   UNL     1      -8.898  15.986  67.493  1.00  0.00    -0.198 A  
HETATM   21  C   UNL     1     -10.157  15.806  66.918  1.00  0.00    -0.267 A  
HETATM   22  C   UNL     1     -10.932  14.700  67.269  1.00  0.00    -0.317 A  
ENDBRANCH  14  17
ENDBRANCH  12  14
ENDBRANCH   9  12
ENDBRANCH   5   6
ENDBRANCH   4   5
ENDBRANCH   3   4
ENDBRANCH   2   3
TORSDOF 7
ENDMDL
MODEL      229
REMARK 921   NORMALIZED FREE ENERGY PREDICTED BY IDOCK:   -2.88 KCAL/MOL
REMARK 922        TOTAL FREE ENERGY PREDICTED BY IDOCK:   -4.59 KCAL/MOL
REMARK 923 INTER-LIGAND FREE ENERGY PREDICTED BY IDOCK:   -4.09 KCAL/MOL
REMARK 924 INTRA-LIGAND FREE ENERGY PREDICTED BY IDOCK:   -0.51 KCAL/MOL
REMARK 927      BINDING AFFINITY PREDICTED BY RF-SCORE:    0.00 PKD
ROOT
HETATM    1  C   UNL     1      -8.401   7.987  73.923  1.00  0.00    -0.260 C  
HETATM    2  O   UNL     1      -9.675   7.397  74.122  1.00  0.00    -0.232 OA 
ENDROOT
BRANCH   2   3
HETATM    3  C   UNL     1      -9.877   6.243  73.301  1.00  0.00    -0.168 C  
BRANCH   3   4
HETATM    4  C   UNL     1     -10.991   6.581  72.319  1.00  0.00    -0.249 C  
BRANCH   4   5
HETATM    5  O   UNL     1     -11.387   7.954  72.403  1.00  0.00    -0.314 OA 
BRANCH   5   6
HETATM    6  C   UNL     1     -11.230   8.654  71.241  1.00  0.00    -0.276 A  
HETATM    7  C   UNL     1     -11.440  10.007  71.054  1.00  0.00    -0.383 A  
HETATM    8  N   UNL     1     -11.253  10.650  69.887  1.00  0.00    -0.288 NA 
HETATM    9  C   UNL     1     -10.849   9.892  68.873  1.00  0.00    -0.210 A  
HETATM   10  C   UNL     1     -10.815   7.985  70.105  1.00  0.00    -0.242 A  
HETATM   11  N   UNL     1     -10.624   8.576  68.897  1.00  0.00    -0.187 NA 
BRANCH   9  12
HETATM   12  N   UNL     1     -10.591  10.552  67.674  1.00  0.00    -0.230 N  
HETATM   13  H   UNL     1     -11.305  10.719  66.966  1.00  0.00     0.000 HD 
BRANCH  12  14
HETATM   14  S   UNL     1      -8.997  11.048  67.503  1.00  0.00    -0.138 S  
HETATM   15  O   UNL     1      -8.438  11.479  68.768  1.00  0.00    -0.137 OA 
HETATM   16  O   UNL     1      -8.962  11.919  66.348  1.00  0.00    -0.202 OA 
BRANCH  14  17
HETATM   17  C   UNL     1      -8.145   9.553  67.024  1.00  0.00    -0.113 A  
HETATM   18  C   UNL     1      -8.439   8.959  65.792  1.00  0.00    -0.157 A  
HETATM   19  C   UNL     1      -7.766   7.797  65.414  1.00  0.00    -0.106 A  
HETATM   20  C   UNL     1      -6.802   7.241  66.257  1.00  0.00    -0.058 A  
HETATM   21  C   UNL     1      -6.491   7.854  67.471  1.00  0.00    -0.056 A  
HETATM   22  C   UNL     1      -7.151   9.023  67.852  1.00  0.00    -0.079 A  
ENDBRANCH  14  17
ENDBRANCH  12  14
ENDBRANCH   9  12
ENDBRANCH   5   6
ENDBRANCH   4   5
ENDBRANCH   3   4
ENDBRANCH   2   3
TORSDOF 7
ENDMDL
MODEL      230
REMARK 921   NORMALIZED FREE ENERGY PREDICTED BY IDOCK:   -2.88 KCAL/MOL
REMARK 922        TOTAL FREE ENERGY PREDICTED BY IDOCK:   -4.59 KCAL/MOL
REMARK 923 INTER-LIGAND FREE ENERGY PREDICTED BY IDOCK:   -4.31 KCAL/MOL
REMARK 924 INTRA-LIGAND FREE ENERGY PREDICTED BY IDOCK:   -0.29 KCAL/MOL
REMARK 927      BINDING AFFINITY PREDICTED BY RF-SCORE:    0.00 PKD
ROOT
HETATM    1  C   UNL     1      -9.984  18.760  67.744  1.00  0.00    -0.350 C  
HETATM    2  O   UNL     1     -10.585  17.550  68.175  1.00  0.00    -0.370 OA 
ENDROOT
BRANCH   2   3
HETATM    3  C   UNL     1     -10.363  16.473  67.261  1.00  0.00    -0.296 C  
BRANCH   3   4
HETATM    4  C   UNL     1     -11.236  15.311  67.715  1.00  0.00    -0.326 C  
BRANCH   4   5
HETATM    5  O   UNL     1     -11.544  14.415  66.642  1.00  0.00    -0.357 OA 
BRANCH   5   6
HETATM    6  C   UNL     1     -11.042  13.155  66.804  1.00  0.00    -0.289 A  
HETATM    7  C   UNL     1     -11.761  11.975  66.832  1.00  0.00    -0.266 A  
HETATM    8  N   UNL     1     -11.212  10.756  66.979  1.00  0.00    -0.310 NA 
HETATM    9  C   UNL     1      -9.890  10.734  67.113  1.00  0.00    -0.185 A  
HETATM   10  C   UNL     1      -9.678  12.989  66.958  1.00  0.00    -0.235 A  
HETATM   11  N   UNL     1      -9.069  11.787  67.125  1.00  0.00    -0.170 NA 
BRANCH   9  12
HETATM   12  N   UNL     1      -9.300   9.476  67.204  1.00  0.00    -0.140 N  
HETATM   13  H   UNL     1      -9.394   8.764  66.480  1.00  0.00     0.000 HD 
BRANCH  12  14
HETATM   14  S   UNL     1      -8.421   9.239  68.613  1.00  0.00    -0.124 S  
HETATM   15  O   UNL     1      -9.147   9.708  69.776  1.00  0.00    -0.183 OA 
HETATM   16  O   UNL     1      -7.080   9.712  68.343  1.00  0.00    -0.069 OA 
BRANCH  14  17
HETATM   17  C   UNL     1      -8.304   7.460  68.738  1.00  0.00    -0.129 A  
HETATM   18  C   UNL     1      -9.418   6.675  68.425  1.00  0.00    -0.125 A  
HETATM   19  C   UNL     1      -9.324   5.286  68.513  1.00  0.00    -0.152 A  
HETATM   20  C   UNL     1      -8.123   4.690  68.902  1.00  0.00    -0.081 A  
HETATM   21  C   UNL     1      -7.006   5.476  69.185  1.00  0.00    -0.063 A  
HETATM   22  C   UNL     1      -7.088   6.866  69.088  1.00  0.00    -0.084 A  
ENDBRANCH  14  17
ENDBRANCH  12  14
ENDBRANCH   9  12
ENDBRANCH   5   6
ENDBRANCH   4   5
ENDBRANCH   3   4
ENDBRANCH   2   3
TORSDOF 7
ENDMDL
MODEL      231
REMARK 921   NORMALIZED FREE ENERGY PREDICTED BY IDOCK:   -2.87 KCAL/MOL
REMARK 922        TOTAL FREE ENERGY PREDICTED BY IDOCK:   -4.58 KCAL/MOL
REMARK 923 INTER-LIGAND FREE ENERGY PREDICTED BY IDOCK:   -4.68 KCAL/MOL
REMARK 924 INTRA-LIGAND FREE ENERGY PREDICTED BY IDOCK:    0.10 KCAL/MOL
REMARK 927      BINDING AFFINITY PREDICTED BY RF-SCORE:    0.00 PKD
ROOT
HETATM    1  C   UNL     1     -10.394  17.276  66.405  1.00  0.00    -0.316 C  
HETATM    2  O   UNL     1     -10.240  16.768  65.089  1.00  0.00    -0.599 OA 
ENDROOT
BRANCH   2   3
HETATM    3  C   UNL     1     -11.087  15.645  64.834  1.00  0.00    -0.402 C  
BRANCH   3   4
HETATM    4  C   UNL     1     -10.878  14.657  65.974  1.00  0.00    -0.318 C  
BRANCH   4   5
HETATM    5  O   UNL     1      -9.953  13.620  65.626  1.00  0.00    -0.288 OA 
BRANCH   5   6
HETATM    6  C   UNL     1      -9.559  12.846  66.681  1.00  0.00    -0.257 A  
HETATM    7  C   UNL     1     -10.239  12.658  67.869  1.00  0.00    -0.220 A  
HETATM    8  N   UNL     1      -9.811  11.869  68.871  1.00  0.00    -0.054 NA 
HETATM    9  C   UNL     1      -8.649  11.259  68.664  1.00  0.00    -0.139 A  
HETATM   10  C   UNL     1      -8.364  12.156  66.598  1.00  0.00    -0.051 A  
HETATM   11  N   UNL     1      -7.874  11.357  67.581  1.00  0.00    -0.117 NA 
BRANCH   9  12
HETATM   12  N   UNL     1      -8.222  10.390  69.665  1.00  0.00    -0.331 N  
HETATM   13  H   UNL     1      -7.280  10.409  70.054  1.00  0.00     0.000 HD 
BRANCH  12  14
HETATM   14  S   UNL     1      -9.401   9.308  70.172  1.00  0.00    -0.245 S  
HETATM   15  O   UNL     1      -9.693   8.326  69.148  1.00  0.00    -0.166 OA 
HETATM   16  O   UNL     1     -10.460  10.102  70.756  1.00  0.00    -0.189 OA 
BRANCH  14  17
HETATM   17  C   UNL     1      -8.620   8.447  71.530  1.00  0.00    -0.167 A  
HETATM   18  C   UNL     1      -7.273   8.087  71.431  1.00  0.00    -0.068 A  
HETATM   19  C   UNL     1      -6.661   7.424  72.495  1.00  0.00    -0.055 A  
HETATM   20  C   UNL     1      -7.389   7.133  73.650  1.00  0.00    -0.088 A  
HETATM   21  C   UNL     1      -8.726   7.520  73.755  1.00  0.00    -0.270 A  
HETATM   22  C   UNL     1      -9.342   8.194  72.700  1.00  0.00    -0.342 A  
ENDBRANCH  14  17
ENDBRANCH  12  14
ENDBRANCH   9  12
ENDBRANCH   5   6
ENDBRANCH   4   5
ENDBRANCH   3   4
ENDBRANCH   2   3
TORSDOF 7
ENDMDL
MODEL      232
REMARK 921   NORMALIZED FREE ENERGY PREDICTED BY IDOCK:   -2.85 KCAL/MOL
REMARK 922        TOTAL FREE ENERGY PREDICTED BY IDOCK:   -4.55 KCAL/MOL
REMARK 923 INTER-LIGAND FREE ENERGY PREDICTED BY IDOCK:   -4.32 KCAL/MOL
REMARK 924 INTRA-LIGAND FREE ENERGY PREDICTED BY IDOCK:   -0.23 KCAL/MOL
REMARK 927      BINDING AFFINITY PREDICTED BY RF-SCORE:    0.00 PKD
ROOT
HETATM    1  C   UNL     1      -6.523  10.399  64.841  1.00  0.00    -0.072 C  
HETATM    2  O   UNL     1      -5.485   9.479  64.540  1.00  0.00    -0.057 OA 
ENDROOT
BRANCH   2   3
HETATM    3  C   UNL     1      -5.902   8.119  64.686  1.00  0.00    -0.045 C  
BRANCH   3   4
HETATM    4  C   UNL     1      -6.549   7.992  66.059  1.00  0.00    -0.046 C  
BRANCH   4   5
HETATM    5  O   UNL     1      -7.416   6.856  66.143  1.00  0.00    -0.077 OA 
BRANCH   5   6
HETATM    6  C   UNL     1      -8.063   6.735  67.341  1.00  0.00    -0.118 A  
HETATM    7  C   UNL     1      -9.400   6.444  67.533  1.00  0.00    -0.118 A  
HETATM    8  N   UNL     1      -9.983   6.320  68.740  1.00  0.00    -0.143 NA 
HETATM    9  C   UNL     1      -9.185   6.509  69.785  1.00  0.00    -0.145 A  
HETATM   10  C   UNL     1      -7.349   6.911  68.511  1.00  0.00    -0.090 A  
HETATM   11  N   UNL     1      -7.884   6.814  69.755  1.00  0.00    -0.113 NA 
BRANCH   9  12
HETATM   12  N   UNL     1      -9.758   6.324  71.040  1.00  0.00    -0.175 N  
HETATM   13  H   UNL     1     -10.057   5.413  71.386  1.00  0.00     0.000 HD 
BRANCH  12  14
HETATM   14  S   UNL     1      -9.912   7.737  71.932  1.00  0.00    -0.183 S  
HETATM   15  O   UNL     1      -9.183   8.830  71.320  1.00  0.00    -0.196 OA 
HETATM   16  O   UNL     1      -9.676   7.377  73.313  1.00  0.00    -0.200 OA 
BRANCH  14  17
HETATM   17  C   UNL     1     -11.652   8.121  71.808  1.00  0.00    -0.291 A  
HETATM   18  C   UNL     1     -12.582   7.079  71.738  1.00  0.00    -0.388 A  
HETATM   19  C   UNL     1     -13.942   7.379  71.652  1.00  0.00    -0.523 A  
HETATM   20  C   UNL     1     -14.366   8.709  71.645  1.00  0.00    -0.451 A  
HETATM   21  C   UNL     1     -13.436   9.745  71.745  1.00  0.00    -0.463 A  
HETATM   22  C   UNL     1     -12.075   9.453  71.844  1.00  0.00    -0.427 A  
ENDBRANCH  14  17
ENDBRANCH  12  14
ENDBRANCH   9  12
ENDBRANCH   5   6
ENDBRANCH   4   5
ENDBRANCH   3   4
ENDBRANCH   2   3
TORSDOF 7
ENDMDL
MODEL      233
REMARK 921   NORMALIZED FREE ENERGY PREDICTED BY IDOCK:   -2.82 KCAL/MOL
REMARK 922        TOTAL FREE ENERGY PREDICTED BY IDOCK:   -4.51 KCAL/MOL
REMARK 923 INTER-LIGAND FREE ENERGY PREDICTED BY IDOCK:   -4.01 KCAL/MOL
REMARK 924 INTRA-LIGAND FREE ENERGY PREDICTED BY IDOCK:   -0.50 KCAL/MOL
REMARK 927      BINDING AFFINITY PREDICTED BY RF-SCORE:    0.00 PKD
ROOT
HETATM    1  C   UNL     1      -8.413  14.386  68.405  1.00  0.00    -0.165 C  
HETATM    2  O   UNL     1      -9.765  14.468  68.827  1.00  0.00    -0.220 OA 
ENDROOT
BRANCH   2   3
HETATM    3  C   UNL     1     -10.682  14.088  67.797  1.00  0.00    -0.243 C  
BRANCH   3   4
HETATM    4  C   UNL     1     -11.520  12.939  68.343  1.00  0.00    -0.312 C  
BRANCH   4   5
HETATM    5  O   UNL     1     -11.798  11.952  67.344  1.00  0.00    -0.571 OA 
BRANCH   5   6
HETATM    6  C   UNL     1     -10.926  10.901  67.339  1.00  0.00    -0.293 A  
HETATM    7  C   UNL     1     -10.461  10.205  68.438  1.00  0.00    -0.208 A  
HETATM    8  N   UNL     1      -9.611   9.164  68.373  1.00  0.00    -0.150 NA 
HETATM    9  C   UNL     1      -9.211   8.825  67.152  1.00  0.00    -0.136 A  
HETATM   10  C   UNL     1     -10.428  10.447  66.131  1.00  0.00    -0.154 A  
HETATM   11  N   UNL     1      -9.558   9.412  66.004  1.00  0.00    -0.241 NA 
BRANCH   9  12
HETATM   12  N   UNL     1      -8.381   7.710  67.062  1.00  0.00    -0.123 N  
HETATM   13  H   UNL     1      -7.366   7.777  66.995  1.00  0.00     0.000 HD 
BRANCH  12  14
HETATM   14  S   UNL     1      -9.205   6.248  67.076  1.00  0.00    -0.128 S  
HETATM   15  O   UNL     1     -10.636   6.448  67.178  1.00  0.00    -0.236 OA 
HETATM   16  O   UNL     1      -8.511   5.397  68.017  1.00  0.00    -0.099 OA 
BRANCH  14  17
HETATM   17  C   UNL     1      -8.875   5.569  65.456  1.00  0.00    -0.144 A  
HETATM   18  C   UNL     1      -9.475   4.363  65.081  1.00  0.00    -0.171 A  
HETATM   19  C   UNL     1      -9.225   3.838  63.813  1.00  0.00    -0.123 A  
HETATM   20  C   UNL     1      -8.390   4.520  62.926  1.00  0.00    -0.096 A  
HETATM   21  C   UNL     1      -7.818   5.738  63.294  1.00  0.00    -0.102 A  
HETATM   22  C   UNL     1      -8.072   6.276  64.556  1.00  0.00    -0.102 A  
ENDBRANCH  14  17
ENDBRANCH  12  14
ENDBRANCH   9  12
ENDBRANCH   5   6
ENDBRANCH   4   5
ENDBRANCH   3   4
ENDBRANCH   2   3
TORSDOF 7
ENDMDL
MODEL      234
REMARK 921   NORMALIZED FREE ENERGY PREDICTED BY IDOCK:   -2.79 KCAL/MOL
REMARK 922        TOTAL FREE ENERGY PREDICTED BY IDOCK:   -4.46 KCAL/MOL
REMARK 923 INTER-LIGAND FREE ENERGY PREDICTED BY IDOCK:   -5.12 KCAL/MOL
REMARK 924 INTRA-LIGAND FREE ENERGY PREDICTED BY IDOCK:    0.66 KCAL/MOL
REMARK 927      BINDING AFFINITY PREDICTED BY RF-SCORE:    0.00 PKD
ROOT
HETATM    1  C   UNL     1     -13.155  11.610  63.620  1.00  0.00     0.210 C  
HETATM    2  O   UNL     1     -11.764  11.349  63.534  1.00  0.00    -0.297 OA 
ENDROOT
BRANCH   2   3
HETATM    3  C   UNL     1     -10.980  12.545  63.565  1.00  0.00    -0.420 C  
BRANCH   3   4
HETATM    4  C   UNL     1     -11.928  13.709  63.307  1.00  0.00     0.003 C  
BRANCH   4   5
HETATM    5  O   UNL     1     -12.259  14.412  64.509  1.00  0.00    -0.456 OA 
BRANCH   5   6
HETATM    6  C   UNL     1     -11.252  15.198  64.993  1.00  0.00    -0.409 A  
HETATM    7  C   UNL     1     -11.184  16.577  64.948  1.00  0.00    -0.133 A  
HETATM    8  N   UNL     1     -10.171  17.303  65.456  1.00  0.00    -0.620 NA 
HETATM    9  C   UNL     1      -9.190  16.606  66.019  1.00  0.00    -0.228 A  
HETATM   10  C   UNL     1     -10.165  14.598  65.602  1.00  0.00    -0.359 A  
HETATM   11  N   UNL     1      -9.109  15.276  66.120  1.00  0.00    -0.309 NA 
BRANCH   9  12
HETATM   12  N   UNL     1      -8.166  17.344  66.605  1.00  0.00    -0.238 N  
HETATM   13  H   UNL     1      -7.246  17.455  66.179  1.00  0.00     0.000 HD 
BRANCH  12  14
HETATM   14  S   UNL     1      -8.583  18.036  68.076  1.00  0.00    -0.270 S  
HETATM   15  O   UNL     1      -9.380  19.231  67.891  1.00  0.00    -0.299 OA 
HETATM   16  O   UNL     1      -7.373  18.072  68.868  1.00  0.00    -0.274 OA 
BRANCH  14  17
HETATM   17  C   UNL     1      -9.635  16.804  68.831  1.00  0.00    -0.249 A  
HETATM   18  C   UNL     1     -11.024  16.931  68.729  1.00  0.00    -0.234 A  
HETATM   19  C   UNL     1     -11.844  15.965  69.311  1.00  0.00    -0.328 A  
HETATM   20  C   UNL     1     -11.279  14.877  69.980  1.00  0.00    -0.293 A  
HETATM   21  C   UNL     1      -9.892  14.740  70.054  1.00  0.00     0.325 A  
HETATM   22  C   UNL     1      -9.064  15.696  69.464  1.00  0.00    -0.240 A  
ENDBRANCH  14  17
ENDBRANCH  12  14
ENDBRANCH   9  12
ENDBRANCH   5   6
ENDBRANCH   4   5
ENDBRANCH   3   4
ENDBRANCH   2   3
TORSDOF 7
ENDMDL
MODEL      235
REMARK 921   NORMALIZED FREE ENERGY PREDICTED BY IDOCK:   -2.77 KCAL/MOL
REMARK 922        TOTAL FREE ENERGY PREDICTED BY IDOCK:   -4.44 KCAL/MOL
REMARK 923 INTER-LIGAND FREE ENERGY PREDICTED BY IDOCK:   -4.93 KCAL/MOL
REMARK 924 INTRA-LIGAND FREE ENERGY PREDICTED BY IDOCK:    0.49 KCAL/MOL
REMARK 927      BINDING AFFINITY PREDICTED BY RF-SCORE:    0.00 PKD
ROOT
HETATM    1  C   UNL     1     -10.200  13.460  67.231  1.00  0.00    -0.241 C  
HETATM    2  O   UNL     1      -8.937  13.490  66.585  1.00  0.00    -0.210 OA 
ENDROOT
BRANCH   2   3
HETATM    3  C   UNL     1      -7.863  13.735  67.497  1.00  0.00    -0.179 C  
BRANCH   3   4
HETATM    4  C   UNL     1      -6.901  12.559  67.383  1.00  0.00    -0.145 C  
BRANCH   4   5
HETATM    5  O   UNL     1      -7.538  11.390  66.856  1.00  0.00    -0.139 OA 
BRANCH   5   6
HETATM    6  C   UNL     1      -7.895  10.473  67.803  1.00  0.00    -0.104 A  
HETATM    7  C   UNL     1      -8.138  10.716  69.141  1.00  0.00    -0.141 A  
HETATM    8  N   UNL     1      -8.505   9.774  70.029  1.00  0.00    -0.205 NA 
HETATM    9  C   UNL     1      -8.617   8.542  69.545  1.00  0.00    -0.131 A  
HETATM   10  C   UNL     1      -8.045   9.149  67.433  1.00  0.00    -0.107 A  
HETATM   11  N   UNL     1      -8.398   8.153  68.286  1.00  0.00    -0.125 NA 
BRANCH   9  12
HETATM   12  N   UNL     1      -9.056   7.567  70.437  1.00  0.00    -0.153 N  
HETATM   13  H   UNL     1      -8.487   7.226  71.212  1.00  0.00     0.000 HD 
BRANCH  12  14
HETATM   14  S   UNL     1     -10.605   7.006  70.121  1.00  0.00    -0.236 S  
HETATM   15  O   UNL     1     -10.871   5.764  70.818  1.00  0.00    -0.271 OA 
HETATM   16  O   UNL     1     -10.790   7.100  68.689  1.00  0.00    -0.187 OA 
BRANCH  14  17
HETATM   17  C   UNL     1     -11.657   8.257  70.841  1.00  0.00    -0.262 A  
HETATM   18  C   UNL     1     -12.490   7.922  71.913  1.00  0.00    -0.352 A  
HETATM   19  C   UNL     1     -13.304   8.901  72.481  1.00  0.00    -0.451 A  
HETATM   20  C   UNL     1     -13.277  10.207  71.986  1.00  0.00    -0.534 A  
HETATM   21  C   UNL     1     -12.424  10.543  70.935  1.00  0.00    -0.488 A  
HETATM   22  C   UNL     1     -11.597   9.572  70.369  1.00  0.00    -0.268 A  
ENDBRANCH  14  17
ENDBRANCH  12  14
ENDBRANCH   9  12
ENDBRANCH   5   6
ENDBRANCH   4   5
ENDBRANCH   3   4
ENDBRANCH   2   3
TORSDOF 7
ENDMDL
MODEL      236
REMARK 921   NORMALIZED FREE ENERGY PREDICTED BY IDOCK:   -2.75 KCAL/MOL
REMARK 922        TOTAL FREE ENERGY PREDICTED BY IDOCK:   -4.41 KCAL/MOL
REMARK 923 INTER-LIGAND FREE ENERGY PREDICTED BY IDOCK:   -4.15 KCAL/MOL
REMARK 924 INTRA-LIGAND FREE ENERGY PREDICTED BY IDOCK:   -0.26 KCAL/MOL
REMARK 927      BINDING AFFINITY PREDICTED BY RF-SCORE:    0.00 PKD
ROOT
HETATM    1  C   UNL     1     -12.936  12.731  71.467  1.00  0.00    -0.292 C  
HETATM    2  O   UNL     1     -12.218  13.131  70.310  1.00  0.00    -0.338 OA 
ENDROOT
BRANCH   2   3
HETATM    3  C   UNL     1     -11.999  12.049  69.401  1.00  0.00    -0.275 C  
BRANCH   3   4
HETATM    4  C   UNL     1     -11.852  12.654  68.011  1.00  0.00    -0.323 C  
BRANCH   4   5
HETATM    5  O   UNL     1     -10.501  12.600  67.539  1.00  0.00    -0.218 OA 
BRANCH   5   6
HETATM    6  C   UNL     1      -9.993  11.335  67.445  1.00  0.00    -0.182 A  
HETATM    7  C   UNL     1      -9.163  10.706  68.353  1.00  0.00    -0.159 A  
HETATM    8  N   UNL     1      -8.703   9.449  68.216  1.00  0.00    -0.124 NA 
HETATM    9  C   UNL     1      -9.090   8.813  67.116  1.00  0.00    -0.132 A  
HETATM   10  C   UNL     1     -10.315  10.562  66.344  1.00  0.00    -0.221 A  
HETATM   11  N   UNL     1      -9.870   9.295  66.145  1.00  0.00    -0.281 NA 
BRANCH   9  12
HETATM   12  N   UNL     1      -8.674   7.490  66.990  1.00  0.00    -0.124 N  
HETATM   13  H   UNL     1      -7.865   7.211  66.436  1.00  0.00     0.000 HD 
BRANCH  12  14
HETATM   14  S   UNL     1      -9.627   6.396  67.834  1.00  0.00    -0.122 S  
HETATM   15  O   UNL     1     -11.036   6.699  67.688  1.00  0.00    -0.305 OA 
HETATM   16  O   UNL     1      -9.034   6.266  69.147  1.00  0.00    -0.127 OA 
BRANCH  14  17
HETATM   17  C   UNL     1      -9.325   4.847  66.997  1.00  0.00    -0.129 A  
HETATM   18  C   UNL     1      -9.138   3.684  67.749  1.00  0.00    -0.193 A  
HETATM   19  C   UNL     1      -8.912   2.473  67.095  1.00  0.00    -0.175 A  
HETATM   20  C   UNL     1      -8.882   2.427  65.700  1.00  0.00    -0.127 A  
HETATM   21  C   UNL     1      -9.098   3.585  64.953  1.00  0.00    -0.137 A  
HETATM   22  C   UNL     1      -9.337   4.798  65.599  1.00  0.00    -0.166 A  
ENDBRANCH  14  17
ENDBRANCH  12  14
ENDBRANCH   9  12
ENDBRANCH   5   6
ENDBRANCH   4   5
ENDBRANCH   3   4
ENDBRANCH   2   3
TORSDOF 7
ENDMDL
MODEL      237
REMARK 921   NORMALIZED FREE ENERGY PREDICTED BY IDOCK:   -2.68 KCAL/MOL
REMARK 922        TOTAL FREE ENERGY PREDICTED BY IDOCK:   -4.31 KCAL/MOL
REMARK 923 INTER-LIGAND FREE ENERGY PREDICTED BY IDOCK:   -3.86 KCAL/MOL
REMARK 924 INTRA-LIGAND FREE ENERGY PREDICTED BY IDOCK:   -0.45 KCAL/MOL
REMARK 927      BINDING AFFINITY PREDICTED BY RF-SCORE:    0.00 PKD
ROOT
HETATM    1  C   UNL     1     -11.238  13.532  66.792  1.00  0.00    -0.310 C  
HETATM    2  O   UNL     1      -9.918  13.802  66.349  1.00  0.00    -0.281 OA 
ENDROOT
BRANCH   2   3
HETATM    3  C   UNL     1      -9.133  14.467  67.343  1.00  0.00    -0.198 C  
BRANCH   3   4
HETATM    4  C   UNL     1      -7.784  13.762  67.395  1.00  0.00    -0.143 C  
BRANCH   4   5
HETATM    5  O   UNL     1      -7.878  12.386  67.010  1.00  0.00    -0.157 OA 
BRANCH   5   6
HETATM    6  C   UNL     1      -7.869  11.511  68.059  1.00  0.00    -0.126 A  
HETATM    7  C   UNL     1      -8.967  11.034  68.748  1.00  0.00    -0.149 A  
HETATM    8  N   UNL     1      -8.901  10.157  69.767  1.00  0.00    -0.172 NA 
HETATM    9  C   UNL     1      -7.679   9.760  70.104  1.00  0.00    -0.177 A  
HETATM   10  C   UNL     1      -6.660  11.020  68.513  1.00  0.00    -0.059 A  
HETATM   11  N   UNL     1      -6.529  10.146  69.545  1.00  0.00    -0.049 NA 
BRANCH   9  12
HETATM   12  N   UNL     1      -7.598   8.806  71.114  1.00  0.00    -0.106 N  
HETATM   13  H   UNL     1      -7.405   9.041  72.088  1.00  0.00     0.000 HD 
BRANCH  12  14
HETATM   14  S   UNL     1      -7.844   7.233  70.584  1.00  0.00    -0.095 S  
HETATM   15  O   UNL     1      -6.973   6.300  71.269  1.00  0.00    -0.068 OA 
HETATM   16  O   UNL     1      -7.872   7.289  69.138  1.00  0.00    -0.112 OA 
BRANCH  14  17
HETATM   17  C   UNL     1      -9.518   6.877  71.099  1.00  0.00    -0.166 A  
HETATM   18  C   UNL     1      -9.743   6.302  72.354  1.00  0.00    -0.162 A  
HETATM   19  C   UNL     1     -11.050   6.033  72.760  1.00  0.00    -0.305 A  
HETATM   20  C   UNL     1     -12.122   6.346  71.921  1.00  0.00    -0.362 A  
HETATM   21  C   UNL     1     -11.894   6.947  70.683  1.00  0.00    -0.418 A  
HETATM   22  C   UNL     1     -10.590   7.230  70.274  1.00  0.00    -0.243 A  
ENDBRANCH  14  17
ENDBRANCH  12  14
ENDBRANCH   9  12
ENDBRANCH   5   6
ENDBRANCH   4   5
ENDBRANCH   3   4
ENDBRANCH   2   3
TORSDOF 7
ENDMDL
MODEL      238
REMARK 921   NORMALIZED FREE ENERGY PREDICTED BY IDOCK:   -2.67 KCAL/MOL
REMARK 922        TOTAL FREE ENERGY PREDICTED BY IDOCK:   -4.30 KCAL/MOL
REMARK 923 INTER-LIGAND FREE ENERGY PREDICTED BY IDOCK:   -4.28 KCAL/MOL
REMARK 924 INTRA-LIGAND FREE ENERGY PREDICTED BY IDOCK:   -0.02 KCAL/MOL
REMARK 927      BINDING AFFINITY PREDICTED BY RF-SCORE:    0.00 PKD
ROOT
HETATM    1  C   UNL     1     -11.604  11.948  67.616  1.00  0.00    -0.312 C  
HETATM    2  O   UNL     1     -10.450  12.650  67.184  1.00  0.00    -0.233 OA 
ENDROOT
BRANCH   2   3
HETATM    3  C   UNL     1      -9.693  11.916  66.218  1.00  0.00    -0.229 C  
BRANCH   3   4
HETATM    4  C   UNL     1      -8.369  11.543  66.872  1.00  0.00    -0.166 C  
BRANCH   4   5
HETATM    5  O   UNL     1      -8.519  11.254  68.267  1.00  0.00    -0.137 OA 
BRANCH   5   6
HETATM    6  C   UNL     1      -8.419   9.927  68.576  1.00  0.00    -0.112 A  
HETATM    7  C   UNL     1      -7.983   9.386  69.769  1.00  0.00    -0.119 A  
HETATM    8  N   UNL     1      -7.920   8.066  70.026  1.00  0.00    -0.104 NA 
HETATM    9  C   UNL     1      -8.302   7.270  69.034  1.00  0.00    -0.126 A  
HETATM   10  C   UNL     1      -8.783   8.987  67.629  1.00  0.00    -0.124 A  
HETATM   11  N   UNL     1      -8.727   7.645  67.824  1.00  0.00    -0.127 NA 
BRANCH   9  12
HETATM   12  N   UNL     1      -8.302   5.904  69.305  1.00  0.00    -0.112 N  
HETATM   13  H   UNL     1      -7.447   5.355  69.395  1.00  0.00     0.000 HD 
BRANCH  12  14
HETATM   14  S   UNL     1      -9.836   5.244  69.468  1.00  0.00    -0.221 S  
HETATM   15  O   UNL     1      -9.777   3.882  69.957  1.00  0.00    -0.201 OA 
HETATM   16  O   UNL     1     -10.548   5.559  68.248  1.00  0.00    -0.195 OA 
BRANCH  14  17
HETATM   17  C   UNL     1     -10.584   6.240  70.750  1.00  0.00    -0.243 A  
HETATM   18  C   UNL     1     -11.689   7.039  70.443  1.00  0.00    -0.326 A  
HETATM   19  C   UNL     1     -12.278   7.809  71.445  1.00  0.00    -0.343 A  
HETATM   20  C   UNL     1     -11.771   7.771  72.745  1.00  0.00    -0.312 A  
HETATM   21  C   UNL     1     -10.686   6.949  73.054  1.00  0.00    -0.328 A  
HETATM   22  C   UNL     1     -10.098   6.167  72.059  1.00  0.00    -0.206 A  
ENDBRANCH  14  17
ENDBRANCH  12  14
ENDBRANCH   9  12
ENDBRANCH   5   6
ENDBRANCH   4   5
ENDBRANCH   3   4
ENDBRANCH   2   3
TORSDOF 7
ENDMDL
MODEL      239
REMARK 921   NORMALIZED FREE ENERGY PREDICTED BY IDOCK:   -2.67 KCAL/MOL
REMARK 922        TOTAL FREE ENERGY PREDICTED BY IDOCK:   -4.30 KCAL/MOL
REMARK 923 INTER-LIGAND FREE ENERGY PREDICTED BY IDOCK:   -4.88 KCAL/MOL
REMARK 924 INTRA-LIGAND FREE ENERGY PREDICTED BY IDOCK:    0.59 KCAL/MOL
REMARK 927      BINDING AFFINITY PREDICTED BY RF-SCORE:    0.00 PKD
ROOT
HETATM    1  C   UNL     1     -12.826  12.543  71.384  1.00  0.00    -0.260 C  
HETATM    2  O   UNL     1     -12.270  13.540  70.542  1.00  0.00    -0.345 OA 
ENDROOT
BRANCH   2   3
HETATM    3  C   UNL     1     -11.903  13.029  69.258  1.00  0.00    -0.316 C  
BRANCH   3   4
HETATM    4  C   UNL     1     -11.955  14.195  68.279  1.00  0.00    -0.332 C  
BRANCH   4   5
HETATM    5  O   UNL     1     -10.978  14.070  67.240  1.00  0.00    -0.287 OA 
BRANCH   5   6
HETATM    6  C   UNL     1     -10.319  12.873  67.233  1.00  0.00    -0.234 A  
HETATM    7  C   UNL     1      -9.319  12.474  68.099  1.00  0.00    -0.210 A  
HETATM    8  N   UNL     1      -8.714  11.273  68.056  1.00  0.00    -0.139 NA 
HETATM    9  C   UNL     1      -9.129  10.455  67.095  1.00  0.00    -0.139 A  
HETATM   10  C   UNL     1     -10.652  11.929  66.280  1.00  0.00    -0.253 A  
HETATM   11  N   UNL     1     -10.067  10.707  66.178  1.00  0.00    -0.240 NA 
BRANCH   9  12
HETATM   12  N   UNL     1      -8.557   9.185  67.076  1.00  0.00    -0.123 N  
HETATM   13  H   UNL     1      -7.601   9.011  66.767  1.00  0.00     0.000 HD 
BRANCH  12  14
HETATM   14  S   UNL     1      -9.585   7.970  67.608  1.00  0.00    -0.158 S  
HETATM   15  O   UNL     1      -9.009   6.658  67.392  1.00  0.00    -0.115 OA 
HETATM   16  O   UNL     1     -10.898   8.291  67.093  1.00  0.00    -0.244 OA 
BRANCH  14  17
HETATM   17  C   UNL     1      -9.665   8.234  69.373  1.00  0.00    -0.177 A  
HETATM   18  C   UNL     1      -8.481   8.280  70.116  1.00  0.00    -0.126 A  
HETATM   19  C   UNL     1      -8.543   8.496  71.492  1.00  0.00    -0.236 A  
HETATM   20  C   UNL     1      -9.779   8.674  72.117  1.00  0.00    -0.383 A  
HETATM   21  C   UNL     1     -10.955   8.657  71.368  1.00  0.00    -0.341 A  
HETATM   22  C   UNL     1     -10.901   8.453  69.988  1.00  0.00    -0.225 A  
ENDBRANCH  14  17
ENDBRANCH  12  14
ENDBRANCH   9  12
ENDBRANCH   5   6
ENDBRANCH   4   5
ENDBRANCH   3   4
ENDBRANCH   2   3
TORSDOF 7
ENDMDL
MODEL      240
REMARK 921   NORMALIZED FREE ENERGY PREDICTED BY IDOCK:   -2.67 KCAL/MOL
REMARK 922        TOTAL FREE ENERGY PREDICTED BY IDOCK:   -4.29 KCAL/MOL
REMARK 923 INTER-LIGAND FREE ENERGY PREDICTED BY IDOCK:   -3.98 KCAL/MOL
REMARK 924 INTRA-LIGAND FREE ENERGY PREDICTED BY IDOCK:   -0.31 KCAL/MOL
REMARK 927      BINDING AFFINITY PREDICTED BY RF-SCORE:    0.00 PKD
ROOT
HETATM    1  C   UNL     1      -8.055  10.341  64.766  1.00  0.00    -0.151 C  
HETATM    2  O   UNL     1      -8.917   9.786  63.786  1.00  0.00    -0.223 OA 
ENDROOT
BRANCH   2   3
HETATM    3  C   UNL     1      -8.376   8.605  63.187  1.00  0.00    -0.144 C  
BRANCH   3   4
HETATM    4  C   UNL     1      -7.524   7.916  64.245  1.00  0.00    -0.103 C  
BRANCH   4   5
HETATM    5  O   UNL     1      -8.274   6.961  65.004  1.00  0.00    -0.134 OA 
BRANCH   5   6
HETATM    6  C   UNL     1      -8.230   7.162  66.354  1.00  0.00    -0.120 A  
HETATM    7  C   UNL     1      -9.270   7.574  67.164  1.00  0.00    -0.136 A  
HETATM    8  N   UNL     1      -9.175   7.740  68.496  1.00  0.00    -0.138 NA 
HETATM    9  C   UNL     1      -7.980   7.492  69.022  1.00  0.00    -0.122 A  
HETATM   10  C   UNL     1      -7.043   6.942  67.028  1.00  0.00    -0.076 A  
HETATM   11  N   UNL     1      -6.881   7.108  68.366  1.00  0.00    -0.071 NA 
BRANCH   9  12
HETATM   12  N   UNL     1      -7.881   7.600  70.406  1.00  0.00    -0.090 N  
HETATM   13  H   UNL     1      -7.347   8.334  70.870  1.00  0.00     0.000 HD 
BRANCH  12  14
HETATM   14  S   UNL     1      -8.721   6.411  71.241  1.00  0.00    -0.134 S  
HETATM   15  O   UNL     1      -8.154   6.188  72.556  1.00  0.00    -0.104 OA 
HETATM   16  O   UNL     1      -8.896   5.310  70.319  1.00  0.00    -0.121 OA 
BRANCH  14  17
HETATM   17  C   UNL     1     -10.341   7.129  71.472  1.00  0.00    -0.202 A  
HETATM   18  C   UNL     1     -11.473   6.415  71.067  1.00  0.00    -0.394 A  
HETATM   19  C   UNL     1     -12.738   6.971  71.256  1.00  0.00    -0.400 A  
HETATM   20  C   UNL     1     -12.868   8.226  71.855  1.00  0.00    -0.371 A  
HETATM   21  C   UNL     1     -11.737   8.921  72.284  1.00  0.00    -0.351 A  
HETATM   22  C   UNL     1     -10.468   8.367  72.109  1.00  0.00    -0.396 A  
ENDBRANCH  14  17
ENDBRANCH  12  14
ENDBRANCH   9  12
ENDBRANCH   5   6
ENDBRANCH   4   5
ENDBRANCH   3   4
ENDBRANCH   2   3
TORSDOF 7
ENDMDL
MODEL      241
REMARK 921   NORMALIZED FREE ENERGY PREDICTED BY IDOCK:   -2.67 KCAL/MOL
REMARK 922        TOTAL FREE ENERGY PREDICTED BY IDOCK:   -4.29 KCAL/MOL
REMARK 923 INTER-LIGAND FREE ENERGY PREDICTED BY IDOCK:   -3.91 KCAL/MOL
REMARK 924 INTRA-LIGAND FREE ENERGY PREDICTED BY IDOCK:   -0.38 KCAL/MOL
REMARK 927      BINDING AFFINITY PREDICTED BY RF-SCORE:    0.00 PKD
ROOT
HETATM    1  C   UNL     1     -12.920  11.788  71.370  1.00  0.00    -0.306 C  
HETATM    2  O   UNL     1     -13.255  10.670  72.176  1.00  0.00    -0.464 OA 
ENDROOT
BRANCH   2   3
HETATM    3  C   UNL     1     -13.479   9.488  71.405  1.00  0.00    -0.333 C  
BRANCH   3   4
HETATM    4  C   UNL     1     -12.371   8.504  71.759  1.00  0.00    -0.338 C  
BRANCH   4   5
HETATM    5  O   UNL     1     -11.108   9.154  71.934  1.00  0.00    -0.364 OA 
BRANCH   5   6
HETATM    6  C   UNL     1     -10.209   8.906  70.935  1.00  0.00    -0.240 A  
HETATM    7  C   UNL     1      -8.887   9.305  70.894  1.00  0.00    -0.188 A  
HETATM    8  N   UNL     1      -8.039   9.018  69.889  1.00  0.00    -0.107 NA 
HETATM    9  C   UNL     1      -8.554   8.314  68.887  1.00  0.00    -0.132 A  
HETATM   10  C   UNL     1     -10.616   8.183  69.829  1.00  0.00    -0.231 A  
HETATM   11  N   UNL     1      -9.812   7.876  68.779  1.00  0.00    -0.163 NA 
BRANCH   9  12
HETATM   12  N   UNL     1      -7.675   7.956  67.869  1.00  0.00    -0.122 N  
HETATM   13  H   UNL     1      -7.539   8.516  67.028  1.00  0.00     0.000 HD 
BRANCH  12  14
HETATM   14  S   UNL     1      -6.858   6.517  68.153  1.00  0.00    -0.077 S  
HETATM   15  O   UNL     1      -6.926   6.136  69.549  1.00  0.00    -0.062 OA 
HETATM   16  O   UNL     1      -5.581   6.634  67.483  1.00  0.00    -0.011 OA 
BRANCH  14  17
HETATM   17  C   UNL     1      -7.797   5.314  67.224  1.00  0.00    -0.100 A  
HETATM   18  C   UNL     1      -8.115   4.087  67.814  1.00  0.00    -0.090 A  
HETATM   19  C   UNL     1      -8.857   3.151  67.093  1.00  0.00    -0.155 A  
HETATM   20  C   UNL     1      -9.285   3.447  65.797  1.00  0.00    -0.155 A  
HETATM   21  C   UNL     1      -8.991   4.684  65.224  1.00  0.00    -0.148 A  
HETATM   22  C   UNL     1      -8.259   5.630  65.943  1.00  0.00    -0.119 A  
ENDBRANCH  14  17
ENDBRANCH  12  14
ENDBRANCH   9  12
ENDBRANCH   5   6
ENDBRANCH   4   5
ENDBRANCH   3   4
ENDBRANCH   2   3
TORSDOF 7
ENDMDL
MODEL      242
REMARK 921   NORMALIZED FREE ENERGY PREDICTED BY IDOCK:   -2.65 KCAL/MOL
REMARK 922        TOTAL FREE ENERGY PREDICTED BY IDOCK:   -4.27 KCAL/MOL
REMARK 923 INTER-LIGAND FREE ENERGY PREDICTED BY IDOCK:   -3.93 KCAL/MOL
REMARK 924 INTRA-LIGAND FREE ENERGY PREDICTED BY IDOCK:   -0.34 KCAL/MOL
REMARK 927      BINDING AFFINITY PREDICTED BY RF-SCORE:    0.00 PKD
ROOT
HETATM    1  C   UNL     1      -7.500   6.838  74.205  1.00  0.00    -0.097 C  
HETATM    2  O   UNL     1      -6.356   6.156  73.718  1.00  0.00    -0.064 OA 
ENDROOT
BRANCH   2   3
HETATM    3  C   UNL     1      -5.547   6.979  72.873  1.00  0.00    -0.038 C  
BRANCH   3   4
HETATM    4  C   UNL     1      -6.491   7.880  72.088  1.00  0.00    -0.056 C  
BRANCH   4   5
HETATM    5  O   UNL     1      -6.259   7.807  70.678  1.00  0.00    -0.037 OA 
BRANCH   5   6
HETATM    6  C   UNL     1      -7.302   8.252  69.916  1.00  0.00    -0.064 A  
HETATM    7  C   UNL     1      -8.002   9.432  70.078  1.00  0.00    -0.137 A  
HETATM    8  N   UNL     1      -9.014   9.829  69.285  1.00  0.00    -0.161 NA 
HETATM    9  C   UNL     1      -9.334   8.995  68.302  1.00  0.00    -0.139 A  
HETATM   10  C   UNL     1      -7.739   7.477  68.858  1.00  0.00    -0.115 A  
HETATM   11  N   UNL     1      -8.764   7.817  68.034  1.00  0.00    -0.126 NA 
BRANCH   9  12
HETATM   12  N   UNL     1     -10.338   9.419  67.435  1.00  0.00    -0.245 N  
HETATM   13  H   UNL     1     -11.322   9.193  67.571  1.00  0.00     0.000 HD 
BRANCH  12  14
HETATM   14  S   UNL     1      -9.778  10.338  66.147  1.00  0.00    -0.225 S  
HETATM   15  O   UNL     1     -10.155   9.753  64.877  1.00  0.00    -0.184 OA 
HETATM   16  O   UNL     1      -8.394  10.645  66.435  1.00  0.00    -0.139 OA 
BRANCH  14  17
HETATM   17  C   UNL     1     -10.672  11.876  66.313  1.00  0.00    -0.271 A  
HETATM   18  C   UNL     1     -11.161  12.255  67.567  1.00  0.00    -0.354 A  
HETATM   19  C   UNL     1     -11.851  13.460  67.698  1.00  0.00    -0.394 A  
HETATM   20  C   UNL     1     -12.040  14.282  66.585  1.00  0.00    -0.448 A  
HETATM   21  C   UNL     1     -11.525  13.914  65.342  1.00  0.00    -0.316 A  
HETATM   22  C   UNL     1     -10.824  12.715  65.205  1.00  0.00    -0.321 A  
ENDBRANCH  14  17
ENDBRANCH  12  14
ENDBRANCH   9  12
ENDBRANCH   5   6
ENDBRANCH   4   5
ENDBRANCH   3   4
ENDBRANCH   2   3
TORSDOF 7
ENDMDL
MODEL      243
REMARK 921   NORMALIZED FREE ENERGY PREDICTED BY IDOCK:   -2.65 KCAL/MOL
REMARK 922        TOTAL FREE ENERGY PREDICTED BY IDOCK:   -4.27 KCAL/MOL
REMARK 923 INTER-LIGAND FREE ENERGY PREDICTED BY IDOCK:   -4.23 KCAL/MOL
REMARK 924 INTRA-LIGAND FREE ENERGY PREDICTED BY IDOCK:   -0.04 KCAL/MOL
REMARK 927      BINDING AFFINITY PREDICTED BY RF-SCORE:    0.00 PKD
ROOT
HETATM    1  C   UNL     1     -13.000   7.316  71.474  1.00  0.00    -0.389 C  
HETATM    2  O   UNL     1     -12.165   6.380  72.136  1.00  0.00    -0.318 OA 
ENDROOT
BRANCH   2   3
HETATM    3  C   UNL     1     -10.840   6.354  71.599  1.00  0.00    -0.247 C  
BRANCH   3   4
HETATM    4  C   UNL     1      -9.898   6.803  72.708  1.00  0.00    -0.166 C  
BRANCH   4   5
HETATM    5  O   UNL     1      -9.663   8.215  72.679  1.00  0.00    -0.240 OA 
BRANCH   5   6
HETATM    6  C   UNL     1      -9.325   8.699  71.447  1.00  0.00    -0.236 A  
HETATM    7  C   UNL     1      -8.397   8.166  70.574  1.00  0.00    -0.123 A  
HETATM    8  N   UNL     1      -8.114   8.677  69.362  1.00  0.00    -0.109 NA 
HETATM    9  C   UNL     1      -8.787   9.773  69.030  1.00  0.00    -0.153 A  
HETATM   10  C   UNL     1      -9.950   9.840  70.979  1.00  0.00     0.084 A  
HETATM   11  N   UNL     1      -9.696  10.410  69.773  1.00  0.00    -0.136 NA 
BRANCH   9  12
HETATM   12  N   UNL     1      -8.552  10.279  67.754  1.00  0.00    -0.118 N  
HETATM   13  H   UNL     1      -7.721  10.818  67.514  1.00  0.00     0.000 HD 
BRANCH  12  14
HETATM   14  S   UNL     1      -9.762   9.919  66.648  1.00  0.00    -0.210 S  
HETATM   15  O   UNL     1      -9.509  10.545  65.365  1.00  0.00    -0.192 OA 
HETATM   16  O   UNL     1     -11.018  10.128  67.334  1.00  0.00    -0.292 OA 
BRANCH  14  17
HETATM   17  C   UNL     1      -9.607   8.154  66.420  1.00  0.00    -0.216 A  
HETATM   18  C   UNL     1      -8.534   7.648  65.680  1.00  0.00    -0.152 A  
HETATM   19  C   UNL     1      -8.408   6.269  65.510  1.00  0.00    -0.147 A  
HETATM   20  C   UNL     1      -9.343   5.405  66.085  1.00  0.00    -0.167 A  
HETATM   21  C   UNL     1     -10.395   5.914  66.848  1.00  0.00    -0.304 A  
HETATM   22  C   UNL     1     -10.521   7.291  67.032  1.00  0.00    -0.398 A  
ENDBRANCH  14  17
ENDBRANCH  12  14
ENDBRANCH   9  12
ENDBRANCH   5   6
ENDBRANCH   4   5
ENDBRANCH   3   4
ENDBRANCH   2   3
TORSDOF 7
ENDMDL
MODEL      244
REMARK 921   NORMALIZED FREE ENERGY PREDICTED BY IDOCK:   -2.63 KCAL/MOL
REMARK 922        TOTAL FREE ENERGY PREDICTED BY IDOCK:   -4.24 KCAL/MOL
REMARK 923 INTER-LIGAND FREE ENERGY PREDICTED BY IDOCK:   -4.58 KCAL/MOL
REMARK 924 INTRA-LIGAND FREE ENERGY PREDICTED BY IDOCK:    0.34 KCAL/MOL
REMARK 927      BINDING AFFINITY PREDICTED BY RF-SCORE:    0.00 PKD
ROOT
HETATM    1  C   UNL     1     -14.406  14.832  72.004  1.00  0.00    -0.554 C  
HETATM    2  O   UNL     1     -13.219  15.535  72.330  1.00  0.00    -0.382 OA 
ENDROOT
BRANCH   2   3
HETATM    3  C   UNL     1     -12.515  15.987  71.169  1.00  0.00    -0.222 C  
BRANCH   3   4
HETATM    4  C   UNL     1     -12.318  14.777  70.265  1.00  0.00    -0.345 C  
BRANCH   4   5
HETATM    5  O   UNL     1     -11.037  14.784  69.625  1.00  0.00    -0.261 OA 
BRANCH   5   6
HETATM    6  C   UNL     1     -10.715  13.610  69.007  1.00  0.00    -0.165 A  
HETATM    7  C   UNL     1     -11.464  12.448  68.994  1.00  0.00    -0.300 A  
HETATM    8  N   UNL     1     -11.104  11.321  68.353  1.00  0.00    -0.219 NA 
HETATM    9  C   UNL     1      -9.941  11.371  67.713  1.00  0.00    -0.178 A  
HETATM   10  C   UNL     1      -9.527  13.523  68.306  1.00  0.00    -0.212 A  
HETATM   11  N   UNL     1      -9.104  12.411  67.652  1.00  0.00    -0.178 NA 
BRANCH   9  12
HETATM   12  N   UNL     1      -9.584  10.234  66.993  1.00  0.00    -0.167 N  
HETATM   13  H   UNL     1      -9.595   9.296  67.393  1.00  0.00     0.000 HD 
BRANCH  12  14
HETATM   14  S   UNL     1      -9.133  10.548  65.408  1.00  0.00    -0.198 S  
HETATM   15  O   UNL     1      -9.205   9.354  64.590  1.00  0.00    -0.220 OA 
HETATM   16  O   UNL     1      -7.913  11.322  65.475  1.00  0.00     0.091 OA 
BRANCH  14  17
HETATM   17  C   UNL     1     -10.400  11.668  64.829  1.00  0.00    -0.282 A  
HETATM   18  C   UNL     1     -10.086  13.016  64.629  1.00  0.00    -0.253 A  
HETATM   19  C   UNL     1     -11.072  13.889  64.168  1.00  0.00    -0.128 A  
HETATM   20  C   UNL     1     -12.357  13.413  63.901  1.00  0.00    -0.410 A  
HETATM   21  C   UNL     1     -12.657  12.062  64.073  1.00  0.00    -0.466 A  
HETATM   22  C   UNL     1     -11.673  11.180  64.523  1.00  0.00     0.466 A  
ENDBRANCH  14  17
ENDBRANCH  12  14
ENDBRANCH   9  12
ENDBRANCH   5   6
ENDBRANCH   4   5
ENDBRANCH   3   4
ENDBRANCH   2   3
TORSDOF 7
ENDMDL
MODEL      245
REMARK 921   NORMALIZED FREE ENERGY PREDICTED BY IDOCK:   -2.63 KCAL/MOL
REMARK 922        TOTAL FREE ENERGY PREDICTED BY IDOCK:   -4.23 KCAL/MOL
REMARK 923 INTER-LIGAND FREE ENERGY PREDICTED BY IDOCK:   -4.13 KCAL/MOL
REMARK 924 INTRA-LIGAND FREE ENERGY PREDICTED BY IDOCK:   -0.10 KCAL/MOL
REMARK 927      BINDING AFFINITY PREDICTED BY RF-SCORE:    0.00 PKD
ROOT
HETATM    1  C   UNL     1      -9.273  13.853  67.447  1.00  0.00    -0.224 C  
HETATM    2  O   UNL     1      -7.957  14.275  67.125  1.00  0.00    -0.185 OA 
ENDROOT
BRANCH   2   3
HETATM    3  C   UNL     1      -7.054  14.133  68.224  1.00  0.00    -0.112 C  
BRANCH   3   4
HETATM    4  C   UNL     1      -6.148  12.949  67.911  1.00  0.00    -0.125 C  
BRANCH   4   5
HETATM    5  O   UNL     1      -6.665  12.140  66.850  1.00  0.00    -0.110 OA 
BRANCH   5   6
HETATM    6  C   UNL     1      -7.146  10.927  67.255  1.00  0.00    -0.097 A  
HETATM    7  C   UNL     1      -7.676  10.618  68.493  1.00  0.00    -0.107 A  
HETATM    8  N   UNL     1      -8.152   9.406  68.833  1.00  0.00    -0.101 NA 
HETATM    9  C   UNL     1      -8.076   8.474  67.890  1.00  0.00    -0.115 A  
HETATM   10  C   UNL     1      -7.124   9.866  66.369  1.00  0.00    -0.096 A  
HETATM   11  N   UNL     1      -7.575   8.618  66.660  1.00  0.00    -0.089 NA 
BRANCH   9  12
HETATM   12  N   UNL     1      -8.620   7.232  68.206  1.00  0.00    -0.124 N  
HETATM   13  H   UNL     1      -8.059   6.444  68.528  1.00  0.00     0.000 HD 
BRANCH  12  14
HETATM   14  S   UNL     1     -10.284   7.150  68.006  1.00  0.00    -0.195 S  
HETATM   15  O   UNL     1     -10.714   5.802  67.695  1.00  0.00    -0.251 OA 
HETATM   16  O   UNL     1     -10.648   8.256  67.148  1.00  0.00    -0.317 OA 
BRANCH  14  17
HETATM   17  C   UNL     1     -10.918   7.551  69.628  1.00  0.00    -0.153 A  
HETATM   18  C   UNL     1     -11.108   8.891  69.980  1.00  0.00    -0.180 A  
HETATM   19  C   UNL     1     -11.612   9.204  71.242  1.00  0.00    -0.401 A  
HETATM   20  C   UNL     1     -11.932   8.183  72.140  1.00  0.00    -0.413 A  
HETATM   21  C   UNL     1     -11.768   6.847  71.774  1.00  0.00    -0.338 A  
HETATM   22  C   UNL     1     -11.276   6.525  70.508  1.00  0.00    -0.401 A  
ENDBRANCH  14  17
ENDBRANCH  12  14
ENDBRANCH   9  12
ENDBRANCH   5   6
ENDBRANCH   4   5
ENDBRANCH   3   4
ENDBRANCH   2   3
TORSDOF 7
ENDMDL
MODEL      246
REMARK 921   NORMALIZED FREE ENERGY PREDICTED BY IDOCK:   -2.63 KCAL/MOL
REMARK 922        TOTAL FREE ENERGY PREDICTED BY IDOCK:   -4.23 KCAL/MOL
REMARK 923 INTER-LIGAND FREE ENERGY PREDICTED BY IDOCK:   -4.13 KCAL/MOL
REMARK 924 INTRA-LIGAND FREE ENERGY PREDICTED BY IDOCK:   -0.11 KCAL/MOL
REMARK 927      BINDING AFFINITY PREDICTED BY RF-SCORE:    0.00 PKD
ROOT
HETATM    1  C   UNL     1      -7.201   8.226  74.532  1.00  0.00    -0.195 C  
HETATM    2  O   UNL     1      -8.580   8.340  74.218  1.00  0.00    -0.189 OA 
ENDROOT
BRANCH   2   3
HETATM    3  C   UNL     1      -8.910   7.722  72.971  1.00  0.00    -0.192 C  
BRANCH   3   4
HETATM    4  C   UNL     1     -10.160   6.883  73.203  1.00  0.00    -0.215 C  
BRANCH   4   5
HETATM    5  O   UNL     1     -11.336   7.511  72.680  1.00  0.00    -0.317 OA 
BRANCH   5   6
HETATM    6  C   UNL     1     -11.159   8.100  71.460  1.00  0.00    -0.252 A  
HETATM    7  C   UNL     1     -11.090   9.454  71.197  1.00  0.00    -0.362 A  
HETATM    8  N   UNL     1     -10.898   9.980  69.973  1.00  0.00    -0.280 NA 
HETATM    9  C   UNL     1     -10.783   9.103  68.983  1.00  0.00    -0.153 A  
HETATM   10  C   UNL     1     -11.028   7.299  70.340  1.00  0.00    -0.252 A  
HETATM   11  N   UNL     1     -10.847   7.772  69.080  1.00  0.00    -0.119 NA 
BRANCH   9  12
HETATM   12  N   UNL     1     -10.522   9.629  67.720  1.00  0.00    -0.240 N  
HETATM   13  H   UNL     1     -11.253   9.968  67.096  1.00  0.00     0.000 HD 
BRANCH  12  14
HETATM   14  S   UNL     1      -8.892   9.652  67.319  1.00  0.00    -0.132 S  
HETATM   15  O   UNL     1      -8.682   9.269  65.937  1.00  0.00    -0.139 OA 
HETATM   16  O   UNL     1      -8.198   8.966  68.387  1.00  0.00    -0.114 OA 
BRANCH  14  17
HETATM   17  C   UNL     1      -8.451  11.377  67.467  1.00  0.00    -0.137 A  
HETATM   18  C   UNL     1      -7.107  11.733  67.614  1.00  0.00    -0.107 A  
HETATM   19  C   UNL     1      -6.762  13.080  67.720  1.00  0.00    -0.143 A  
HETATM   20  C   UNL     1      -7.753  14.062  67.670  1.00  0.00    -0.188 A  
HETATM   21  C   UNL     1      -9.090  13.704  67.494  1.00  0.00    -0.213 A  
HETATM   22  C   UNL     1      -9.443  12.359  67.376  1.00  0.00    -0.186 A  
ENDBRANCH  14  17
ENDBRANCH  12  14
ENDBRANCH   9  12
ENDBRANCH   5   6
ENDBRANCH   4   5
ENDBRANCH   3   4
ENDBRANCH   2   3
TORSDOF 7
ENDMDL
MODEL      247
REMARK 921   NORMALIZED FREE ENERGY PREDICTED BY IDOCK:   -2.61 KCAL/MOL
REMARK 922        TOTAL FREE ENERGY PREDICTED BY IDOCK:   -4.22 KCAL/MOL
REMARK 923 INTER-LIGAND FREE ENERGY PREDICTED BY IDOCK:   -4.00 KCAL/MOL
REMARK 924 INTRA-LIGAND FREE ENERGY PREDICTED BY IDOCK:   -0.21 KCAL/MOL
REMARK 927      BINDING AFFINITY PREDICTED BY RF-SCORE:    0.00 PKD
ROOT
HETATM    1  C   UNL     1      -9.422  11.143  65.254  1.00  0.00    -0.226 C  
HETATM    2  O   UNL     1     -10.357  10.078  65.307  1.00  0.00    -0.236 OA 
ENDROOT
BRANCH   2   3
HETATM    3  C   UNL     1     -10.308   9.370  66.548  1.00  0.00    -0.198 C  
BRANCH   3   4
HETATM    4  C   UNL     1      -8.849   9.327  66.983  1.00  0.00    -0.123 C  
BRANCH   4   5
HETATM    5  O   UNL     1      -8.304   8.004  66.914  1.00  0.00    -0.113 OA 
BRANCH   5   6
HETATM    6  C   UNL     1      -8.157   7.396  68.129  1.00  0.00    -0.124 A  
HETATM    7  C   UNL     1      -8.024   8.018  69.355  1.00  0.00    -0.116 A  
HETATM    8  N   UNL     1      -7.898   7.367  70.526  1.00  0.00    -0.096 NA 
HETATM    9  C   UNL     1      -7.896   6.041  70.448  1.00  0.00    -0.106 A  
HETATM   10  C   UNL     1      -8.135   6.015  68.190  1.00  0.00    -0.110 A  
HETATM   11  N   UNL     1      -7.996   5.304  69.338  1.00  0.00    -0.087 NA 
BRANCH   9  12
HETATM   12  N   UNL     1      -7.829   5.352  71.656  1.00  0.00    -0.109 N  
HETATM   13  H   UNL     1      -6.966   5.247  72.190  1.00  0.00     0.000 HD 
BRANCH  12  14
HETATM   14  S   UNL     1      -9.297   4.710  72.153  1.00  0.00    -0.140 S  
HETATM   15  O   UNL     1      -9.249   4.289  73.539  1.00  0.00    -0.102 OA 
HETATM   16  O   UNL     1      -9.712   3.789  71.118  1.00  0.00    -0.170 OA 
BRANCH  14  17
HETATM   17  C   UNL     1     -10.414   6.101  72.057  1.00  0.00    -0.211 A  
HETATM   18  C   UNL     1     -11.404   6.122  71.069  1.00  0.00    -0.348 A  
HETATM   19  C   UNL     1     -12.281   7.203  71.001  1.00  0.00    -0.384 A  
HETATM   20  C   UNL     1     -12.175   8.250  71.919  1.00  0.00    -0.383 A  
HETATM   21  C   UNL     1     -11.206   8.211  72.921  1.00  0.00    -0.312 A  
HETATM   22  C   UNL     1     -10.331   7.127  73.004  1.00  0.00    -0.310 A  
ENDBRANCH  14  17
ENDBRANCH  12  14
ENDBRANCH   9  12
ENDBRANCH   5   6
ENDBRANCH   4   5
ENDBRANCH   3   4
ENDBRANCH   2   3
TORSDOF 7
ENDMDL
MODEL      248
REMARK 921   NORMALIZED FREE ENERGY PREDICTED BY IDOCK:   -2.60 KCAL/MOL
REMARK 922        TOTAL FREE ENERGY PREDICTED BY IDOCK:   -4.19 KCAL/MOL
REMARK 923 INTER-LIGAND FREE ENERGY PREDICTED BY IDOCK:   -3.70 KCAL/MOL
REMARK 924 INTRA-LIGAND FREE ENERGY PREDICTED BY IDOCK:   -0.49 KCAL/MOL
REMARK 927      BINDING AFFINITY PREDICTED BY RF-SCORE:    0.00 PKD
ROOT
HETATM    1  C   UNL     1     -12.323   9.900  71.041  1.00  0.00    -0.357 C  
HETATM    2  O   UNL     1     -12.738   8.964  72.023  1.00  0.00    -0.340 OA 
ENDROOT
BRANCH   2   3
HETATM    3  C   UNL     1     -12.254   7.644  71.760  1.00  0.00    -0.311 C  
BRANCH   3   4
HETATM    4  C   UNL     1     -11.323   7.271  72.906  1.00  0.00    -0.246 C  
BRANCH   4   5
HETATM    5  O   UNL     1     -10.126   8.057  72.907  1.00  0.00    -0.282 OA 
BRANCH   5   6
HETATM    6  C   UNL     1      -9.208   7.677  71.969  1.00  0.00    -0.138 A  
HETATM    7  C   UNL     1      -8.713   6.404  71.763  1.00  0.00    -0.132 A  
HETATM    8  N   UNL     1      -7.819   6.082  70.810  1.00  0.00    -0.101 NA 
HETATM    9  C   UNL     1      -7.405   7.089  70.048  1.00  0.00    -0.081 A  
HETATM   10  C   UNL     1      -8.692   8.629  71.110  1.00  0.00    -0.197 A  
HETATM   11  N   UNL     1      -7.778   8.369  70.140  1.00  0.00    -0.080 NA 
BRANCH   9  12
HETATM   12  N   UNL     1      -6.527   6.762  69.018  1.00  0.00    -0.035 N  
HETATM   13  H   UNL     1      -5.526   6.950  69.059  1.00  0.00     0.000 HD 
BRANCH  12  14
HETATM   14  S   UNL     1      -7.268   6.031  67.702  1.00  0.00    -0.077 S  
HETATM   15  O   UNL     1      -8.129   4.942  68.117  1.00  0.00    -0.086 OA 
HETATM   16  O   UNL     1      -6.231   5.815  66.717  1.00  0.00    -0.028 OA 
BRANCH  14  17
HETATM   17  C   UNL     1      -8.317   7.319  67.045  1.00  0.00    -0.118 A  
HETATM   18  C   UNL     1      -9.703   7.229  67.210  1.00  0.00    -0.204 A  
HETATM   19  C   UNL     1     -10.521   8.239  66.706  1.00  0.00    -0.313 A  
HETATM   20  C   UNL     1      -9.955   9.335  66.050  1.00  0.00    -0.325 A  
HETATM   21  C   UNL     1      -8.571   9.436  65.914  1.00  0.00    -0.155 A  
HETATM   22  C   UNL     1      -7.744   8.435  66.426  1.00  0.00    -0.094 A  
ENDBRANCH  14  17
ENDBRANCH  12  14
ENDBRANCH   9  12
ENDBRANCH   5   6
ENDBRANCH   4   5
ENDBRANCH   3   4
ENDBRANCH   2   3
TORSDOF 7
ENDMDL
MODEL      249
REMARK 921   NORMALIZED FREE ENERGY PREDICTED BY IDOCK:   -2.56 KCAL/MOL
REMARK 922        TOTAL FREE ENERGY PREDICTED BY IDOCK:   -4.14 KCAL/MOL
REMARK 923 INTER-LIGAND FREE ENERGY PREDICTED BY IDOCK:   -3.63 KCAL/MOL
REMARK 924 INTRA-LIGAND FREE ENERGY PREDICTED BY IDOCK:   -0.51 KCAL/MOL
REMARK 927      BINDING AFFINITY PREDICTED BY RF-SCORE:    0.00 PKD
ROOT
HETATM    1  C   UNL     1     -11.918  13.372  66.387  1.00  0.00    -0.406 C  
HETATM    2  O   UNL     1     -10.545  13.709  66.502  1.00  0.00    -0.278 OA 
ENDROOT
BRANCH   2   3
HETATM    3  C   UNL     1     -10.112  13.782  67.863  1.00  0.00    -0.246 C  
BRANCH   3   4
HETATM    4  C   UNL     1      -8.972  12.785  68.025  1.00  0.00    -0.196 C  
BRANCH   4   5
HETATM    5  O   UNL     1      -8.442  12.361  66.764  1.00  0.00    -0.174 OA 
BRANCH   5   6
HETATM    6  C   UNL     1      -8.723  11.061  66.449  1.00  0.00    -0.173 A  
HETATM    7  C   UNL     1      -8.932  10.542  65.186  1.00  0.00    -0.191 A  
HETATM    8  N   UNL     1      -9.189   9.246  64.932  1.00  0.00    -0.197 NA 
HETATM    9  C   UNL     1      -9.249   8.453  65.996  1.00  0.00    -0.187 A  
HETATM   10  C   UNL     1      -8.816  10.129  67.466  1.00  0.00    -0.125 A  
HETATM   11  N   UNL     1      -9.088   8.812  67.273  1.00  0.00    -0.131 NA 
BRANCH   9  12
HETATM   12  N   UNL     1      -9.453   7.099  65.745  1.00  0.00    -0.373 N  
HETATM   13  H   UNL     1     -10.373   6.700  65.561  1.00  0.00     0.000 HD 
BRANCH  12  14
HETATM   14  S   UNL     1      -8.046   6.184  65.773  1.00  0.00    -0.131 S  
HETATM   15  O   UNL     1      -6.867   7.026  65.759  1.00  0.00    -0.054 OA 
HETATM   16  O   UNL     1      -8.217   5.141  64.785  1.00  0.00    -0.117 OA 
BRANCH  14  17
HETATM   17  C   UNL     1      -8.106   5.375  67.365  1.00  0.00    -0.101 A  
HETATM   18  C   UNL     1      -7.226   5.778  68.374  1.00  0.00    -0.079 A  
HETATM   19  C   UNL     1      -7.279   5.154  69.620  1.00  0.00    -0.056 A  
HETATM   20  C   UNL     1      -8.212   4.141  69.855  1.00  0.00    -0.068 A  
HETATM   21  C   UNL     1      -9.107   3.763  68.854  1.00  0.00    -0.201 A  
HETATM   22  C   UNL     1      -9.068   4.391  67.609  1.00  0.00    -0.145 A  
ENDBRANCH  14  17
ENDBRANCH  12  14
ENDBRANCH   9  12
ENDBRANCH   5   6
ENDBRANCH   4   5
ENDBRANCH   3   4
ENDBRANCH   2   3
TORSDOF 7
ENDMDL
MODEL      250
REMARK 921   NORMALIZED FREE ENERGY PREDICTED BY IDOCK:   -2.53 KCAL/MOL
REMARK 922        TOTAL FREE ENERGY PREDICTED BY IDOCK:   -4.09 KCAL/MOL
REMARK 923 INTER-LIGAND FREE ENERGY PREDICTED BY IDOCK:   -4.12 KCAL/MOL
REMARK 924 INTRA-LIGAND FREE ENERGY PREDICTED BY IDOCK:    0.03 KCAL/MOL
REMARK 927      BINDING AFFINITY PREDICTED BY RF-SCORE:    0.00 PKD
ROOT
HETATM    1  C   UNL     1     -12.889   7.239  71.348  1.00  0.00    -0.382 C  
HETATM    2  O   UNL     1     -12.487   6.025  71.963  1.00  0.00    -0.164 OA 
ENDROOT
BRANCH   2   3
HETATM    3  C   UNL     1     -11.092   5.763  71.795  1.00  0.00    -0.238 C  
BRANCH   3   4
HETATM    4  C   UNL     1     -10.535   5.399  73.166  1.00  0.00    -0.217 C  
BRANCH   4   5
HETATM    5  O   UNL     1      -9.749   6.456  73.727  1.00  0.00    -0.161 OA 
BRANCH   5   6
HETATM    6  C   UNL     1      -9.250   7.331  72.805  1.00  0.00    -0.143 A  
HETATM    7  C   UNL     1      -8.113   7.167  72.038  1.00  0.00    -0.099 A  
HETATM    8  N   UNL     1      -7.675   8.057  71.129  1.00  0.00    -0.083 NA 
HETATM    9  C   UNL     1      -8.409   9.157  71.004  1.00  0.00    -0.152 A  
HETATM   10  C   UNL     1      -9.918   8.520  72.577  1.00  0.00    -0.252 A  
HETATM   11  N   UNL     1      -9.517   9.463  71.685  1.00  0.00    -0.189 NA 
BRANCH   9  12
HETATM   12  N   UNL     1      -8.005  10.061  70.024  1.00  0.00    -0.253 N  
HETATM   13  H   UNL     1      -7.360  10.828  70.208  1.00  0.00     0.000 HD 
BRANCH  12  14
HETATM   14  S   UNL     1      -8.676   9.770  68.514  1.00  0.00    -0.122 S  
HETATM   15  O   UNL     1      -9.752   8.802  68.590  1.00  0.00    -0.157 OA 
HETATM   16  O   UNL     1      -7.568   9.569  67.606  1.00  0.00    -0.093 OA 
BRANCH  14  17
HETATM   17  C   UNL     1      -9.402  11.341  68.071  1.00  0.00    -0.166 A  
HETATM   18  C   UNL     1     -10.600  11.739  68.673  1.00  0.00    -0.250 A  
HETATM   19  C   UNL     1     -11.162  12.969  68.335  1.00  0.00    -0.304 A  
HETATM   20  C   UNL     1     -10.525  13.798  67.409  1.00  0.00    -0.256 A  
HETATM   21  C   UNL     1      -9.315  13.410  66.833  1.00  0.00    -0.253 A  
HETATM   22  C   UNL     1      -8.740  12.186  67.175  1.00  0.00    -0.190 A  
ENDBRANCH  14  17
ENDBRANCH  12  14
ENDBRANCH   9  12
ENDBRANCH   5   6
ENDBRANCH   4   5
ENDBRANCH   3   4
ENDBRANCH   2   3
TORSDOF 7
ENDMDL
MODEL      251
REMARK 921   NORMALIZED FREE ENERGY PREDICTED BY IDOCK:   -2.51 KCAL/MOL
REMARK 922        TOTAL FREE ENERGY PREDICTED BY IDOCK:   -4.07 KCAL/MOL
REMARK 923 INTER-LIGAND FREE ENERGY PREDICTED BY IDOCK:   -4.13 KCAL/MOL
REMARK 924 INTRA-LIGAND FREE ENERGY PREDICTED BY IDOCK:    0.06 KCAL/MOL
REMARK 927      BINDING AFFINITY PREDICTED BY RF-SCORE:    0.00 PKD
ROOT
HETATM    1  C   UNL     1      -8.800  10.571  64.800  1.00  0.00    -0.196 C  
HETATM    2  O   UNL     1      -9.540   9.365  64.895  1.00  0.00    -0.191 OA 
ENDROOT
BRANCH   2   3
HETATM    3  C   UNL     1      -9.393   8.732  66.169  1.00  0.00    -0.234 C  
BRANCH   3   4
HETATM    4  C   UNL     1     -10.324   9.450  67.138  1.00  0.00    -0.258 C  
BRANCH   4   5
HETATM    5  O   UNL     1      -9.609  10.086  68.202  1.00  0.00    -0.138 OA 
BRANCH   5   6
HETATM    6  C   UNL     1      -9.823   9.529  69.431  1.00  0.00    -0.186 A  
HETATM    7  C   UNL     1     -10.988   8.937  69.880  1.00  0.00    -0.182 A  
HETATM    8  N   UNL     1     -11.139   8.387  71.099  1.00  0.00    -0.247 NA 
HETATM    9  C   UNL     1     -10.076   8.450  71.892  1.00  0.00    -0.267 A  
HETATM   10  C   UNL     1      -8.797   9.529  70.357  1.00  0.00    -0.234 A  
HETATM   11  N   UNL     1      -8.894   9.004  71.606  1.00  0.00    -0.357 NA 
BRANCH   9  12
HETATM   12  N   UNL     1     -10.195   7.831  73.134  1.00  0.00    -0.327 N  
HETATM   13  H   UNL     1     -10.906   8.089  73.818  1.00  0.00     0.000 HD 
BRANCH  12  14
HETATM   14  S   UNL     1      -9.062   6.623  73.401  1.00  0.00    -0.129 S  
HETATM   15  O   UNL     1      -9.541   5.652  74.364  1.00  0.00    -0.144 OA 
HETATM   16  O   UNL     1      -7.792   7.289  73.596  1.00  0.00    -0.101 OA 
BRANCH  14  17
HETATM   17  C   UNL     1      -8.952   5.797  71.821  1.00  0.00    -0.139 A  
HETATM   18  C   UNL     1      -7.762   5.868  71.089  1.00  0.00    -0.109 A  
HETATM   19  C   UNL     1      -7.673   5.216  69.860  1.00  0.00    -0.068 A  
HETATM   20  C   UNL     1      -8.762   4.491  69.372  1.00  0.00    -0.117 A  
HETATM   21  C   UNL     1      -9.937   4.399  70.119  1.00  0.00    -0.249 A  
HETATM   22  C   UNL     1     -10.030   5.039  71.355  1.00  0.00    -0.259 A  
ENDBRANCH  14  17
ENDBRANCH  12  14
ENDBRANCH   9  12
ENDBRANCH   5   6
ENDBRANCH   4   5
ENDBRANCH   3   4
ENDBRANCH   2   3
TORSDOF 7
ENDMDL
MODEL      252
REMARK 921   NORMALIZED FREE ENERGY PREDICTED BY IDOCK:   -2.51 KCAL/MOL
REMARK 922        TOTAL FREE ENERGY PREDICTED BY IDOCK:   -4.07 KCAL/MOL
REMARK 923 INTER-LIGAND FREE ENERGY PREDICTED BY IDOCK:   -5.08 KCAL/MOL
REMARK 924 INTRA-LIGAND FREE ENERGY PREDICTED BY IDOCK:    1.02 KCAL/MOL
REMARK 927      BINDING AFFINITY PREDICTED BY RF-SCORE:    0.00 PKD
ROOT
HETATM    1  C   UNL     1      -7.382   8.866  62.974  1.00  0.00    -0.097 C  
HETATM    2  O   UNL     1      -8.569   9.371  63.565  1.00  0.00    -0.191 OA 
ENDROOT
BRANCH   2   3
HETATM    3  C   UNL     1      -8.304  10.199  64.701  1.00  0.00    -0.166 C  
BRANCH   3   4
HETATM    4  C   UNL     1      -9.606  10.319  65.482  1.00  0.00    -0.242 C  
BRANCH   4   5
HETATM    5  O   UNL     1      -9.424  10.986  66.736  1.00  0.00    -0.177 OA 
BRANCH   5   6
HETATM    6  C   UNL     1     -10.111  10.424  67.774  1.00  0.00    -0.181 A  
HETATM    7  C   UNL     1     -10.096   9.095  68.153  1.00  0.00    -0.189 A  
HETATM    8  N   UNL     1     -10.783   8.597  69.197  1.00  0.00    -0.170 NA 
HETATM    9  C   UNL     1     -11.517   9.474  69.872  1.00  0.00    -0.062 A  
HETATM   10  C   UNL     1     -10.918  11.226  68.558  1.00  0.00    -0.220 A  
HETATM   11  N   UNL     1     -11.645  10.779  69.614  1.00  0.00    -0.289 NA 
BRANCH   9  12
HETATM   12  N   UNL     1     -12.185   8.987  70.993  1.00  0.00    -0.419 N  
HETATM   13  H   UNL     1     -12.682   9.588  71.649  1.00  0.00     0.000 HD 
BRANCH  12  14
HETATM   14  S   UNL     1     -12.095   7.320  71.165  1.00  0.00    -0.337 S  
HETATM   15  O   UNL     1     -11.610   6.688  69.954  1.00  0.00    -0.371 OA 
HETATM   16  O   UNL     1     -13.344   6.903  71.764  1.00  0.00    -0.335 OA 
BRANCH  14  17
HETATM   17  C   UNL     1     -10.843   7.097  72.420  1.00  0.00    -0.246 A  
HETATM   18  C   UNL     1     -10.821   5.916  73.168  1.00  0.00    -0.296 A  
HETATM   19  C   UNL     1      -9.838   5.738  74.141  1.00  0.00    -0.208 A  
HETATM   20  C   UNL     1      -8.880   6.731  74.356  1.00  0.00    -0.204 A  
HETATM   21  C   UNL     1      -8.887   7.895  73.588  1.00  0.00    -0.336 A  
HETATM   22  C   UNL     1      -9.861   8.076  72.604  1.00  0.00    -0.347 A  
ENDBRANCH  14  17
ENDBRANCH  12  14
ENDBRANCH   9  12
ENDBRANCH   5   6
ENDBRANCH   4   5
ENDBRANCH   3   4
ENDBRANCH   2   3
TORSDOF 7
ENDMDL
MODEL      253
REMARK 921   NORMALIZED FREE ENERGY PREDICTED BY IDOCK:   -2.51 KCAL/MOL
REMARK 922        TOTAL FREE ENERGY PREDICTED BY IDOCK:   -4.06 KCAL/MOL
REMARK 923 INTER-LIGAND FREE ENERGY PREDICTED BY IDOCK:   -4.11 KCAL/MOL
REMARK 924 INTRA-LIGAND FREE ENERGY PREDICTED BY IDOCK:    0.04 KCAL/MOL
REMARK 927      BINDING AFFINITY PREDICTED BY RF-SCORE:    0.00 PKD
ROOT
HETATM    1  C   UNL     1      -8.837  10.198  63.713  1.00  0.00    -0.229 C  
HETATM    2  O   UNL     1      -8.666   9.171  62.750  1.00  0.00    -0.218 OA 
ENDROOT
BRANCH   2   3
HETATM    3  C   UNL     1      -7.655   8.232  63.127  1.00  0.00    -0.127 C  
BRANCH   3   4
HETATM    4  C   UNL     1      -7.572   8.248  64.648  1.00  0.00    -0.106 C  
BRANCH   4   5
HETATM    5  O   UNL     1      -7.604   6.929  65.204  1.00  0.00    -0.088 OA 
BRANCH   5   6
HETATM    6  C   UNL     1      -8.626   6.719  66.086  1.00  0.00    -0.143 A  
HETATM    7  C   UNL     1      -8.748   5.671  66.978  1.00  0.00    -0.108 A  
HETATM    8  N   UNL     1      -9.771   5.523  67.839  1.00  0.00    -0.125 NA 
HETATM    9  C   UNL     1     -10.707   6.463  67.785  1.00  0.00    -0.303 A  
HETATM   10  C   UNL     1      -9.670   7.625  66.132  1.00  0.00     0.040 A  
HETATM   11  N   UNL     1     -10.735   7.520  66.968  1.00  0.00    -0.352 NA 
BRANCH   9  12
HETATM   12  N   UNL     1     -11.741   6.358  68.712  1.00  0.00    -0.326 N  
HETATM   13  H   UNL     1     -12.724   6.299  68.445  1.00  0.00     0.000 HD 
BRANCH  12  14
HETATM   14  S   UNL     1     -11.223   6.339  70.308  1.00  0.00    -0.386 S  
HETATM   15  O   UNL     1     -10.608   5.072  70.649  1.00  0.00    -0.200 OA 
HETATM   16  O   UNL     1     -12.314   6.865  71.099  1.00  0.00    -0.369 OA 
BRANCH  14  17
HETATM   17  C   UNL     1      -9.939   7.582  70.344  1.00  0.00    -0.184 A  
HETATM   18  C   UNL     1     -10.217   8.870  69.878  1.00  0.00    -0.209 A  
HETATM   19  C   UNL     1      -9.218   9.843  69.915  1.00  0.00    -0.245 A  
HETATM   20  C   UNL     1      -7.955   9.529  70.423  1.00  0.00    -0.200 A  
HETATM   21  C   UNL     1      -7.692   8.250  70.914  1.00  0.00    -0.082 A  
HETATM   22  C   UNL     1      -8.689   7.275  70.891  1.00  0.00    -0.148 A  
ENDBRANCH  14  17
ENDBRANCH  12  14
ENDBRANCH   9  12
ENDBRANCH   5   6
ENDBRANCH   4   5
ENDBRANCH   3   4
ENDBRANCH   2   3
TORSDOF 7
ENDMDL
MODEL      254
REMARK 921   NORMALIZED FREE ENERGY PREDICTED BY IDOCK:   -2.50 KCAL/MOL
REMARK 922        TOTAL FREE ENERGY PREDICTED BY IDOCK:   -4.06 KCAL/MOL
REMARK 923 INTER-LIGAND FREE ENERGY PREDICTED BY IDOCK:   -3.63 KCAL/MOL
REMARK 924 INTRA-LIGAND FREE ENERGY PREDICTED BY IDOCK:   -0.43 KCAL/MOL
REMARK 927      BINDING AFFINITY PREDICTED BY RF-SCORE:    0.00 PKD
ROOT
HETATM    1  C   UNL     1      -6.015  10.536  64.375  1.00  0.00    -0.053 C  
HETATM    2  O   UNL     1      -5.242   9.647  63.585  1.00  0.00    -0.066 OA 
ENDROOT
BRANCH   2   3
HETATM    3  C   UNL     1      -5.923   8.419  63.319  1.00  0.00    -0.077 C  
BRANCH   3   4
HETATM    4  C   UNL     1      -6.599   7.990  64.615  1.00  0.00    -0.056 C  
BRANCH   4   5
HETATM    5  O   UNL     1      -7.947   7.556  64.403  1.00  0.00    -0.135 OA 
BRANCH   5   6
HETATM    6  C   UNL     1      -8.602   7.191  65.544  1.00  0.00    -0.080 A  
HETATM    7  C   UNL     1      -9.574   7.915  66.208  1.00  0.00    -0.130 A  
HETATM    8  N   UNL     1     -10.201   7.499  67.323  1.00  0.00    -0.237 NA 
HETATM    9  C   UNL     1      -9.820   6.314  67.788  1.00  0.00    -0.121 A  
HETATM   10  C   UNL     1      -8.299   5.979  66.135  1.00  0.00    -0.126 A  
HETATM   11  N   UNL     1      -8.886   5.512  67.268  1.00  0.00    -0.107 NA 
BRANCH   9  12
HETATM   12  N   UNL     1     -10.502   5.841  68.906  1.00  0.00    -0.237 N  
HETATM   13  H   UNL     1     -11.248   5.148  68.850  1.00  0.00     0.000 HD 
BRANCH  12  14
HETATM   14  S   UNL     1      -9.984   6.515  70.352  1.00  0.00    -0.180 S  
HETATM   15  O   UNL     1     -10.806   7.645  70.734  1.00  0.00    -0.230 OA 
HETATM   16  O   UNL     1      -8.547   6.652  70.248  1.00  0.00    -0.137 OA 
BRANCH  14  17
HETATM   17  C   UNL     1     -10.274   5.217  71.545  1.00  0.00    -0.212 A  
HETATM   18  C   UNL     1     -11.037   5.489  72.685  1.00  0.00    -0.334 A  
HETATM   19  C   UNL     1     -11.272   4.473  73.611  1.00  0.00    -0.346 A  
HETATM   20  C   UNL     1     -10.754   3.194  73.393  1.00  0.00    -0.299 A  
HETATM   21  C   UNL     1     -10.018   2.921  72.240  1.00  0.00    -0.238 A  
HETATM   22  C   UNL     1      -9.788   3.928  71.302  1.00  0.00    -0.227 A  
ENDBRANCH  14  17
ENDBRANCH  12  14
ENDBRANCH   9  12
ENDBRANCH   5   6
ENDBRANCH   4   5
ENDBRANCH   3   4
ENDBRANCH   2   3
TORSDOF 7
ENDMDL
MODEL      255
REMARK 921   NORMALIZED FREE ENERGY PREDICTED BY IDOCK:   -2.48 KCAL/MOL
REMARK 922        TOTAL FREE ENERGY PREDICTED BY IDOCK:   -4.02 KCAL/MOL
REMARK 923 INTER-LIGAND FREE ENERGY PREDICTED BY IDOCK:   -3.64 KCAL/MOL
REMARK 924 INTRA-LIGAND FREE ENERGY PREDICTED BY IDOCK:   -0.38 KCAL/MOL
REMARK 927      BINDING AFFINITY PREDICTED BY RF-SCORE:    0.00 PKD
ROOT
HETATM    1  C   UNL     1      -7.901   2.568  64.709  1.00  0.00    -0.077 C  
HETATM    2  O   UNL     1      -7.637   3.865  64.198  1.00  0.00    -0.075 OA 
ENDROOT
BRANCH   2   3
HETATM    3  C   UNL     1      -8.630   4.818  64.587  1.00  0.00    -0.147 C  
BRANCH   3   4
HETATM    4  C   UNL     1      -8.096   6.197  64.221  1.00  0.00    -0.093 C  
BRANCH   4   5
HETATM    5  O   UNL     1      -7.318   6.772  65.276  1.00  0.00    -0.076 OA 
BRANCH   5   6
HETATM    6  C   UNL     1      -7.590   8.089  65.517  1.00  0.00    -0.085 A  
HETATM    7  C   UNL     1      -8.799   8.732  65.333  1.00  0.00    -0.178 A  
HETATM    8  N   UNL     1      -9.016  10.032  65.603  1.00  0.00    -0.163 NA 
HETATM    9  C   UNL     1      -7.967  10.705  66.063  1.00  0.00    -0.159 A  
HETATM   10  C   UNL     1      -6.583   8.906  65.997  1.00  0.00    -0.065 A  
HETATM   11  N   UNL     1      -6.737  10.227  66.273  1.00  0.00    -0.098 NA 
BRANCH   9  12
HETATM   12  N   UNL     1      -8.191  12.036  66.406  1.00  0.00    -0.391 N  
HETATM   13  H   UNL     1      -8.178  12.796  65.726  1.00  0.00     0.000 HD 
BRANCH  12  14
HETATM   14  S   UNL     1      -8.482  12.276  68.041  1.00  0.00    -0.178 S  
HETATM   15  O   UNL     1      -7.351  12.902  68.694  1.00  0.00    -0.107 OA 
HETATM   16  O   UNL     1      -9.029  11.035  68.545  1.00  0.00    -0.151 OA 
BRANCH  14  17
HETATM   17  C   UNL     1      -9.826  13.454  68.057  1.00  0.00    -0.229 A  
HETATM   18  C   UNL     1      -9.677  14.657  68.753  1.00  0.00    -0.217 A  
HETATM   19  C   UNL     1     -10.722  15.580  68.757  1.00  0.00    -0.249 A  
HETATM   20  C   UNL     1     -11.902  15.305  68.063  1.00  0.00    -0.176 A  
HETATM   21  C   UNL     1     -12.035  14.116  67.345  1.00  0.00    -0.439 A  
HETATM   22  C   UNL     1     -10.989  13.192  67.326  1.00  0.00    -0.288 A  
ENDBRANCH  14  17
ENDBRANCH  12  14
ENDBRANCH   9  12
ENDBRANCH   5   6
ENDBRANCH   4   5
ENDBRANCH   3   4
ENDBRANCH   2   3
TORSDOF 7
ENDMDL
MODEL      256
REMARK 921   NORMALIZED FREE ENERGY PREDICTED BY IDOCK:   -2.38 KCAL/MOL
REMARK 922        TOTAL FREE ENERGY PREDICTED BY IDOCK:   -3.89 KCAL/MOL
REMARK 923 INTER-LIGAND FREE ENERGY PREDICTED BY IDOCK:   -3.73 KCAL/MOL
REMARK 924 INTRA-LIGAND FREE ENERGY PREDICTED BY IDOCK:   -0.16 KCAL/MOL
REMARK 927      BINDING AFFINITY PREDICTED BY RF-SCORE:    0.00 PKD
ROOT
HETATM    1  C   UNL     1      -9.085  10.199  62.574  1.00  0.00    -0.287 C  
HETATM    2  O   UNL     1     -10.030  10.756  63.474  1.00  0.00    -0.323 OA 
ENDROOT
BRANCH   2   3
HETATM    3  C   UNL     1      -9.427  11.638  64.424  1.00  0.00    -0.029 C  
BRANCH   3   4
HETATM    4  C   UNL     1     -10.500  12.004  65.441  1.00  0.00    -0.275 C  
BRANCH   4   5
HETATM    5  O   UNL     1      -9.977  12.085  66.771  1.00  0.00    -0.198 OA 
BRANCH   5   6
HETATM    6  C   UNL     1     -10.342  11.044  67.579  1.00  0.00    -0.198 A  
HETATM    7  C   UNL     1     -10.761   9.792  67.175  1.00  0.00    -0.202 A  
HETATM    8  N   UNL     1     -11.093   8.796  68.017  1.00  0.00     0.157 NA 
HETATM    9  C   UNL     1     -11.008   9.085  69.311  1.00  0.00    -0.032 A  
HETATM   10  C   UNL     1     -10.300  11.212  68.950  1.00  0.00    -0.201 A  
HETATM   11  N   UNL     1     -10.638  10.251  69.848  1.00  0.00    -0.273 NA 
BRANCH   9  12
HETATM   12  N   UNL     1     -11.288   8.046  70.195  1.00  0.00    -0.445 N  
HETATM   13  H   UNL     1     -12.235   7.728  70.397  1.00  0.00     0.000 HD 
BRANCH  12  14
HETATM   14  S   UNL     1      -9.924   7.366  70.897  1.00  0.00    -0.183 S  
HETATM   15  O   UNL     1     -10.269   6.557  72.049  1.00  0.00    -0.192 OA 
HETATM   16  O   UNL     1      -8.949   8.430  71.010  1.00  0.00    -0.143 OA 
BRANCH  14  17
HETATM   17  C   UNL     1      -9.310   6.263  69.634  1.00  0.00    -0.143 A  
HETATM   18  C   UNL     1      -7.952   6.288  69.299  1.00  0.00    -0.109 A  
HETATM   19  C   UNL     1      -7.472   5.419  68.319  1.00  0.00    -0.073 A  
HETATM   20  C   UNL     1      -8.341   4.528  67.688  1.00  0.00    -0.099 A  
HETATM   21  C   UNL     1      -9.689   4.486  68.046  1.00  0.00    -0.192 A  
HETATM   22  C   UNL     1     -10.175   5.343  69.033  1.00  0.00    -0.291 A  
ENDBRANCH  14  17
ENDBRANCH  12  14
ENDBRANCH   9  12
ENDBRANCH   5   6
ENDBRANCH   4   5
ENDBRANCH   3   4
ENDBRANCH   2   3
TORSDOF 7
ENDMDL
MODEL      257
REMARK 921   NORMALIZED FREE ENERGY PREDICTED BY IDOCK:   -2.24 KCAL/MOL
REMARK 922        TOTAL FREE ENERGY PREDICTED BY IDOCK:   -3.69 KCAL/MOL
REMARK 923 INTER-LIGAND FREE ENERGY PREDICTED BY IDOCK:   -3.32 KCAL/MOL
REMARK 924 INTRA-LIGAND FREE ENERGY PREDICTED BY IDOCK:   -0.37 KCAL/MOL
REMARK 927      BINDING AFFINITY PREDICTED BY RF-SCORE:    0.00 PKD
ROOT
HETATM    1  C   UNL     1     -11.210  12.972  68.032  1.00  0.00    -0.278 C  
HETATM    2  O   UNL     1      -9.928  12.371  67.949  1.00  0.00    -0.193 OA 
ENDROOT
BRANCH   2   3
HETATM    3  C   UNL     1      -9.446  12.293  66.605  1.00  0.00    -0.226 C  
BRANCH   3   4
HETATM    4  C   UNL     1      -8.433  11.157  66.557  1.00  0.00    -0.165 C  
BRANCH   4   5
HETATM    5  O   UNL     1      -7.321  11.388  67.430  1.00  0.00    -0.104 OA 
BRANCH   5   6
HETATM    6  C   UNL     1      -7.214  10.483  68.448  1.00  0.00    -0.080 A  
HETATM    7  C   UNL     1      -7.277  10.750  69.802  1.00  0.00    -0.101 A  
HETATM    8  N   UNL     1      -7.181   9.815  70.765  1.00  0.00    -0.314 NA 
HETATM    9  C   UNL     1      -7.003   8.569  70.339  1.00  0.00    -0.038 A  
HETATM   10  C   UNL     1      -7.023   9.148  68.144  1.00  0.00    -0.076 A  
HETATM   11  N   UNL     1      -6.903   8.163  69.070  1.00  0.00    -0.059 NA 
BRANCH   9  12
HETATM   12  N   UNL     1      -6.963   7.582  71.320  1.00  0.00    -0.050 N  
HETATM   13  H   UNL     1      -6.099   7.134  71.625  1.00  0.00     0.000 HD 
BRANCH  12  14
HETATM   14  S   UNL     1      -8.468   7.196  71.955  1.00  0.00    -0.107 S  
HETATM   15  O   UNL     1      -9.180   8.382  72.386  1.00  0.00    -0.232 OA 
HETATM   16  O   UNL     1      -8.256   6.092  72.866  1.00  0.00    -0.116 OA 
BRANCH  14  17
HETATM   17  C   UNL     1      -9.351   6.523  70.556  1.00  0.00    -0.162 A  
HETATM   18  C   UNL     1     -10.413   7.244  70.001  1.00  0.00    -0.234 A  
HETATM   19  C   UNL     1     -11.096   6.722  68.903  1.00  0.00    -0.243 A  
HETATM   20  C   UNL     1     -10.712   5.495  68.359  1.00  0.00    -0.156 A  
HETATM   21  C   UNL     1      -9.634   4.793  68.897  1.00  0.00    -0.229 A  
HETATM   22  C   UNL     1      -8.937   5.313  69.989  1.00  0.00    -0.154 A  
ENDBRANCH  14  17
ENDBRANCH  12  14
ENDBRANCH   9  12
ENDBRANCH   5   6
ENDBRANCH   4   5
ENDBRANCH   3   4
ENDBRANCH   2   3
TORSDOF 7
ENDMDL
MODEL      258
REMARK 921   NORMALIZED FREE ENERGY PREDICTED BY IDOCK:   -2.22 KCAL/MOL
REMARK 922        TOTAL FREE ENERGY PREDICTED BY IDOCK:   -3.66 KCAL/MOL
REMARK 923 INTER-LIGAND FREE ENERGY PREDICTED BY IDOCK:   -4.69 KCAL/MOL
REMARK 924 INTRA-LIGAND FREE ENERGY PREDICTED BY IDOCK:    1.04 KCAL/MOL
REMARK 927      BINDING AFFINITY PREDICTED BY RF-SCORE:    0.00 PKD
ROOT
HETATM    1  C   UNL     1      -9.014  10.294  64.492  1.00  0.00    -0.219 C  
HETATM    2  O   UNL     1     -10.247  10.982  64.355  1.00  0.00    -0.297 OA 
ENDROOT
BRANCH   2   3
HETATM    3  C   UNL     1     -10.068  12.376  64.091  1.00  0.00    -0.295 C  
BRANCH   3   4
HETATM    4  C   UNL     1     -11.365  13.076  64.474  1.00  0.00    -0.339 C  
BRANCH   4   5
HETATM    5  O   UNL     1     -11.146  14.426  64.896  1.00  0.00    -0.359 OA 
BRANCH   5   6
HETATM    6  C   UNL     1     -10.297  14.548  65.959  1.00  0.00    -0.309 A  
HETATM    7  C   UNL     1      -9.062  13.946  66.105  1.00  0.00     0.098 A  
HETATM    8  N   UNL     1      -8.257  14.115  67.170  1.00  0.00    -0.178 NA 
HETATM    9  C   UNL     1      -8.726  14.912  68.123  1.00  0.00    -0.164 A  
HETATM   10  C   UNL     1     -10.664  15.349  67.024  1.00  0.00    -0.321 A  
HETATM   11  N   UNL     1      -9.902  15.546  68.131  1.00  0.00    -0.215 NA 
BRANCH   9  12
HETATM   12  N   UNL     1      -7.879  15.147  69.203  1.00  0.00    -0.184 N  
HETATM   13  H   UNL     1      -8.145  14.961  70.170  1.00  0.00     0.000 HD 
BRANCH  12  14
HETATM   14  S   UNL     1      -6.380  15.764  68.769  1.00  0.00    -0.113 S  
HETATM   15  O   UNL     1      -6.037  15.410  67.406  1.00  0.00    -0.299 OA 
HETATM   16  O   UNL     1      -5.479  15.455  69.858  1.00  0.00    -0.105 OA 
BRANCH  14  17
HETATM   17  C   UNL     1      -6.628  17.533  68.815  1.00  0.00    -0.216 A  
HETATM   18  C   UNL     1      -7.440  18.139  67.852  1.00  0.00    -0.228 A  
HETATM   19  C   UNL     1      -7.641  19.518  67.894  1.00  0.00    -0.324 A  
HETATM   20  C   UNL     1      -7.042  20.282  68.897  1.00  0.00    -0.104 A  
HETATM   21  C   UNL     1      -6.256  19.669  69.873  1.00  0.00    -0.356 A  
HETATM   22  C   UNL     1      -6.059  18.288  69.845  1.00  0.00    -0.167 A  
ENDBRANCH  14  17
ENDBRANCH  12  14
ENDBRANCH   9  12
ENDBRANCH   5   6
ENDBRANCH   4   5
ENDBRANCH   3   4
ENDBRANCH   2   3
TORSDOF 7
ENDMDL
MODEL      259
REMARK 921   NORMALIZED FREE ENERGY PREDICTED BY IDOCK:   -2.20 KCAL/MOL
REMARK 922        TOTAL FREE ENERGY PREDICTED BY IDOCK:   -3.63 KCAL/MOL
REMARK 923 INTER-LIGAND FREE ENERGY PREDICTED BY IDOCK:   -3.50 KCAL/MOL
REMARK 924 INTRA-LIGAND FREE ENERGY PREDICTED BY IDOCK:   -0.13 KCAL/MOL
REMARK 927      BINDING AFFINITY PREDICTED BY RF-SCORE:    0.00 PKD
ROOT
HETATM    1  C   UNL     1     -12.094  11.643  68.848  1.00  0.00    -0.190 C  
HETATM    2  O   UNL     1     -11.625  12.490  67.811  1.00  0.00    -0.303 OA 
ENDROOT
BRANCH   2   3
HETATM    3  C   UNL     1     -11.619  11.843  66.536  1.00  0.00    -0.255 C  
BRANCH   3   4
HETATM    4  C   UNL     1     -10.190  11.897  66.012  1.00  0.00    -0.229 C  
BRANCH   4   5
HETATM    5  O   UNL     1      -9.238  12.115  67.060  1.00  0.00    -0.189 OA 
BRANCH   5   6
HETATM    6  C   UNL     1      -8.610  10.980  67.489  1.00  0.00    -0.128 A  
HETATM    7  C   UNL     1      -8.252  10.672  68.787  1.00  0.00    -0.142 A  
HETATM    8  N   UNL     1      -7.647   9.528  69.156  1.00  0.00    -0.073 NA 
HETATM    9  C   UNL     1      -7.388   8.673  68.173  1.00  0.00    -0.091 A  
HETATM   10  C   UNL     1      -8.280  10.006  66.565  1.00  0.00    -0.119 A  
HETATM   11  N   UNL     1      -7.657   8.839  66.875  1.00  0.00    -0.090 NA 
BRANCH   9  12
HETATM   12  N   UNL     1      -6.819   7.459  68.547  1.00  0.00    -0.070 N  
HETATM   13  H   UNL     1      -5.917   7.388  69.017  1.00  0.00     0.000 HD 
BRANCH  12  14
HETATM   14  S   UNL     1      -7.753   6.122  68.152  1.00  0.00    -0.104 S  
HETATM   15  O   UNL     1      -7.141   4.893  68.614  1.00  0.00    -0.055 OA 
HETATM   16  O   UNL     1      -8.128   6.281  66.763  1.00  0.00    -0.107 OA 
BRANCH  14  17
HETATM   17  C   UNL     1      -9.248   6.363  69.101  1.00  0.00    -0.133 A  
HETATM   18  C   UNL     1     -10.486   6.336  68.452  1.00  0.00    -0.273 A  
HETATM   19  C   UNL     1     -11.653   6.515  69.194  1.00  0.00    -0.115 A  
HETATM   20  C   UNL     1     -11.581   6.709  70.575  1.00  0.00    -0.448 A  
HETATM   21  C   UNL     1     -10.345   6.706  71.222  1.00  0.00    -0.230 A  
HETATM   22  C   UNL     1      -9.173   6.516  70.489  1.00  0.00    -0.156 A  
ENDBRANCH  14  17
ENDBRANCH  12  14
ENDBRANCH   9  12
ENDBRANCH   5   6
ENDBRANCH   4   5
ENDBRANCH   3   4
ENDBRANCH   2   3
TORSDOF 7
ENDMDL
MODEL      260
REMARK 921   NORMALIZED FREE ENERGY PREDICTED BY IDOCK:   -2.17 KCAL/MOL
REMARK 922        TOTAL FREE ENERGY PREDICTED BY IDOCK:   -3.58 KCAL/MOL
REMARK 923 INTER-LIGAND FREE ENERGY PREDICTED BY IDOCK:   -3.23 KCAL/MOL
REMARK 924 INTRA-LIGAND FREE ENERGY PREDICTED BY IDOCK:   -0.36 KCAL/MOL
REMARK 927      BINDING AFFINITY PREDICTED BY RF-SCORE:    0.00 PKD
ROOT
HETATM    1  C   UNL     1     -12.217   7.988  71.878  1.00  0.00    -0.319 C  
HETATM    2  O   UNL     1     -12.199   6.627  72.279  1.00  0.00    -0.251 OA 
ENDROOT
BRANCH   2   3
HETATM    3  C   UNL     1     -11.274   5.845  71.518  1.00  0.00    -0.225 C  
BRANCH   3   4
HETATM    4  C   UNL     1     -10.077   5.565  72.417  1.00  0.00    -0.179 C  
BRANCH   4   5
HETATM    5  O   UNL     1      -9.050   6.552  72.273  1.00  0.00    -0.139 OA 
BRANCH   5   6
HETATM    6  C   UNL     1      -8.737   6.847  70.976  1.00  0.00    -0.136 A  
HETATM    7  C   UNL     1      -8.227   5.979  70.030  1.00  0.00    -0.122 A  
HETATM    8  N   UNL     1      -7.951   6.320  68.758  1.00  0.00    -0.101 NA 
HETATM    9  C   UNL     1      -8.190   7.587  68.439  1.00  0.00    -0.125 A  
HETATM   10  C   UNL     1      -8.936   8.134  70.513  1.00  0.00    -0.145 A  
HETATM   11  N   UNL     1      -8.662   8.541  69.247  1.00  0.00    -0.133 NA 
BRANCH   9  12
HETATM   12  N   UNL     1      -7.969   7.941  67.111  1.00  0.00    -0.115 N  
HETATM   13  H   UNL     1      -7.107   8.379  66.788  1.00  0.00     0.000 HD 
BRANCH  12  14
HETATM   14  S   UNL     1      -9.251   7.579  66.089  1.00  0.00    -0.049 S  
HETATM   15  O   UNL     1     -10.372   7.029  66.823  1.00  0.00    -0.245 OA 
HETATM   16  O   UNL     1      -8.687   6.868  64.963  1.00  0.00     0.034 OA 
BRANCH  14  17
HETATM   17  C   UNL     1      -9.752   9.177  65.468  1.00  0.00    -0.100 A  
HETATM   18  C   UNL     1     -10.207  10.151  66.362  1.00  0.00    -0.288 A  
HETATM   19  C   UNL     1     -10.589  11.402  65.878  1.00  0.00    -0.317 A  
HETATM   20  C   UNL     1     -10.507  11.678  64.511  1.00  0.00    -0.359 A  
HETATM   21  C   UNL     1     -10.024  10.713  63.627  1.00  0.00    -0.364 A  
HETATM   22  C   UNL     1      -9.629   9.463  64.104  1.00  0.00     0.452 A  
ENDBRANCH  14  17
ENDBRANCH  12  14
ENDBRANCH   9  12
ENDBRANCH   5   6
ENDBRANCH   4   5
ENDBRANCH   3   4
ENDBRANCH   2   3
TORSDOF 7
ENDMDL
MODEL      261
REMARK 921   NORMALIZED FREE ENERGY PREDICTED BY IDOCK:   -2.12 KCAL/MOL
REMARK 922        TOTAL FREE ENERGY PREDICTED BY IDOCK:   -3.52 KCAL/MOL
REMARK 923 INTER-LIGAND FREE ENERGY PREDICTED BY IDOCK:   -3.12 KCAL/MOL
REMARK 924 INTRA-LIGAND FREE ENERGY PREDICTED BY IDOCK:   -0.39 KCAL/MOL
REMARK 927      BINDING AFFINITY PREDICTED BY RF-SCORE:    0.00 PKD
ROOT
HETATM    1  C   UNL     1      -5.759  10.340  64.334  1.00  0.00    -0.137 C  
HETATM    2  O   UNL     1      -5.426   9.622  63.157  1.00  0.00    -0.078 OA 
ENDROOT
BRANCH   2   3
HETATM    3  C   UNL     1      -6.500   8.799  62.696  1.00  0.00    -0.095 C  
BRANCH   3   4
HETATM    4  C   UNL     1      -6.862   7.854  63.835  1.00  0.00    -0.062 C  
BRANCH   4   5
HETATM    5  O   UNL     1      -8.163   8.125  64.369  1.00  0.00    -0.154 OA 
BRANCH   5   6
HETATM    6  C   UNL     1      -8.528   7.301  65.395  1.00  0.00    -0.087 A  
HETATM    7  C   UNL     1      -9.386   7.604  66.434  1.00  0.00    -0.172 A  
HETATM    8  N   UNL     1      -9.725   6.746  67.413  1.00  0.00    -0.129 NA 
HETATM    9  C   UNL     1      -9.164   5.543  67.342  1.00  0.00    -0.110 A  
HETATM   10  C   UNL     1      -8.013   6.019  65.443  1.00  0.00    -0.118 A  
HETATM   11  N   UNL     1      -8.306   5.114  66.413  1.00  0.00    -0.108 NA 
BRANCH   9  12
HETATM   12  N   UNL     1      -9.552   4.623  68.312  1.00  0.00    -0.147 N  
HETATM   13  H   UNL     1     -10.350   3.999  68.200  1.00  0.00     0.000 HD 
BRANCH  12  14
HETATM   14  S   UNL     1      -8.586   4.636  69.684  1.00  0.00    -0.078 S  
HETATM   15  O   UNL     1      -7.300   5.249  69.420  1.00  0.00    -0.059 OA 
HETATM   16  O   UNL     1      -8.665   3.308  70.252  1.00  0.00    -0.060 OA 
BRANCH  14  17
HETATM   17  C   UNL     1      -9.469   5.710  70.806  1.00  0.00    -0.165 A  
HETATM   18  C   UNL     1      -8.756   6.445  71.758  1.00  0.00    -0.132 A  
HETATM   19  C   UNL     1      -9.444   7.290  72.628  1.00  0.00    -0.186 A  
HETATM   20  C   UNL     1     -10.833   7.405  72.538  1.00  0.00    -0.327 A  
HETATM   21  C   UNL     1     -11.537   6.692  71.568  1.00  0.00    -0.357 A  
HETATM   22  C   UNL     1     -10.854   5.853  70.686  1.00  0.00    -0.363 A  
ENDBRANCH  14  17
ENDBRANCH  12  14
ENDBRANCH   9  12
ENDBRANCH   5   6
ENDBRANCH   4   5
ENDBRANCH   3   4
ENDBRANCH   2   3
TORSDOF 7
ENDMDL
MODEL      262
REMARK 921   NORMALIZED FREE ENERGY PREDICTED BY IDOCK:   -2.11 KCAL/MOL
REMARK 922        TOTAL FREE ENERGY PREDICTED BY IDOCK:   -3.51 KCAL/MOL
REMARK 923 INTER-LIGAND FREE ENERGY PREDICTED BY IDOCK:   -3.06 KCAL/MOL
REMARK 924 INTRA-LIGAND FREE ENERGY PREDICTED BY IDOCK:   -0.45 KCAL/MOL
REMARK 927      BINDING AFFINITY PREDICTED BY RF-SCORE:    0.00 PKD
ROOT
HETATM    1  C   UNL     1      -5.784   8.961  72.058  1.00  0.00    -0.063 C  
HETATM    2  O   UNL     1      -6.871   9.708  71.536  1.00  0.00    -0.318 OA 
ENDROOT
BRANCH   2   3
HETATM    3  C   UNL     1      -7.251   9.277  70.226  1.00  0.00    -0.087 C  
BRANCH   3   4
HETATM    4  C   UNL     1      -8.734   9.584  70.065  1.00  0.00    -0.221 C  
BRANCH   4   5
HETATM    5  O   UNL     1      -8.985  10.475  68.972  1.00  0.00    -0.166 OA 
BRANCH   5   6
HETATM    6  C   UNL     1      -8.837   9.903  67.741  1.00  0.00    -0.129 A  
HETATM    7  C   UNL     1      -8.108  10.402  66.679  1.00  0.00    -0.122 A  
HETATM    8  N   UNL     1      -7.982   9.787  65.489  1.00  0.00    -0.118 NA 
HETATM    9  C   UNL     1      -8.627   8.632  65.369  1.00  0.00    -0.181 A  
HETATM   10  C   UNL     1      -9.459   8.696  67.480  1.00  0.00    -0.149 A  
HETATM   11  N   UNL     1      -9.382   8.036  66.296  1.00  0.00    -0.198 NA 
BRANCH   9  12
HETATM   12  N   UNL     1      -8.456   7.952  64.166  1.00  0.00    -0.376 N  
HETATM   13  H   UNL     1      -8.949   8.205  63.309  1.00  0.00     0.000 HD 
BRANCH  12  14
HETATM   14  S   UNL     1      -7.366   6.679  64.254  1.00  0.00    -0.084 S  
HETATM   15  O   UNL     1      -6.721   6.624  65.550  1.00  0.00    -0.048 OA 
HETATM   16  O   UNL     1      -6.578   6.731  63.042  1.00  0.00    -0.041 OA 
BRANCH  14  17
HETATM   17  C   UNL     1      -8.403   5.231  64.111  1.00  0.00    -0.131 A  
HETATM   18  C   UNL     1      -8.966   4.909  62.872  1.00  0.00    -0.060 A  
HETATM   19  C   UNL     1      -9.768   3.774  62.758  1.00  0.00    -0.133 A  
HETATM   20  C   UNL     1      -9.995   2.964  63.872  1.00  0.00    -0.161 A  
HETATM   21  C   UNL     1      -9.408   3.273  65.099  1.00  0.00    -0.149 A  
HETATM   22  C   UNL     1      -8.594   4.401  65.219  1.00  0.00    -0.124 A  
ENDBRANCH  14  17
ENDBRANCH  12  14
ENDBRANCH   9  12
ENDBRANCH   5   6
ENDBRANCH   4   5
ENDBRANCH   3   4
ENDBRANCH   2   3
TORSDOF 7
ENDMDL
MODEL      263
REMARK 921   NORMALIZED FREE ENERGY PREDICTED BY IDOCK:   -2.11 KCAL/MOL
REMARK 922        TOTAL FREE ENERGY PREDICTED BY IDOCK:   -3.51 KCAL/MOL
REMARK 923 INTER-LIGAND FREE ENERGY PREDICTED BY IDOCK:   -3.06 KCAL/MOL
REMARK 924 INTRA-LIGAND FREE ENERGY PREDICTED BY IDOCK:   -0.45 KCAL/MOL
REMARK 927      BINDING AFFINITY PREDICTED BY RF-SCORE:    0.00 PKD
ROOT
HETATM    1  C   UNL     1     -10.518  17.250  65.527  1.00  0.00    -0.122 C  
HETATM    2  O   UNL     1     -10.627  17.218  66.941  1.00  0.00    -0.300 OA 
ENDROOT
BRANCH   2   3
HETATM    3  C   UNL     1      -9.771  18.170  67.578  1.00  0.00    -0.303 C  
BRANCH   3   4
HETATM    4  C   UNL     1      -9.322  17.558  68.898  1.00  0.00    -0.169 C  
BRANCH   4   5
HETATM    5  O   UNL     1      -7.963  17.111  68.851  1.00  0.00    -0.256 OA 
BRANCH   5   6
HETATM    6  C   UNL     1      -7.821  15.784  68.558  1.00  0.00    -0.139 A  
HETATM    7  C   UNL     1      -7.988  14.722  69.425  1.00  0.00    -0.065 A  
HETATM    8  N   UNL     1      -7.851  13.429  69.076  1.00  0.00     0.096 NA 
HETATM    9  C   UNL     1      -7.524  13.208  67.808  1.00  0.00    -0.150 A  
HETATM   10  C   UNL     1      -7.479  15.414  67.270  1.00  0.00    -0.207 A  
HETATM   11  N   UNL     1      -7.313  14.129  66.863  1.00  0.00     0.244 NA 
BRANCH   9  12
HETATM   12  N   UNL     1      -7.440  11.875  67.416  1.00  0.00    -0.138 N  
HETATM   13  H   UNL     1      -6.582  11.328  67.484  1.00  0.00     0.000 HD 
BRANCH  12  14
HETATM   14  S   UNL     1      -8.880  11.250  66.822  1.00  0.00    -0.175 S  
HETATM   15  O   UNL     1      -8.687  10.602  65.541  1.00  0.00    -0.179 OA 
HETATM   16  O   UNL     1      -9.872  12.292  66.978  1.00  0.00    -0.201 OA 
BRANCH  14  17
HETATM   17  C   UNL     1      -9.303   9.980  68.005  1.00  0.00    -0.130 A  
HETATM   18  C   UNL     1      -8.327   9.064  68.409  1.00  0.00    -0.124 A  
HETATM   19  C   UNL     1      -8.655   8.079  69.340  1.00  0.00    -0.136 A  
HETATM   20  C   UNL     1      -9.946   8.017  69.868  1.00  0.00    -0.189 A  
HETATM   21  C   UNL     1     -10.909   8.951  69.484  1.00  0.00    -0.163 A  
HETATM   22  C   UNL     1     -10.586   9.947  68.562  1.00  0.00    -0.248 A  
ENDBRANCH  14  17
ENDBRANCH  12  14
ENDBRANCH   9  12
ENDBRANCH   5   6
ENDBRANCH   4   5
ENDBRANCH   3   4
ENDBRANCH   2   3
TORSDOF 7
ENDMDL
MODEL      264
REMARK 921   NORMALIZED FREE ENERGY PREDICTED BY IDOCK:   -2.04 KCAL/MOL
REMARK 922        TOTAL FREE ENERGY PREDICTED BY IDOCK:   -3.41 KCAL/MOL
REMARK 923 INTER-LIGAND FREE ENERGY PREDICTED BY IDOCK:   -3.09 KCAL/MOL
REMARK 924 INTRA-LIGAND FREE ENERGY PREDICTED BY IDOCK:   -0.32 KCAL/MOL
REMARK 927      BINDING AFFINITY PREDICTED BY RF-SCORE:    0.00 PKD
ROOT
HETATM    1  C   UNL     1     -10.639  18.078  66.299  1.00  0.00    -0.253 C  
HETATM    2  O   UNL     1     -10.867  17.382  67.514  1.00  0.00    -0.315 OA 
ENDROOT
BRANCH   2   3
HETATM    3  C   UNL     1      -9.837  17.613  68.478  1.00  0.00    -0.346 C  
BRANCH   3   4
HETATM    4  C   UNL     1      -9.606  16.298  69.212  1.00  0.00    -0.220 C  
BRANCH   4   5
HETATM    5  O   UNL     1      -8.249  15.854  69.110  1.00  0.00    -0.216 OA 
BRANCH   5   6
HETATM    6  C   UNL     1      -8.117  14.527  68.814  1.00  0.00    -0.146 A  
HETATM    7  C   UNL     1      -7.307  13.612  69.458  1.00  0.00     0.322 A  
HETATM    8  N   UNL     1      -7.227  12.309  69.133  1.00  0.00    -0.020 NA 
HETATM    9  C   UNL     1      -7.986  11.924  68.113  1.00  0.00    -0.151 A  
HETATM   10  C   UNL     1      -8.850  13.996  67.769  1.00  0.00    -0.187 A  
HETATM   11  N   UNL     1      -8.801  12.694  67.385  1.00  0.00    -0.180 NA 
BRANCH   9  12
HETATM   12  N   UNL     1      -7.962  10.567  67.803  1.00  0.00    -0.105 N  
HETATM   13  H   UNL     1      -7.187  10.121  67.314  1.00  0.00     0.000 HD 
BRANCH  12  14
HETATM   14  S   UNL     1      -9.327   9.732  68.309  1.00  0.00    -0.128 S  
HETATM   15  O   UNL     1     -10.519  10.210  67.639  1.00  0.00    -0.209 OA 
HETATM   16  O   UNL     1      -9.264   9.683  69.754  1.00  0.00    -0.188 OA 
BRANCH  14  17
HETATM   17  C   UNL     1      -9.030   8.064  67.742  1.00  0.00    -0.132 A  
HETATM   18  C   UNL     1      -8.447   7.858  66.488  1.00  0.00    -0.134 A  
HETATM   19  C   UNL     1      -8.206   6.556  66.049  1.00  0.00    -0.127 A  
HETATM   20  C   UNL     1      -8.536   5.471  66.864  1.00  0.00    -0.110 A  
HETATM   21  C   UNL     1      -9.090   5.682  68.127  1.00  0.00    -0.111 A  
HETATM   22  C   UNL     1      -9.323   6.982  68.578  1.00  0.00    -0.135 A  
ENDBRANCH  14  17
ENDBRANCH  12  14
ENDBRANCH   9  12
ENDBRANCH   5   6
ENDBRANCH   4   5
ENDBRANCH   3   4
ENDBRANCH   2   3
TORSDOF 7
ENDMDL
MODEL      265
REMARK 921   NORMALIZED FREE ENERGY PREDICTED BY IDOCK:   -1.97 KCAL/MOL
REMARK 922        TOTAL FREE ENERGY PREDICTED BY IDOCK:   -3.31 KCAL/MOL
REMARK 923 INTER-LIGAND FREE ENERGY PREDICTED BY IDOCK:   -3.60 KCAL/MOL
REMARK 924 INTRA-LIGAND FREE ENERGY PREDICTED BY IDOCK:    0.30 KCAL/MOL
REMARK 927      BINDING AFFINITY PREDICTED BY RF-SCORE:    0.00 PKD
ROOT
HETATM    1  C   UNL     1     -12.897  11.721  71.345  1.00  0.00    -0.335 C  
HETATM    2  O   UNL     1     -13.482  10.632  72.040  1.00  0.00    -0.375 OA 
ENDROOT
BRANCH   2   3
HETATM    3  C   UNL     1     -13.704   9.500  71.195  1.00  0.00    -0.101 C  
BRANCH   3   4
HETATM    4  C   UNL     1     -13.057   8.299  71.872  1.00  0.00    -0.344 C  
BRANCH   4   5
HETATM    5  O   UNL     1     -11.812   8.636  72.493  1.00  0.00    -0.361 OA 
BRANCH   5   6
HETATM    6  C   UNL     1     -10.743   7.928  72.021  1.00  0.00    -0.241 A  
HETATM    7  C   UNL     1      -9.445   7.977  72.490  1.00  0.00    -0.232 A  
HETATM    8  N   UNL     1      -8.431   7.243  71.996  1.00  0.00    -0.106 NA 
HETATM    9  C   UNL     1      -8.743   6.440  70.985  1.00  0.00    -0.135 A  
HETATM   10  C   UNL     1     -10.929   7.055  70.965  1.00  0.00    -0.251 A  
HETATM   11  N   UNL     1      -9.943   6.300  70.415  1.00  0.00    -0.176 NA 
BRANCH   9  12
HETATM   12  N   UNL     1      -7.720   5.628  70.503  1.00  0.00    -0.092 N  
HETATM   13  H   UNL     1      -6.771   5.965  70.341  1.00  0.00     0.000 HD 
BRANCH  12  14
HETATM   14  S   UNL     1      -8.191   4.044  70.213  1.00  0.00    -0.061 S  
HETATM   15  O   UNL     1      -9.498   3.769  70.773  1.00  0.00    -0.139 OA 
HETATM   16  O   UNL     1      -7.056   3.212  70.550  1.00  0.00    -0.033 OA 
BRANCH  14  17
HETATM   17  C   UNL     1      -8.347   3.974  68.434  1.00  0.00    -0.090 A  
HETATM   18  C   UNL     1      -8.347   5.163  67.698  1.00  0.00    -0.105 A  
HETATM   19  C   UNL     1      -8.459   5.108  66.309  1.00  0.00    -0.114 A  
HETATM   20  C   UNL     1      -8.561   3.874  65.663  1.00  0.00    -0.111 A  
HETATM   21  C   UNL     1      -8.530   2.690  66.400  1.00  0.00    -0.105 A  
HETATM   22  C   UNL     1      -8.406   2.735  67.789  1.00  0.00    -0.094 A  
ENDBRANCH  14  17
ENDBRANCH  12  14
ENDBRANCH   9  12
ENDBRANCH   5   6
ENDBRANCH   4   5
ENDBRANCH   3   4
ENDBRANCH   2   3
TORSDOF 7
ENDMDL
MODEL      266
REMARK 921   NORMALIZED FREE ENERGY PREDICTED BY IDOCK:   -1.86 KCAL/MOL
REMARK 922        TOTAL FREE ENERGY PREDICTED BY IDOCK:   -3.16 KCAL/MOL
REMARK 923 INTER-LIGAND FREE ENERGY PREDICTED BY IDOCK:   -2.78 KCAL/MOL
REMARK 924 INTRA-LIGAND FREE ENERGY PREDICTED BY IDOCK:   -0.38 KCAL/MOL
REMARK 927      BINDING AFFINITY PREDICTED BY RF-SCORE:    0.00 PKD
ROOT
HETATM    1  C   UNL     1     -10.631  13.399  68.175  1.00  0.00    -0.245 C  
HETATM    2  O   UNL     1      -9.734  12.301  68.157  1.00  0.00    -0.202 OA 
ENDROOT
BRANCH   2   3
HETATM    3  C   UNL     1      -9.080  12.151  66.894  1.00  0.00    -0.203 C  
BRANCH   3   4
HETATM    4  C   UNL     1      -9.022  10.659  66.592  1.00  0.00    -0.150 C  
BRANCH   4   5
HETATM    5  O   UNL     1      -7.713  10.117  66.796  1.00  0.00    -0.102 OA 
BRANCH   5   6
HETATM    6  C   UNL     1      -7.649   8.756  66.696  1.00  0.00    -0.089 A  
HETATM    7  C   UNL     1      -7.321   7.867  67.700  1.00  0.00    -0.096 A  
HETATM    8  N   UNL     1      -7.290   6.530  67.550  1.00  0.00    -0.092 NA 
HETATM    9  C   UNL     1      -7.591   6.082  66.336  1.00  0.00    -0.094 A  
HETATM   10  C   UNL     1      -7.937   8.158  65.483  1.00  0.00    -0.112 A  
HETATM   11  N   UNL     1      -7.908   6.818  65.266  1.00  0.00    -0.113 NA 
BRANCH   9  12
HETATM   12  N   UNL     1      -7.624   4.699  66.179  1.00  0.00    -0.089 N  
HETATM   13  H   UNL     1      -6.793   4.141  65.986  1.00  0.00     0.000 HD 
BRANCH  12  14
HETATM   14  S   UNL     1      -9.157   4.034  66.338  1.00  0.00    -0.149 S  
HETATM   15  O   UNL     1     -10.168   5.063  66.474  1.00  0.00    -0.217 OA 
HETATM   16  O   UNL     1      -9.045   2.978  67.321  1.00  0.00    -0.148 OA 
BRANCH  14  17
HETATM   17  C   UNL     1      -9.425   3.226  64.768  1.00  0.00    -0.150 A  
HETATM   18  C   UNL     1      -8.375   2.526  64.167  1.00  0.00    -0.083 A  
HETATM   19  C   UNL     1      -8.587   1.887  62.946  1.00  0.00    -0.076 A  
HETATM   20  C   UNL     1      -9.843   1.940  62.337  1.00  0.00    -0.088 A  
HETATM   21  C   UNL     1     -10.896   2.614  62.955  1.00  0.00    -0.219 A  
HETATM   22  C   UNL     1     -10.695   3.247  64.183  1.00  0.00    -0.066 A  
ENDBRANCH  14  17
ENDBRANCH  12  14
ENDBRANCH   9  12
ENDBRANCH   5   6
ENDBRANCH   4   5
ENDBRANCH   3   4
ENDBRANCH   2   3
TORSDOF 7
ENDMDL
MODEL      267
REMARK 921   NORMALIZED FREE ENERGY PREDICTED BY IDOCK:   -1.66 KCAL/MOL
REMARK 922        TOTAL FREE ENERGY PREDICTED BY IDOCK:   -2.87 KCAL/MOL
REMARK 923 INTER-LIGAND FREE ENERGY PREDICTED BY IDOCK:   -3.72 KCAL/MOL
REMARK 924 INTRA-LIGAND FREE ENERGY PREDICTED BY IDOCK:    0.85 KCAL/MOL
REMARK 927      BINDING AFFINITY PREDICTED BY RF-SCORE:    0.00 PKD
ROOT
HETATM    1  C   UNL     1     -14.314  15.369  71.452  1.00  0.00    -0.389 C  
HETATM    2  O   UNL     1     -13.197  14.709  72.024  1.00  0.00    -0.312 OA 
ENDROOT
BRANCH   2   3
HETATM    3  C   UNL     1     -11.954  15.294  71.629  1.00  0.00    -0.372 C  
BRANCH   3   4
HETATM    4  C   UNL     1     -11.668  14.824  70.208  1.00  0.00    -0.298 C  
BRANCH   4   5
HETATM    5  O   UNL     1     -10.614  13.856  70.162  1.00  0.00     0.452 OA 
BRANCH   5   6
HETATM    6  C   UNL     1     -10.412  13.308  68.927  1.00  0.00    -0.100 A  
HETATM    7  C   UNL     1     -11.306  12.539  68.207  1.00  0.00    -0.286 A  
HETATM    8  N   UNL     1     -11.060  12.036  66.984  1.00  0.00    -0.280 NA 
HETATM    9  C   UNL     1      -9.863  12.314  66.479  1.00  0.00    -0.229 A  
HETATM   10  C   UNL     1      -9.204  13.518  68.288  1.00  0.00    -0.195 A  
HETATM   11  N   UNL     1      -8.893  13.024  67.062  1.00  0.00    -0.219 NA 
BRANCH   9  12
HETATM   12  N   UNL     1      -9.615  11.853  65.188  1.00  0.00    -0.400 N  
HETATM   13  H   UNL     1      -9.649  12.456  64.367  1.00  0.00     0.000 HD 
BRANCH  12  14
HETATM   14  S   UNL     1      -9.257  10.216  65.109  1.00  0.00    -0.237 S  
HETATM   15  O   UNL     1      -9.072   9.780  63.739  1.00  0.00    -0.243 OA 
HETATM   16  O   UNL     1     -10.207   9.547  65.972  1.00  0.00    -0.272 OA 
BRANCH  14  17
HETATM   17  C   UNL     1      -7.673  10.095  65.927  1.00  0.00    -0.127 A  
HETATM   18  C   UNL     1      -7.202   8.842  66.332  1.00  0.00    -0.084 A  
HETATM   19  C   UNL     1      -5.962   8.747  66.961  1.00  0.00    -0.057 A  
HETATM   20  C   UNL     1      -5.196   9.895  67.175  1.00  0.00    -0.041 A  
HETATM   21  C   UNL     1      -5.656  11.139  66.742  1.00  0.00    -0.100 A  
HETATM   22  C   UNL     1      -6.892  11.241  66.101  1.00  0.00     0.066 A  
ENDBRANCH  14  17
ENDBRANCH  12  14
ENDBRANCH   9  12
ENDBRANCH   5   6
ENDBRANCH   4   5
ENDBRANCH   3   4
ENDBRANCH   2   3
TORSDOF 7
ENDMDL
MODEL      268
REMARK 921   NORMALIZED FREE ENERGY PREDICTED BY IDOCK:   -1.59 KCAL/MOL
REMARK 922        TOTAL FREE ENERGY PREDICTED BY IDOCK:   -2.77 KCAL/MOL
REMARK 923 INTER-LIGAND FREE ENERGY PREDICTED BY IDOCK:   -2.32 KCAL/MOL
REMARK 924 INTRA-LIGAND FREE ENERGY PREDICTED BY IDOCK:   -0.45 KCAL/MOL
REMARK 927      BINDING AFFINITY PREDICTED BY RF-SCORE:    0.00 PKD
ROOT
HETATM    1  C   UNL     1      -8.130  13.931  68.251  1.00  0.00    -0.150 C  
HETATM    2  O   UNL     1      -7.226  12.856  68.447  1.00  0.00    -0.097 OA 
ENDROOT
BRANCH   2   3
HETATM    3  C   UNL     1      -6.325  12.692  67.349  1.00  0.00    -0.150 C  
BRANCH   3   4
HETATM    4  C   UNL     1      -6.464  11.255  66.863  1.00  0.00    -0.128 C  
BRANCH   4   5
HETATM    5  O   UNL     1      -5.688  10.343  67.647  1.00  0.00    -0.044 OA 
BRANCH   5   6
HETATM    6  C   UNL     1      -6.190   9.074  67.688  1.00  0.00    -0.055 A  
HETATM    7  C   UNL     1      -6.824   8.468  68.756  1.00  0.00    -0.062 A  
HETATM    8  N   UNL     1      -7.316   7.216  68.735  1.00  0.00    -0.094 NA 
HETATM    9  C   UNL     1      -7.148   6.552  67.597  1.00  0.00    -0.084 A  
HETATM   10  C   UNL     1      -6.079   8.271  66.568  1.00  0.00    -0.049 A  
HETATM   11  N   UNL     1      -6.542   6.996  66.492  1.00  0.00    -0.050 NA 
BRANCH   9  12
HETATM   12  N   UNL     1      -7.705   5.277  67.538  1.00  0.00    -0.095 N  
HETATM   13  H   UNL     1      -7.190   4.433  67.784  1.00  0.00     0.000 HD 
BRANCH  12  14
HETATM   14  S   UNL     1      -9.303   5.259  67.025  1.00  0.00    -0.129 S  
HETATM   15  O   UNL     1      -9.707   6.549  66.504  1.00  0.00    -0.167 OA 
HETATM   16  O   UNL     1     -10.063   4.619  68.078  1.00  0.00    -0.105 OA 
BRANCH  14  17
HETATM   17  C   UNL     1      -9.288   4.111  65.656  1.00  0.00    -0.162 A  
HETATM   18  C   UNL     1     -10.326   4.145  64.719  1.00  0.00    -0.206 A  
HETATM   19  C   UNL     1     -10.309   3.256  63.645  1.00  0.00    -0.223 A  
HETATM   20  C   UNL     1      -9.257   2.347  63.505  1.00  0.00    -0.095 A  
HETATM   21  C   UNL     1      -8.209   2.337  64.426  1.00  0.00    -0.082 A  
HETATM   22  C   UNL     1      -8.213   3.232  65.497  1.00  0.00    -0.097 A  
ENDBRANCH  14  17
ENDBRANCH  12  14
ENDBRANCH   9  12
ENDBRANCH   5   6
ENDBRANCH   4   5
ENDBRANCH   3   4
ENDBRANCH   2   3
TORSDOF 7
ENDMDL
MODEL      269
REMARK 921   NORMALIZED FREE ENERGY PREDICTED BY IDOCK:   -0.81 KCAL/MOL
REMARK 922        TOTAL FREE ENERGY PREDICTED BY IDOCK:   -1.68 KCAL/MOL
REMARK 923 INTER-LIGAND FREE ENERGY PREDICTED BY IDOCK:   -2.61 KCAL/MOL
REMARK 924 INTRA-LIGAND FREE ENERGY PREDICTED BY IDOCK:    0.92 KCAL/MOL
REMARK 927      BINDING AFFINITY PREDICTED BY RF-SCORE:    0.00 PKD
ROOT
HETATM    1  C   UNL     1      -8.001   7.682  65.256  1.00  0.00    -0.129 C  
HETATM    2  O   UNL     1      -8.906   8.419  64.450  1.00  0.00     0.045 OA 
ENDROOT
BRANCH   2   3
HETATM    3  C   UNL     1      -9.257   9.677  65.033  1.00  0.00    -0.250 C  
BRANCH   3   4
HETATM    4  C   UNL     1      -9.768   9.393  66.440  1.00  0.00    -0.250 C  
BRANCH   4   5
HETATM    5  O   UNL     1     -10.849  10.257  66.806  1.00  0.00    -0.187 OA 
BRANCH   5   6
HETATM    6  C   UNL     1     -10.876  11.439  66.121  1.00  0.00    -0.255 A  
HETATM    7  C   UNL     1     -11.994  12.087  65.632  1.00  0.00    -0.076 A  
HETATM    8  N   UNL     1     -11.964  13.261  64.976  1.00  0.00    -0.351 NA 
HETATM    9  C   UNL     1     -10.758  13.790  64.801  1.00  0.00    -0.416 A  
HETATM   10  C   UNL     1      -9.686  12.096  65.868  1.00  0.00    -0.239 A  
HETATM   11  N   UNL     1      -9.591  13.274  65.199  1.00  0.00     0.105 NA 
BRANCH   9  12
HETATM   12  N   UNL     1     -10.714  15.035  64.179  1.00  0.00    -0.097 N  
HETATM   13  H   UNL     1     -10.339  15.176  63.242  1.00  0.00     0.000 HD 
BRANCH  12  14
HETATM   14  S   UNL     1     -11.337  16.282  65.113  1.00  0.00     0.122 S  
HETATM   15  O   UNL     1     -12.538  15.871  65.812  1.00  0.00     1.582 OA 
HETATM   16  O   UNL     1     -11.340  17.460  64.273  1.00  0.00    -0.849 OA 
BRANCH  14  17
HETATM   17  C   UNL     1     -10.070  16.554  66.344  1.00  0.00    -0.312 A  
HETATM   18  C   UNL     1     -10.364  16.334  67.693  1.00  0.00    -0.284 A  
HETATM   19  C   UNL     1      -9.372  16.537  68.652  1.00  0.00    -0.241 A  
HETATM   20  C   UNL     1      -8.095  16.946  68.263  1.00  0.00    -0.217 A  
HETATM   21  C   UNL     1      -7.798  17.136  66.913  1.00  0.00    -0.250 A  
HETATM   22  C   UNL     1      -8.782  16.924  65.945  1.00  0.00    -0.058 A  
ENDBRANCH  14  17
ENDBRANCH  12  14
ENDBRANCH   9  12
ENDBRANCH   5   6
ENDBRANCH   4   5
ENDBRANCH   3   4
ENDBRANCH   2   3
TORSDOF 7
ENDMDL
MODEL      270
REMARK 921   NORMALIZED FREE ENERGY PREDICTED BY IDOCK:   -0.75 KCAL/MOL
REMARK 922        TOTAL FREE ENERGY PREDICTED BY IDOCK:   -1.59 KCAL/MOL
REMARK 923 INTER-LIGAND FREE ENERGY PREDICTED BY IDOCK:   -2.04 KCAL/MOL
REMARK 924 INTRA-LIGAND FREE ENERGY PREDICTED BY IDOCK:    0.45 KCAL/MOL
REMARK 927      BINDING AFFINITY PREDICTED BY RF-SCORE:    0.00 PKD
ROOT
HETATM    1  C   UNL     1      -7.691  20.329  71.366  1.00  0.00     1.711 C  
HETATM    2  O   UNL     1      -6.599  20.412  70.465  1.00  0.00    -0.409 OA 
ENDROOT
BRANCH   2   3
HETATM    3  C   UNL     1      -5.450  19.700  70.932  1.00  0.00    -0.259 C  
BRANCH   3   4
HETATM    4  C   UNL     1      -5.624  18.245  70.516  1.00  0.00    -0.191 C  
BRANCH   4   5
HETATM    5  O   UNL     1      -5.554  18.078  69.096  1.00  0.00    -0.188 OA 
BRANCH   5   6
HETATM    6  C   UNL     1      -6.756  17.812  68.504  1.00  0.00    -0.218 A  
HETATM    7  C   UNL     1      -6.985  17.579  67.162  1.00  0.00    -0.171 A  
HETATM    8  N   UNL     1      -8.192  17.305  66.635  1.00  0.00    -0.240 NA 
HETATM    9  C   UNL     1      -9.203  17.278  67.497  1.00  0.00    -0.227 A  
HETATM   10  C   UNL     1      -7.893  17.757  69.289  1.00  0.00     0.151 A  
HETATM   11  N   UNL     1      -9.139  17.501  68.813  1.00  0.00    -0.250 NA 
BRANCH   9  12
HETATM   12  N   UNL     1     -10.448  16.935  66.977  1.00  0.00    -0.306 N  
HETATM   13  H   UNL     1     -11.307  17.427  67.219  1.00  0.00     0.000 HD 
BRANCH  12  14
HETATM   14  S   UNL     1     -10.405  15.635  65.915  1.00  0.00    -0.374 S  
HETATM   15  O   UNL     1      -9.418  15.835  64.874  1.00  0.00     0.085 OA 
HETATM   16  O   UNL     1     -11.781  15.337  65.580  1.00  0.00    -0.156 OA 
BRANCH  14  17
HETATM   17  C   UNL     1      -9.838  14.282  66.935  1.00  0.00    -0.263 A  
HETATM   18  C   UNL     1     -10.699  13.735  67.892  1.00  0.00    -0.256 A  
HETATM   19  C   UNL     1     -10.260  12.673  68.682  1.00  0.00    -0.165 A  
HETATM   20  C   UNL     1      -8.974  12.157  68.508  1.00  0.00    -0.082 A  
HETATM   21  C   UNL     1      -8.129  12.687  67.532  1.00  0.00    -0.178 A  
HETATM   22  C   UNL     1      -8.565  13.742  66.730  1.00  0.00    -0.058 A  
ENDBRANCH  14  17
ENDBRANCH  12  14
ENDBRANCH   9  12
ENDBRANCH   5   6
ENDBRANCH   4   5
ENDBRANCH   3   4
ENDBRANCH   2   3
TORSDOF 7
ENDMDL
MODEL      271
REMARK 921   NORMALIZED FREE ENERGY PREDICTED BY IDOCK:    1.02 KCAL/MOL
REMARK 922        TOTAL FREE ENERGY PREDICTED BY IDOCK:    0.91 KCAL/MOL
REMARK 923 INTER-LIGAND FREE ENERGY PREDICTED BY IDOCK:    1.07 KCAL/MOL
REMARK 924 INTRA-LIGAND FREE ENERGY PREDICTED BY IDOCK:   -0.17 KCAL/MOL
REMARK 927      BINDING AFFINITY PREDICTED BY RF-SCORE:    0.00 PKD
ROOT
HETATM    1  C   UNL     1     -14.332  16.326  71.101  1.00  0.00     2.858 C  
HETATM    2  O   UNL     1     -13.416  15.394  71.653  1.00  0.00    -0.437 OA 
ENDROOT
BRANCH   2   3
HETATM    3  C   UNL     1     -12.056  15.805  71.494  1.00  0.00    -0.454 C  
BRANCH   3   4
HETATM    4  C   UNL     1     -11.539  15.161  70.214  1.00  0.00    -0.289 C  
BRANCH   4   5
HETATM    5  O   UNL     1     -11.162  13.794  70.412  1.00  0.00     0.063 OA 
BRANCH   5   6
HETATM    6  C   UNL     1     -10.684  13.178  69.290  1.00  0.00     0.067 A  
HETATM    7  C   UNL     1     -11.218  13.246  68.017  1.00  0.00    -0.276 A  
HETATM    8  N   UNL     1     -10.695  12.630  66.941  1.00  0.00    -0.240 NA 
HETATM    9  C   UNL     1      -9.601  11.912  67.167  1.00  0.00    -0.186 A  
HETATM   10  C   UNL     1      -9.549  12.395  69.385  1.00  0.00     1.046 A  
HETATM   11  N   UNL     1      -8.984  11.738  68.339  1.00  0.00    -0.181 NA 
BRANCH   9  12
HETATM   12  N   UNL     1      -9.012  11.319  66.053  1.00  0.00    -0.201 N  
HETATM   13  H   UNL     1      -8.018  11.398  65.841  1.00  0.00     0.000 HD 
BRANCH  12  14
HETATM   14  S   UNL     1     -10.089  10.463  65.092  1.00  0.00    -0.267 S  
HETATM   15  O   UNL     1     -10.539  11.255  63.965  1.00  0.00    -0.340 OA 
HETATM   16  O   UNL     1     -11.043   9.852  65.991  1.00  0.00     0.402 OA 
BRANCH  14  17
HETATM   17  C   UNL     1      -9.095   9.127  64.441  1.00  0.00     0.034 A  
HETATM   18  C   UNL     1      -8.525   9.251  63.171  1.00  0.00    -0.212 A  
HETATM   19  C   UNL     1      -7.742   8.213  62.667  1.00  0.00    -0.128 A  
HETATM   20  C   UNL     1      -7.524   7.066  63.433  1.00  0.00    -0.092 A  
HETATM   21  C   UNL     1      -8.071   6.959  64.712  1.00  0.00    -0.095 A  
HETATM   22  C   UNL     1      -8.846   7.999  65.228  1.00  0.00     0.003 A  
ENDBRANCH  14  17
ENDBRANCH  12  14
ENDBRANCH   9  12
ENDBRANCH   5   6
ENDBRANCH   4   5
ENDBRANCH   3   4
ENDBRANCH   2   3
TORSDOF 7
ENDMDL
MODEL      272
REMARK 921   NORMALIZED FREE ENERGY PREDICTED BY IDOCK:    1.74 KCAL/MOL
REMARK 922        TOTAL FREE ENERGY PREDICTED BY IDOCK:    1.92 KCAL/MOL
REMARK 923 INTER-LIGAND FREE ENERGY PREDICTED BY IDOCK:   -0.64 KCAL/MOL
REMARK 924 INTRA-LIGAND FREE ENERGY PREDICTED BY IDOCK:    2.57 KCAL/MOL
REMARK 927      BINDING AFFINITY PREDICTED BY RF-SCORE:    0.00 PKD
ROOT
HETATM    1  C   UNL     1     -10.126  11.071  63.703  1.00  0.00    -0.371 C  
HETATM    2  O   UNL     1     -10.537   9.794  64.164  1.00  0.00     1.320 OA 
ENDROOT
BRANCH   2   3
HETATM    3  C   UNL     1      -9.941   9.447  65.417  1.00  0.00     0.042 C  
BRANCH   3   4
HETATM    4  C   UNL     1      -8.577  10.123  65.468  1.00  0.00    -0.151 C  
BRANCH   4   5
HETATM    5  O   UNL     1      -7.561   9.250  65.974  1.00  0.00    -0.094 OA 
BRANCH   5   6
HETATM    6  C   UNL     1      -7.510   9.184  67.337  1.00  0.00    -0.084 A  
HETATM    7  C   UNL     1      -8.572   9.306  68.213  1.00  0.00    -0.125 A  
HETATM    8  N   UNL     1      -8.466   9.216  69.551  1.00  0.00    -0.122 NA 
HETATM    9  C   UNL     1      -7.239   9.007  70.017  1.00  0.00    -0.058 A  
HETATM   10  C   UNL     1      -6.291   8.972  67.954  1.00  0.00    -0.056 A  
HETATM   11  N   UNL     1      -6.119   8.887  69.298  1.00  0.00    -0.041 NA 
BRANCH   9  12
HETATM   12  N   UNL     1      -7.122   8.849  71.395  1.00  0.00    -0.097 N  
HETATM   13  H   UNL     1      -7.231   9.619  72.055  1.00  0.00     0.000 HD 
BRANCH  12  14
HETATM   14  S   UNL     1      -6.784   7.276  71.872  1.00  0.00    -0.055 S  
HETATM   15  O   UNL     1      -7.472   6.936  73.101  1.00  0.00    -0.078 OA 
HETATM   16  O   UNL     1      -5.350   7.115  71.762  1.00  0.00    -0.034 OA 
BRANCH  14  17
HETATM   17  C   UNL     1      -7.497   6.283  70.569  1.00  0.00    -0.091 A  
HETATM   18  C   UNL     1      -8.627   5.504  70.838  1.00  0.00    -0.129 A  
HETATM   19  C   UNL     1      -9.189   4.737  69.818  1.00  0.00    -0.180 A  
HETATM   20  C   UNL     1      -8.631   4.757  68.539  1.00  0.00    -0.101 A  
HETATM   21  C   UNL     1      -7.521   5.559  68.267  1.00  0.00    -0.073 A  
HETATM   22  C   UNL     1      -6.960   6.339  69.279  1.00  0.00    -0.064 A  
ENDBRANCH  14  17
ENDBRANCH  12  14
ENDBRANCH   9  12
ENDBRANCH   5   6
ENDBRANCH   4   5
ENDBRANCH   3   4
ENDBRANCH   2   3
TORSDOF 7
ENDMDL
MODEL      273
REMARK 921   NORMALIZED FREE ENERGY PREDICTED BY IDOCK:    6.43 KCAL/MOL
REMARK 922        TOTAL FREE ENERGY PREDICTED BY IDOCK:    8.53 KCAL/MOL
REMARK 923 INTER-LIGAND FREE ENERGY PREDICTED BY IDOCK:    7.97 KCAL/MOL
REMARK 924 INTRA-LIGAND FREE ENERGY PREDICTED BY IDOCK:    0.55 KCAL/MOL
REMARK 927      BINDING AFFINITY PREDICTED BY RF-SCORE:    0.00 PKD
ROOT
HETATM    1  C   UNL     1     -12.383   5.848  70.525  1.00  0.00     1.619 C  
HETATM    2  O   UNL     1     -12.543   6.751  69.443  1.00  0.00     1.284 OA 
ENDROOT
BRANCH   2   3
HETATM    3  C   UNL     1     -11.777   6.372  68.297  1.00  0.00     0.962 C  
BRANCH   3   4
HETATM    4  C   UNL     1     -12.002   7.439  67.233  1.00  0.00     3.168 C  
BRANCH   4   5
HETATM    5  O   UNL     1     -12.160   8.743  67.802  1.00  0.00     3.013 OA 
BRANCH   5   6
HETATM    6  C   UNL     1     -11.133   9.601  67.526  1.00  0.00     0.035 A  
HETATM    7  C   UNL     1     -11.043  10.929  67.894  1.00  0.00    -0.302 A  
HETATM    8  N   UNL     1      -9.997  11.726  67.609  1.00  0.00    -0.191 NA 
HETATM    9  C   UNL     1      -9.015  11.159  66.917  1.00  0.00    -0.161 A  
HETATM   10  C   UNL     1     -10.046   9.138  66.809  1.00  0.00    -0.271 A  
HETATM   11  N   UNL     1      -8.970   9.898  66.478  1.00  0.00    -0.145 NA 
BRANCH   9  12
HETATM   12  N   UNL     1      -7.898  11.952  66.667  1.00  0.00    -0.359 N  
HETATM   13  H   UNL     1      -7.840  12.600  65.882  1.00  0.00     0.000 HD 
BRANCH  12  14
HETATM   14  S   UNL     1      -6.656  11.743  67.776  1.00  0.00    -0.085 S  
HETATM   15  O   UNL     1      -7.141  11.838  69.138  1.00  0.00    -0.109 OA 
HETATM   16  O   UNL     1      -5.561  12.574  67.325  1.00  0.00    -0.217 OA 
BRANCH  14  17
HETATM   17  C   UNL     1      -6.139  10.054  67.510  1.00  0.00    -0.058 A  
HETATM   18  C   UNL     1      -6.199   9.511  66.223  1.00  0.00    -0.068 A  
HETATM   19  C   UNL     1      -5.787   8.196  66.014  1.00  0.00    -0.040 A  
HETATM   20  C   UNL     1      -5.310   7.434  67.082  1.00  0.00    -0.029 A  
HETATM   21  C   UNL     1      -5.224   7.989  68.359  1.00  0.00    -0.032 A  
HETATM   22  C   UNL     1      -5.624   9.308  68.575  1.00  0.00    -0.041 A  
ENDBRANCH  14  17
ENDBRANCH  12  14
ENDBRANCH   9  12
ENDBRANCH   5   6
ENDBRANCH   4   5
ENDBRANCH   3   4
ENDBRANCH   2   3
TORSDOF 7
ENDMDL
MODEL      274
REMARK 921   NORMALIZED FREE ENERGY PREDICTED BY IDOCK:    7.21 KCAL/MOL
REMARK 922        TOTAL FREE ENERGY PREDICTED BY IDOCK:    9.63 KCAL/MOL
REMARK 923 INTER-LIGAND FREE ENERGY PREDICTED BY IDOCK:   -0.56 KCAL/MOL
REMARK 924 INTRA-LIGAND FREE ENERGY PREDICTED BY IDOCK:   10.20 KCAL/MOL
REMARK 927      BINDING AFFINITY PREDICTED BY RF-SCORE:    0.00 PKD
ROOT
HETATM    1  C   UNL     1      -9.131   8.880  64.437  1.00  0.00     0.239 C  
HETATM    2  O   UNL     1      -9.791   9.871  63.666  1.00  0.00    -0.015 OA 
ENDROOT
BRANCH   2   3
HETATM    3  C   UNL     1     -10.116  11.034  64.433  1.00  0.00    -0.334 C  
BRANCH   3   4
HETATM    4  C   UNL     1     -11.332  10.686  65.282  1.00  0.00     0.845 C  
BRANCH   4   5
HETATM    5  O   UNL     1     -11.993  11.853  65.782  1.00  0.00    -0.451 OA 
BRANCH   5   6
HETATM    6  C   UNL     1     -11.280  13.008  65.628  1.00  0.00    -0.283 A  
HETATM    7  C   UNL     1     -11.665  14.277  66.016  1.00  0.00    -0.379 A  
HETATM    8  N   UNL     1     -10.913  15.381  65.854  1.00  0.00    -0.318 NA 
HETATM    9  C   UNL     1      -9.736  15.192  65.269  1.00  0.00    -0.112 A  
HETATM   10  C   UNL     1     -10.035  12.954  65.030  1.00  0.00    -0.143 A  
HETATM   11  N   UNL     1      -9.238  14.034  64.825  1.00  0.00     1.258 NA 
BRANCH   9  12
HETATM   12  N   UNL     1      -8.919  16.314  65.150  1.00  0.00     1.319 N  
HETATM   13  H   UNL     1      -8.307  16.475  64.351  1.00  0.00     0.000 HD 
BRANCH  12  14
HETATM   14  S   UNL     1      -9.035  17.378  66.443  1.00  0.00    -0.218 S  
HETATM   15  O   UNL     1      -9.973  18.447  66.166  1.00  0.00    -0.435 OA 
HETATM   16  O   UNL     1      -7.679  17.674  66.851  1.00  0.00    -0.195 OA 
BRANCH  14  17
HETATM   17  C   UNL     1      -9.738  16.376  67.745  1.00  0.00    -0.235 A  
HETATM   18  C   UNL     1     -11.069  15.959  67.649  1.00  0.00    -0.266 A  
HETATM   19  C   UNL     1     -11.615  15.169  68.660  1.00  0.00    -0.358 A  
HETATM   20  C   UNL     1     -10.832  14.792  69.753  1.00  0.00    -0.222 A  
HETATM   21  C   UNL     1      -9.495  15.185  69.830  1.00  0.00    -0.045 A  
HETATM   22  C   UNL     1      -8.938  15.966  68.816  1.00  0.00    -0.216 A  
ENDBRANCH  14  17
ENDBRANCH  12  14
ENDBRANCH   9  12
ENDBRANCH   5   6
ENDBRANCH   4   5
ENDBRANCH   3   4
ENDBRANCH   2   3
TORSDOF 7
ENDMDL
MODEL      275
REMARK 921   NORMALIZED FREE ENERGY PREDICTED BY IDOCK:    7.94 KCAL/MOL
REMARK 922        TOTAL FREE ENERGY PREDICTED BY IDOCK:   10.66 KCAL/MOL
REMARK 923 INTER-LIGAND FREE ENERGY PREDICTED BY IDOCK:   10.12 KCAL/MOL
REMARK 924 INTRA-LIGAND FREE ENERGY PREDICTED BY IDOCK:    0.55 KCAL/MOL
REMARK 927      BINDING AFFINITY PREDICTED BY RF-SCORE:    0.00 PKD
ROOT
HETATM    1  C   UNL     1     -12.383   5.848  70.525  1.00  0.00     1.619 C  
HETATM    2  O   UNL     1     -12.548   6.755  69.447  1.00  0.00     1.284 OA 
ENDROOT
BRANCH   2   3
HETATM    3  C   UNL     1     -11.793   6.376  68.293  1.00  0.00     1.464 C  
BRANCH   3   4
HETATM    4  C   UNL     1     -12.022   7.448  67.235  1.00  0.00     3.168 C  
BRANCH   4   5
HETATM    5  O   UNL     1     -12.168   8.751  67.810  1.00  0.00     3.676 OA 
BRANCH   5   6
HETATM    6  C   UNL     1     -11.140   9.604  67.528  1.00  0.00     0.035 A  
HETATM    7  C   UNL     1     -10.451  10.396  68.427  1.00  0.00    -0.189 A  
HETATM    8  N   UNL     1      -9.432  11.209  68.095  1.00  0.00    -0.173 NA 
HETATM    9  C   UNL     1      -9.107  11.227  66.807  1.00  0.00    -0.174 A  
HETATM   10  C   UNL     1     -10.703   9.721  66.222  1.00  0.00     0.114 A  
HETATM   11  N   UNL     1      -9.690  10.535  65.825  1.00  0.00    -0.209 NA 
BRANCH   9  12
HETATM   12  N   UNL     1      -8.014  12.016  66.458  1.00  0.00    -0.389 N  
HETATM   13  H   UNL     1      -8.086  13.016  66.273  1.00  0.00     0.000 HD 
BRANCH  12  14
HETATM   14  S   UNL     1      -6.568  11.169  66.367  1.00  0.00    -0.067 S  
HETATM   15  O   UNL     1      -6.348  10.368  67.554  1.00  0.00    -0.057 OA 
HETATM   16  O   UNL     1      -5.568  12.115  65.921  1.00  0.00     0.509 OA 
BRANCH  14  17
HETATM   17  C   UNL     1      -6.829  10.043  65.004  1.00  0.00    -0.132 A  
HETATM   18  C   UNL     1      -7.624  10.443  63.925  1.00  0.00    -0.019 A  
HETATM   19  C   UNL     1      -7.820   9.568  62.857  1.00  0.00    -0.124 A  
HETATM   20  C   UNL     1      -7.218   8.308  62.865  1.00  0.00    -0.097 A  
HETATM   21  C   UNL     1      -6.402   7.925  63.930  1.00  0.00    -0.062 A  
HETATM   22  C   UNL     1      -6.191   8.799  64.997  1.00  0.00    -0.060 A  
ENDBRANCH  14  17
ENDBRANCH  12  14
ENDBRANCH   9  12
ENDBRANCH   5   6
ENDBRANCH   4   5
ENDBRANCH   3   4
ENDBRANCH   2   3
TORSDOF 7
ENDMDL
MODEL      276
REMARK 921   NORMALIZED FREE ENERGY PREDICTED BY IDOCK:    8.92 KCAL/MOL
REMARK 922        TOTAL FREE ENERGY PREDICTED BY IDOCK:   12.04 KCAL/MOL
REMARK 923 INTER-LIGAND FREE ENERGY PREDICTED BY IDOCK:    6.86 KCAL/MOL
REMARK 924 INTRA-LIGAND FREE ENERGY PREDICTED BY IDOCK:    5.19 KCAL/MOL
REMARK 927      BINDING AFFINITY PREDICTED BY RF-SCORE:    0.00 PKD
ROOT
HETATM    1  C   UNL     1     -10.031  10.372  62.910  1.00  0.00     0.043 C  
HETATM    2  O   UNL     1     -10.555   9.079  63.168  1.00  0.00     4.853 OA 
ENDROOT
BRANCH   2   3
HETATM    3  C   UNL     1     -10.031   8.506  64.368  1.00  0.00     3.180 C  
BRANCH   3   4
HETATM    4  C   UNL     1      -8.625   9.063  64.555  1.00  0.00    -0.156 C  
BRANCH   4   5
HETATM    5  O   UNL     1      -7.685   8.045  64.916  1.00  0.00    -0.102 OA 
BRANCH   5   6
HETATM    6  C   UNL     1      -7.683   7.733  66.246  1.00  0.00    -0.089 A  
HETATM    7  C   UNL     1      -8.766   7.752  67.103  1.00  0.00    -0.125 A  
HETATM    8  N   UNL     1      -8.709   7.418  68.405  1.00  0.00    -0.124 NA 
HETATM    9  C   UNL     1      -7.511   7.065  68.855  1.00  0.00    -0.095 A  
HETATM   10  C   UNL     1      -6.496   7.350  66.844  1.00  0.00    -0.056 A  
HETATM   11  N   UNL     1      -6.374   7.017  68.154  1.00  0.00    -0.038 NA 
BRANCH   9  12
HETATM   12  N   UNL     1      -7.447   6.657  70.185  1.00  0.00    -0.092 N  
HETATM   13  H   UNL     1      -7.675   7.270  70.967  1.00  0.00     0.000 HD 
BRANCH  12  14
HETATM   14  S   UNL     1      -6.960   5.063  70.383  1.00  0.00    -0.050 S  
HETATM   15  O   UNL     1      -8.030   4.245  70.916  1.00  0.00    -0.065 OA 
HETATM   16  O   UNL     1      -5.671   5.108  71.039  1.00  0.00    -0.011 OA 
BRANCH  14  17
HETATM   17  C   UNL     1      -6.648   4.512  68.712  1.00  0.00    -0.045 A  
HETATM   18  C   UNL     1      -5.554   5.029  68.011  1.00  0.00    -0.016 A  
HETATM   19  C   UNL     1      -5.305   4.591  66.710  1.00  0.00    -0.013 A  
HETATM   20  C   UNL     1      -6.138   3.638  66.121  1.00  0.00    -0.028 A  
HETATM   21  C   UNL     1      -7.211   3.104  66.835  1.00  0.00    -0.058 A  
HETATM   22  C   UNL     1      -7.460   3.527  68.141  1.00  0.00    -0.057 A  
ENDBRANCH  14  17
ENDBRANCH  12  14
ENDBRANCH   9  12
ENDBRANCH   5   6
ENDBRANCH   4   5
ENDBRANCH   3   4
ENDBRANCH   2   3
TORSDOF 7
ENDMDL
MODEL      277
REMARK 921   NORMALIZED FREE ENERGY PREDICTED BY IDOCK:   30.70 KCAL/MOL
REMARK 922        TOTAL FREE ENERGY PREDICTED BY IDOCK:   42.72 KCAL/MOL
REMARK 923 INTER-LIGAND FREE ENERGY PREDICTED BY IDOCK:   42.14 KCAL/MOL
REMARK 924 INTRA-LIGAND FREE ENERGY PREDICTED BY IDOCK:    0.58 KCAL/MOL
REMARK 927      BINDING AFFINITY PREDICTED BY RF-SCORE:    0.00 PKD
ROOT
HETATM    1  C   UNL     1      -9.112  21.058  73.989  1.00  0.00    12.530 C  
HETATM    2  O   UNL     1      -7.985  21.335  73.174  1.00  0.00     4.630 OA 
ENDROOT
BRANCH   2   3
HETATM    3  C   UNL     1      -6.822  20.612  73.586  1.00  0.00     9.795 C  
BRANCH   3   4
HETATM    4  C   UNL     1      -7.203  19.138  73.631  1.00  0.00     7.014 C  
BRANCH   4   5
HETATM    5  O   UNL     1      -6.351  18.335  72.806  1.00  0.00     2.191 OA 
BRANCH   5   6
HETATM    6  C   UNL     1      -6.665  18.371  71.477  1.00  0.00     3.284 A  
HETATM    7  C   UNL     1      -5.937  17.822  70.440  1.00  0.00     0.070 A  
HETATM    8  N   UNL     1      -6.303  17.873  69.146  1.00  0.00    -0.227 NA 
HETATM    9  C   UNL     1      -7.439  18.514  68.896  1.00  0.00    -0.250 A  
HETATM   10  C   UNL     1      -7.823  19.012  71.078  1.00  0.00     3.748 A  
HETATM   11  N   UNL     1      -8.236  19.109  69.788  1.00  0.00     0.489 NA 
BRANCH   9  12
HETATM   12  N   UNL     1      -7.863  18.523  67.569  1.00  0.00    -0.231 N  
HETATM   13  H   UNL     1      -8.051  19.381  67.051  1.00  0.00     0.000 HD 
BRANCH  12  14
HETATM   14  S   UNL     1      -8.038  16.993  66.903  1.00  0.00    -0.242 S  
HETATM   15  O   UNL     1      -6.753  16.355  66.699  1.00  0.00    -0.235 OA 
HETATM   16  O   UNL     1      -8.975  17.128  65.809  1.00  0.00    -0.523 OA 
BRANCH  14  17
HETATM   17  C   UNL     1      -8.892  16.078  68.178  1.00  0.00    -0.178 A  
HETATM   18  C   UNL     1     -10.047  16.616  68.754  1.00  0.00    -0.270 A  
HETATM   19  C   UNL     1     -10.719  15.897  69.742  1.00  0.00    -0.324 A  
HETATM   20  C   UNL     1     -10.244  14.647  70.143  1.00  0.00     0.357 A  
HETATM   21  C   UNL     1      -9.108  14.101  69.545  1.00  0.00     0.670 A  
HETATM   22  C   UNL     1      -8.436  14.809  68.547  1.00  0.00    -0.159 A  
ENDBRANCH  14  17
ENDBRANCH  12  14
ENDBRANCH   9  12
ENDBRANCH   5   6
ENDBRANCH   4   5
ENDBRANCH   3   4
ENDBRANCH   2   3
TORSDOF 7
ENDMDL
MODEL      278
REMARK 921   NORMALIZED FREE ENERGY PREDICTED BY IDOCK:   43.76 KCAL/MOL
REMARK 922        TOTAL FREE ENERGY PREDICTED BY IDOCK:   61.13 KCAL/MOL
REMARK 923 INTER-LIGAND FREE ENERGY PREDICTED BY IDOCK:   60.96 KCAL/MOL
REMARK 924 INTRA-LIGAND FREE ENERGY PREDICTED BY IDOCK:    0.18 KCAL/MOL
REMARK 927      BINDING AFFINITY PREDICTED BY RF-SCORE:    0.00 PKD
ROOT
HETATM    1  C   UNL     1      -9.257  21.149  74.234  1.00  0.00    15.296 C  
HETATM    2  O   UNL     1      -8.017  21.045  73.553  1.00  0.00     6.229 OA 
ENDROOT
BRANCH   2   3
HETATM    3  C   UNL     1      -7.320  19.837  73.868  1.00  0.00     8.574 C  
BRANCH   3   4
HETATM    4  C   UNL     1      -8.285  18.684  73.622  1.00  0.00     8.888 C  
BRANCH   4   5
HETATM    5  O   UNL     1      -7.886  17.874  72.511  1.00  0.00    10.909 OA 
BRANCH   5   6
HETATM    6  C   UNL     1      -8.015  18.488  71.297  1.00  0.00     6.529 A  
HETATM    7  C   UNL     1      -7.133  19.384  70.725  1.00  0.00     1.071 A  
HETATM    8  N   UNL     1      -7.302  19.948  69.515  1.00  0.00    -0.162 NA 
HETATM    9  C   UNL     1      -8.410  19.599  68.869  1.00  0.00    -0.200 A  
HETATM   10  C   UNL     1      -9.126  18.216  70.521  1.00  0.00     3.799 A  
HETATM   11  N   UNL     1      -9.360  18.765  69.301  1.00  0.00    -0.042 NA 
BRANCH   9  12
HETATM   12  N   UNL     1      -8.570  20.126  67.590  1.00  0.00    -0.322 N  
HETATM   13  H   UNL     1      -9.419  20.601  67.286  1.00  0.00     0.000 HD 
BRANCH  12  14
HETATM   14  S   UNL     1      -7.237  19.905  66.594  1.00  0.00    -0.251 S  
HETATM   15  O   UNL     1      -6.048  20.512  67.160  1.00  0.00    -0.184 OA 
HETATM   16  O   UNL     1      -7.668  20.239  65.255  1.00  0.00    -0.136 OA 
BRANCH  14  17
HETATM   17  C   UNL     1      -6.992  18.135  66.611  1.00  0.00    -0.210 A  
HETATM   18  C   UNL     1      -7.991  17.299  66.102  1.00  0.00    -0.292 A  
HETATM   19  C   UNL     1      -7.796  15.918  66.105  1.00  0.00     0.444 A  
HETATM   20  C   UNL     1      -6.608  15.381  66.606  1.00  0.00     1.255 A  
HETATM   21  C   UNL     1      -5.603  16.221  67.085  1.00  0.00    -0.064 A  
HETATM   22  C   UNL     1      -5.785  17.604  67.074  1.00  0.00    -0.174 A  
ENDBRANCH  14  17
ENDBRANCH  12  14
ENDBRANCH   9  12
ENDBRANCH   5   6
ENDBRANCH   4   5
ENDBRANCH   3   4
ENDBRANCH   2   3
TORSDOF 7
ENDMDL
MODEL      279
REMARK 921   NORMALIZED FREE ENERGY PREDICTED BY IDOCK:   53.99 KCAL/MOL
REMARK 922        TOTAL FREE ENERGY PREDICTED BY IDOCK:   75.54 KCAL/MOL
REMARK 923 INTER-LIGAND FREE ENERGY PREDICTED BY IDOCK:   75.73 KCAL/MOL
REMARK 924 INTRA-LIGAND FREE ENERGY PREDICTED BY IDOCK:   -0.19 KCAL/MOL
REMARK 927      BINDING AFFINITY PREDICTED BY RF-SCORE:    0.00 PKD
ROOT
HETATM    1  C   UNL     1      -9.258  21.145  74.271  1.00  0.00    15.296 C  
HETATM    2  O   UNL     1      -8.007  20.976  73.625  1.00  0.00     7.172 OA 
ENDROOT
BRANCH   2   3
HETATM    3  C   UNL     1      -7.342  19.775  74.027  1.00  0.00     9.442 C  
BRANCH   3   4
HETATM    4  C   UNL     1      -8.342  18.636  73.876  1.00  0.00     8.723 C  
BRANCH   4   5
HETATM    5  O   UNL     1      -7.970  17.727  72.834  1.00  0.00    12.060 OA 
BRANCH   5   6
HETATM    6  C   UNL     1      -8.827  17.715  71.770  1.00  0.00    12.332 A  
HETATM    7  C   UNL     1      -8.862  18.618  70.725  1.00  0.00     4.421 A  
HETATM    8  N   UNL     1      -9.719  18.549  69.691  1.00  0.00     0.305 NA 
HETATM    9  C   UNL     1     -10.579  17.536  69.725  1.00  0.00     0.473 A  
HETATM   10  C   UNL     1      -9.776  16.713  71.683  1.00  0.00     5.894 A  
HETATM   11  N   UNL     1     -10.677  16.600  70.674  1.00  0.00     0.190 NA 
BRANCH   9  12
HETATM   12  N   UNL     1     -11.432  17.415  68.631  1.00  0.00     0.207 N  
HETATM   13  H   UNL     1     -12.442  17.311  68.722  1.00  0.00     0.000 HD 
BRANCH  12  14
HETATM   14  S   UNL     1     -10.645  17.454  67.149  1.00  0.00    -0.206 S  
HETATM   15  O   UNL     1      -9.897  18.683  66.980  1.00  0.00    -0.303 OA 
HETATM   16  O   UNL     1     -11.617  17.041  66.160  1.00  0.00     0.982 OA 
BRANCH  14  17
HETATM   17  C   UNL     1      -9.462  16.120  67.270  1.00  0.00    -0.226 A  
HETATM   18  C   UNL     1      -9.919  14.808  67.424  1.00  0.00    -0.223 A  
HETATM   19  C   UNL     1      -8.996  13.766  67.508  1.00  0.00    -0.201 A  
HETATM   20  C   UNL     1      -7.628  14.035  67.430  1.00  0.00    -0.167 A  
HETATM   21  C   UNL     1      -7.178  15.343  67.247  1.00  0.00    -0.229 A  
HETATM   22  C   UNL     1      -8.096  16.390  67.149  1.00  0.00    -0.212 A  
ENDBRANCH  14  17
ENDBRANCH  12  14
ENDBRANCH   9  12
ENDBRANCH   5   6
ENDBRANCH   4   5
ENDBRANCH   3   4
ENDBRANCH   2   3
TORSDOF 7
ENDMDL
