MODEL        1
REMARK 921   NORMALIZED FREE ENERGY PREDICTED BY IDOCK:   -7.50 KCAL/MOL
REMARK 922        TOTAL FREE ENERGY PREDICTED BY IDOCK:   -9.11 KCAL/MOL
REMARK 923 INTER-LIGAND FREE ENERGY PREDICTED BY IDOCK:   -8.38 KCAL/MOL
REMARK 924 INTRA-LIGAND FREE ENERGY PREDICTED BY IDOCK:   -0.72 KCAL/MOL
REMARK 927      BINDING AFFINITY PREDICTED BY RF-SCORE:    0.00 PKD
ROOT
HETATM    1  C   UNL     1     -11.357  11.747  63.953  1.00  0.00    -0.411 C  
HETATM    2  N   UNL     1     -11.486  12.842  64.887  1.00  0.00    -0.305 NA 
HETATM    3  N   UNL     1     -11.403  14.088  64.432  1.00  0.00    -0.351 NA 
HETATM    4  C   UNL     1     -11.263  14.857  65.536  1.00  0.00    -0.348 A  
HETATM    5  C   UNL     1     -11.497  14.073  66.712  1.00  0.00    -0.379 A  
HETATM    6  C   UNL     1     -11.671  13.156  68.961  1.00  0.00    -0.367 A  
HETATM    7  C   UNL     1     -11.594  12.752  66.244  1.00  0.00    -0.379 A  
HETATM    8  C   UNL     1     -11.746  11.859  68.454  1.00  0.00    -0.387 A  
HETATM    9  C   UNL     1     -11.533  14.267  68.108  1.00  0.00    -0.336 A  
HETATM   10  C   UNL     1     -11.705  11.634  67.080  1.00  0.00    -0.215 A  
ENDROOT
BRANCH   4  11
HETATM   11  C   UNL     1     -10.728  16.199  65.292  1.00  0.00    -0.368 C  
HETATM   12  H   UNL     1      -9.684  17.789  65.532  1.00  0.00     0.000 HD 
HETATM   13  O   UNL     1     -11.269  16.933  64.446  1.00  0.00    -1.159 OA 
HETATM   14  N   UNL     1      -9.685  16.830  65.880  1.00  0.00    -0.258 N  
BRANCH  14  15
HETATM   15  C   UNL     1      -8.556  16.711  66.809  1.00  0.00    -0.236 C  
HETATM   16  C   UNL     1      -8.480  18.617  68.659  1.00  0.00    -0.306 C  
HETATM   17  C   UNL     1      -8.730  17.116  68.285  1.00  0.00    -0.241 C  
HETATM   18  C   UNL     1      -9.752  19.444  68.462  1.00  0.00    -0.497 C  
HETATM   19  C   UNL     1     -10.079  19.681  66.996  1.00  0.00    -0.531 C  
HETATM   20  C   UNL     1      -8.853  19.803  66.067  1.00  0.00    -0.295 C  
HETATM   21  C   UNL     1      -7.561  19.065  66.500  1.00  0.00    -0.251 C  
HETATM   22  N   UNL     1      -7.333  19.197  67.935  1.00  0.00    -0.246 NA 
HETATM   23  C   UNL     1      -7.426  17.557  66.198  1.00  0.00    -0.334 C  
HETATM   24  C   UNL     1      -7.000  20.577  68.307  1.00  0.00    -0.182 C  
ENDBRANCH  14  15
ENDBRANCH   4  11
TORSDOF 2
ENDMDL
MODEL        2
REMARK 921   NORMALIZED FREE ENERGY PREDICTED BY IDOCK:   -7.27 KCAL/MOL
REMARK 922        TOTAL FREE ENERGY PREDICTED BY IDOCK:   -8.84 KCAL/MOL
REMARK 923 INTER-LIGAND FREE ENERGY PREDICTED BY IDOCK:   -8.32 KCAL/MOL
REMARK 924 INTRA-LIGAND FREE ENERGY PREDICTED BY IDOCK:   -0.52 KCAL/MOL
REMARK 927      BINDING AFFINITY PREDICTED BY RF-SCORE:    0.00 PKD
ROOT
HETATM    1  C   UNL     1     -14.026  15.555  72.569  1.00  0.00    -0.555 C  
HETATM    2  N   UNL     1     -13.107  14.948  71.633  1.00  0.00    -0.317 NA 
HETATM    3  N   UNL     1     -12.429  15.730  70.800  1.00  0.00    -0.418 NA 
HETATM    4  C   UNL     1     -11.901  14.891  69.880  1.00  0.00    -0.311 A  
HETATM    5  C   UNL     1     -12.078  13.533  70.298  1.00  0.00    -0.425 A  
HETATM    6  C   UNL     1     -12.248  11.112  70.503  1.00  0.00    -0.475 A  
HETATM    7  C   UNL     1     -12.911  13.614  71.426  1.00  0.00    -0.360 A  
HETATM    8  C   UNL     1     -13.088  11.239  71.610  1.00  0.00    -0.513 A  
HETATM    9  C   UNL     1     -11.748  12.243  69.832  1.00  0.00    -0.346 A  
HETATM   10  C   UNL     1     -13.438  12.499  72.089  1.00  0.00    -0.523 A  
ENDROOT
BRANCH   4  11
HETATM   11  C   UNL     1     -11.476  15.529  68.631  1.00  0.00    -0.359 C  
HETATM   12  H   UNL     1     -10.713  16.828  67.445  1.00  0.00     0.000 HD 
HETATM   13  O   UNL     1     -11.862  15.069  67.542  1.00  0.00    -0.320 OA 
HETATM   14  N   UNL     1     -10.695  16.619  68.443  1.00  0.00    -0.337 N  
BRANCH  14  15
HETATM   15  C   UNL     1      -9.835  17.624  69.075  1.00  0.00    -0.231 C  
HETATM   16  C   UNL     1      -9.572  19.857  67.660  1.00  0.00    -0.372 C  
HETATM   17  C   UNL     1     -10.157  19.122  68.914  1.00  0.00    -0.422 C  
HETATM   18  C   UNL     1     -10.504  19.704  66.457  1.00  0.00    -0.612 C  
HETATM   19  C   UNL     1     -10.478  18.303  65.866  1.00  0.00    -0.324 C  
HETATM   20  C   UNL     1      -9.117  17.581  65.963  1.00  0.00    -0.060 C  
HETATM   21  C   UNL     1      -8.185  17.985  67.133  1.00  0.00    -0.221 C  
HETATM   22  N   UNL     1      -8.196  19.429  67.344  1.00  0.00    -0.281 NA 
HETATM   23  C   UNL     1      -8.422  17.363  68.526  1.00  0.00    -0.274 C  
HETATM   24  C   UNL     1      -7.566  20.145  66.227  1.00  0.00    -0.268 C  
ENDBRANCH  14  15
ENDBRANCH   4  11
TORSDOF 2
ENDMDL
MODEL        3
REMARK 921   NORMALIZED FREE ENERGY PREDICTED BY IDOCK:   -7.12 KCAL/MOL
REMARK 922        TOTAL FREE ENERGY PREDICTED BY IDOCK:   -8.68 KCAL/MOL
REMARK 923 INTER-LIGAND FREE ENERGY PREDICTED BY IDOCK:   -7.90 KCAL/MOL
REMARK 924 INTRA-LIGAND FREE ENERGY PREDICTED BY IDOCK:   -0.78 KCAL/MOL
REMARK 927      BINDING AFFINITY PREDICTED BY RF-SCORE:    0.00 PKD
ROOT
HETATM    1  C   UNL     1     -12.655  11.475  70.878  1.00  0.00    -0.341 C  
HETATM    2  N   UNL     1     -12.303  12.849  70.604  1.00  0.00    -0.346 NA 
HETATM    3  N   UNL     1     -11.677  13.138  69.468  1.00  0.00    -0.312 NA 
HETATM    4  C   UNL     1     -11.228  14.404  69.626  1.00  0.00    -0.232 A  
HETATM    5  C   UNL     1     -11.796  14.981  70.808  1.00  0.00    -0.372 A  
HETATM    6  C   UNL     1     -12.381  16.332  72.748  1.00  0.00    -0.543 A  
HETATM    7  C   UNL     1     -12.455  13.916  71.441  1.00  0.00    -0.340 A  
HETATM    8  C   UNL     1     -13.011  15.242  73.349  1.00  0.00    -0.656 A  
HETATM    9  C   UNL     1     -11.761  16.215  71.490  1.00  0.00    -0.533 A  
HETATM   10  C   UNL     1     -13.055  14.008  72.704  1.00  0.00    -0.553 A  
ENDROOT
BRANCH   4  11
HETATM   11  C   UNL     1     -10.157  14.800  68.709  1.00  0.00    -0.237 C  
HETATM   12  H   UNL     1      -9.206  15.809  67.384  1.00  0.00     0.000 HD 
HETATM   13  O   UNL     1      -9.212  14.022  68.492  1.00  0.00    -0.198 OA 
HETATM   14  N   UNL     1     -10.015  15.940  67.991  1.00  0.00    -0.219 N  
BRANCH  14  15
HETATM   15  C   UNL     1     -10.538  17.283  67.722  1.00  0.00    -0.367 C  
HETATM   16  C   UNL     1      -8.879  18.827  66.336  1.00  0.00    -0.291 C  
HETATM   17  C   UNL     1     -10.201  17.988  66.395  1.00  0.00    -0.393 C  
HETATM   18  C   UNL     1      -7.689  17.940  65.967  1.00  0.00    -0.216 C  
HETATM   19  C   UNL     1      -7.264  17.023  67.104  1.00  0.00    -0.206 C  
HETATM   20  C   UNL     1      -7.463  17.605  68.519  1.00  0.00    -0.269 C  
HETATM   21  C   UNL     1      -8.591  18.652  68.701  1.00  0.00    -0.307 C  
HETATM   22  N   UNL     1      -8.633  19.583  67.578  1.00  0.00    -0.299 NA 
HETATM   23  C   UNL     1     -10.043  18.160  68.885  1.00  0.00    -0.354 C  
HETATM   24  C   UNL     1      -7.451  20.453  67.550  1.00  0.00    -0.319 C  
ENDBRANCH  14  15
ENDBRANCH   4  11
TORSDOF 2
ENDMDL
MODEL        4
REMARK 921   NORMALIZED FREE ENERGY PREDICTED BY IDOCK:   -7.01 KCAL/MOL
REMARK 922        TOTAL FREE ENERGY PREDICTED BY IDOCK:   -8.56 KCAL/MOL
REMARK 923 INTER-LIGAND FREE ENERGY PREDICTED BY IDOCK:   -7.80 KCAL/MOL
REMARK 924 INTRA-LIGAND FREE ENERGY PREDICTED BY IDOCK:   -0.76 KCAL/MOL
REMARK 927      BINDING AFFINITY PREDICTED BY RF-SCORE:    0.00 PKD
ROOT
HETATM    1  C   UNL     1     -12.099  10.462  71.182  1.00  0.00    -0.386 C  
HETATM    2  N   UNL     1     -12.132  11.778  70.586  1.00  0.00    -0.361 NA 
HETATM    3  N   UNL     1     -11.459  11.990  69.460  1.00  0.00    -0.291 NA 
HETATM    4  C   UNL     1     -11.432  13.334  69.313  1.00  0.00    -0.288 A  
HETATM    5  C   UNL     1     -12.313  13.947  70.262  1.00  0.00    -0.413 A  
HETATM    6  C   UNL     1     -13.550  15.437  71.739  1.00  0.00    -0.596 A  
HETATM    7  C   UNL     1     -12.714  12.898  71.104  1.00  0.00    -0.276 A  
HETATM    8  C   UNL     1     -13.911  14.366  72.558  1.00  0.00    -0.559 A  
HETATM    9  C   UNL     1     -12.745  15.247  70.601  1.00  0.00    -0.470 A  
HETATM   10  C   UNL     1     -13.493  13.073  72.255  1.00  0.00    -0.645 A  
ENDROOT
BRANCH   4  11
HETATM   11  C   UNL     1     -10.403  13.837  68.401  1.00  0.00    -0.247 C  
HETATM   12  H   UNL     1      -9.183  15.057  67.564  1.00  0.00     0.000 HD 
HETATM   13  O   UNL     1     -10.047  13.144  67.431  1.00  0.00    -0.225 OA 
HETATM   14  N   UNL     1      -9.737  15.016  68.419  1.00  0.00    -0.210 N  
BRANCH  14  15
HETATM   15  C   UNL     1      -9.480  16.257  69.156  1.00  0.00    -0.246 C  
HETATM   16  C   UNL     1      -9.883  18.460  67.725  1.00  0.00    -0.319 C  
HETATM   17  C   UNL     1     -10.340  17.506  68.882  1.00  0.00    -0.338 C  
HETATM   18  C   UNL     1     -10.443  17.991  66.381  1.00  0.00    -0.345 C  
HETATM   19  C   UNL     1      -9.753  16.740  65.859  1.00  0.00    -0.247 C  
HETATM   20  C   UNL     1      -8.259  16.621  66.227  1.00  0.00    -0.365 C  
HETATM   21  C   UNL     1      -7.793  17.321  67.529  1.00  0.00    -0.181 C  
HETATM   22  N   UNL     1      -8.419  18.631  67.678  1.00  0.00    -0.265 NA 
HETATM   23  C   UNL     1      -8.007  16.605  68.880  1.00  0.00    -0.236 C  
HETATM   24  C   UNL     1      -7.939  19.579  66.666  1.00  0.00    -0.293 C  
ENDBRANCH  14  15
ENDBRANCH   4  11
TORSDOF 2
ENDMDL
MODEL        5
REMARK 921   NORMALIZED FREE ENERGY PREDICTED BY IDOCK:   -6.99 KCAL/MOL
REMARK 922        TOTAL FREE ENERGY PREDICTED BY IDOCK:   -8.53 KCAL/MOL
REMARK 923 INTER-LIGAND FREE ENERGY PREDICTED BY IDOCK:   -7.90 KCAL/MOL
REMARK 924 INTRA-LIGAND FREE ENERGY PREDICTED BY IDOCK:   -0.63 KCAL/MOL
REMARK 927      BINDING AFFINITY PREDICTED BY RF-SCORE:    0.00 PKD
ROOT
HETATM    1  C   UNL     1     -11.541  15.326  68.183  1.00  0.00    -0.330 C  
HETATM    2  N   UNL     1     -11.721  14.280  69.165  1.00  0.00    -0.299 NA 
HETATM    3  N   UNL     1     -11.272  13.060  68.893  1.00  0.00    -0.266 NA 
HETATM    4  C   UNL     1     -11.831  12.262  69.831  1.00  0.00    -0.311 A  
HETATM    5  C   UNL     1     -12.460  13.060  70.841  1.00  0.00    -0.396 A  
HETATM    6  C   UNL     1     -13.758  13.955  72.697  1.00  0.00    -0.582 A  
HETATM    7  C   UNL     1     -12.404  14.371  70.342  1.00  0.00    -0.342 A  
HETATM    8  C   UNL     1     -13.693  15.240  72.156  1.00  0.00    -0.598 A  
HETATM    9  C   UNL     1     -13.162  12.859  72.048  1.00  0.00    -0.549 A  
HETATM   10  C   UNL     1     -13.015  15.469  70.962  1.00  0.00    -0.550 A  
ENDROOT
BRANCH   4  11
HETATM   11  C   UNL     1     -11.841  10.834  69.504  1.00  0.00    -0.308 C  
HETATM   12  H   UNL     1     -11.619   8.941  69.710  1.00  0.00     0.000 HD 
HETATM   13  O   UNL     1     -12.029  10.473  68.329  1.00  0.00    -0.377 OA 
HETATM   14  N   UNL     1     -11.652   9.764  70.311  1.00  0.00    -0.243 N  
BRANCH  14  15
HETATM   15  C   UNL     1     -11.474   9.294  71.689  1.00  0.00    -0.398 C  
HETATM   16  C   UNL     1      -9.737   7.298  71.930  1.00  0.00    -0.155 C  
HETATM   17  C   UNL     1     -10.092   8.807  72.163  1.00  0.00    -0.362 C  
HETATM   18  C   UNL     1      -9.141   7.090  70.536  1.00  0.00    -0.156 C  
HETATM   19  C   UNL     1     -10.179   7.198  69.430  1.00  0.00    -0.194 C  
HETATM   20  C   UNL     1     -11.593   6.712  69.814  1.00  0.00    -0.354 C  
HETATM   21  C   UNL     1     -11.990   6.801  71.309  1.00  0.00    -0.365 C  
HETATM   22  N   UNL     1     -10.883   6.403  72.174  1.00  0.00    -0.227 NA 
HETATM   23  C   UNL     1     -12.487   8.151  71.870  1.00  0.00    -0.368 C  
HETATM   24  C   UNL     1     -10.587   4.971  72.051  1.00  0.00    -0.174 C  
ENDBRANCH  14  15
ENDBRANCH   4  11
TORSDOF 2
ENDMDL
MODEL        6
REMARK 921   NORMALIZED FREE ENERGY PREDICTED BY IDOCK:   -6.94 KCAL/MOL
REMARK 922        TOTAL FREE ENERGY PREDICTED BY IDOCK:   -8.48 KCAL/MOL
REMARK 923 INTER-LIGAND FREE ENERGY PREDICTED BY IDOCK:   -7.51 KCAL/MOL
REMARK 924 INTRA-LIGAND FREE ENERGY PREDICTED BY IDOCK:   -0.97 KCAL/MOL
REMARK 927      BINDING AFFINITY PREDICTED BY RF-SCORE:    0.00 PKD
ROOT
HETATM    1  C   UNL     1     -12.543  10.394  71.551  1.00  0.00    -0.439 C  
HETATM    2  N   UNL     1     -12.498  11.608  70.767  1.00  0.00    -0.357 NA 
HETATM    3  N   UNL     1     -12.059  11.547  69.514  1.00  0.00    -0.304 NA 
HETATM    4  C   UNL     1     -11.854  12.833  69.150  1.00  0.00    -0.301 A  
HETATM    5  C   UNL     1     -12.402  13.714  70.138  1.00  0.00    -0.372 A  
HETATM    6  C   UNL     1     -13.043  15.582  71.562  1.00  0.00    -0.573 A  
HETATM    7  C   UNL     1     -12.772  12.872  71.198  1.00  0.00    -0.276 A  
HETATM    8  C   UNL     1     -13.382  14.710  72.597  1.00  0.00    -0.577 A  
HETATM    9  C   UNL     1     -12.542  15.104  70.338  1.00  0.00    -0.405 A  
HETATM   10  C   UNL     1     -13.247  13.334  72.433  1.00  0.00    -0.539 A  
ENDROOT
BRANCH   4  11
HETATM   11  C   UNL     1     -10.980  13.017  67.989  1.00  0.00    -0.250 C  
HETATM   12  H   UNL     1      -9.546  13.687  66.906  1.00  0.00     0.000 HD 
HETATM   13  O   UNL     1     -11.306  12.536  66.890  1.00  0.00    -0.288 OA 
HETATM   14  N   UNL     1      -9.803  13.680  67.893  1.00  0.00    -0.230 N  
BRANCH  14  15
HETATM   15  C   UNL     1      -8.744  14.392  68.616  1.00  0.00    -0.164 C  
HETATM   16  C   UNL     1      -9.064  17.029  68.668  1.00  0.00    -0.271 C  
HETATM   17  C   UNL     1      -9.084  15.657  69.426  1.00  0.00    -0.278 C  
HETATM   18  C   UNL     1     -10.414  17.301  68.003  1.00  0.00    -0.375 C  
HETATM   19  C   UNL     1     -10.655  16.430  66.780  1.00  0.00    -0.238 C  
HETATM   20  C   UNL     1      -9.387  16.071  65.977  1.00  0.00    -0.380 C  
HETATM   21  C   UNL     1      -8.047  16.026  66.753  1.00  0.00    -0.267 C  
HETATM   22  N   UNL     1      -7.951  17.128  67.706  1.00  0.00    -0.182 NA 
HETATM   23  C   UNL     1      -7.691  14.755  67.555  1.00  0.00    -0.215 C  
HETATM   24  C   UNL     1      -7.833  18.423  67.026  1.00  0.00    -0.227 C  
ENDBRANCH  14  15
ENDBRANCH   4  11
TORSDOF 2
ENDMDL
MODEL        7
REMARK 921   NORMALIZED FREE ENERGY PREDICTED BY IDOCK:   -6.93 KCAL/MOL
REMARK 922        TOTAL FREE ENERGY PREDICTED BY IDOCK:   -8.46 KCAL/MOL
REMARK 923 INTER-LIGAND FREE ENERGY PREDICTED BY IDOCK:   -7.77 KCAL/MOL
REMARK 924 INTRA-LIGAND FREE ENERGY PREDICTED BY IDOCK:   -0.69 KCAL/MOL
REMARK 927      BINDING AFFINITY PREDICTED BY RF-SCORE:    0.00 PKD
ROOT
HETATM    1  C   UNL     1     -13.776  15.593  72.810  1.00  0.00    -0.578 C  
HETATM    2  N   UNL     1     -12.980  14.955  71.787  1.00  0.00    -0.316 NA 
HETATM    3  N   UNL     1     -12.384  15.711  70.871  1.00  0.00    -0.410 NA 
HETATM    4  C   UNL     1     -11.978  14.849  69.911  1.00  0.00    -0.330 A  
HETATM    5  C   UNL     1     -12.134  13.500  70.368  1.00  0.00    -0.415 A  
HETATM    6  C   UNL     1     -12.328  11.086  70.629  1.00  0.00    -0.480 A  
HETATM    7  C   UNL     1     -12.834  13.614  71.580  1.00  0.00    -0.359 A  
HETATM    8  C   UNL     1     -13.037  11.247  71.820  1.00  0.00    -0.527 A  
HETATM    9  C   UNL     1     -11.884  12.197  69.888  1.00  0.00    -0.392 A  
HETATM   10  C   UNL     1     -13.306  12.520  72.316  1.00  0.00    -0.475 A  
ENDROOT
BRANCH   4  11
HETATM   11  C   UNL     1     -11.683  15.460  68.614  1.00  0.00    -0.354 C  
HETATM   12  H   UNL     1     -11.494  15.645  66.715  1.00  0.00     0.000 HD 
HETATM   13  O   UNL     1     -11.088  16.552  68.568  1.00  0.00    -0.348 OA 
HETATM   14  N   UNL     1     -11.947  15.005  67.366  1.00  0.00    -0.169 N  
BRANCH  14  15
HETATM   15  C   UNL     1     -12.612  13.975  66.562  1.00  0.00    -0.174 C  
HETATM   16  C   UNL     1     -10.981  12.061  65.703  1.00  0.00    -0.297 C  
HETATM   17  C   UNL     1     -12.146  12.509  66.652  1.00  0.00    -0.212 C  
HETATM   18  C   UNL     1      -9.621  12.352  66.339  1.00  0.00    -0.249 C  
HETATM   19  C   UNL     1      -9.280  13.834  66.346  1.00  0.00    -0.158 C  
HETATM   20  C   UNL     1      -9.827  14.634  65.145  1.00  0.00    -0.156 C  
HETATM   21  C   UNL     1     -11.117  14.103  64.471  1.00  0.00    -0.330 C  
HETATM   22  N   UNL     1     -11.092  12.648  64.355  1.00  0.00    -0.323 NA 
HETATM   23  C   UNL     1     -12.484  14.443  65.102  1.00  0.00    -0.360 C  
HETATM   24  C   UNL     1     -10.074  12.198  63.398  1.00  0.00    -0.351 C  
ENDBRANCH  14  15
ENDBRANCH   4  11
TORSDOF 2
ENDMDL
MODEL        8
REMARK 921   NORMALIZED FREE ENERGY PREDICTED BY IDOCK:   -6.92 KCAL/MOL
REMARK 922        TOTAL FREE ENERGY PREDICTED BY IDOCK:   -8.46 KCAL/MOL
REMARK 923 INTER-LIGAND FREE ENERGY PREDICTED BY IDOCK:   -7.87 KCAL/MOL
REMARK 924 INTRA-LIGAND FREE ENERGY PREDICTED BY IDOCK:   -0.59 KCAL/MOL
REMARK 927      BINDING AFFINITY PREDICTED BY RF-SCORE:    0.00 PKD
ROOT
HETATM    1  C   UNL     1     -11.251  11.515  66.979  1.00  0.00    -0.300 C  
HETATM    2  N   UNL     1     -11.484  12.916  67.247  1.00  0.00    -0.316 NA 
HETATM    3  N   UNL     1     -11.271  13.800  66.278  1.00  0.00    -0.303 NA 
HETATM    4  C   UNL     1     -11.283  15.005  66.892  1.00  0.00    -0.323 A  
HETATM    5  C   UNL     1     -11.743  14.863  68.241  1.00  0.00    -0.342 A  
HETATM    6  C   UNL     1     -12.331  15.115  70.591  1.00  0.00    -0.420 A  
HETATM    7  C   UNL     1     -11.820  13.476  68.445  1.00  0.00    -0.373 A  
HETATM    8  C   UNL     1     -12.378  13.730  70.754  1.00  0.00    -0.451 A  
HETATM    9  C   UNL     1     -12.004  15.693  69.351  1.00  0.00    -0.349 A  
HETATM   10  C   UNL     1     -12.118  12.883  69.679  1.00  0.00    -0.290 A  
ENDROOT
BRANCH   4  11
HETATM   11  C   UNL     1     -10.656  16.092  66.136  1.00  0.00    -0.297 C  
HETATM   12  H   UNL     1     -10.078  17.861  65.675  1.00  0.00     0.000 HD 
HETATM   13  O   UNL     1     -10.262  15.887  64.975  1.00  0.00    -0.484 OA 
HETATM   14  N   UNL     1     -10.430  17.376  66.500  1.00  0.00    -0.301 N  
BRANCH  14  15
HETATM   15  C   UNL     1     -10.480  18.361  67.586  1.00  0.00    -0.419 C  
HETATM   16  C   UNL     1      -8.564  20.198  67.461  1.00  0.00    -0.336 C  
HETATM   17  C   UNL     1     -10.079  19.824  67.316  1.00  0.00    -0.549 C  
HETATM   18  C   UNL     1      -7.812  19.932  66.155  1.00  0.00    -0.340 C  
HETATM   19  C   UNL     1      -7.601  18.450  65.889  1.00  0.00    -0.167 C  
HETATM   20  C   UNL     1      -7.413  17.582  67.151  1.00  0.00    -0.218 C  
HETATM   21  C   UNL     1      -8.074  18.084  68.459  1.00  0.00    -0.298 C  
HETATM   22  N   UNL     1      -7.923  19.528  68.607  1.00  0.00    -0.358 NA 
HETATM   23  C   UNL     1      -9.573  17.800  68.695  1.00  0.00    -0.322 C  
HETATM   24  C   UNL     1      -6.524  19.905  68.842  1.00  0.00    -0.312 C  
ENDBRANCH  14  15
ENDBRANCH   4  11
TORSDOF 2
ENDMDL
MODEL        9
REMARK 921   NORMALIZED FREE ENERGY PREDICTED BY IDOCK:   -6.77 KCAL/MOL
REMARK 922        TOTAL FREE ENERGY PREDICTED BY IDOCK:   -8.28 KCAL/MOL
REMARK 923 INTER-LIGAND FREE ENERGY PREDICTED BY IDOCK:   -7.58 KCAL/MOL
REMARK 924 INTRA-LIGAND FREE ENERGY PREDICTED BY IDOCK:   -0.70 KCAL/MOL
REMARK 927      BINDING AFFINITY PREDICTED BY RF-SCORE:    0.00 PKD
ROOT
HETATM    1  C   UNL     1     -13.289  14.772  72.947  1.00  0.00    -0.484 C  
HETATM    2  N   UNL     1     -13.108  13.707  71.986  1.00  0.00    -0.385 NA 
HETATM    3  N   UNL     1     -13.451  12.470  72.327  1.00  0.00    -0.509 NA 
HETATM    4  C   UNL     1     -12.906  11.679  71.374  1.00  0.00    -0.356 A  
HETATM    5  C   UNL     1     -12.408  12.482  70.298  1.00  0.00    -0.265 A  
HETATM    6  C   UNL     1     -11.311  13.396  68.325  1.00  0.00    -0.330 A  
HETATM    7  C   UNL     1     -12.519  13.803  70.759  1.00  0.00    -0.370 A  
HETATM    8  C   UNL     1     -11.426  14.691  68.830  1.00  0.00    -0.323 A  
HETATM    9  C   UNL     1     -11.782  12.285  69.049  1.00  0.00    -0.376 A  
HETATM   10  C   UNL     1     -12.031  14.917  70.064  1.00  0.00    -0.377 A  
ENDROOT
BRANCH   4  11
HETATM   11  C   UNL     1     -12.774  10.268  71.743  1.00  0.00    -0.433 C  
HETATM   12  H   UNL     1     -12.039   8.500  71.854  1.00  0.00     0.000 HD 
HETATM   13  O   UNL     1     -13.731   9.676  72.272  1.00  0.00    -0.417 OA 
HETATM   14  N   UNL     1     -11.722   9.430  71.581  1.00  0.00    -0.381 N  
BRANCH  14  15
HETATM   15  C   UNL     1     -10.318   9.303  71.177  1.00  0.00    -0.322 C  
HETATM   16  C   UNL     1      -9.805   7.126  69.742  1.00  0.00    -0.173 C  
HETATM   17  C   UNL     1      -9.965   8.684  69.811  1.00  0.00    -0.190 C  
HETATM   18  C   UNL     1     -11.158   6.452  69.504  1.00  0.00    -0.460 C  
HETATM   19  C   UNL     1     -12.055   6.482  70.731  1.00  0.00    -0.286 C  
HETATM   20  C   UNL     1     -11.312   6.406  72.082  1.00  0.00    -0.332 C  
HETATM   21  C   UNL     1      -9.863   6.953  72.124  1.00  0.00    -0.147 C  
HETATM   22  N   UNL     1      -9.121   6.574  70.926  1.00  0.00    -0.154 NA 
HETATM   23  C   UNL     1      -9.643   8.473  72.282  1.00  0.00    -0.377 C  
HETATM   24  C   UNL     1      -8.869   5.128  70.878  1.00  0.00    -0.134 C  
ENDBRANCH  14  15
ENDBRANCH   4  11
TORSDOF 2
ENDMDL
MODEL       10
REMARK 921   NORMALIZED FREE ENERGY PREDICTED BY IDOCK:   -6.72 KCAL/MOL
REMARK 922        TOTAL FREE ENERGY PREDICTED BY IDOCK:   -8.23 KCAL/MOL
REMARK 923 INTER-LIGAND FREE ENERGY PREDICTED BY IDOCK:   -7.68 KCAL/MOL
REMARK 924 INTRA-LIGAND FREE ENERGY PREDICTED BY IDOCK:   -0.55 KCAL/MOL
REMARK 927      BINDING AFFINITY PREDICTED BY RF-SCORE:    0.00 PKD
ROOT
HETATM    1  C   UNL     1     -11.407  13.483  67.952  1.00  0.00    -0.289 C  
HETATM    2  N   UNL     1     -11.763  13.038  69.280  1.00  0.00    -0.304 NA 
HETATM    3  N   UNL     1     -11.541  11.771  69.614  1.00  0.00    -0.314 NA 
HETATM    4  C   UNL     1     -12.226  11.585  70.765  1.00  0.00    -0.363 A  
HETATM    5  C   UNL     1     -12.695  12.844  71.264  1.00  0.00    -0.371 A  
HETATM    6  C   UNL     1     -13.798  14.678  72.427  1.00  0.00    -0.580 A  
HETATM    7  C   UNL     1     -12.409  13.761  70.240  1.00  0.00    -0.337 A  
HETATM    8  C   UNL     1     -13.508  15.550  71.377  1.00  0.00    -0.583 A  
HETATM    9  C   UNL     1     -13.411  13.326  72.380  1.00  0.00    -0.670 A  
HETATM   10  C   UNL     1     -12.810  15.103  70.259  1.00  0.00    -0.284 A  
ENDROOT
BRANCH   4  11
HETATM   11  C   UNL     1     -12.494  10.187  71.108  1.00  0.00    -0.387 C  
HETATM   12  H   UNL     1     -12.167   8.350  71.552  1.00  0.00     0.000 HD 
HETATM   13  O   UNL     1     -13.651   9.741  71.017  1.00  0.00    -0.320 OA 
HETATM   14  N   UNL     1     -11.638   9.221  71.519  1.00  0.00    -0.356 N  
BRANCH  14  15
HETATM   15  C   UNL     1     -10.269   8.906  71.938  1.00  0.00    -0.333 C  
HETATM   16  C   UNL     1      -9.196   6.848  70.643  1.00  0.00    -0.158 C  
HETATM   17  C   UNL     1      -9.248   8.393  70.904  1.00  0.00    -0.192 C  
HETATM   18  C   UNL     1     -10.218   6.442  69.581  1.00  0.00    -0.229 C  
HETATM   19  C   UNL     1     -11.649   6.484  70.093  1.00  0.00    -0.466 C  
HETATM   20  C   UNL     1     -11.816   6.135  71.587  1.00  0.00    -0.241 C  
HETATM   21  C   UNL     1     -10.613   6.423  72.519  1.00  0.00    -0.214 C  
HETATM   22  N   UNL     1      -9.351   6.061  71.881  1.00  0.00    -0.151 NA 
HETATM   23  C   UNL     1     -10.408   7.857  73.053  1.00  0.00    -0.401 C  
HETATM   24  C   UNL     1      -9.227   4.608  71.710  1.00  0.00    -0.137 C  
ENDBRANCH  14  15
ENDBRANCH   4  11
TORSDOF 2
ENDMDL
MODEL       11
REMARK 921   NORMALIZED FREE ENERGY PREDICTED BY IDOCK:   -6.71 KCAL/MOL
REMARK 922        TOTAL FREE ENERGY PREDICTED BY IDOCK:   -8.22 KCAL/MOL
REMARK 923 INTER-LIGAND FREE ENERGY PREDICTED BY IDOCK:   -7.51 KCAL/MOL
REMARK 924 INTRA-LIGAND FREE ENERGY PREDICTED BY IDOCK:   -0.71 KCAL/MOL
REMARK 927      BINDING AFFINITY PREDICTED BY RF-SCORE:    0.00 PKD
ROOT
HETATM    1  C   UNL     1      -6.758  16.814  69.334  1.00  0.00    -0.226 C  
HETATM    2  N   UNL     1      -8.101  17.179  68.944  1.00  0.00    -0.240 NA 
HETATM    3  N   UNL     1      -9.067  16.271  69.042  1.00  0.00    -0.255 NA 
HETATM    4  C   UNL     1     -10.107  16.788  68.348  1.00  0.00    -0.285 A  
HETATM    5  C   UNL     1      -9.838  18.154  68.010  1.00  0.00    -0.331 A  
HETATM    6  C   UNL     1      -9.795  20.413  67.100  1.00  0.00    -0.601 A  
HETATM    7  C   UNL     1      -8.499  18.355  68.378  1.00  0.00    -0.326 A  
HETATM    8  C   UNL     1      -8.458  20.562  67.468  1.00  0.00    -0.316 A  
HETATM    9  C   UNL     1     -10.492  19.216  67.351  1.00  0.00    -0.552 A  
HETATM   10  C   UNL     1      -7.783  19.529  68.112  1.00  0.00    -0.341 A  
ENDROOT
BRANCH   4  11
HETATM   11  C   UNL     1     -11.126  15.817  67.945  1.00  0.00    -0.326 C  
HETATM   12  H   UNL     1     -12.302  14.809  66.815  1.00  0.00     0.000 HD 
HETATM   13  O   UNL     1     -11.820  15.256  68.812  1.00  0.00    -0.338 OA 
HETATM   14  N   UNL     1     -11.483  15.406  66.705  1.00  0.00    -0.133 N  
BRANCH  14  15
HETATM   15  C   UNL     1     -11.182  15.461  65.271  1.00  0.00    -0.310 C  
HETATM   16  C   UNL     1     -11.922  13.289  63.932  1.00  0.00    -0.483 C  
HETATM   17  C   UNL     1     -12.141  14.806  64.259  1.00  0.00    -0.415 C  
HETATM   18  C   UNL     1     -12.659  12.405  64.941  1.00  0.00    -0.372 C  
HETATM   19  C   UNL     1     -11.990  12.388  66.307  1.00  0.00    -0.369 C  
HETATM   20  C   UNL     1     -10.453  12.521  66.281  1.00  0.00    -0.268 C  
HETATM   21  C   UNL     1      -9.829  13.280  65.084  1.00  0.00    -0.054 C  
HETATM   22  N   UNL     1     -10.495  12.932  63.832  1.00  0.00    -0.383 NA 
HETATM   23  C   UNL     1      -9.791  14.823  65.115  1.00  0.00    -0.164 C  
HETATM   24  C   UNL     1     -10.230  11.540  63.446  1.00  0.00    -0.420 C  
ENDBRANCH  14  15
ENDBRANCH   4  11
TORSDOF 2
ENDMDL
MODEL       12
REMARK 921   NORMALIZED FREE ENERGY PREDICTED BY IDOCK:   -6.69 KCAL/MOL
REMARK 922        TOTAL FREE ENERGY PREDICTED BY IDOCK:   -8.20 KCAL/MOL
REMARK 923 INTER-LIGAND FREE ENERGY PREDICTED BY IDOCK:   -7.75 KCAL/MOL
REMARK 924 INTRA-LIGAND FREE ENERGY PREDICTED BY IDOCK:   -0.45 KCAL/MOL
REMARK 927      BINDING AFFINITY PREDICTED BY RF-SCORE:    0.00 PKD
ROOT
HETATM    1  C   UNL     1     -10.841  11.857  66.980  1.00  0.00    -0.259 C  
HETATM    2  N   UNL     1     -11.384  12.727  67.999  1.00  0.00    -0.271 NA 
HETATM    3  N   UNL     1     -11.315  14.042  67.825  1.00  0.00    -0.288 NA 
HETATM    4  C   UNL     1     -11.618  14.574  69.031  1.00  0.00    -0.298 A  
HETATM    5  C   UNL     1     -12.108  13.552  69.907  1.00  0.00    -0.408 A  
HETATM    6  C   UNL     1     -12.859  12.182  71.775  1.00  0.00    -0.367 A  
HETATM    7  C   UNL     1     -11.895  12.353  69.207  1.00  0.00    -0.304 A  
HETATM    8  C   UNL     1     -12.616  11.015  71.050  1.00  0.00    -0.512 A  
HETATM    9  C   UNL     1     -12.599  13.450  71.225  1.00  0.00    -0.411 A  
HETATM   10  C   UNL     1     -12.124  11.081  69.749  1.00  0.00    -0.424 A  
ENDROOT
BRANCH   4  11
HETATM   11  C   UNL     1     -11.201  15.965  69.217  1.00  0.00    -0.335 C  
HETATM   12  H   UNL     1     -10.469  17.692  68.817  1.00  0.00     0.000 HD 
HETATM   13  O   UNL     1     -11.190  16.458  70.359  1.00  0.00    -0.378 OA 
HETATM   14  N   UNL     1     -10.778  16.868  68.301  1.00  0.00    -0.368 N  
BRANCH  14  15
HETATM   15  C   UNL     1     -10.579  17.156  66.877  1.00  0.00    -0.209 C  
HETATM   16  C   UNL     1      -8.042  17.576  66.208  1.00  0.00    -0.254 C  
HETATM   17  C   UNL     1      -9.310  16.655  66.162  1.00  0.00    -0.318 C  
HETATM   18  C   UNL     1      -7.225  17.311  67.474  1.00  0.00    -0.180 C  
HETATM   19  C   UNL     1      -7.887  17.861  68.728  1.00  0.00    -0.258 C  
HETATM   20  C   UNL     1      -8.705  19.153  68.519  1.00  0.00    -0.401 C  
HETATM   21  C   UNL     1      -9.314  19.384  67.113  1.00  0.00    -0.320 C  
HETATM   22  N   UNL     1      -8.375  19.005  66.062  1.00  0.00    -0.473 NA 
HETATM   23  C   UNL     1     -10.643  18.687  66.751  1.00  0.00    -0.422 C  
HETATM   24  C   UNL     1      -7.219  19.909  66.015  1.00  0.00    -0.298 C  
ENDBRANCH  14  15
ENDBRANCH   4  11
TORSDOF 2
ENDMDL
MODEL       13
REMARK 921   NORMALIZED FREE ENERGY PREDICTED BY IDOCK:   -6.67 KCAL/MOL
REMARK 922        TOTAL FREE ENERGY PREDICTED BY IDOCK:   -8.17 KCAL/MOL
REMARK 923 INTER-LIGAND FREE ENERGY PREDICTED BY IDOCK:   -7.28 KCAL/MOL
REMARK 924 INTRA-LIGAND FREE ENERGY PREDICTED BY IDOCK:   -0.89 KCAL/MOL
REMARK 927      BINDING AFFINITY PREDICTED BY RF-SCORE:    0.00 PKD
ROOT
HETATM    1  C   UNL     1      -6.631  16.692  68.764  1.00  0.00    -0.169 C  
HETATM    2  N   UNL     1      -8.047  16.976  68.709  1.00  0.00    -0.260 NA 
HETATM    3  N   UNL     1      -8.893  16.144  69.307  1.00  0.00    -0.232 NA 
HETATM    4  C   UNL     1     -10.116  16.493  68.845  1.00  0.00    -0.266 A  
HETATM    5  C   UNL     1     -10.030  17.725  68.118  1.00  0.00    -0.342 A  
HETATM    6  C   UNL     1     -10.374  19.683  66.711  1.00  0.00    -0.591 A  
HETATM    7  C   UNL     1      -8.654  17.982  68.015  1.00  0.00    -0.264 A  
HETATM    8  C   UNL     1      -8.997  19.890  66.621  1.00  0.00    -0.452 A  
HETATM    9  C   UNL     1     -10.903  18.603  67.441  1.00  0.00    -0.381 A  
HETATM   10  C   UNL     1      -8.110  19.036  67.271  1.00  0.00    -0.281 A  
ENDROOT
BRANCH   4  11
HETATM   11  C   UNL     1     -11.155  15.475  69.012  1.00  0.00    -0.267 C  
HETATM   12  H   UNL     1     -12.098  13.818  68.806  1.00  0.00     0.000 HD 
HETATM   13  O   UNL     1     -12.223  15.772  69.575  1.00  0.00    -0.325 OA 
HETATM   14  N   UNL     1     -11.164  14.180  68.617  1.00  0.00    -0.252 N  
BRANCH  14  15
HETATM   15  C   UNL     1     -10.390  13.081  68.030  1.00  0.00    -0.234 C  
HETATM   16  C   UNL     1      -9.799  13.434  65.463  1.00  0.00    -0.137 C  
HETATM   17  C   UNL     1      -9.326  13.378  66.957  1.00  0.00    -0.243 C  
HETATM   18  C   UNL     1     -10.302  14.833  65.105  1.00  0.00    -0.439 C  
HETATM   19  C   UNL     1     -11.652  15.151  65.728  1.00  0.00    -0.097 C  
HETATM   20  C   UNL     1     -12.597  13.941  65.887  1.00  0.00    -0.498 C  
HETATM   21  C   UNL     1     -11.939  12.546  66.045  1.00  0.00    -0.392 C  
HETATM   22  N   UNL     1     -10.798  12.396  65.148  1.00  0.00    -0.288 NA 
HETATM   23  C   UNL     1     -11.430  12.115  67.437  1.00  0.00    -0.415 C  
HETATM   24  C   UNL     1     -11.216  12.347  63.741  1.00  0.00    -0.453 C  
ENDBRANCH  14  15
ENDBRANCH   4  11
TORSDOF 2
ENDMDL
MODEL       14
REMARK 921   NORMALIZED FREE ENERGY PREDICTED BY IDOCK:   -6.64 KCAL/MOL
REMARK 922        TOTAL FREE ENERGY PREDICTED BY IDOCK:   -8.14 KCAL/MOL
REMARK 923 INTER-LIGAND FREE ENERGY PREDICTED BY IDOCK:   -7.41 KCAL/MOL
REMARK 924 INTRA-LIGAND FREE ENERGY PREDICTED BY IDOCK:   -0.73 KCAL/MOL
REMARK 927      BINDING AFFINITY PREDICTED BY RF-SCORE:    0.00 PKD
ROOT
HETATM    1  C   UNL     1      -9.469  10.905  62.875  1.00  0.00    -0.355 C  
HETATM    2  N   UNL     1     -10.306  11.177  64.022  1.00  0.00    -0.348 NA 
HETATM    3  N   UNL     1     -11.141  12.210  63.978  1.00  0.00    -0.351 NA 
HETATM    4  C   UNL     1     -11.552  12.385  65.254  1.00  0.00    -0.373 A  
HETATM    5  C   UNL     1     -11.128  11.279  66.060  1.00  0.00    -0.181 A  
HETATM    6  C   UNL     1     -10.537   9.722  67.838  1.00  0.00    -0.310 A  
HETATM    7  C   UNL     1     -10.278  10.536  65.226  1.00  0.00    -0.282 A  
HETATM    8  C   UNL     1      -9.689   9.024  66.978  1.00  0.00    -0.247 A  
HETATM    9  C   UNL     1     -11.249  10.854  67.400  1.00  0.00    -0.345 A  
HETATM   10  C   UNL     1      -9.541   9.423  65.652  1.00  0.00    -0.345 A  
ENDROOT
BRANCH   4  11
HETATM   11  C   UNL     1     -12.129  13.699  65.544  1.00  0.00    -0.411 C  
HETATM   12  H   UNL     1     -12.675  15.242  66.544  1.00  0.00     0.000 HD 
HETATM   13  O   UNL     1     -12.810  14.278  64.680  1.00  0.00    -0.658 OA 
HETATM   14  N   UNL     1     -12.059  14.440  66.676  1.00  0.00    -0.407 N  
BRANCH  14  15
HETATM   15  C   UNL     1     -11.469  14.569  68.012  1.00  0.00    -0.321 C  
HETATM   16  C   UNL     1     -10.434  16.967  68.503  1.00  0.00    -0.361 C  
HETATM   17  C   UNL     1     -11.560  15.909  68.766  1.00  0.00    -0.389 C  
HETATM   18  C   UNL     1     -10.772  17.827  67.284  1.00  0.00    -0.249 C  
HETATM   19  C   UNL     1     -10.616  17.075  65.971  1.00  0.00    -0.208 C  
HETATM   20  C   UNL     1      -9.496  16.014  65.957  1.00  0.00    -0.384 C  
HETATM   21  C   UNL     1      -9.122  15.363  67.313  1.00  0.00    -0.206 C  
HETATM   22  N   UNL     1      -9.098  16.353  68.385  1.00  0.00    -0.207 NA 
HETATM   23  C   UNL     1      -9.985  14.199  67.846  1.00  0.00    -0.231 C  
HETATM   24  C   UNL     1      -7.992  17.304  68.220  1.00  0.00    -0.244 C  
ENDBRANCH  14  15
ENDBRANCH   4  11
TORSDOF 2
ENDMDL
MODEL       15
REMARK 921   NORMALIZED FREE ENERGY PREDICTED BY IDOCK:   -6.61 KCAL/MOL
REMARK 922        TOTAL FREE ENERGY PREDICTED BY IDOCK:   -8.11 KCAL/MOL
REMARK 923 INTER-LIGAND FREE ENERGY PREDICTED BY IDOCK:   -7.38 KCAL/MOL
REMARK 924 INTRA-LIGAND FREE ENERGY PREDICTED BY IDOCK:   -0.72 KCAL/MOL
REMARK 927      BINDING AFFINITY PREDICTED BY RF-SCORE:    0.00 PKD
ROOT
HETATM    1  C   UNL     1     -11.285  10.384  68.046  1.00  0.00    -0.272 C  
HETATM    2  N   UNL     1     -11.559  11.800  68.141  1.00  0.00    -0.360 NA 
HETATM    3  N   UNL     1     -11.292  12.578  67.097  1.00  0.00    -0.304 NA 
HETATM    4  C   UNL     1     -11.366  13.842  67.572  1.00  0.00    -0.318 A  
HETATM    5  C   UNL     1     -11.918  13.837  68.894  1.00  0.00    -0.394 A  
HETATM    6  C   UNL     1     -12.672  14.330  71.157  1.00  0.00    -0.430 A  
HETATM    7  C   UNL     1     -11.987  12.479  69.245  1.00  0.00    -0.250 A  
HETATM    8  C   UNL     1     -12.709  12.970  71.468  1.00  0.00    -0.349 A  
HETATM    9  C   UNL     1     -12.268  14.777  69.886  1.00  0.00    -0.358 A  
HETATM   10  C   UNL     1     -12.361  12.018  70.513  1.00  0.00    -0.369 A  
ENDROOT
BRANCH   4  11
HETATM   11  C   UNL     1     -10.705  14.854  66.745  1.00  0.00    -0.312 C  
HETATM   12  H   UNL     1     -10.130  16.576  66.128  1.00  0.00     0.000 HD 
HETATM   13  O   UNL     1     -10.219  14.531  65.647  1.00  0.00    -0.317 OA 
HETATM   14  N   UNL     1     -10.534  16.177  66.975  1.00  0.00    -0.306 N  
BRANCH  14  15
HETATM   15  C   UNL     1     -10.687  17.276  67.934  1.00  0.00    -0.351 C  
HETATM   16  C   UNL     1      -9.032  19.312  67.511  1.00  0.00    -0.298 C  
HETATM   17  C   UNL     1     -10.488  18.732  67.473  1.00  0.00    -0.495 C  
HETATM   18  C   UNL     1      -8.283  18.982  66.219  1.00  0.00    -0.294 C  
HETATM   19  C   UNL     1      -7.886  17.517  66.126  1.00  0.00    -0.281 C  
HETATM   20  C   UNL     1      -7.556  16.845  67.476  1.00  0.00    -0.184 C  
HETATM   21  C   UNL     1      -8.246  17.419  68.739  1.00  0.00    -0.226 C  
HETATM   22  N   UNL     1      -8.282  18.878  68.704  1.00  0.00    -0.348 NA 
HETATM   23  C   UNL     1      -9.689  16.979  69.067  1.00  0.00    -0.216 C  
HETATM   24  C   UNL     1      -6.939  19.456  68.836  1.00  0.00    -0.349 C  
ENDBRANCH  14  15
ENDBRANCH   4  11
TORSDOF 2
ENDMDL
MODEL       16
REMARK 921   NORMALIZED FREE ENERGY PREDICTED BY IDOCK:   -6.60 KCAL/MOL
REMARK 922        TOTAL FREE ENERGY PREDICTED BY IDOCK:   -8.09 KCAL/MOL
REMARK 923 INTER-LIGAND FREE ENERGY PREDICTED BY IDOCK:   -7.08 KCAL/MOL
REMARK 924 INTRA-LIGAND FREE ENERGY PREDICTED BY IDOCK:   -1.01 KCAL/MOL
REMARK 927      BINDING AFFINITY PREDICTED BY RF-SCORE:    0.00 PKD
ROOT
HETATM    1  C   UNL     1     -10.892   9.787  67.268  1.00  0.00    -0.177 C  
HETATM    2  N   UNL     1     -11.339  11.151  67.441  1.00  0.00    -0.453 NA 
HETATM    3  N   UNL     1     -11.285  11.981  66.404  1.00  0.00    -0.322 NA 
HETATM    4  C   UNL     1     -11.477  13.212  66.929  1.00  0.00    -0.341 A  
HETATM    5  C   UNL     1     -11.887  13.102  68.298  1.00  0.00    -0.384 A  
HETATM    6  C   UNL     1     -12.467  13.437  70.639  1.00  0.00    -0.385 A  
HETATM    7  C   UNL     1     -11.740  11.740  68.604  1.00  0.00    -0.330 A  
HETATM    8  C   UNL     1     -12.292  12.078  70.903  1.00  0.00    -0.384 A  
HETATM    9  C   UNL     1     -12.256  13.964  69.352  1.00  0.00    -0.338 A  
HETATM   10  C   UNL     1     -11.919  11.203  69.886  1.00  0.00    -0.439 A  
ENDROOT
BRANCH   4  11
HETATM   11  C   UNL     1     -11.043  14.323  66.079  1.00  0.00    -0.319 C  
HETATM   12  H   UNL     1     -10.019  15.823  65.465  1.00  0.00     0.000 HD 
HETATM   13  O   UNL     1     -11.765  14.698  65.139  1.00  0.00    -0.357 OA 
HETATM   14  N   UNL     1      -9.920  15.077  66.153  1.00  0.00    -0.273 N  
BRANCH  14  15
HETATM   15  C   UNL     1      -8.623  15.268  66.809  1.00  0.00    -0.265 C  
HETATM   16  C   UNL     1      -8.747  16.712  69.036  1.00  0.00    -0.193 C  
HETATM   17  C   UNL     1      -8.540  15.320  68.347  1.00  0.00    -0.160 C  
HETATM   18  C   UNL     1     -10.233  16.983  69.279  1.00  0.00    -0.246 C  
HETATM   19  C   UNL     1     -10.990  17.306  68.000  1.00  0.00    -0.194 C  
HETATM   20  C   UNL     1     -10.169  18.059  66.931  1.00  0.00    -0.366 C  
HETATM   21  C   UNL     1      -8.636  17.838  66.932  1.00  0.00    -0.244 C  
HETATM   22  N   UNL     1      -8.106  17.813  68.292  1.00  0.00    -0.274 NA 
HETATM   23  C   UNL     1      -8.062  16.582  66.242  1.00  0.00    -0.341 C  
HETATM   24  C   UNL     1      -8.196  19.130  68.934  1.00  0.00    -0.295 C  
ENDBRANCH  14  15
ENDBRANCH   4  11
TORSDOF 2
ENDMDL
MODEL       17
REMARK 921   NORMALIZED FREE ENERGY PREDICTED BY IDOCK:   -6.53 KCAL/MOL
REMARK 922        TOTAL FREE ENERGY PREDICTED BY IDOCK:   -8.01 KCAL/MOL
REMARK 923 INTER-LIGAND FREE ENERGY PREDICTED BY IDOCK:   -7.30 KCAL/MOL
REMARK 924 INTRA-LIGAND FREE ENERGY PREDICTED BY IDOCK:   -0.71 KCAL/MOL
REMARK 927      BINDING AFFINITY PREDICTED BY RF-SCORE:    0.00 PKD
ROOT
HETATM    1  C   UNL     1     -12.253  15.470  71.210  1.00  0.00    -0.390 C  
HETATM    2  N   UNL     1     -12.319  14.172  70.576  1.00  0.00    -0.342 NA 
HETATM    3  N   UNL     1     -12.727  13.128  71.290  1.00  0.00    -0.352 NA 
HETATM    4  C   UNL     1     -12.408  12.046  70.545  1.00  0.00    -0.282 A  
HETATM    5  C   UNL     1     -11.999  12.457  69.235  1.00  0.00    -0.308 A  
HETATM    6  C   UNL     1     -11.122  12.655  66.971  1.00  0.00    -0.322 A  
HETATM    7  C   UNL     1     -11.912  13.857  69.313  1.00  0.00    -0.357 A  
HETATM    8  C   UNL     1     -11.035  14.042  67.099  1.00  0.00    -0.303 A  
HETATM    9  C   UNL     1     -11.586  11.852  68.029  1.00  0.00    -0.401 A  
HETATM   10  C   UNL     1     -11.427  14.668  68.280  1.00  0.00    -0.337 A  
ENDROOT
BRANCH   4  11
HETATM   11  C   UNL     1     -12.359  10.780  71.280  1.00  0.00    -0.365 C  
HETATM   12  H   UNL     1     -11.790   9.025  71.801  1.00  0.00     0.000 HD 
HETATM   13  O   UNL     1     -13.280  10.486  72.062  1.00  0.00    -0.464 OA 
HETATM   14  N   UNL     1     -11.429   9.797  71.241  1.00  0.00    -0.379 N  
BRANCH  14  15
HETATM   15  C   UNL     1     -10.120   9.379  70.730  1.00  0.00    -0.298 C  
HETATM   16  C   UNL     1     -10.074   6.892  69.795  1.00  0.00    -0.184 C  
HETATM   17  C   UNL     1     -10.034   8.434  69.516  1.00  0.00    -0.190 C  
HETATM   18  C   UNL     1     -11.518   6.390  69.866  1.00  0.00    -0.483 C  
HETATM   19  C   UNL     1     -12.227   6.817  71.142  1.00  0.00    -0.413 C  
HETATM   20  C   UNL     1     -11.320   6.926  72.386  1.00  0.00    -0.308 C  
HETATM   21  C   UNL     1      -9.824   7.248  72.144  1.00  0.00    -0.160 C  
HETATM   22  N   UNL     1      -9.304   6.514  70.994  1.00  0.00    -0.160 NA 
HETATM   23  C   UNL     1      -9.403   8.717  71.919  1.00  0.00    -0.357 C  
HETATM   24  C   UNL     1      -9.237   5.071  71.258  1.00  0.00    -0.145 C  
ENDBRANCH  14  15
ENDBRANCH   4  11
TORSDOF 2
ENDMDL
MODEL       18
REMARK 921   NORMALIZED FREE ENERGY PREDICTED BY IDOCK:   -6.52 KCAL/MOL
REMARK 922        TOTAL FREE ENERGY PREDICTED BY IDOCK:   -8.01 KCAL/MOL
REMARK 923 INTER-LIGAND FREE ENERGY PREDICTED BY IDOCK:   -7.25 KCAL/MOL
REMARK 924 INTRA-LIGAND FREE ENERGY PREDICTED BY IDOCK:   -0.76 KCAL/MOL
REMARK 927      BINDING AFFINITY PREDICTED BY RF-SCORE:    0.00 PKD
ROOT
HETATM    1  C   UNL     1     -11.307   9.473  70.347  1.00  0.00    -0.264 C  
HETATM    2  N   UNL     1     -11.533  10.843  69.944  1.00  0.00    -0.296 NA 
HETATM    3  N   UNL     1     -10.925  11.301  68.855  1.00  0.00    -0.208 NA 
HETATM    4  C   UNL     1     -11.083  12.643  68.901  1.00  0.00    -0.259 A  
HETATM    5  C   UNL     1     -12.013  12.991  69.934  1.00  0.00    -0.381 A  
HETATM    6  C   UNL     1     -13.401  14.075  71.616  1.00  0.00    -0.442 A  
HETATM    7  C   UNL     1     -12.247  11.788  70.620  1.00  0.00    -0.349 A  
HETATM    8  C   UNL     1     -13.593  12.861  72.277  1.00  0.00    -0.611 A  
HETATM    9  C   UNL     1     -12.608  14.158  70.457  1.00  0.00    -0.410 A  
HETATM   10  C   UNL     1     -13.013  11.693  71.790  1.00  0.00    -0.483 A  
ENDROOT
BRANCH   4  11
HETATM   11  C   UNL     1     -10.156  13.406  68.062  1.00  0.00    -0.241 C  
HETATM   12  H   UNL     1      -9.078  14.865  67.442  1.00  0.00     0.000 HD 
HETATM   13  O   UNL     1      -9.827  12.963  66.948  1.00  0.00    -0.224 OA 
HETATM   14  N   UNL     1      -9.565  14.601  68.298  1.00  0.00    -0.202 N  
BRANCH  14  15
HETATM   15  C   UNL     1      -9.335  15.675  69.270  1.00  0.00    -0.267 C  
HETATM   16  C   UNL     1     -10.018  18.087  68.390  1.00  0.00    -0.378 C  
HETATM   17  C   UNL     1     -10.303  16.871  69.337  1.00  0.00    -0.250 C  
HETATM   18  C   UNL     1     -10.658  17.868  67.018  1.00  0.00    -0.287 C  
HETATM   19  C   UNL     1      -9.927  16.824  66.187  1.00  0.00    -0.345 C  
HETATM   20  C   UNL     1      -8.402  16.762  66.415  1.00  0.00    -0.344 C  
HETATM   21  C   UNL     1      -7.876  17.206  67.803  1.00  0.00    -0.182 C  
HETATM   22  N   UNL     1      -8.580  18.394  68.280  1.00  0.00    -0.296 NA 
HETATM   23  C   UNL     1      -7.921  16.203  68.976  1.00  0.00    -0.236 C  
HETATM   24  C   UNL     1      -8.259  19.575  67.470  1.00  0.00    -0.293 C  
ENDBRANCH  14  15
ENDBRANCH   4  11
TORSDOF 2
ENDMDL
MODEL       19
REMARK 921   NORMALIZED FREE ENERGY PREDICTED BY IDOCK:   -6.52 KCAL/MOL
REMARK 922        TOTAL FREE ENERGY PREDICTED BY IDOCK:   -8.00 KCAL/MOL
REMARK 923 INTER-LIGAND FREE ENERGY PREDICTED BY IDOCK:   -7.20 KCAL/MOL
REMARK 924 INTRA-LIGAND FREE ENERGY PREDICTED BY IDOCK:   -0.80 KCAL/MOL
REMARK 927      BINDING AFFINITY PREDICTED BY RF-SCORE:    0.00 PKD
ROOT
HETATM    1  C   UNL     1      -6.325  20.811  64.741  1.00  0.00    -0.270 C  
HETATM    2  N   UNL     1      -6.931  20.029  65.794  1.00  0.00    -0.280 NA 
HETATM    3  N   UNL     1      -7.924  19.201  65.489  1.00  0.00    -0.287 NA 
HETATM    4  C   UNL     1      -8.467  18.849  66.677  1.00  0.00    -0.302 A  
HETATM    5  C   UNL     1      -7.632  19.300  67.749  1.00  0.00    -0.292 A  
HETATM    6  C   UNL     1      -6.640  19.960  69.874  1.00  0.00    -0.329 A  
HETATM    7  C   UNL     1      -6.663  20.107  67.130  1.00  0.00    -0.227 A  
HETATM    8  C   UNL     1      -5.707  20.763  69.217  1.00  0.00    -0.390 A  
HETATM    9  C   UNL     1      -7.612  19.237  69.158  1.00  0.00    -0.297 A  
HETATM   10  C   UNL     1      -5.706  20.854  67.828  1.00  0.00    -0.340 A  
ENDROOT
BRANCH   4  11
HETATM   11  C   UNL     1      -9.821  18.295  66.599  1.00  0.00    -0.352 C  
HETATM   12  H   UNL     1     -11.332  17.182  66.988  1.00  0.00     0.000 HD 
HETATM   13  O   UNL     1     -10.566  18.619  65.658  1.00  0.00    -0.610 OA 
HETATM   14  N   UNL     1     -10.441  17.417  67.423  1.00  0.00    -0.345 N  
BRANCH  14  15
HETATM   15  C   UNL     1     -10.365  16.664  68.679  1.00  0.00    -0.304 C  
HETATM   16  C   UNL     1      -9.276  14.253  68.423  1.00  0.00    -0.196 C  
HETATM   17  C   UNL     1      -9.170  15.728  68.943  1.00  0.00    -0.227 C  
HETATM   18  C   UNL     1      -8.811  14.155  66.969  1.00  0.00    -0.237 C  
HETATM   19  C   UNL     1      -9.806  14.758  65.990  1.00  0.00    -0.350 C  
HETATM   20  C   UNL     1     -11.288  14.624  66.402  1.00  0.00    -0.348 C  
HETATM   21  C   UNL     1     -11.594  14.535  67.918  1.00  0.00    -0.344 C  
HETATM   22  N   UNL     1     -10.626  13.686  68.605  1.00  0.00    -0.248 NA 
HETATM   23  C   UNL     1     -11.660  15.837  68.744  1.00  0.00    -0.401 C  
HETATM   24  C   UNL     1     -10.763  12.278  68.211  1.00  0.00    -0.221 C  
ENDBRANCH  14  15
ENDBRANCH   4  11
TORSDOF 2
ENDMDL
MODEL       20
REMARK 921   NORMALIZED FREE ENERGY PREDICTED BY IDOCK:   -6.51 KCAL/MOL
REMARK 922        TOTAL FREE ENERGY PREDICTED BY IDOCK:   -7.99 KCAL/MOL
REMARK 923 INTER-LIGAND FREE ENERGY PREDICTED BY IDOCK:   -7.34 KCAL/MOL
REMARK 924 INTRA-LIGAND FREE ENERGY PREDICTED BY IDOCK:   -0.65 KCAL/MOL
REMARK 927      BINDING AFFINITY PREDICTED BY RF-SCORE:    0.00 PKD
ROOT
HETATM    1  C   UNL     1     -12.185  13.635  65.903  1.00  0.00    -0.461 C  
HETATM    2  N   UNL     1     -11.809  12.389  66.532  1.00  0.00    -0.563 NA 
HETATM    3  N   UNL     1     -12.157  12.178  67.797  1.00  0.00    -0.471 NA 
HETATM    4  C   UNL     1     -11.435  11.102  68.185  1.00  0.00    -0.303 A  
HETATM    5  C   UNL     1     -10.799  10.503  67.049  1.00  0.00    -0.288 A  
HETATM    6  C   UNL     1      -9.431   9.229  65.488  1.00  0.00    -0.309 A  
HETATM    7  C   UNL     1     -11.033  11.403  65.997  1.00  0.00    -0.226 A  
HETATM    8  C   UNL     1      -9.676  10.157  64.476  1.00  0.00    -0.361 A  
HETATM    9  C   UNL     1      -9.972   9.394  66.777  1.00  0.00    -0.305 A  
HETATM   10  C   UNL     1     -10.481  11.267  64.716  1.00  0.00    -0.384 A  
ENDROOT
BRANCH   4  11
HETATM   11  C   UNL     1     -11.311  10.929  69.634  1.00  0.00    -0.292 C  
HETATM   12  H   UNL     1     -10.873  10.122  71.317  1.00  0.00     0.000 HD 
HETATM   13  O   UNL     1     -11.895  11.714  70.400  1.00  0.00    -0.343 OA 
HETATM   14  N   UNL     1     -10.636   9.987  70.335  1.00  0.00    -0.297 N  
BRANCH  14  15
HETATM   15  C   UNL     1      -9.708   8.853  70.270  1.00  0.00    -0.185 C  
HETATM   16  C   UNL     1     -10.872   6.490  70.619  1.00  0.00    -0.266 C  
HETATM   17  C   UNL     1     -10.171   7.515  69.663  1.00  0.00    -0.205 C  
HETATM   18  C   UNL     1     -12.373   6.770  70.709  1.00  0.00    -0.289 C  
HETATM   19  C   UNL     1     -12.692   8.014  71.523  1.00  0.00    -0.325 C  
HETATM   20  C   UNL     1     -11.720   8.297  72.688  1.00  0.00    -0.406 C  
HETATM   21  C   UNL     1     -10.268   7.776  72.539  1.00  0.00    -0.260 C  
HETATM   22  N   UNL     1     -10.244   6.440  71.952  1.00  0.00    -0.194 NA 
HETATM   23  C   UNL     1      -9.257   8.605  71.719  1.00  0.00    -0.338 C  
HETATM   24  C   UNL     1     -10.806   5.436  72.865  1.00  0.00    -0.270 C  
ENDBRANCH  14  15
ENDBRANCH   4  11
TORSDOF 2
ENDMDL
MODEL       21
REMARK 921   NORMALIZED FREE ENERGY PREDICTED BY IDOCK:   -6.49 KCAL/MOL
REMARK 922        TOTAL FREE ENERGY PREDICTED BY IDOCK:   -7.97 KCAL/MOL
REMARK 923 INTER-LIGAND FREE ENERGY PREDICTED BY IDOCK:   -7.22 KCAL/MOL
REMARK 924 INTRA-LIGAND FREE ENERGY PREDICTED BY IDOCK:   -0.75 KCAL/MOL
REMARK 927      BINDING AFFINITY PREDICTED BY RF-SCORE:    0.00 PKD
ROOT
HETATM    1  C   UNL     1      -9.878   9.502  66.242  1.00  0.00    -0.266 C  
HETATM    2  N   UNL     1     -10.723  10.392  67.007  1.00  0.00    -0.256 NA 
HETATM    3  N   UNL     1     -11.198  11.487  66.423  1.00  0.00    -0.288 NA 
HETATM    4  C   UNL     1     -11.684  12.242  67.434  1.00  0.00    -0.335 A  
HETATM    5  C   UNL     1     -11.708  11.479  68.647  1.00  0.00    -0.389 A  
HETATM    6  C   UNL     1     -11.823  10.660  70.938  1.00  0.00    -0.433 A  
HETATM    7  C   UNL     1     -11.029  10.291  68.333  1.00  0.00    -0.260 A  
HETATM    8  C   UNL     1     -11.129   9.502  70.585  1.00  0.00    -0.364 A  
HETATM    9  C   UNL     1     -12.107  11.658  69.988  1.00  0.00    -0.395 A  
HETATM   10  C   UNL     1     -10.715   9.299  69.271  1.00  0.00    -0.211 A  
ENDROOT
BRANCH   4  11
HETATM   11  C   UNL     1     -11.870  13.659  67.115  1.00  0.00    -0.396 C  
HETATM   12  H   UNL     1     -11.862  15.565  67.324  1.00  0.00     0.000 HD 
HETATM   13  O   UNL     1     -12.514  13.983  66.102  1.00  0.00    -0.467 OA 
HETATM   14  N   UNL     1     -11.448  14.756  67.787  1.00  0.00    -0.333 N  
BRANCH  14  15
HETATM   15  C   UNL     1     -10.645  15.266  68.903  1.00  0.00    -0.242 C  
HETATM   16  C   UNL     1      -9.860  17.786  68.599  1.00  0.00    -0.359 C  
HETATM   17  C   UNL     1     -10.771  16.741  69.330  1.00  0.00    -0.324 C  
HETATM   18  C   UNL     1     -10.524  18.281  67.313  1.00  0.00    -0.419 C  
HETATM   19  C   UNL     1     -10.515  17.238  66.207  1.00  0.00    -0.268 C  
HETATM   20  C   UNL     1      -9.287  16.302  66.205  1.00  0.00    -0.374 C  
HETATM   21  C   UNL     1      -8.590  16.047  67.565  1.00  0.00    -0.178 C  
HETATM   22  N   UNL     1      -8.500  17.274  68.350  1.00  0.00    -0.247 NA 
HETATM   23  C   UNL     1      -9.182  14.989  68.520  1.00  0.00    -0.192 C  
HETATM   24  C   UNL     1      -7.576  18.240  67.742  1.00  0.00    -0.227 C  
ENDBRANCH  14  15
ENDBRANCH   4  11
TORSDOF 2
ENDMDL
MODEL       22
REMARK 921   NORMALIZED FREE ENERGY PREDICTED BY IDOCK:   -6.49 KCAL/MOL
REMARK 922        TOTAL FREE ENERGY PREDICTED BY IDOCK:   -7.97 KCAL/MOL
REMARK 923 INTER-LIGAND FREE ENERGY PREDICTED BY IDOCK:   -7.20 KCAL/MOL
REMARK 924 INTRA-LIGAND FREE ENERGY PREDICTED BY IDOCK:   -0.77 KCAL/MOL
REMARK 927      BINDING AFFINITY PREDICTED BY RF-SCORE:    0.00 PKD
ROOT
HETATM    1  C   UNL     1     -11.839  11.643  68.779  1.00  0.00    -0.325 C  
HETATM    2  N   UNL     1     -11.432  12.849  68.093  1.00  0.00    -0.292 NA 
HETATM    3  N   UNL     1     -11.029  13.891  68.812  1.00  0.00    -0.256 NA 
HETATM    4  C   UNL     1     -11.003  14.928  67.944  1.00  0.00    -0.286 A  
HETATM    5  C   UNL     1     -11.179  14.450  66.605  1.00  0.00    -0.340 A  
HETATM    6  C   UNL     1     -11.566  14.152  64.219  1.00  0.00    -0.327 A  
HETATM    7  C   UNL     1     -11.502  13.091  66.753  1.00  0.00    -0.345 A  
HETATM    8  C   UNL     1     -11.897  12.811  64.414  1.00  0.00    -0.446 A  
HETATM    9  C   UNL     1     -11.220  14.984  65.300  1.00  0.00    -0.368 A  
HETATM   10  C   UNL     1     -11.874  12.257  65.691  1.00  0.00    -0.423 A  
ENDROOT
BRANCH   4  11
HETATM   11  C   UNL     1     -11.009  16.255  68.564  1.00  0.00    -0.345 C  
HETATM   12  H   UNL     1     -10.730  18.140  68.779  1.00  0.00     0.000 HD 
HETATM   13  O   UNL     1     -11.281  16.370  69.772  1.00  0.00    -0.325 OA 
HETATM   14  N   UNL     1     -10.734  17.463  68.016  1.00  0.00    -0.390 N  
BRANCH  14  15
HETATM   15  C   UNL     1     -10.438  18.202  66.785  1.00  0.00    -0.348 C  
HETATM   16  C   UNL     1      -7.854  18.708  66.429  1.00  0.00    -0.283 C  
HETATM   17  C   UNL     1      -9.139  17.915  66.009  1.00  0.00    -0.018 C  
HETATM   18  C   UNL     1      -7.125  17.997  67.570  1.00  0.00    -0.201 C  
HETATM   19  C   UNL     1      -7.851  18.123  68.901  1.00  0.00    -0.204 C  
HETATM   20  C   UNL     1      -8.622  19.445  69.099  1.00  0.00    -0.148 C  
HETATM   21  C   UNL     1      -9.135  20.163  67.825  1.00  0.00    -0.298 C  
HETATM   22  N   UNL     1      -8.141  20.117  66.757  1.00  0.00    -0.312 NA 
HETATM   23  C   UNL     1     -10.455  19.689  67.182  1.00  0.00    -0.595 C  
HETATM   24  C   UNL     1      -6.962  20.931  67.078  1.00  0.00    -0.328 C  
ENDBRANCH  14  15
ENDBRANCH   4  11
TORSDOF 2
ENDMDL
MODEL       23
REMARK 921   NORMALIZED FREE ENERGY PREDICTED BY IDOCK:   -6.47 KCAL/MOL
REMARK 922        TOTAL FREE ENERGY PREDICTED BY IDOCK:   -7.95 KCAL/MOL
REMARK 923 INTER-LIGAND FREE ENERGY PREDICTED BY IDOCK:   -7.18 KCAL/MOL
REMARK 924 INTRA-LIGAND FREE ENERGY PREDICTED BY IDOCK:   -0.77 KCAL/MOL
REMARK 927      BINDING AFFINITY PREDICTED BY RF-SCORE:    0.00 PKD
ROOT
HETATM    1  C   UNL     1      -6.272  19.003  64.850  1.00  0.00    -0.243 C  
HETATM    2  N   UNL     1      -7.108  18.409  65.869  1.00  0.00    -0.386 NA 
HETATM    3  N   UNL     1      -6.965  17.117  66.143  1.00  0.00    -0.218 NA 
HETATM    4  C   UNL     1      -8.044  16.794  66.892  1.00  0.00    -0.211 A  
HETATM    5  C   UNL     1      -8.748  17.983  67.273  1.00  0.00    -0.243 A  
HETATM    6  C   UNL     1     -10.333  19.660  68.051  1.00  0.00    -0.579 A  
HETATM    7  C   UNL     1      -8.128  19.011  66.545  1.00  0.00    -0.289 A  
HETATM    8  C   UNL     1      -9.696  20.647  67.298  1.00  0.00    -0.562 A  
HETATM    9  C   UNL     1      -9.881  18.328  68.039  1.00  0.00    -0.343 A  
HETATM   10  C   UNL     1      -8.581  20.337  66.525  1.00  0.00    -0.269 A  
ENDROOT
BRANCH   4  11
HETATM   11  C   UNL     1      -8.344  15.363  66.962  1.00  0.00    -0.236 C  
HETATM   12  H   UNL     1      -9.363  13.744  67.094  1.00  0.00     0.000 HD 
HETATM   13  O   UNL     1      -7.420  14.546  67.122  1.00  0.00    -0.153 OA 
HETATM   14  N   UNL     1      -9.539  14.728  66.895  1.00  0.00    -0.232 N  
BRANCH  14  15
HETATM   15  C   UNL     1     -10.979  14.867  66.657  1.00  0.00    -0.325 C  
HETATM   16  C   UNL     1     -12.193  12.583  66.048  1.00  0.00    -0.190 C  
HETATM   17  C   UNL     1     -11.939  13.738  67.077  1.00  0.00    -0.452 C  
HETATM   18  C   UNL     1     -11.128  11.493  66.182  1.00  0.00    -0.302 C  
HETATM   19  C   UNL     1      -9.775  11.920  65.635  1.00  0.00    -0.248 C  
HETATM   20  C   UNL     1      -9.834  12.883  64.431  1.00  0.00    -0.025 C  
HETATM   21  C   UNL     1     -11.080  13.798  64.318  1.00  0.00    -0.283 C  
HETATM   22  N   UNL     1     -12.300  13.074  64.661  1.00  0.00    -0.496 NA 
HETATM   23  C   UNL     1     -11.127  15.101  65.144  1.00  0.00    -0.410 C  
HETATM   24  C   UNL     1     -12.620  12.046  63.663  1.00  0.00    -0.490 C  
ENDBRANCH  14  15
ENDBRANCH   4  11
TORSDOF 2
ENDMDL
MODEL       24
REMARK 921   NORMALIZED FREE ENERGY PREDICTED BY IDOCK:   -6.47 KCAL/MOL
REMARK 922        TOTAL FREE ENERGY PREDICTED BY IDOCK:   -7.95 KCAL/MOL
REMARK 923 INTER-LIGAND FREE ENERGY PREDICTED BY IDOCK:   -7.43 KCAL/MOL
REMARK 924 INTRA-LIGAND FREE ENERGY PREDICTED BY IDOCK:   -0.52 KCAL/MOL
REMARK 927      BINDING AFFINITY PREDICTED BY RF-SCORE:    0.00 PKD
ROOT
HETATM    1  C   UNL     1     -13.850   8.710  72.007  1.00  0.00    -0.440 C  
HETATM    2  N   UNL     1     -12.546   9.108  71.529  1.00  0.00    -0.328 NA 
HETATM    3  N   UNL     1     -12.465   9.905  70.468  1.00  0.00    -0.175 NA 
HETATM    4  C   UNL     1     -11.167   9.859  70.091  1.00  0.00    -0.289 A  
HETATM    5  C   UNL     1     -10.390   9.191  71.092  1.00  0.00    -0.387 A  
HETATM    6  C   UNL     1      -8.697   8.037  72.409  1.00  0.00    -0.224 A  
HETATM    7  C   UNL     1     -11.337   8.676  71.991  1.00  0.00    -0.362 A  
HETATM    8  C   UNL     1      -9.674   7.532  73.268  1.00  0.00    -0.326 A  
HETATM    9  C   UNL     1      -9.039   8.852  71.314  1.00  0.00    -0.323 A  
HETATM   10  C   UNL     1     -11.017   7.841  73.070  1.00  0.00    -0.442 A  
ENDROOT
BRANCH   4  11
HETATM   11  C   UNL     1     -10.905  10.300  68.719  1.00  0.00    -0.230 C  
HETATM   12  H   UNL     1     -10.721  11.469  67.210  1.00  0.00     0.000 HD 
HETATM   13  O   UNL     1     -10.772   9.455  67.816  1.00  0.00    -0.265 OA 
HETATM   14  N   UNL     1     -10.791  11.555  68.224  1.00  0.00    -0.202 N  
BRANCH  14  15
HETATM   15  C   UNL     1     -10.727  12.986  68.537  1.00  0.00    -0.255 C  
HETATM   16  C   UNL     1     -12.008  14.527  66.793  1.00  0.00    -0.342 C  
HETATM   17  C   UNL     1     -11.930  13.896  68.225  1.00  0.00    -0.392 C  
HETATM   18  C   UNL     1     -12.696  13.573  65.815  1.00  0.00    -0.433 C  
HETATM   19  C   UNL     1     -11.823  12.387  65.436  1.00  0.00    -0.460 C  
HETATM   20  C   UNL     1     -10.309  12.684  65.385  1.00  0.00    -0.311 C  
HETATM   21  C   UNL     1      -9.781  13.822  66.294  1.00  0.00    -0.284 C  
HETATM   22  N   UNL     1     -10.690  14.964  66.294  1.00  0.00    -0.312 NA 
HETATM   23  C   UNL     1      -9.498  13.520  67.782  1.00  0.00    -0.216 C  
HETATM   24  C   UNL     1     -10.714  15.639  64.991  1.00  0.00    -0.436 C  
ENDBRANCH  14  15
ENDBRANCH   4  11
TORSDOF 2
ENDMDL
MODEL       25
REMARK 921   NORMALIZED FREE ENERGY PREDICTED BY IDOCK:   -6.45 KCAL/MOL
REMARK 922        TOTAL FREE ENERGY PREDICTED BY IDOCK:   -7.93 KCAL/MOL
REMARK 923 INTER-LIGAND FREE ENERGY PREDICTED BY IDOCK:   -7.25 KCAL/MOL
REMARK 924 INTRA-LIGAND FREE ENERGY PREDICTED BY IDOCK:   -0.68 KCAL/MOL
REMARK 927      BINDING AFFINITY PREDICTED BY RF-SCORE:    0.00 PKD
ROOT
HETATM    1  C   UNL     1     -12.996  11.884  71.733  1.00  0.00    -0.350 C  
HETATM    2  N   UNL     1     -12.233  12.484  70.663  1.00  0.00    -0.351 NA 
HETATM    3  N   UNL     1     -12.084  13.804  70.641  1.00  0.00    -0.344 NA 
HETATM    4  C   UNL     1     -11.601  14.084  69.410  1.00  0.00    -0.297 A  
HETATM    5  C   UNL     1     -11.231  12.872  68.742  1.00  0.00    -0.323 A  
HETATM    6  C   UNL     1     -10.588  11.122  67.174  1.00  0.00    -0.286 A  
HETATM    7  C   UNL     1     -11.703  11.847  69.579  1.00  0.00    -0.345 A  
HETATM    8  C   UNL     1     -11.086  10.138  68.028  1.00  0.00    -0.302 A  
HETATM    9  C   UNL     1     -10.664  12.487  67.509  1.00  0.00    -0.250 A  
HETATM   10  C   UNL     1     -11.658  10.487  69.249  1.00  0.00    -0.308 A  
ENDROOT
BRANCH   4  11
HETATM   11  C   UNL     1     -11.754  15.477  68.986  1.00  0.00    -0.377 C  
HETATM   12  H   UNL     1     -11.389  17.136  68.096  1.00  0.00     0.000 HD 
HETATM   13  O   UNL     1     -12.585  16.207  69.555  1.00  0.00     0.013 OA 
HETATM   14  N   UNL     1     -11.090  16.164  68.026  1.00  0.00    -0.339 N  
BRANCH  14  15
HETATM   15  C   UNL     1     -10.120  16.093  66.929  1.00  0.00    -0.272 C  
HETATM   16  C   UNL     1      -8.113  17.820  67.153  1.00  0.00    -0.214 C  
HETATM   17  C   UNL     1      -8.625  16.340  67.207  1.00  0.00    -0.199 C  
HETATM   18  C   UNL     1      -8.302  18.510  68.506  1.00  0.00    -0.359 C  
HETATM   19  C   UNL     1      -9.757  18.838  68.801  1.00  0.00    -0.432 C  
HETATM   20  C   UNL     1     -10.610  19.184  67.563  1.00  0.00    -0.567 C  
HETATM   21  C   UNL     1     -10.178  18.563  66.210  1.00  0.00    -0.418 C  
HETATM   22  N   UNL     1      -8.727  18.591  66.056  1.00  0.00    -0.497 NA 
HETATM   23  C   UNL     1     -10.600  17.115  65.884  1.00  0.00    -0.219 C  
HETATM   24  C   UNL     1      -8.224  19.962  65.905  1.00  0.00    -0.211 C  
ENDBRANCH  14  15
ENDBRANCH   4  11
TORSDOF 2
ENDMDL
MODEL       26
REMARK 921   NORMALIZED FREE ENERGY PREDICTED BY IDOCK:   -6.44 KCAL/MOL
REMARK 922        TOTAL FREE ENERGY PREDICTED BY IDOCK:   -7.91 KCAL/MOL
REMARK 923 INTER-LIGAND FREE ENERGY PREDICTED BY IDOCK:   -7.23 KCAL/MOL
REMARK 924 INTRA-LIGAND FREE ENERGY PREDICTED BY IDOCK:   -0.68 KCAL/MOL
REMARK 927      BINDING AFFINITY PREDICTED BY RF-SCORE:    0.00 PKD
ROOT
HETATM    1  C   UNL     1     -14.374   7.763  71.658  1.00  0.00    -0.481 C  
HETATM    2  N   UNL     1     -13.222   8.631  71.561  1.00  0.00    -0.321 NA 
HETATM    3  N   UNL     1     -13.411   9.945  71.511  1.00  0.00    -0.385 NA 
HETATM    4  C   UNL     1     -12.218  10.458  71.133  1.00  0.00    -0.394 A  
HETATM    5  C   UNL     1     -11.212   9.439  71.175  1.00  0.00    -0.427 A  
HETATM    6  C   UNL     1      -9.217   8.058  70.964  1.00  0.00    -0.169 A  
HETATM    7  C   UNL     1     -11.920   8.250  71.416  1.00  0.00    -0.299 A  
HETATM    8  C   UNL     1      -9.963   6.901  71.190  1.00  0.00    -0.187 A  
HETATM    9  C   UNL     1      -9.825   9.326  70.941  1.00  0.00    -0.363 A  
HETATM   10  C   UNL     1     -11.334   6.978  71.417  1.00  0.00    -0.298 A  
ENDROOT
BRANCH   4  11
HETATM   11  C   UNL     1     -12.270  11.819  70.596  1.00  0.00    -0.349 C  
HETATM   12  H   UNL     1     -11.898  13.320  69.462  1.00  0.00     0.000 HD 
HETATM   13  O   UNL     1     -12.834  12.717  71.246  1.00  0.00    -0.359 OA 
HETATM   14  N   UNL     1     -11.762  12.310  69.440  1.00  0.00    -0.316 N  
BRANCH  14  15
HETATM   15  C   UNL     1     -11.098  11.994  68.171  1.00  0.00    -0.245 C  
HETATM   16  C   UNL     1      -9.213  13.735  67.482  1.00  0.00    -0.216 C  
HETATM   17  C   UNL     1      -9.600  12.304  67.990  1.00  0.00    -0.206 C  
HETATM   18  C   UNL     1      -9.097  14.714  68.652  1.00  0.00    -0.189 C  
HETATM   19  C   UNL     1     -10.448  15.095  69.237  1.00  0.00    -0.261 C  
HETATM   20  C   UNL     1     -11.607  15.147  68.219  1.00  0.00    -0.357 C  
HETATM   21  C   UNL     1     -11.492  14.236  66.970  1.00  0.00    -0.361 C  
HETATM   22  N   UNL     1     -10.132  14.234  66.442  1.00  0.00    -0.279 NA 
HETATM   23  C   UNL     1     -11.891  12.750  67.091  1.00  0.00    -0.415 C  
HETATM   24  C   UNL     1      -9.770  15.536  65.869  1.00  0.00    -0.357 C  
ENDBRANCH  14  15
ENDBRANCH   4  11
TORSDOF 2
ENDMDL
MODEL       27
REMARK 921   NORMALIZED FREE ENERGY PREDICTED BY IDOCK:   -6.39 KCAL/MOL
REMARK 922        TOTAL FREE ENERGY PREDICTED BY IDOCK:   -7.86 KCAL/MOL
REMARK 923 INTER-LIGAND FREE ENERGY PREDICTED BY IDOCK:   -7.10 KCAL/MOL
REMARK 924 INTRA-LIGAND FREE ENERGY PREDICTED BY IDOCK:   -0.76 KCAL/MOL
REMARK 927      BINDING AFFINITY PREDICTED BY RF-SCORE:    0.00 PKD
ROOT
HETATM    1  C   UNL     1     -10.643   8.566  69.593  1.00  0.00    -0.220 C  
HETATM    2  N   UNL     1     -10.942   9.970  69.428  1.00  0.00    -0.238 NA 
HETATM    3  N   UNL     1     -10.313  10.655  68.479  1.00  0.00    -0.174 NA 
HETATM    4  C   UNL     1     -10.567  11.954  68.755  1.00  0.00    -0.206 A  
HETATM    5  C   UNL     1     -11.569  12.051  69.774  1.00  0.00    -0.348 A  
HETATM    6  C   UNL     1     -13.112  12.726  71.533  1.00  0.00    -0.380 A  
HETATM    7  C   UNL     1     -11.754  10.732  70.217  1.00  0.00    -0.352 A  
HETATM    8  C   UNL     1     -13.252  11.402  71.952  1.00  0.00    -0.485 A  
HETATM    9  C   UNL     1     -12.269  13.066  70.460  1.00  0.00    -0.392 A  
HETATM   10  C   UNL     1     -12.568  10.379  71.301  1.00  0.00    -0.525 A  
ENDROOT
BRANCH   4  11
HETATM   11  C   UNL     1      -9.653  12.911  68.126  1.00  0.00    -0.223 C  
HETATM   12  H   UNL     1      -9.047  14.369  67.039  1.00  0.00     0.000 HD 
HETATM   13  O   UNL     1      -8.425  12.733  68.205  1.00  0.00    -0.165 OA 
HETATM   14  N   UNL     1      -9.932  14.024  67.407  1.00  0.00    -0.241 N  
BRANCH  14  15
HETATM   15  C   UNL     1     -10.977  14.941  66.939  1.00  0.00    -0.327 C  
HETATM   16  C   UNL     1     -10.070  17.339  66.242  1.00  0.00    -0.316 C  
HETATM   17  C   UNL     1     -10.666  15.952  65.819  1.00  0.00    -0.325 C  
HETATM   18  C   UNL     1      -8.547  17.262  66.359  1.00  0.00    -0.294 C  
HETATM   19  C   UNL     1      -8.089  16.493  67.589  1.00  0.00    -0.177 C  
HETATM   20  C   UNL     1      -9.014  16.619  68.817  1.00  0.00    -0.253 C  
HETATM   21  C   UNL     1     -10.515  16.896  68.547  1.00  0.00    -0.361 C  
HETATM   22  N   UNL     1     -10.687  17.869  67.472  1.00  0.00    -0.371 NA 
HETATM   23  C   UNL     1     -11.439  15.714  68.186  1.00  0.00    -0.325 C  
HETATM   24  C   UNL     1     -10.226  19.204  67.871  1.00  0.00    -0.406 C  
ENDBRANCH  14  15
ENDBRANCH   4  11
TORSDOF 2
ENDMDL
MODEL       28
REMARK 921   NORMALIZED FREE ENERGY PREDICTED BY IDOCK:   -6.39 KCAL/MOL
REMARK 922        TOTAL FREE ENERGY PREDICTED BY IDOCK:   -7.86 KCAL/MOL
REMARK 923 INTER-LIGAND FREE ENERGY PREDICTED BY IDOCK:   -7.04 KCAL/MOL
REMARK 924 INTRA-LIGAND FREE ENERGY PREDICTED BY IDOCK:   -0.82 KCAL/MOL
REMARK 927      BINDING AFFINITY PREDICTED BY RF-SCORE:    0.00 PKD
ROOT
HETATM    1  C   UNL     1      -9.819  20.610  67.258  1.00  0.00    -0.388 C  
HETATM    2  N   UNL     1      -9.134  19.355  67.046  1.00  0.00    -0.298 NA 
HETATM    3  N   UNL     1      -9.623  18.498  66.157  1.00  0.00    -0.492 NA 
HETATM    4  C   UNL     1      -8.969  17.337  66.389  1.00  0.00    -0.252 A  
HETATM    5  C   UNL     1      -7.885  17.560  67.300  1.00  0.00    -0.221 A  
HETATM    6  C   UNL     1      -6.043  17.406  68.885  1.00  0.00    -0.189 A  
HETATM    7  C   UNL     1      -8.057  18.882  67.739  1.00  0.00    -0.259 A  
HETATM    8  C   UNL     1      -6.261  18.718  69.305  1.00  0.00    -0.283 A  
HETATM    9  C   UNL     1      -6.851  16.811  67.899  1.00  0.00    -0.156 A  
HETATM   10  C   UNL     1      -7.280  19.481  68.739  1.00  0.00    -0.391 A  
ENDROOT
BRANCH   4  11
HETATM   11  C   UNL     1      -9.615  16.141  65.844  1.00  0.00    -0.324 C  
HETATM   12  H   UNL     1      -9.974  14.289  65.503  1.00  0.00     0.000 HD 
HETATM   13  O   UNL     1     -10.453  16.255  64.932  1.00  0.00    -0.624 OA 
HETATM   14  N   UNL     1      -9.435  14.839  66.171  1.00  0.00    -0.304 N  
BRANCH  14  15
HETATM   15  C   UNL     1      -8.788  13.892  67.084  1.00  0.00    -0.226 C  
HETATM   16  C   UNL     1     -10.171  11.655  67.469  1.00  0.00    -0.195 C  
HETATM   17  C   UNL     1      -8.928  12.376  66.844  1.00  0.00    -0.212 C  
HETATM   18  C   UNL     1     -11.376  11.740  66.531  1.00  0.00    -0.370 C  
HETATM   19  C   UNL     1     -11.987  13.132  66.482  1.00  0.00    -0.459 C  
HETATM   20  C   UNL     1     -11.900  13.928  67.801  1.00  0.00    -0.415 C  
HETATM   21  C   UNL     1     -10.725  13.593  68.753  1.00  0.00    -0.244 C  
HETATM   22  N   UNL     1     -10.493  12.153  68.819  1.00  0.00    -0.209 NA 
HETATM   23  C   UNL     1      -9.341  14.221  68.481  1.00  0.00    -0.200 C  
HETATM   24  C   UNL     1     -11.599  11.456  69.488  1.00  0.00    -0.331 C  
ENDBRANCH  14  15
ENDBRANCH   4  11
TORSDOF 2
ENDMDL
MODEL       29
REMARK 921   NORMALIZED FREE ENERGY PREDICTED BY IDOCK:   -6.37 KCAL/MOL
REMARK 922        TOTAL FREE ENERGY PREDICTED BY IDOCK:   -7.84 KCAL/MOL
REMARK 923 INTER-LIGAND FREE ENERGY PREDICTED BY IDOCK:   -7.11 KCAL/MOL
REMARK 924 INTRA-LIGAND FREE ENERGY PREDICTED BY IDOCK:   -0.73 KCAL/MOL
REMARK 927      BINDING AFFINITY PREDICTED BY RF-SCORE:    0.00 PKD
ROOT
HETATM    1  C   UNL     1      -9.838  20.549  67.363  1.00  0.00    -0.434 C  
HETATM    2  N   UNL     1      -9.544  19.161  67.636  1.00  0.00    -0.304 NA 
HETATM    3  N   UNL     1     -10.484  18.248  67.411  1.00  0.00    -0.398 NA 
HETATM    4  C   UNL     1     -10.038  17.126  68.021  1.00  0.00    -0.311 A  
HETATM    5  C   UNL     1      -8.679  17.302  68.436  1.00  0.00    -0.261 A  
HETATM    6  C   UNL     1      -6.461  17.161  69.432  1.00  0.00    -0.233 A  
HETATM    7  C   UNL     1      -8.410  18.661  68.206  1.00  0.00    -0.324 A  
HETATM    8  C   UNL     1      -6.243  18.520  69.201  1.00  0.00    -0.255 A  
HETATM    9  C   UNL     1      -7.672  16.544  69.070  1.00  0.00    -0.228 A  
HETATM   10  C   UNL     1      -7.220  19.297  68.585  1.00  0.00    -0.367 A  
ENDROOT
BRANCH   4  11
HETATM   11  C   UNL     1     -11.065  16.116  68.285  1.00  0.00    -0.348 C  
HETATM   12  H   UNL     1     -12.346  14.726  67.961  1.00  0.00     0.000 HD 
HETATM   13  O   UNL     1     -11.610  16.070  69.402  1.00  0.00    -0.343 OA 
HETATM   14  N   UNL     1     -11.573  15.167  67.463  1.00  0.00    -0.304 N  
BRANCH  14  15
HETATM   15  C   UNL     1     -11.475  14.510  66.156  1.00  0.00    -0.357 C  
HETATM   16  C   UNL     1     -11.406  11.857  66.289  1.00  0.00    -0.334 C  
HETATM   17  C   UNL     1     -12.186  13.164  65.918  1.00  0.00    -0.497 C  
HETATM   18  C   UNL     1     -11.608  11.505  67.764  1.00  0.00    -0.338 C  
HETATM   19  C   UNL     1     -10.849  12.434  68.700  1.00  0.00    -0.273 C  
HETATM   20  C   UNL     1      -9.511  12.966  68.146  1.00  0.00    -0.218 C  
HETATM   21  C   UNL     1      -9.381  13.083  66.606  1.00  0.00    -0.241 C  
HETATM   22  N   UNL     1      -9.976  11.932  65.936  1.00  0.00    -0.228 NA 
HETATM   23  C   UNL     1      -9.970  14.323  65.899  1.00  0.00    -0.340 C  
HETATM   24  C   UNL     1      -9.211  10.704  66.186  1.00  0.00    -0.172 C  
ENDBRANCH  14  15
ENDBRANCH   4  11
TORSDOF 2
ENDMDL
MODEL       30
REMARK 921   NORMALIZED FREE ENERGY PREDICTED BY IDOCK:   -6.36 KCAL/MOL
REMARK 922        TOTAL FREE ENERGY PREDICTED BY IDOCK:   -7.83 KCAL/MOL
REMARK 923 INTER-LIGAND FREE ENERGY PREDICTED BY IDOCK:   -6.88 KCAL/MOL
REMARK 924 INTRA-LIGAND FREE ENERGY PREDICTED BY IDOCK:   -0.95 KCAL/MOL
REMARK 927      BINDING AFFINITY PREDICTED BY RF-SCORE:    0.00 PKD
ROOT
HETATM    1  C   UNL     1     -12.200  12.814  63.467  1.00  0.00    -0.525 C  
HETATM    2  N   UNL     1     -11.895  12.530  64.851  1.00  0.00    -0.366 NA 
HETATM    3  N   UNL     1     -12.427  13.298  65.797  1.00  0.00    -0.442 NA 
HETATM    4  C   UNL     1     -11.747  12.989  66.925  1.00  0.00    -0.383 A  
HETATM    5  C   UNL     1     -10.929  11.834  66.702  1.00  0.00    -0.342 A  
HETATM    6  C   UNL     1      -9.306  10.020  66.782  1.00  0.00    -0.193 A  
HETATM    7  C   UNL     1     -11.021  11.594  65.322  1.00  0.00    -0.268 A  
HETATM    8  C   UNL     1      -9.415   9.829  65.404  1.00  0.00    -0.333 A  
HETATM    9  C   UNL     1     -10.042  11.022  67.440  1.00  0.00    -0.216 A  
HETATM   10  C   UNL     1     -10.276  10.619  64.647  1.00  0.00    -0.404 A  
ENDROOT
BRANCH   4  11
HETATM   11  C   UNL     1     -11.842  13.982  67.997  1.00  0.00    -0.368 C  
HETATM   12  H   UNL     1     -11.564  15.612  68.968  1.00  0.00     0.000 HD 
HETATM   13  O   UNL     1     -12.348  13.664  69.088  1.00  0.00    -0.285 OA 
HETATM   14  N   UNL     1     -11.432  15.273  68.015  1.00  0.00    -0.345 N  
BRANCH  14  15
HETATM   15  C   UNL     1     -10.877  16.385  67.238  1.00  0.00    -0.194 C  
HETATM   16  C   UNL     1      -8.307  16.093  66.629  1.00  0.00    -0.286 C  
HETATM   17  C   UNL     1      -9.804  16.113  66.166  1.00  0.00    -0.358 C  
HETATM   18  C   UNL     1      -7.911  14.703  67.130  1.00  0.00    -0.184 C  
HETATM   19  C   UNL     1      -8.518  14.372  68.485  1.00  0.00    -0.170 C  
HETATM   20  C   UNL     1      -8.699  15.578  69.430  1.00  0.00    -0.258 C  
HETATM   21  C   UNL     1      -8.895  16.968  68.773  1.00  0.00    -0.244 C  
HETATM   22  N   UNL     1      -8.009  17.139  67.625  1.00  0.00    -0.176 NA 
HETATM   23  C   UNL     1     -10.300  17.366  68.272  1.00  0.00    -0.374 C  
HETATM   24  C   UNL     1      -6.602  17.222  68.034  1.00  0.00    -0.165 C  
ENDBRANCH  14  15
ENDBRANCH   4  11
TORSDOF 2
ENDMDL
MODEL       31
REMARK 921   NORMALIZED FREE ENERGY PREDICTED BY IDOCK:   -6.34 KCAL/MOL
REMARK 922        TOTAL FREE ENERGY PREDICTED BY IDOCK:   -7.81 KCAL/MOL
REMARK 923 INTER-LIGAND FREE ENERGY PREDICTED BY IDOCK:   -7.19 KCAL/MOL
REMARK 924 INTRA-LIGAND FREE ENERGY PREDICTED BY IDOCK:   -0.61 KCAL/MOL
REMARK 927      BINDING AFFINITY PREDICTED BY RF-SCORE:    0.00 PKD
ROOT
HETATM    1  C   UNL     1      -6.281  18.992  65.210  1.00  0.00    -0.282 C  
HETATM    2  N   UNL     1      -7.454  18.451  65.859  1.00  0.00    -0.484 NA 
HETATM    3  N   UNL     1      -7.726  17.158  65.720  1.00  0.00    -0.335 NA 
HETATM    4  C   UNL     1      -8.994  17.014  66.169  1.00  0.00    -0.208 A  
HETATM    5  C   UNL     1      -9.425  18.220  66.811  1.00  0.00    -0.300 A  
HETATM    6  C   UNL     1     -10.642  20.049  67.862  1.00  0.00    -0.379 A  
HETATM    7  C   UNL     1      -8.405  19.148  66.545  1.00  0.00    -0.315 A  
HETATM    8  C   UNL     1      -9.612  20.941  67.561  1.00  0.00    -0.358 A  
HETATM    9  C   UNL     1     -10.570  18.696  67.484  1.00  0.00    -0.472 A  
HETATM   10  C   UNL     1      -8.473  20.504  66.891  1.00  0.00    -0.267 A  
ENDROOT
BRANCH   4  11
HETATM   11  C   UNL     1      -9.671  15.791  65.733  1.00  0.00    -0.337 C  
HETATM   12  H   UNL     1     -10.069  13.924  65.550  1.00  0.00     0.000 HD 
HETATM   13  O   UNL     1     -10.521  15.846  64.828  1.00  0.00    -0.538 OA 
HETATM   14  N   UNL     1      -9.509  14.517  66.163  1.00  0.00    -0.286 N  
BRANCH  14  15
HETATM   15  C   UNL     1      -8.864  13.634  67.140  1.00  0.00    -0.230 C  
HETATM   16  C   UNL     1      -9.944  11.210  67.277  1.00  0.00    -0.184 C  
HETATM   17  C   UNL     1      -8.745  12.125  66.852  1.00  0.00    -0.194 C  
HETATM   18  C   UNL     1     -11.005  11.161  66.176  1.00  0.00    -0.203 C  
HETATM   19  C   UNL     1     -11.801  12.452  66.067  1.00  0.00    -0.459 C  
HETATM   20  C   UNL     1     -12.017  13.198  67.401  1.00  0.00    -0.379 C  
HETATM   21  C   UNL     1     -10.950  12.994  68.506  1.00  0.00    -0.263 C  
HETATM   22  N   UNL     1     -10.522  11.601  68.576  1.00  0.00    -0.211 NA 
HETATM   23  C   UNL     1      -9.649  13.824  68.449  1.00  0.00    -0.206 C  
HETATM   24  C   UNL     1     -11.596  10.727  69.064  1.00  0.00    -0.299 C  
ENDBRANCH  14  15
ENDBRANCH   4  11
TORSDOF 2
ENDMDL
MODEL       32
REMARK 921   NORMALIZED FREE ENERGY PREDICTED BY IDOCK:   -6.34 KCAL/MOL
REMARK 922        TOTAL FREE ENERGY PREDICTED BY IDOCK:   -7.80 KCAL/MOL
REMARK 923 INTER-LIGAND FREE ENERGY PREDICTED BY IDOCK:   -7.14 KCAL/MOL
REMARK 924 INTRA-LIGAND FREE ENERGY PREDICTED BY IDOCK:   -0.66 KCAL/MOL
REMARK 927      BINDING AFFINITY PREDICTED BY RF-SCORE:    0.00 PKD
ROOT
HETATM    1  C   UNL     1     -12.480  13.706  65.649  1.00  0.00    -0.496 C  
HETATM    2  N   UNL     1     -11.916  12.439  66.058  1.00  0.00    -0.602 NA 
HETATM    3  N   UNL     1     -12.142  12.004  67.292  1.00  0.00    -0.521 NA 
HETATM    4  C   UNL     1     -11.273  10.983  67.471  1.00  0.00    -0.302 A  
HETATM    5  C   UNL     1     -10.656  10.643  66.224  1.00  0.00    -0.229 A  
HETATM    6  C   UNL     1      -9.265   9.793  64.414  1.00  0.00    -0.301 A  
HETATM    7  C   UNL     1     -11.070  11.649  65.336  1.00  0.00    -0.239 A  
HETATM    8  C   UNL     1      -9.690  10.821  63.571  1.00  0.00    -0.387 A  
HETATM    9  C   UNL     1      -9.726   9.699  65.740  1.00  0.00    -0.350 A  
HETATM   10  C   UNL     1     -10.601  11.773  64.022  1.00  0.00    -0.425 A  
ENDROOT
BRANCH   4  11
HETATM   11  C   UNL     1     -11.024  10.619  68.867  1.00  0.00    -0.249 C  
HETATM   12  H   UNL     1     -10.636   9.535  70.401  1.00  0.00     0.000 HD 
HETATM   13  O   UNL     1     -11.248  11.445  69.769  1.00  0.00    -0.251 OA 
HETATM   14  N   UNL     1     -10.576   9.451  69.386  1.00  0.00    -0.217 N  
BRANCH  14  15
HETATM   15  C   UNL     1     -10.041   8.116  69.098  1.00  0.00    -0.202 C  
HETATM   16  C   UNL     1     -11.040   6.201  70.645  1.00  0.00    -0.317 C  
HETATM   17  C   UNL     1     -10.949   6.879  69.235  1.00  0.00    -0.260 C  
HETATM   18  C   UNL     1     -12.116   6.871  71.501  1.00  0.00    -0.401 C  
HETATM   19  C   UNL     1     -11.702   8.248  71.996  1.00  0.00    -0.407 C  
HETATM   20  C   UNL     1     -10.193   8.413  72.274  1.00  0.00    -0.396 C  
HETATM   21  C   UNL     1      -9.223   7.518  71.463  1.00  0.00    -0.135 C  
HETATM   22  N   UNL     1      -9.739   6.158  71.337  1.00  0.00    -0.166 NA 
HETATM   23  C   UNL     1      -8.832   7.945  70.032  1.00  0.00    -0.141 C  
HETATM   24  C   UNL     1      -9.747   5.459  72.629  1.00  0.00    -0.151 C  
ENDBRANCH  14  15
ENDBRANCH   4  11
TORSDOF 2
ENDMDL
MODEL       33
REMARK 921   NORMALIZED FREE ENERGY PREDICTED BY IDOCK:   -6.29 KCAL/MOL
REMARK 922        TOTAL FREE ENERGY PREDICTED BY IDOCK:   -7.75 KCAL/MOL
REMARK 923 INTER-LIGAND FREE ENERGY PREDICTED BY IDOCK:   -7.38 KCAL/MOL
REMARK 924 INTRA-LIGAND FREE ENERGY PREDICTED BY IDOCK:   -0.37 KCAL/MOL
REMARK 927      BINDING AFFINITY PREDICTED BY RF-SCORE:    0.00 PKD
ROOT
HETATM    1  C   UNL     1      -9.031   9.507  64.485  1.00  0.00    -0.212 C  
HETATM    2  N   UNL     1      -9.794  10.417  65.309  1.00  0.00    -0.275 NA 
HETATM    3  N   UNL     1      -9.832  10.216  66.622  1.00  0.00    -0.191 NA 
HETATM    4  C   UNL     1     -10.828  11.013  67.072  1.00  0.00    -0.279 A  
HETATM    5  C   UNL     1     -11.258  11.895  66.027  1.00  0.00    -0.377 A  
HETATM    6  C   UNL     1     -12.405  13.479  64.576  1.00  0.00    -0.406 A  
HETATM    7  C   UNL     1     -10.588  11.440  64.880  1.00  0.00    -0.307 A  
HETATM    8  C   UNL     1     -11.730  12.984  63.460  1.00  0.00    -0.532 A  
HETATM    9  C   UNL     1     -12.191  12.939  65.857  1.00  0.00    -0.469 A  
HETATM   10  C   UNL     1     -10.809  11.948  63.594  1.00  0.00    -0.510 A  
ENDROOT
BRANCH   4  11
HETATM   11  C   UNL     1     -11.351  10.665  68.394  1.00  0.00    -0.283 C  
HETATM   12  H   UNL     1     -11.634   9.676  70.012  1.00  0.00     0.000 HD 
HETATM   13  O   UNL     1     -12.298  11.314  68.873  1.00  0.00    -0.485 OA 
HETATM   14  N   UNL     1     -10.968   9.680  69.241  1.00  0.00    -0.204 N  
BRANCH  14  15
HETATM   15  C   UNL     1      -9.995   8.616  69.509  1.00  0.00    -0.196 C  
HETATM   16  C   UNL     1     -10.975   6.597  70.933  1.00  0.00    -0.268 C  
HETATM   17  C   UNL     1     -10.457   7.147  69.559  1.00  0.00    -0.236 C  
HETATM   18  C   UNL     1     -12.466   6.891  71.107  1.00  0.00    -0.398 C  
HETATM   19  C   UNL     1     -12.748   8.359  71.389  1.00  0.00    -0.280 C  
HETATM   20  C   UNL     1     -11.654   9.088  72.198  1.00  0.00    -0.348 C  
HETATM   21  C   UNL     1     -10.206   8.550  72.074  1.00  0.00    -0.321 C  
HETATM   22  N   UNL     1     -10.183   7.090  72.075  1.00  0.00    -0.190 NA 
HETATM   23  C   UNL     1      -9.352   8.975  70.860  1.00  0.00    -0.326 C  
HETATM   24  C   UNL     1     -10.571   6.543  73.380  1.00  0.00    -0.285 C  
ENDBRANCH  14  15
ENDBRANCH   4  11
TORSDOF 2
ENDMDL
MODEL       34
REMARK 921   NORMALIZED FREE ENERGY PREDICTED BY IDOCK:   -6.28 KCAL/MOL
REMARK 922        TOTAL FREE ENERGY PREDICTED BY IDOCK:   -7.73 KCAL/MOL
REMARK 923 INTER-LIGAND FREE ENERGY PREDICTED BY IDOCK:   -7.20 KCAL/MOL
REMARK 924 INTRA-LIGAND FREE ENERGY PREDICTED BY IDOCK:   -0.53 KCAL/MOL
REMARK 927      BINDING AFFINITY PREDICTED BY RF-SCORE:    0.00 PKD
ROOT
HETATM    1  C   UNL     1     -12.030  12.354  65.937  1.00  0.00    -0.367 C  
HETATM    2  N   UNL     1     -11.829  12.394  67.368  1.00  0.00    -0.505 NA 
HETATM    3  N   UNL     1     -11.744  11.249  68.037  1.00  0.00    -0.567 NA 
HETATM    4  C   UNL     1     -11.856  11.594  69.340  1.00  0.00    -0.342 A  
HETATM    5  C   UNL     1     -11.779  13.018  69.478  1.00  0.00    -0.381 A  
HETATM    6  C   UNL     1     -11.835  15.342  70.204  1.00  0.00    -0.356 A  
HETATM    7  C   UNL     1     -11.807  13.504  68.161  1.00  0.00    -0.365 A  
HETATM    8  C   UNL     1     -11.880  15.780  68.880  1.00  0.00    -0.354 A  
HETATM    9  C   UNL     1     -11.798  13.971  70.518  1.00  0.00    -0.339 A  
HETATM   10  C   UNL     1     -11.871  14.864  67.832  1.00  0.00    -0.286 A  
ENDROOT
BRANCH   4  11
HETATM   11  C   UNL     1     -12.220  10.498  70.242  1.00  0.00    -0.311 C  
HETATM   12  H   UNL     1     -12.039   8.929  71.328  1.00  0.00     0.000 HD 
HETATM   13  O   UNL     1     -13.418  10.279  70.493  1.00  0.00    -0.175 OA 
HETATM   14  N   UNL     1     -11.425   9.609  70.882  1.00  0.00    -0.323 N  
BRANCH  14  15
HETATM   15  C   UNL     1     -10.048   9.215  71.200  1.00  0.00    -0.314 C  
HETATM   16  C   UNL     1      -9.457   6.718  70.510  1.00  0.00    -0.169 C  
HETATM   17  C   UNL     1      -9.287   8.257  70.265  1.00  0.00    -0.159 C  
HETATM   18  C   UNL     1     -10.686   6.183  69.775  1.00  0.00    -0.376 C  
HETATM   19  C   UNL     1     -11.994   6.610  70.425  1.00  0.00    -0.342 C  
HETATM   20  C   UNL     1     -11.939   6.756  71.960  1.00  0.00    -0.355 C  
HETATM   21  C   UNL     1     -10.568   7.111  72.589  1.00  0.00    -0.256 C  
HETATM   22  N   UNL     1      -9.485   6.374  71.944  1.00  0.00    -0.153 NA 
HETATM   23  C   UNL     1     -10.112   8.586  72.602  1.00  0.00    -0.253 C  
HETATM   24  C   UNL     1      -9.559   4.937  72.235  1.00  0.00    -0.152 C  
ENDBRANCH  14  15
ENDBRANCH   4  11
TORSDOF 2
ENDMDL
MODEL       35
REMARK 921   NORMALIZED FREE ENERGY PREDICTED BY IDOCK:   -6.25 KCAL/MOL
REMARK 922        TOTAL FREE ENERGY PREDICTED BY IDOCK:   -7.70 KCAL/MOL
REMARK 923 INTER-LIGAND FREE ENERGY PREDICTED BY IDOCK:   -6.92 KCAL/MOL
REMARK 924 INTRA-LIGAND FREE ENERGY PREDICTED BY IDOCK:   -0.78 KCAL/MOL
REMARK 927      BINDING AFFINITY PREDICTED BY RF-SCORE:    0.00 PKD
ROOT
HETATM    1  C   UNL     1      -9.831   6.941  70.667  1.00  0.00    -0.182 C  
HETATM    2  N   UNL     1     -10.437   8.202  70.306  1.00  0.00    -0.214 NA 
HETATM    3  N   UNL     1      -9.915   8.902  69.303  1.00  0.00    -0.187 NA 
HETATM    4  C   UNL     1     -10.485  10.125  69.393  1.00  0.00    -0.233 A  
HETATM    5  C   UNL     1     -11.557  10.097  70.345  1.00  0.00    -0.396 A  
HETATM    6  C   UNL     1     -13.342  10.581  71.929  1.00  0.00    -0.461 A  
HETATM    7  C   UNL     1     -11.460   8.833  70.950  1.00  0.00    -0.284 A  
HETATM    8  C   UNL     1     -13.200   9.322  72.512  1.00  0.00    -0.439 A  
HETATM    9  C   UNL     1     -12.523  10.986  70.859  1.00  0.00    -0.509 A  
HETATM   10  C   UNL     1     -12.249   8.424  72.033  1.00  0.00    -0.419 A  
ENDROOT
BRANCH   4  11
HETATM   11  C   UNL     1      -9.776  11.193  68.685  1.00  0.00    -0.198 C  
HETATM   12  H   UNL     1      -9.489  12.759  67.618  1.00  0.00     0.000 HD 
HETATM   13  O   UNL     1      -8.544  11.120  68.535  1.00  0.00    -0.145 OA 
HETATM   14  N   UNL     1     -10.264  12.317  68.110  1.00  0.00    -0.206 N  
BRANCH  14  15
HETATM   15  C   UNL     1     -11.443  13.164  67.899  1.00  0.00    -0.308 C  
HETATM   16  C   UNL     1     -10.924  15.428  66.610  1.00  0.00    -0.275 C  
HETATM   17  C   UNL     1     -11.569  14.000  66.611  1.00  0.00    -0.400 C  
HETATM   18  C   UNL     1      -9.448  15.357  66.214  1.00  0.00    -0.342 C  
HETATM   19  C   UNL     1      -8.572  14.771  67.310  1.00  0.00    -0.230 C  
HETATM   20  C   UNL     1      -9.035  15.082  68.749  1.00  0.00    -0.196 C  
HETATM   21  C   UNL     1     -10.549  15.329  68.967  1.00  0.00    -0.245 C  
HETATM   22  N   UNL     1     -11.113  16.136  67.890  1.00  0.00    -0.325 NA 
HETATM   23  C   UNL     1     -11.491  14.114  69.108  1.00  0.00    -0.338 C  
HETATM   24  C   UNL     1     -10.602  17.512  67.918  1.00  0.00    -0.390 C  
ENDBRANCH  14  15
ENDBRANCH   4  11
TORSDOF 2
ENDMDL
MODEL       36
REMARK 921   NORMALIZED FREE ENERGY PREDICTED BY IDOCK:   -6.22 KCAL/MOL
REMARK 922        TOTAL FREE ENERGY PREDICTED BY IDOCK:   -7.67 KCAL/MOL
REMARK 923 INTER-LIGAND FREE ENERGY PREDICTED BY IDOCK:   -6.75 KCAL/MOL
REMARK 924 INTRA-LIGAND FREE ENERGY PREDICTED BY IDOCK:   -0.93 KCAL/MOL
REMARK 927      BINDING AFFINITY PREDICTED BY RF-SCORE:    0.00 PKD
ROOT
HETATM    1  C   UNL     1     -11.371  14.460  69.103  1.00  0.00    -0.277 C  
HETATM    2  N   UNL     1     -11.554  13.026  69.087  1.00  0.00    -0.298 NA 
HETATM    3  N   UNL     1     -12.129  12.440  70.132  1.00  0.00    -0.328 NA 
HETATM    4  C   UNL     1     -11.897  11.118  69.966  1.00  0.00    -0.361 A  
HETATM    5  C   UNL     1     -11.359  10.876  68.661  1.00  0.00    -0.360 A  
HETATM    6  C   UNL     1     -10.323   9.984  66.645  1.00  0.00    -0.281 A  
HETATM    7  C   UNL     1     -11.108  12.154  68.137  1.00  0.00    -0.248 A  
HETATM    8  C   UNL     1     -10.077  11.274  66.171  1.00  0.00    -0.279 A  
HETATM    9  C   UNL     1     -10.947   9.770  67.887  1.00  0.00    -0.246 A  
HETATM   10  C   UNL     1     -10.464  12.385  66.915  1.00  0.00    -0.243 A  
ENDROOT
BRANCH   4  11
HETATM   11  C   UNL     1     -12.049  10.306  71.175  1.00  0.00    -0.395 C  
HETATM   12  H   UNL     1     -11.673   8.984  72.512  1.00  0.00     0.000 HD 
HETATM   13  O   UNL     1     -13.116  10.344  71.813  1.00  0.00    -0.420 OA 
HETATM   14  N   UNL     1     -11.175   9.447  71.752  1.00  0.00    -0.360 N  
BRANCH  14  15
HETATM   15  C   UNL     1      -9.813   8.905  71.739  1.00  0.00    -0.315 C  
HETATM   16  C   UNL     1      -9.556   6.678  70.312  1.00  0.00    -0.161 C  
HETATM   17  C   UNL     1      -9.274   8.211  70.473  1.00  0.00    -0.157 C  
HETATM   18  C   UNL     1     -10.916   6.442  69.653  1.00  0.00    -0.420 C  
HETATM   19  C   UNL     1     -12.081   6.737  70.585  1.00  0.00    -0.371 C  
HETATM   20  C   UNL     1     -11.814   6.438  72.076  1.00  0.00    -0.382 C  
HETATM   21  C   UNL     1     -10.345   6.525  72.562  1.00  0.00    -0.194 C  
HETATM   22  N   UNL     1      -9.430   5.943  71.584  1.00  0.00    -0.149 NA 
HETATM   23  C   UNL     1      -9.753   7.908  72.908  1.00  0.00    -0.339 C  
HETATM   24  C   UNL     1      -9.601   4.489  71.479  1.00  0.00    -0.163 C  
ENDBRANCH  14  15
ENDBRANCH   4  11
TORSDOF 2
ENDMDL
MODEL       37
REMARK 921   NORMALIZED FREE ENERGY PREDICTED BY IDOCK:   -6.21 KCAL/MOL
REMARK 922        TOTAL FREE ENERGY PREDICTED BY IDOCK:   -7.66 KCAL/MOL
REMARK 923 INTER-LIGAND FREE ENERGY PREDICTED BY IDOCK:   -6.70 KCAL/MOL
REMARK 924 INTRA-LIGAND FREE ENERGY PREDICTED BY IDOCK:   -0.96 KCAL/MOL
REMARK 927      BINDING AFFINITY PREDICTED BY RF-SCORE:    0.00 PKD
ROOT
HETATM    1  C   UNL     1      -9.516  10.184  64.544  1.00  0.00    -0.303 C  
HETATM    2  N   UNL     1     -10.470  10.850  65.402  1.00  0.00    -0.251 NA 
HETATM    3  N   UNL     1     -11.206  11.836  64.901  1.00  0.00    -0.294 NA 
HETATM    4  C   UNL     1     -11.764  12.439  65.975  1.00  0.00    -0.410 A  
HETATM    5  C   UNL     1     -11.537  11.653  67.151  1.00  0.00    -0.291 A  
HETATM    6  C   UNL     1     -11.307  10.760  69.405  1.00  0.00    -0.351 A  
HETATM    7  C   UNL     1     -10.649  10.647  66.739  1.00  0.00    -0.237 A  
HETATM    8  C   UNL     1     -10.413   9.787  68.955  1.00  0.00    -0.233 A  
HETATM    9  C   UNL     1     -11.864  11.703  68.522  1.00  0.00    -0.357 A  
HETATM   10  C   UNL     1     -10.064   9.717  67.609  1.00  0.00    -0.236 A  
ENDROOT
BRANCH   4  11
HETATM   11  C   UNL     1     -12.267  13.793  65.733  1.00  0.00    -0.462 C  
HETATM   12  H   UNL     1     -12.269  15.699  65.518  1.00  0.00     0.000 HD 
HETATM   13  O   UNL     1     -13.493  13.999  65.700  1.00  0.00    -0.604 OA 
HETATM   14  N   UNL     1     -11.582  14.946  65.542  1.00  0.00    -0.308 N  
BRANCH  14  15
HETATM   15  C   UNL     1     -10.264  15.562  65.356  1.00  0.00    -0.377 C  
HETATM   16  C   UNL     1      -8.769  15.587  67.552  1.00  0.00    -0.172 C  
HETATM   17  C   UNL     1      -9.044  15.013  66.120  1.00  0.00    -0.237 C  
HETATM   18  C   UNL     1      -9.561  14.813  68.608  1.00  0.00    -0.218 C  
HETATM   19  C   UNL     1     -11.048  15.129  68.576  1.00  0.00    -0.281 C  
HETATM   20  C   UNL     1     -11.398  16.574  68.164  1.00  0.00    -0.150 C  
HETATM   21  C   UNL     1     -10.394  17.309  67.241  1.00  0.00    -0.331 C  
HETATM   22  N   UNL     1      -9.016  17.038  67.637  1.00  0.00    -0.219 NA 
HETATM   23  C   UNL     1     -10.446  17.045  65.721  1.00  0.00    -0.261 C  
HETATM   24  C   UNL     1      -8.695  17.646  68.935  1.00  0.00    -0.119 C  
ENDBRANCH  14  15
ENDBRANCH   4  11
TORSDOF 2
ENDMDL
MODEL       38
REMARK 921   NORMALIZED FREE ENERGY PREDICTED BY IDOCK:   -6.19 KCAL/MOL
REMARK 922        TOTAL FREE ENERGY PREDICTED BY IDOCK:   -7.64 KCAL/MOL
REMARK 923 INTER-LIGAND FREE ENERGY PREDICTED BY IDOCK:   -6.81 KCAL/MOL
REMARK 924 INTRA-LIGAND FREE ENERGY PREDICTED BY IDOCK:   -0.83 KCAL/MOL
REMARK 927      BINDING AFFINITY PREDICTED BY RF-SCORE:    0.00 PKD
ROOT
HETATM    1  C   UNL     1     -11.322  10.776  67.993  1.00  0.00    -0.307 C  
HETATM    2  N   UNL     1     -10.930  12.115  67.614  1.00  0.00    -0.231 NA 
HETATM    3  N   UNL     1     -10.237  12.851  68.477  1.00  0.00    -0.229 NA 
HETATM    4  C   UNL     1     -10.277  14.108  67.979  1.00  0.00    -0.232 A  
HETATM    5  C   UNL     1     -10.820  14.092  66.654  1.00  0.00    -0.299 A  
HETATM    6  C   UNL     1     -11.784  14.594  64.474  1.00  0.00    -0.410 A  
HETATM    7  C   UNL     1     -11.275  12.777  66.472  1.00  0.00    -0.307 A  
HETATM    8  C   UNL     1     -12.235  13.280  64.343  1.00  0.00    -0.449 A  
HETATM    9  C   UNL     1     -11.091  15.017  65.623  1.00  0.00    -0.349 A  
HETATM   10  C   UNL     1     -11.990  12.346  65.346  1.00  0.00    -0.457 A  
ENDROOT
BRANCH   4  11
HETATM   11  C   UNL     1      -9.964  15.165  68.943  1.00  0.00    -0.227 C  
HETATM   12  H   UNL     1      -8.950  16.478  69.905  1.00  0.00     0.000 HD 
HETATM   13  O   UNL     1     -10.781  15.447  69.836  1.00  0.00    -0.264 OA 
HETATM   14  N   UNL     1      -8.853  15.933  69.049  1.00  0.00    -0.228 N  
BRANCH  14  15
HETATM   15  C   UNL     1      -7.570  16.307  68.446  1.00  0.00    -0.166 C  
HETATM   16  C   UNL     1      -7.267  18.924  68.100  1.00  0.00    -0.253 C  
HETATM   17  C   UNL     1      -6.875  17.616  68.868  1.00  0.00    -0.243 C  
HETATM   18  C   UNL     1      -8.498  19.577  68.732  1.00  0.00    -0.337 C  
HETATM   19  C   UNL     1      -9.781  18.814  68.444  1.00  0.00    -0.421 C  
HETATM   20  C   UNL     1      -9.824  18.106  67.074  1.00  0.00    -0.324 C  
HETATM   21  C   UNL     1      -8.469  17.673  66.459  1.00  0.00    -0.264 C  
HETATM   22  N   UNL     1      -7.449  18.699  66.654  1.00  0.00    -0.225 NA 
HETATM   23  C   UNL     1      -7.823  16.353  66.929  1.00  0.00    -0.273 C  
HETATM   24  C   UNL     1      -7.736  19.906  65.871  1.00  0.00    -0.315 C  
ENDBRANCH  14  15
ENDBRANCH   4  11
TORSDOF 2
ENDMDL
MODEL       39
REMARK 921   NORMALIZED FREE ENERGY PREDICTED BY IDOCK:   -6.18 KCAL/MOL
REMARK 922        TOTAL FREE ENERGY PREDICTED BY IDOCK:   -7.63 KCAL/MOL
REMARK 923 INTER-LIGAND FREE ENERGY PREDICTED BY IDOCK:   -7.24 KCAL/MOL
REMARK 924 INTRA-LIGAND FREE ENERGY PREDICTED BY IDOCK:   -0.39 KCAL/MOL
REMARK 927      BINDING AFFINITY PREDICTED BY RF-SCORE:    0.00 PKD
ROOT
HETATM    1  C   UNL     1     -13.896  13.449  72.296  1.00  0.00    -0.573 C  
HETATM    2  N   UNL     1     -12.934  12.977  71.327  1.00  0.00    -0.293 NA 
HETATM    3  N   UNL     1     -12.508  13.812  70.385  1.00  0.00    -0.331 NA 
HETATM    4  C   UNL     1     -11.872  13.030  69.483  1.00  0.00    -0.323 A  
HETATM    5  C   UNL     1     -11.712  11.707  70.009  1.00  0.00    -0.402 A  
HETATM    6  C   UNL     1     -11.323   9.334  70.397  1.00  0.00    -0.283 A  
HETATM    7  C   UNL     1     -12.460  11.704  71.197  1.00  0.00    -0.307 A  
HETATM    8  C   UNL     1     -12.090   9.373  71.562  1.00  0.00    -0.456 A  
HETATM    9  C   UNL     1     -11.136  10.483  69.607  1.00  0.00    -0.338 A  
HETATM   10  C   UNL     1     -12.677  10.563  71.981  1.00  0.00    -0.327 A  
ENDROOT
BRANCH   4  11
HETATM   11  C   UNL     1     -11.689  13.632  68.161  1.00  0.00    -0.357 C  
HETATM   12  H   UNL     1     -11.531  14.979  66.805  1.00  0.00     0.000 HD 
HETATM   13  O   UNL     1     -11.705  12.912  67.148  1.00  0.00    -0.344 OA 
HETATM   14  N   UNL     1     -11.509  14.932  67.824  1.00  0.00    -0.330 N  
BRANCH  14  15
HETATM   15  C   UNL     1     -11.295  16.298  68.312  1.00  0.00    -0.280 C  
HETATM   16  C   UNL     1      -9.198  17.513  67.223  1.00  0.00    -0.240 C  
HETATM   17  C   UNL     1     -10.754  17.379  67.357  1.00  0.00    -0.251 C  
HETATM   18  C   UNL     1      -8.660  16.552  66.161  1.00  0.00    -0.334 C  
HETATM   19  C   UNL     1      -8.672  15.102  66.620  1.00  0.00    -0.308 C  
HETATM   20  C   UNL     1      -8.431  14.895  68.130  1.00  0.00    -0.146 C  
HETATM   21  C   UNL     1      -8.850  16.048  69.077  1.00  0.00    -0.244 C  
HETATM   22  N   UNL     1      -8.502  17.348  68.513  1.00  0.00    -0.269 NA 
HETATM   23  C   UNL     1     -10.330  16.165  69.502  1.00  0.00    -0.282 C  
HETATM   24  C   UNL     1      -7.049  17.546  68.462  1.00  0.00    -0.226 C  
ENDBRANCH  14  15
ENDBRANCH   4  11
TORSDOF 2
ENDMDL
MODEL       40
REMARK 921   NORMALIZED FREE ENERGY PREDICTED BY IDOCK:   -6.18 KCAL/MOL
REMARK 922        TOTAL FREE ENERGY PREDICTED BY IDOCK:   -7.63 KCAL/MOL
REMARK 923 INTER-LIGAND FREE ENERGY PREDICTED BY IDOCK:   -6.94 KCAL/MOL
REMARK 924 INTRA-LIGAND FREE ENERGY PREDICTED BY IDOCK:   -0.69 KCAL/MOL
REMARK 927      BINDING AFFINITY PREDICTED BY RF-SCORE:    0.00 PKD
ROOT
HETATM    1  C   UNL     1     -10.634  11.402  63.515  1.00  0.00    -0.402 C  
HETATM    2  N   UNL     1     -10.619  11.337  64.959  1.00  0.00    -0.299 NA 
HETATM    3  N   UNL     1     -10.148  10.244  65.548  1.00  0.00    -0.293 NA 
HETATM    4  C   UNL     1     -10.527  10.349  66.842  1.00  0.00    -0.240 A  
HETATM    5  C   UNL     1     -11.050  11.659  67.093  1.00  0.00    -0.354 A  
HETATM    6  C   UNL     1     -12.122  13.662  67.970  1.00  0.00    -0.309 A  
HETATM    7  C   UNL     1     -11.135  12.257  65.825  1.00  0.00    -0.323 A  
HETATM    8  C   UNL     1     -12.202  14.211  66.689  1.00  0.00    -0.450 A  
HETATM    9  C   UNL     1     -11.565  12.388  68.185  1.00  0.00    -0.395 A  
HETATM   10  C   UNL     1     -11.711  13.512  65.590  1.00  0.00    -0.363 A  
ENDROOT
BRANCH   4  11
HETATM   11  C   UNL     1     -10.507   9.095  67.597  1.00  0.00    -0.261 C  
HETATM   12  H   UNL     1     -10.203   7.870  69.042  1.00  0.00     0.000 HD 
HETATM   13  O   UNL     1     -10.759   8.023  67.019  1.00  0.00    -0.328 OA 
HETATM   14  N   UNL     1     -10.226   8.881  68.905  1.00  0.00    -0.202 N  
BRANCH  14  15
HETATM   15  C   UNL     1      -9.941   9.495  70.205  1.00  0.00    -0.259 C  
HETATM   16  C   UNL     1      -9.055   7.782  72.033  1.00  0.00    -0.137 C  
HETATM   17  C   UNL     1      -8.769   8.977  71.060  1.00  0.00    -0.280 C  
HETATM   18  C   UNL     1      -8.896   6.443  71.311  1.00  0.00    -0.138 C  
HETATM   19  C   UNL     1     -10.033   6.157  70.343  1.00  0.00    -0.223 C  
HETATM   20  C   UNL     1     -11.407   6.715  70.770  1.00  0.00    -0.389 C  
HETATM   21  C   UNL     1     -11.409   7.974  71.673  1.00  0.00    -0.262 C  
HETATM   22  N   UNL     1     -10.369   7.894  72.694  1.00  0.00    -0.281 NA 
HETATM   23  C   UNL     1     -11.239   9.362  71.019  1.00  0.00    -0.412 C  
HETATM   24  C   UNL     1     -10.657   6.846  73.681  1.00  0.00    -0.340 C  
ENDBRANCH  14  15
ENDBRANCH   4  11
TORSDOF 2
ENDMDL
MODEL       41
REMARK 921   NORMALIZED FREE ENERGY PREDICTED BY IDOCK:   -6.16 KCAL/MOL
REMARK 922        TOTAL FREE ENERGY PREDICTED BY IDOCK:   -7.61 KCAL/MOL
REMARK 923 INTER-LIGAND FREE ENERGY PREDICTED BY IDOCK:   -7.04 KCAL/MOL
REMARK 924 INTRA-LIGAND FREE ENERGY PREDICTED BY IDOCK:   -0.57 KCAL/MOL
REMARK 927      BINDING AFFINITY PREDICTED BY RF-SCORE:    0.00 PKD
ROOT
HETATM    1  C   UNL     1     -12.368  12.592  64.254  1.00  0.00    -0.435 C  
HETATM    2  N   UNL     1     -12.084  12.872  65.643  1.00  0.00    -0.438 NA 
HETATM    3  N   UNL     1     -12.363  14.078  66.126  1.00  0.00    -0.466 NA 
HETATM    4  C   UNL     1     -11.734  14.133  67.322  1.00  0.00    -0.392 A  
HETATM    5  C   UNL     1     -11.245  12.834  67.678  1.00  0.00    -0.323 A  
HETATM    6  C   UNL     1     -10.132  10.896  68.646  1.00  0.00    -0.200 A  
HETATM    7  C   UNL     1     -11.455  12.050  66.532  1.00  0.00    -0.349 A  
HETATM    8  C   UNL     1     -10.346  10.159  67.481  1.00  0.00    -0.279 A  
HETATM    9  C   UNL     1     -10.561  12.232  68.755  1.00  0.00    -0.223 A  
HETATM   10  C   UNL     1     -11.011  10.728  66.398  1.00  0.00    -0.108 A  
ENDROOT
BRANCH   4  11
HETATM   11  C   UNL     1     -11.528  15.482  67.853  1.00  0.00    -0.272 C  
HETATM   12  H   UNL     1     -10.812  17.251  68.039  1.00  0.00     0.000 HD 
HETATM   13  O   UNL     1     -12.036  15.800  68.943  1.00  0.00    -0.382 OA 
HETATM   14  N   UNL     1     -10.817  16.512  67.336  1.00  0.00    -0.256 N  
BRANCH  14  15
HETATM   15  C   UNL     1     -10.052  17.008  66.188  1.00  0.00    -0.319 C  
HETATM   16  C   UNL     1      -7.754  18.168  66.847  1.00  0.00    -0.224 C  
HETATM   17  C   UNL     1      -8.512  16.954  66.209  1.00  0.00    -0.322 C  
HETATM   18  C   UNL     1      -7.610  17.985  68.359  1.00  0.00    -0.288 C  
HETATM   19  C   UNL     1      -8.920  18.186  69.104  1.00  0.00     0.097 C  
HETATM   20  C   UNL     1      -9.872  19.226  68.478  1.00  0.00    -0.498 C  
HETATM   21  C   UNL     1      -9.767  19.450  66.949  1.00  0.00    -0.343 C  
HETATM   22  N   UNL     1      -8.375  19.463  66.510  1.00  0.00    -0.312 NA 
HETATM   23  C   UNL     1     -10.490  18.470  65.999  1.00  0.00    -0.433 C  
HETATM   24  C   UNL     1      -7.659  20.642  67.013  1.00  0.00    -0.275 C  
ENDBRANCH  14  15
ENDBRANCH   4  11
TORSDOF 2
ENDMDL
MODEL       42
REMARK 921   NORMALIZED FREE ENERGY PREDICTED BY IDOCK:   -6.15 KCAL/MOL
REMARK 922        TOTAL FREE ENERGY PREDICTED BY IDOCK:   -7.59 KCAL/MOL
REMARK 923 INTER-LIGAND FREE ENERGY PREDICTED BY IDOCK:   -7.12 KCAL/MOL
REMARK 924 INTRA-LIGAND FREE ENERGY PREDICTED BY IDOCK:   -0.47 KCAL/MOL
REMARK 927      BINDING AFFINITY PREDICTED BY RF-SCORE:    0.00 PKD
ROOT
HETATM    1  C   UNL     1      -9.951  10.330  65.968  1.00  0.00    -0.245 C  
HETATM    2  N   UNL     1     -10.730  11.022  66.970  1.00  0.00    -0.257 NA 
HETATM    3  N   UNL     1     -11.145  12.259  66.719  1.00  0.00    -0.279 NA 
HETATM    4  C   UNL     1     -11.571  12.736  67.911  1.00  0.00    -0.351 A  
HETATM    5  C   UNL     1     -11.626  11.674  68.871  1.00  0.00    -0.377 A  
HETATM    6  C   UNL     1     -11.761  10.268  70.855  1.00  0.00    -0.472 A  
HETATM    7  C   UNL     1     -11.025  10.581  68.226  1.00  0.00    -0.263 A  
HETATM    8  C   UNL     1     -11.144   9.214  70.181  1.00  0.00    -0.248 A  
HETATM    9  C   UNL     1     -11.996  11.502  70.221  1.00  0.00    -0.455 A  
HETATM   10  C   UNL     1     -10.760   9.355  68.850  1.00  0.00    -0.203 A  
ENDROOT
BRANCH   4  11
HETATM   11  C   UNL     1     -11.674  14.194  67.994  1.00  0.00    -0.359 C  
HETATM   12  H   UNL     1     -11.269  16.045  67.698  1.00  0.00     0.000 HD 
HETATM   13  O   UNL     1     -12.441  14.712  68.825  1.00  0.00    -0.071 OA 
HETATM   14  N   UNL     1     -11.021  15.146  67.286  1.00  0.00    -0.321 N  
BRANCH  14  15
HETATM   15  C   UNL     1     -10.107  15.423  66.173  1.00  0.00    -0.305 C  
HETATM   16  C   UNL     1      -8.160  17.126  66.779  1.00  0.00    -0.243 C  
HETATM   17  C   UNL     1      -8.610  15.662  66.449  1.00  0.00    -0.319 C  
HETATM   18  C   UNL     1      -8.305  17.415  68.275  1.00  0.00    -0.248 C  
HETATM   19  C   UNL     1      -9.755  17.577  68.705  1.00  0.00    -0.319 C  
HETATM   20  C   UNL     1     -10.684  18.200  67.642  1.00  0.00    -0.364 C  
HETATM   21  C   UNL     1     -10.298  17.989  66.156  1.00  0.00    -0.366 C  
HETATM   22  N   UNL     1      -8.859  18.132  65.958  1.00  0.00    -0.508 NA 
HETATM   23  C   UNL     1     -10.680  16.663  65.465  1.00  0.00    -0.234 C  
HETATM   24  C   UNL     1      -8.418  19.517  66.165  1.00  0.00    -0.314 C  
ENDBRANCH  14  15
ENDBRANCH   4  11
TORSDOF 2
ENDMDL
MODEL       43
REMARK 921   NORMALIZED FREE ENERGY PREDICTED BY IDOCK:   -6.14 KCAL/MOL
REMARK 922        TOTAL FREE ENERGY PREDICTED BY IDOCK:   -7.58 KCAL/MOL
REMARK 923 INTER-LIGAND FREE ENERGY PREDICTED BY IDOCK:   -7.18 KCAL/MOL
REMARK 924 INTRA-LIGAND FREE ENERGY PREDICTED BY IDOCK:   -0.40 KCAL/MOL
REMARK 927      BINDING AFFINITY PREDICTED BY RF-SCORE:    0.00 PKD
ROOT
HETATM    1  C   UNL     1     -11.914  14.312  69.750  1.00  0.00    -0.339 C  
HETATM    2  N   UNL     1     -11.870  13.254  68.766  1.00  0.00    -0.326 NA 
HETATM    3  N   UNL     1     -11.784  11.994  69.181  1.00  0.00    -0.311 NA 
HETATM    4  C   UNL     1     -11.470  11.280  68.076  1.00  0.00    -0.298 A  
HETATM    5  C   UNL     1     -11.591  12.104  66.910  1.00  0.00    -0.408 A  
HETATM    6  C   UNL     1     -11.525  13.110  64.693  1.00  0.00    -0.368 A  
HETATM    7  C   UNL     1     -11.810  13.398  67.411  1.00  0.00    -0.375 A  
HETATM    8  C   UNL     1     -11.726  14.379  65.235  1.00  0.00    -0.364 A  
HETATM    9  C   UNL     1     -11.442  11.970  65.514  1.00  0.00    -0.368 A  
HETATM   10  C   UNL     1     -11.869  14.546  66.610  1.00  0.00    -0.383 A  
ENDROOT
BRANCH   4  11
HETATM   11  C   UNL     1     -10.906   9.954  68.335  1.00  0.00    -0.221 C  
HETATM   12  H   UNL     1     -10.190   8.463  69.306  1.00  0.00     0.000 HD 
HETATM   13  O   UNL     1     -10.518   9.253  67.384  1.00  0.00    -0.249 OA 
HETATM   14  N   UNL     1     -10.703   9.319  69.514  1.00  0.00    -0.229 N  
BRANCH  14  15
HETATM   15  C   UNL     1     -10.912   9.350  70.965  1.00  0.00    -0.338 C  
HETATM   16  C   UNL     1      -9.826   7.295  72.252  1.00  0.00    -0.154 C  
HETATM   17  C   UNL     1      -9.816   8.825  71.911  1.00  0.00    -0.395 C  
HETATM   18  C   UNL     1      -9.056   6.498  71.197  1.00  0.00    -0.152 C  
HETATM   19  C   UNL     1      -9.806   6.389  69.879  1.00  0.00    -0.191 C  
HETATM   20  C   UNL     1     -11.343   6.334  70.007  1.00  0.00    -0.486 C  
HETATM   21  C   UNL     1     -11.974   7.022  71.243  1.00  0.00    -0.346 C  
HETATM   22  N   UNL     1     -11.189   6.768  72.448  1.00  0.00    -0.255 NA 
HETATM   23  C   UNL     1     -12.201   8.549  71.214  1.00  0.00    -0.310 C  
HETATM   24  C   UNL     1     -11.257   5.358  72.851  1.00  0.00    -0.314 C  
ENDBRANCH  14  15
ENDBRANCH   4  11
TORSDOF 2
ENDMDL
MODEL       44
REMARK 921   NORMALIZED FREE ENERGY PREDICTED BY IDOCK:   -6.10 KCAL/MOL
REMARK 922        TOTAL FREE ENERGY PREDICTED BY IDOCK:   -7.54 KCAL/MOL
REMARK 923 INTER-LIGAND FREE ENERGY PREDICTED BY IDOCK:   -6.83 KCAL/MOL
REMARK 924 INTRA-LIGAND FREE ENERGY PREDICTED BY IDOCK:   -0.71 KCAL/MOL
REMARK 927      BINDING AFFINITY PREDICTED BY RF-SCORE:    0.00 PKD
ROOT
HETATM    1  C   UNL     1     -10.395   6.982  69.914  1.00  0.00    -0.210 C  
HETATM    2  N   UNL     1     -10.706   8.361  69.614  1.00  0.00    -0.225 NA 
HETATM    3  N   UNL     1     -10.118   8.940  68.572  1.00  0.00    -0.183 NA 
HETATM    4  C   UNL     1     -10.366  10.262  68.719  1.00  0.00    -0.195 A  
HETATM    5  C   UNL     1     -11.327  10.467  69.761  1.00  0.00    -0.367 A  
HETATM    6  C   UNL     1     -12.802  11.325  71.499  1.00  0.00    -0.519 A  
HETATM    7  C   UNL     1     -11.489   9.203  70.349  1.00  0.00    -0.194 A  
HETATM    8  C   UNL     1     -12.919  10.054  72.062  1.00  0.00    -0.514 A  
HETATM    9  C   UNL     1     -12.003  11.549  70.363  1.00  0.00    -0.459 A  
HETATM   10  C   UNL     1     -12.258   8.967  71.496  1.00  0.00    -0.388 A  
ENDROOT
BRANCH   4  11
HETATM   11  C   UNL     1      -9.482  11.146  67.955  1.00  0.00    -0.174 C  
HETATM   12  H   UNL     1      -8.870  12.701  67.016  1.00  0.00     0.000 HD 
HETATM   13  O   UNL     1      -8.433  10.694  67.465  1.00  0.00    -0.121 OA 
HETATM   14  N   UNL     1      -9.627  12.458  67.655  1.00  0.00    -0.188 N  
BRANCH  14  15
HETATM   15  C   UNL     1     -10.417  13.675  67.864  1.00  0.00    -0.247 C  
HETATM   16  C   UNL     1     -12.439  13.951  66.162  1.00  0.00    -0.436 C  
HETATM   17  C   UNL     1     -11.938  13.656  67.618  1.00  0.00    -0.386 C  
HETATM   18  C   UNL     1     -12.461  12.671  65.325  1.00  0.00    -0.483 C  
HETATM   19  C   UNL     1     -11.069  12.196  64.938  1.00  0.00    -0.367 C  
HETATM   20  C   UNL     1     -10.037  13.321  64.713  1.00  0.00    -0.250 C  
HETATM   21  C   UNL     1     -10.255  14.646  65.486  1.00  0.00    -0.370 C  
HETATM   22  N   UNL     1     -11.666  15.021  65.504  1.00  0.00    -0.217 NA 
HETATM   23  C   UNL     1      -9.785  14.741  66.954  1.00  0.00    -0.247 C  
HETATM   24  C   UNL     1     -12.143  15.398  64.168  1.00  0.00    -0.088 C  
ENDBRANCH  14  15
ENDBRANCH   4  11
TORSDOF 2
ENDMDL
MODEL       45
REMARK 921   NORMALIZED FREE ENERGY PREDICTED BY IDOCK:   -6.07 KCAL/MOL
REMARK 922        TOTAL FREE ENERGY PREDICTED BY IDOCK:   -7.50 KCAL/MOL
REMARK 923 INTER-LIGAND FREE ENERGY PREDICTED BY IDOCK:   -6.83 KCAL/MOL
REMARK 924 INTRA-LIGAND FREE ENERGY PREDICTED BY IDOCK:   -0.67 KCAL/MOL
REMARK 927      BINDING AFFINITY PREDICTED BY RF-SCORE:    0.00 PKD
ROOT
HETATM    1  C   UNL     1     -13.479   9.273  72.337  1.00  0.00    -0.459 C  
HETATM    2  N   UNL     1     -12.396   9.818  71.550  1.00  0.00    -0.378 NA 
HETATM    3  N   UNL     1     -12.655  10.801  70.695  1.00  0.00    -0.350 NA 
HETATM    4  C   UNL     1     -11.551  10.892  69.918  1.00  0.00    -0.331 A  
HETATM    5  C   UNL     1     -10.500  10.087  70.466  1.00  0.00    -0.265 A  
HETATM    6  C   UNL     1      -8.486   8.794  70.918  1.00  0.00    -0.209 A  
HETATM    7  C   UNL     1     -11.109   9.368  71.506  1.00  0.00    -0.376 A  
HETATM    8  C   UNL     1      -9.136   8.090  71.933  1.00  0.00    -0.210 A  
HETATM    9  C   UNL     1      -9.155   9.781  70.171  1.00  0.00    -0.240 A  
HETATM   10  C   UNL     1     -10.466   8.364  72.242  1.00  0.00    -0.407 A  
ENDROOT
BRANCH   4  11
HETATM   11  C   UNL     1     -11.745  11.592  68.646  1.00  0.00    -0.325 C  
HETATM   12  H   UNL     1     -11.977  13.037  67.407  1.00  0.00     0.000 HD 
HETATM   13  O   UNL     1     -12.036  10.946  67.625  1.00  0.00    -0.512 OA 
HETATM   14  N   UNL     1     -11.674  12.917  68.373  1.00  0.00    -0.326 N  
BRANCH  14  15
HETATM   15  C   UNL     1     -11.342  14.250  68.886  1.00  0.00    -0.274 C  
HETATM   16  C   UNL     1     -10.783  16.024  66.990  1.00  0.00    -0.277 C  
HETATM   17  C   UNL     1     -11.763  15.504  68.097  1.00  0.00    -0.241 C  
HETATM   18  C   UNL     1     -11.038  15.312  65.660  1.00  0.00    -0.308 C  
HETATM   19  C   UNL     1     -10.552  13.871  65.661  1.00  0.00    -0.306 C  
HETATM   20  C   UNL     1      -9.297  13.609  66.519  1.00  0.00    -0.242 C  
HETATM   21  C   UNL     1      -9.061  14.544  67.732  1.00  0.00    -0.190 C  
HETATM   22  N   UNL     1      -9.368  15.931  67.397  1.00  0.00    -0.209 NA 
HETATM   23  C   UNL     1      -9.813  14.262  69.050  1.00  0.00    -0.074 C  
HETATM   24  C   UNL     1      -8.408  16.481  66.432  1.00  0.00    -0.322 C  
ENDBRANCH  14  15
ENDBRANCH   4  11
TORSDOF 2
ENDMDL
MODEL       46
REMARK 921   NORMALIZED FREE ENERGY PREDICTED BY IDOCK:   -6.06 KCAL/MOL
REMARK 922        TOTAL FREE ENERGY PREDICTED BY IDOCK:   -7.50 KCAL/MOL
REMARK 923 INTER-LIGAND FREE ENERGY PREDICTED BY IDOCK:   -6.64 KCAL/MOL
REMARK 924 INTRA-LIGAND FREE ENERGY PREDICTED BY IDOCK:   -0.86 KCAL/MOL
REMARK 927      BINDING AFFINITY PREDICTED BY RF-SCORE:    0.00 PKD
ROOT
HETATM    1  C   UNL     1     -12.318  12.694  63.348  1.00  0.00    -0.456 C  
HETATM    2  N   UNL     1     -11.743  12.161  64.562  1.00  0.00    -0.348 NA 
HETATM    3  N   UNL     1     -12.276  12.505  65.730  1.00  0.00    -0.626 NA 
HETATM    4  C   UNL     1     -11.376  12.109  66.658  1.00  0.00    -0.350 A  
HETATM    5  C   UNL     1     -10.368  11.295  66.046  1.00  0.00    -0.302 A  
HETATM    6  C   UNL     1      -8.392   9.995  65.464  1.00  0.00    -0.151 A  
HETATM    7  C   UNL     1     -10.621  11.392  64.669  1.00  0.00    -0.318 A  
HETATM    8  C   UNL     1      -8.672  10.133  64.104  1.00  0.00    -0.216 A  
HETATM    9  C   UNL     1      -9.219  10.579  66.442  1.00  0.00    -0.190 A  
HETATM   10  C   UNL     1      -9.794  10.840  63.682  1.00  0.00    -0.406 A  
ENDROOT
BRANCH   4  11
HETATM   11  C   UNL     1     -11.519  12.744  67.970  1.00  0.00    -0.318 C  
HETATM   12  H   UNL     1     -11.554  14.116  69.309  1.00  0.00     0.000 HD 
HETATM   13  O   UNL     1     -11.603  12.038  68.990  1.00  0.00    -0.264 OA 
HETATM   14  N   UNL     1     -11.561  14.059  68.291  1.00  0.00    -0.309 N  
BRANCH  14  15
HETATM   15  C   UNL     1     -11.612  15.434  67.785  1.00  0.00    -0.228 C  
HETATM   16  C   UNL     1      -9.307  16.298  66.785  1.00  0.00    -0.237 C  
HETATM   17  C   UNL     1     -10.783  15.829  66.548  1.00  0.00    -0.283 C  
HETATM   18  C   UNL     1      -8.356  15.100  66.825  1.00  0.00    -0.225 C  
HETATM   19  C   UNL     1      -8.489  14.286  68.103  1.00  0.00    -0.167 C  
HETATM   20  C   UNL     1      -8.853  15.103  69.360  1.00  0.00    -0.172 C  
HETATM   21  C   UNL     1      -9.657  16.410  69.145  1.00  0.00    -0.249 C  
HETATM   22  N   UNL     1      -9.168  17.146  67.984  1.00  0.00    -0.244 NA 
HETATM   23  C   UNL     1     -11.188  16.325  68.965  1.00  0.00    -0.326 C  
HETATM   24  C   UNL     1      -7.821  17.683  68.210  1.00  0.00    -0.256 C  
ENDBRANCH  14  15
ENDBRANCH   4  11
TORSDOF 2
ENDMDL
MODEL       47
REMARK 921   NORMALIZED FREE ENERGY PREDICTED BY IDOCK:   -6.00 KCAL/MOL
REMARK 922        TOTAL FREE ENERGY PREDICTED BY IDOCK:   -7.43 KCAL/MOL
REMARK 923 INTER-LIGAND FREE ENERGY PREDICTED BY IDOCK:   -6.93 KCAL/MOL
REMARK 924 INTRA-LIGAND FREE ENERGY PREDICTED BY IDOCK:   -0.49 KCAL/MOL
REMARK 927      BINDING AFFINITY PREDICTED BY RF-SCORE:    0.00 PKD
ROOT
HETATM    1  C   UNL     1      -8.997   9.054  69.476  1.00  0.00    -0.147 C  
HETATM    2  N   UNL     1     -10.244   9.744  69.719  1.00  0.00    -0.225 NA 
HETATM    3  N   UNL     1     -10.484  10.883  69.078  1.00  0.00    -0.210 NA 
HETATM    4  C   UNL     1     -11.548  11.427  69.711  1.00  0.00    -0.332 A  
HETATM    5  C   UNL     1     -12.112  10.477  70.623  1.00  0.00    -0.452 A  
HETATM    6  C   UNL     1     -13.328   9.289  72.367  1.00  0.00    -0.521 A  
HETATM    7  C   UNL     1     -11.202   9.408  70.630  1.00  0.00    -0.284 A  
HETATM    8  C   UNL     1     -12.389   8.257  72.354  1.00  0.00    -0.385 A  
HETATM    9  C   UNL     1     -13.197  10.406  71.522  1.00  0.00    -0.485 A  
HETATM   10  C   UNL     1     -11.303   8.301  71.484  1.00  0.00    -0.320 A  
ENDROOT
BRANCH   4  11
HETATM   11  C   UNL     1     -11.740  12.860  69.480  1.00  0.00    -0.323 C  
HETATM   12  H   UNL     1     -11.551  14.594  68.684  1.00  0.00     0.000 HD 
HETATM   13  O   UNL     1     -12.344  13.545  70.325  1.00  0.00    -0.326 OA 
HETATM   14  N   UNL     1     -11.332  13.628  68.442  1.00  0.00    -0.275 N  
BRANCH  14  15
HETATM   15  C   UNL     1     -10.706  13.650  67.116  1.00  0.00    -0.277 C  
HETATM   16  C   UNL     1      -8.405  14.976  67.034  1.00  0.00    -0.222 C  
HETATM   17  C   UNL     1      -9.171  13.610  66.990  1.00  0.00    -0.254 C  
HETATM   18  C   UNL     1      -8.103  15.383  68.478  1.00  0.00    -0.142 C  
HETATM   19  C   UNL     1      -9.340  15.851  69.229  1.00  0.00    -0.259 C  
HETATM   20  C   UNL     1     -10.393  16.574  68.362  1.00  0.00    -0.294 C  
HETATM   21  C   UNL     1     -10.451  16.198  66.860  1.00  0.00    -0.300 C  
HETATM   22  N   UNL     1      -9.111  16.044  66.302  1.00  0.00    -0.315 NA 
HETATM   23  C   UNL     1     -11.222  14.930  66.436  1.00  0.00    -0.331 C  
HETATM   24  C   UNL     1      -8.399  17.327  66.240  1.00  0.00    -0.254 C  
ENDBRANCH  14  15
ENDBRANCH   4  11
TORSDOF 2
ENDMDL
MODEL       48
REMARK 921   NORMALIZED FREE ENERGY PREDICTED BY IDOCK:   -6.00 KCAL/MOL
REMARK 922        TOTAL FREE ENERGY PREDICTED BY IDOCK:   -7.42 KCAL/MOL
REMARK 923 INTER-LIGAND FREE ENERGY PREDICTED BY IDOCK:   -6.60 KCAL/MOL
REMARK 924 INTRA-LIGAND FREE ENERGY PREDICTED BY IDOCK:   -0.82 KCAL/MOL
REMARK 927      BINDING AFFINITY PREDICTED BY RF-SCORE:    0.00 PKD
ROOT
HETATM    1  C   UNL     1     -10.168  19.732  66.030  1.00  0.00    -0.501 C  
HETATM    2  N   UNL     1      -9.647  18.385  65.992  1.00  0.00    -0.507 NA 
HETATM    3  N   UNL     1     -10.382  17.427  65.437  1.00  0.00    -0.632 NA 
HETATM    4  C   UNL     1      -9.789  16.269  65.807  1.00  0.00    -0.299 A  
HETATM    5  C   UNL     1      -8.522  16.541  66.418  1.00  0.00    -0.357 A  
HETATM    6  C   UNL     1      -6.403  16.496  67.618  1.00  0.00    -0.172 A  
HETATM    7  C   UNL     1      -8.490  17.938  66.560  1.00  0.00    -0.258 A  
HETATM    8  C   UNL     1      -6.420  17.885  67.752  1.00  0.00    -0.192 A  
HETATM    9  C   UNL     1      -7.447  15.812  66.969  1.00  0.00    -0.242 A  
HETATM   10  C   UNL     1      -7.471  18.632  67.227  1.00  0.00    -0.225 A  
ENDROOT
BRANCH   4  11
HETATM   11  C   UNL     1     -10.630  15.076  65.689  1.00  0.00    -0.346 C  
HETATM   12  H   UNL     1     -11.426  13.387  66.124  1.00  0.00     0.000 HD 
HETATM   13  O   UNL     1     -11.213  14.837  64.616  1.00  0.00    -0.377 OA 
HETATM   14  N   UNL     1     -10.890  14.111  66.602  1.00  0.00    -0.296 N  
BRANCH  14  15
HETATM   15  C   UNL     1     -10.722  13.673  67.991  1.00  0.00    -0.247 C  
HETATM   16  C   UNL     1      -8.946  11.720  68.296  1.00  0.00    -0.180 C  
HETATM   17  C   UNL     1      -9.336  13.225  68.494  1.00  0.00    -0.091 C  
HETATM   18  C   UNL     1      -8.327  11.497  66.915  1.00  0.00    -0.166 C  
HETATM   19  C   UNL     1      -9.351  11.561  65.792  1.00  0.00    -0.238 C  
HETATM   20  C   UNL     1     -10.759  11.052  66.167  1.00  0.00    -0.257 C  
HETATM   21  C   UNL     1     -11.179  11.162  67.654  1.00  0.00    -0.297 C  
HETATM   22  N   UNL     1     -10.076  10.805  68.542  1.00  0.00    -0.168 NA 
HETATM   23  C   UNL     1     -11.713  12.511  68.181  1.00  0.00    -0.400 C  
HETATM   24  C   UNL     1      -9.749   9.377  68.452  1.00  0.00    -0.149 C  
ENDBRANCH  14  15
ENDBRANCH   4  11
TORSDOF 2
ENDMDL
MODEL       49
REMARK 921   NORMALIZED FREE ENERGY PREDICTED BY IDOCK:   -5.97 KCAL/MOL
REMARK 922        TOTAL FREE ENERGY PREDICTED BY IDOCK:   -7.40 KCAL/MOL
REMARK 923 INTER-LIGAND FREE ENERGY PREDICTED BY IDOCK:   -6.82 KCAL/MOL
REMARK 924 INTRA-LIGAND FREE ENERGY PREDICTED BY IDOCK:   -0.57 KCAL/MOL
REMARK 927      BINDING AFFINITY PREDICTED BY RF-SCORE:    0.00 PKD
ROOT
HETATM    1  C   UNL     1     -12.843  10.285  71.781  1.00  0.00    -0.460 C  
HETATM    2  N   UNL     1     -12.607  11.452  70.960  1.00  0.00    -0.404 NA 
HETATM    3  N   UNL     1     -11.946  11.309  69.816  1.00  0.00    -0.336 NA 
HETATM    4  C   UNL     1     -11.629  12.567  69.434  1.00  0.00    -0.305 A  
HETATM    5  C   UNL     1     -12.316  13.517  70.258  1.00  0.00    -0.370 A  
HETATM    6  C   UNL     1     -13.137  15.478  71.445  1.00  0.00    -0.580 A  
HETATM    7  C   UNL     1     -12.908  12.746  71.271  1.00  0.00    -0.262 A  
HETATM    8  C   UNL     1     -13.695  14.674  72.440  1.00  0.00    -0.575 A  
HETATM    9  C   UNL     1     -12.437  14.919  70.361  1.00  0.00    -0.403 A  
HETATM   10  C   UNL     1     -13.585  13.288  72.371  1.00  0.00    -0.694 A  
ENDROOT
BRANCH   4  11
HETATM   11  C   UNL     1     -10.549  12.661  68.450  1.00  0.00    -0.243 C  
HETATM   12  H   UNL     1      -9.397  12.183  66.993  1.00  0.00     0.000 HD 
HETATM   13  O   UNL     1      -9.691  13.555  68.560  1.00  0.00    -0.222 OA 
HETATM   14  N   UNL     1     -10.293  11.880  67.373  1.00  0.00    -0.205 N  
BRANCH  14  15
HETATM   15  C   UNL     1     -10.768  10.781  66.527  1.00  0.00    -0.181 C  
HETATM   16  C   UNL     1      -9.266   8.593  66.666  1.00  0.00    -0.181 C  
HETATM   17  C   UNL     1     -10.611   9.323  67.002  1.00  0.00    -0.263 C  
HETATM   18  C   UNL     1      -8.213   8.873  67.739  1.00  0.00    -0.110 C  
HETATM   19  C   UNL     1      -7.664  10.290  67.669  1.00  0.00    -0.090 C  
HETATM   20  C   UNL     1      -7.588  10.890  66.249  1.00  0.00    -0.136 C  
HETATM   21  C   UNL     1      -8.601  10.360  65.203  1.00  0.00    -0.180 C  
HETATM   22  N   UNL     1      -8.770   8.915  65.315  1.00  0.00    -0.183 NA 
HETATM   23  C   UNL     1     -10.031  10.943  65.187  1.00  0.00    -0.341 C  
HETATM   24  C   UNL     1      -7.555   8.195  64.913  1.00  0.00    -0.098 C  
ENDBRANCH  14  15
ENDBRANCH   4  11
TORSDOF 2
ENDMDL
MODEL       50
REMARK 921   NORMALIZED FREE ENERGY PREDICTED BY IDOCK:   -5.93 KCAL/MOL
REMARK 922        TOTAL FREE ENERGY PREDICTED BY IDOCK:   -7.35 KCAL/MOL
REMARK 923 INTER-LIGAND FREE ENERGY PREDICTED BY IDOCK:   -6.52 KCAL/MOL
REMARK 924 INTRA-LIGAND FREE ENERGY PREDICTED BY IDOCK:   -0.83 KCAL/MOL
REMARK 927      BINDING AFFINITY PREDICTED BY RF-SCORE:    0.00 PKD
ROOT
HETATM    1  C   UNL     1     -11.626  15.773  70.791  1.00  0.00    -0.398 C  
HETATM    2  N   UNL     1     -11.671  15.162  69.482  1.00  0.00    -0.308 NA 
HETATM    3  N   UNL     1     -12.104  13.910  69.372  1.00  0.00    -0.339 NA 
HETATM    4  C   UNL     1     -11.760  13.528  68.121  1.00  0.00    -0.361 A  
HETATM    5  C   UNL     1     -11.306  14.661  67.371  1.00  0.00    -0.368 A  
HETATM    6  C   UNL     1     -10.351  16.215  65.757  1.00  0.00    -0.398 A  
HETATM    7  C   UNL     1     -11.221  15.699  68.312  1.00  0.00    -0.353 A  
HETATM    8  C   UNL     1     -10.268  17.212  66.729  1.00  0.00    -0.311 A  
HETATM    9  C   UNL     1     -10.853  14.937  66.063  1.00  0.00    -0.328 A  
HETATM   10  C   UNL     1     -10.699  16.968  68.030  1.00  0.00    -0.365 A  
ENDROOT
BRANCH   4  11
HETATM   11  C   UNL     1     -11.738  12.081  67.900  1.00  0.00    -0.323 C  
HETATM   12  H   UNL     1     -11.424  10.399  67.033  1.00  0.00     0.000 HD 
HETATM   13  O   UNL     1     -12.369  11.330  68.665  1.00  0.00    -0.534 OA 
HETATM   14  N   UNL     1     -11.121  11.367  66.928  1.00  0.00    -0.296 N  
BRANCH  14  15
HETATM   15  C   UNL     1     -10.199  11.405  65.789  1.00  0.00    -0.248 C  
HETATM   16  C   UNL     1      -8.958   9.100  65.332  1.00  0.00    -0.207 C  
HETATM   17  C   UNL     1     -10.027  10.161  64.897  1.00  0.00    -0.358 C  
HETATM   18  C   UNL     1      -9.558   8.097  66.319  1.00  0.00    -0.248 C  
HETATM   19  C   UNL     1      -9.785   8.693  67.700  1.00  0.00    -0.201 C  
HETATM   20  C   UNL     1      -8.759   9.766  68.122  1.00  0.00    -0.119 C  
HETATM   21  C   UNL     1      -8.078  10.578  66.990  1.00  0.00    -0.118 C  
HETATM   22  N   UNL     1      -7.729   9.720  65.862  1.00  0.00    -0.103 NA 
HETATM   23  C   UNL     1      -8.828  11.780  66.378  1.00  0.00    -0.170 C  
HETATM   24  C   UNL     1      -6.659   8.777  66.208  1.00  0.00    -0.066 C  
ENDBRANCH  14  15
ENDBRANCH   4  11
TORSDOF 2
ENDMDL
MODEL       51
REMARK 921   NORMALIZED FREE ENERGY PREDICTED BY IDOCK:   -5.93 KCAL/MOL
REMARK 922        TOTAL FREE ENERGY PREDICTED BY IDOCK:   -7.34 KCAL/MOL
REMARK 923 INTER-LIGAND FREE ENERGY PREDICTED BY IDOCK:   -6.63 KCAL/MOL
REMARK 924 INTRA-LIGAND FREE ENERGY PREDICTED BY IDOCK:   -0.71 KCAL/MOL
REMARK 927      BINDING AFFINITY PREDICTED BY RF-SCORE:    0.00 PKD
ROOT
HETATM    1  C   UNL     1      -9.695   5.513  68.458  1.00  0.00    -0.134 C  
HETATM    2  N   UNL     1     -10.133   6.889  68.388  1.00  0.00    -0.161 NA 
HETATM    3  N   UNL     1     -10.091   7.517  67.219  1.00  0.00    -0.206 NA 
HETATM    4  C   UNL     1     -10.268   8.825  67.515  1.00  0.00    -0.246 A  
HETATM    5  C   UNL     1     -10.656   8.967  68.887  1.00  0.00    -0.203 A  
HETATM    6  C   UNL     1     -11.197   9.724  71.138  1.00  0.00    -0.444 A  
HETATM    7  C   UNL     1     -10.511   7.681  69.432  1.00  0.00    -0.220 A  
HETATM    8  C   UNL     1     -11.025   8.433  71.640  1.00  0.00    -0.345 A  
HETATM    9  C   UNL     1     -11.004  10.008  69.774  1.00  0.00    -0.317 A  
HETATM   10  C   UNL     1     -10.673   7.387  70.792  1.00  0.00    -0.245 A  
ENDROOT
BRANCH   4  11
HETATM   11  C   UNL     1      -9.842   9.760  66.472  1.00  0.00    -0.225 C  
HETATM   12  H   UNL     1      -9.689  11.388  65.470  1.00  0.00     0.000 HD 
HETATM   13  O   UNL     1      -9.231   9.335  65.476  1.00  0.00    -0.206 OA 
HETATM   14  N   UNL     1     -10.024  11.100  66.389  1.00  0.00    -0.210 N  
BRANCH  14  15
HETATM   15  C   UNL     1     -10.501  12.308  67.069  1.00  0.00    -0.216 C  
HETATM   16  C   UNL     1     -12.516  13.516  65.826  1.00  0.00    -0.462 C  
HETATM   17  C   UNL     1     -11.999  12.666  67.037  1.00  0.00    -0.330 C  
HETATM   18  C   UNL     1     -12.883  12.613  64.647  1.00  0.00    -0.361 C  
HETATM   19  C   UNL     1     -11.664  12.033  63.947  1.00  0.00    -0.537 C  
HETATM   20  C   UNL     1     -10.421  12.947  63.941  1.00  0.00    -0.333 C  
HETATM   21  C   UNL     1     -10.281  13.958  65.106  1.00  0.00    -0.358 C  
HETATM   22  N   UNL     1     -11.566  14.572  65.430  1.00  0.00    -0.349 NA 
HETATM   23  C   UNL     1      -9.705  13.471  66.453  1.00  0.00    -0.296 C  
HETATM   24  C   UNL     1     -12.033  15.453  64.353  1.00  0.00    -0.228 C  
ENDBRANCH  14  15
ENDBRANCH   4  11
TORSDOF 2
ENDMDL
MODEL       52
REMARK 921   NORMALIZED FREE ENERGY PREDICTED BY IDOCK:   -5.92 KCAL/MOL
REMARK 922        TOTAL FREE ENERGY PREDICTED BY IDOCK:   -7.33 KCAL/MOL
REMARK 923 INTER-LIGAND FREE ENERGY PREDICTED BY IDOCK:   -6.53 KCAL/MOL
REMARK 924 INTRA-LIGAND FREE ENERGY PREDICTED BY IDOCK:   -0.80 KCAL/MOL
REMARK 927      BINDING AFFINITY PREDICTED BY RF-SCORE:    0.00 PKD
ROOT
HETATM    1  C   UNL     1     -10.457   5.812  67.617  1.00  0.00    -0.235 C  
HETATM    2  N   UNL     1     -10.608   7.195  68.011  1.00  0.00    -0.204 NA 
HETATM    3  N   UNL     1     -10.557   8.138  67.076  1.00  0.00    -0.323 NA 
HETATM    4  C   UNL     1     -10.431   9.300  67.756  1.00  0.00    -0.255 A  
HETATM    5  C   UNL     1     -10.641   9.074  69.155  1.00  0.00    -0.219 A  
HETATM    6  C   UNL     1     -10.784   9.178  71.584  1.00  0.00    -0.441 A  
HETATM    7  C   UNL     1     -10.708   7.678  69.282  1.00  0.00    -0.161 A  
HETATM    8  C   UNL     1     -10.830   7.785  71.665  1.00  0.00    -0.265 A  
HETATM    9  C   UNL     1     -10.676   9.833  70.343  1.00  0.00    -0.368 A  
HETATM   10  C   UNL     1     -10.788   7.009  70.511  1.00  0.00    -0.279 A  
ENDROOT
BRANCH   4  11
HETATM   11  C   UNL     1      -9.930  10.428  66.967  1.00  0.00    -0.206 C  
HETATM   12  H   UNL     1      -9.934  12.058  65.956  1.00  0.00     0.000 HD 
HETATM   13  O   UNL     1      -8.766  10.406  66.530  1.00  0.00    -0.133 OA 
HETATM   14  N   UNL     1     -10.563  11.564  66.588  1.00  0.00    -0.242 N  
BRANCH  14  15
HETATM   15  C   UNL     1     -11.776  12.379  66.708  1.00  0.00    -0.362 C  
HETATM   16  C   UNL     1     -11.354  14.985  66.411  1.00  0.00    -0.275 C  
HETATM   17  C   UNL     1     -11.939  13.646  65.846  1.00  0.00    -0.438 C  
HETATM   18  C   UNL     1      -9.877  15.132  66.040  1.00  0.00    -0.349 C  
HETATM   19  C   UNL     1      -8.975  14.199  66.834  1.00  0.00    -0.247 C  
HETATM   20  C   UNL     1      -9.448  13.905  68.273  1.00  0.00    -0.217 C  
HETATM   21  C   UNL     1     -10.971  13.988  68.548  1.00  0.00    -0.256 C  
HETATM   22  N   UNL     1     -11.570  15.129  67.863  1.00  0.00    -0.334 NA 
HETATM   23  C   UNL     1     -11.861  12.779  68.191  1.00  0.00    -0.372 C  
HETATM   24  C   UNL     1     -11.115  16.404  68.433  1.00  0.00    -0.351 C  
ENDBRANCH  14  15
ENDBRANCH   4  11
TORSDOF 2
ENDMDL
MODEL       53
REMARK 921   NORMALIZED FREE ENERGY PREDICTED BY IDOCK:   -5.91 KCAL/MOL
REMARK 922        TOTAL FREE ENERGY PREDICTED BY IDOCK:   -7.33 KCAL/MOL
REMARK 923 INTER-LIGAND FREE ENERGY PREDICTED BY IDOCK:   -6.68 KCAL/MOL
REMARK 924 INTRA-LIGAND FREE ENERGY PREDICTED BY IDOCK:   -0.64 KCAL/MOL
REMARK 927      BINDING AFFINITY PREDICTED BY RF-SCORE:    0.00 PKD
ROOT
HETATM    1  C   UNL     1     -12.234  12.971  63.434  1.00  0.00    -0.472 C  
HETATM    2  N   UNL     1     -11.630  12.157  64.465  1.00  0.00    -0.338 NA 
HETATM    3  N   UNL     1     -11.973  12.366  65.732  1.00  0.00    -0.557 NA 
HETATM    4  C   UNL     1     -11.057  11.687  66.460  1.00  0.00    -0.301 A  
HETATM    5  C   UNL     1     -10.268  10.855  65.601  1.00  0.00    -0.323 A  
HETATM    6  C   UNL     1      -8.607   9.404  64.568  1.00  0.00    -0.219 A  
HETATM    7  C   UNL     1     -10.646  11.227  64.301  1.00  0.00    -0.358 A  
HETATM    8  C   UNL     1      -9.002   9.815  63.295  1.00  0.00    -0.274 A  
HETATM    9  C   UNL     1      -9.218   9.921  65.726  1.00  0.00    -0.228 A  
HETATM   10  C   UNL     1     -10.031  10.741  63.140  1.00  0.00    -0.341 A  
ENDROOT
BRANCH   4  11
HETATM   11  C   UNL     1     -10.953  12.097  67.862  1.00  0.00    -0.229 C  
HETATM   12  H   UNL     1     -10.250  12.909  69.451  1.00  0.00     0.000 HD 
HETATM   13  O   UNL     1     -11.725  11.609  68.706  1.00  0.00    -0.281 OA 
HETATM   14  N   UNL     1     -10.092  12.964  68.445  1.00  0.00    -0.236 N  
BRANCH  14  15
HETATM   15  C   UNL     1      -9.026  13.949  68.233  1.00  0.00    -0.187 C  
HETATM   16  C   UNL     1      -9.549  16.339  69.270  1.00  0.00    -0.220 C  
HETATM   17  C   UNL     1      -8.729  15.005  69.315  1.00  0.00    -0.161 C  
HETATM   18  C   UNL     1     -10.872  16.189  70.024  1.00  0.00    -0.349 C  
HETATM   19  C   UNL     1     -11.884  15.336  69.275  1.00  0.00    -0.353 C  
HETATM   20  C   UNL     1     -11.808  15.438  67.737  1.00  0.00    -0.045 C  
HETATM   21  C   UNL     1     -10.433  15.794  67.118  1.00  0.00    -0.309 C  
HETATM   22  N   UNL     1      -9.757  16.829  67.894  1.00  0.00    -0.241 NA 
HETATM   23  C   UNL     1      -9.388  14.675  66.925  1.00  0.00    -0.258 C  
HETATM   24  C   UNL     1     -10.449  18.120  67.795  1.00  0.00    -0.404 C  
ENDBRANCH  14  15
ENDBRANCH   4  11
TORSDOF 2
ENDMDL
MODEL       54
REMARK 921   NORMALIZED FREE ENERGY PREDICTED BY IDOCK:   -5.90 KCAL/MOL
REMARK 922        TOTAL FREE ENERGY PREDICTED BY IDOCK:   -7.32 KCAL/MOL
REMARK 923 INTER-LIGAND FREE ENERGY PREDICTED BY IDOCK:   -6.87 KCAL/MOL
REMARK 924 INTRA-LIGAND FREE ENERGY PREDICTED BY IDOCK:   -0.44 KCAL/MOL
REMARK 927      BINDING AFFINITY PREDICTED BY RF-SCORE:    0.00 PKD
ROOT
HETATM    1  C   UNL     1     -13.839   9.432  71.785  1.00  0.00    -0.286 C  
HETATM    2  N   UNL     1     -12.433   9.603  71.494  1.00  0.00    -0.359 NA 
HETATM    3  N   UNL     1     -12.069  10.512  70.597  1.00  0.00    -0.325 NA 
HETATM    4  C   UNL     1     -10.771  10.241  70.329  1.00  0.00    -0.250 A  
HETATM    5  C   UNL     1     -10.269   9.278  71.263  1.00  0.00    -0.383 A  
HETATM    6  C   UNL     1      -9.013   7.599  72.502  1.00  0.00    -0.191 A  
HETATM    7  C   UNL     1     -11.401   8.853  71.977  1.00  0.00    -0.357 A  
HETATM    8  C   UNL     1     -10.166   7.197  73.176  1.00  0.00    -0.317 A  
HETATM    9  C   UNL     1      -9.050   8.623  71.538  1.00  0.00    -0.308 A  
HETATM   10  C   UNL     1     -11.386   7.818  72.921  1.00  0.00    -0.406 A  
ENDROOT
BRANCH   4  11
HETATM   11  C   UNL     1     -10.264  10.814  69.080  1.00  0.00    -0.213 C  
HETATM   12  H   UNL     1     -10.230  11.812  67.443  1.00  0.00     0.000 HD 
HETATM   13  O   UNL     1      -9.179  10.420  68.617  1.00  0.00    -0.148 OA 
HETATM   14  N   UNL     1     -10.817  11.751  68.275  1.00  0.00    -0.208 N  
BRANCH  14  15
HETATM   15  C   UNL     1     -11.908  12.715  68.099  1.00  0.00    -0.315 C  
HETATM   16  C   UNL     1     -11.229  14.865  66.693  1.00  0.00    -0.340 C  
HETATM   17  C   UNL     1     -12.023  13.517  66.789  1.00  0.00    -0.453 C  
HETATM   18  C   UNL     1      -9.797  14.619  66.216  1.00  0.00    -0.320 C  
HETATM   19  C   UNL     1      -8.923  13.977  67.282  1.00  0.00    -0.223 C  
HETATM   20  C   UNL     1      -9.260  14.384  68.732  1.00  0.00    -0.144 C  
HETATM   21  C   UNL     1     -10.722  14.802  69.027  1.00  0.00    -0.250 C  
HETATM   22  N   UNL     1     -11.262  15.631  67.953  1.00  0.00    -0.341 NA 
HETATM   23  C   UNL     1     -11.779  13.704  69.271  1.00  0.00    -0.376 C  
HETATM   24  C   UNL     1     -10.604  16.942  67.898  1.00  0.00    -0.361 C  
ENDBRANCH  14  15
ENDBRANCH   4  11
TORSDOF 2
ENDMDL
MODEL       55
REMARK 921   NORMALIZED FREE ENERGY PREDICTED BY IDOCK:   -5.90 KCAL/MOL
REMARK 922        TOTAL FREE ENERGY PREDICTED BY IDOCK:   -7.31 KCAL/MOL
REMARK 923 INTER-LIGAND FREE ENERGY PREDICTED BY IDOCK:   -7.14 KCAL/MOL
REMARK 924 INTRA-LIGAND FREE ENERGY PREDICTED BY IDOCK:   -0.17 KCAL/MOL
REMARK 927      BINDING AFFINITY PREDICTED BY RF-SCORE:    0.00 PKD
ROOT
HETATM    1  C   UNL     1     -12.257  13.590  68.814  1.00  0.00    -0.143 C  
HETATM    2  N   UNL     1     -11.540  14.044  67.643  1.00  0.00    -0.333 NA 
HETATM    3  N   UNL     1     -11.103  15.299  67.604  1.00  0.00    -0.316 NA 
HETATM    4  C   UNL     1     -10.751  15.509  66.315  1.00  0.00    -0.307 A  
HETATM    5  C   UNL     1     -10.763  14.269  65.597  1.00  0.00    -0.321 A  
HETATM    6  C   UNL     1     -10.762  12.479  63.945  1.00  0.00    -0.473 A  
HETATM    7  C   UNL     1     -11.328  13.346  66.491  1.00  0.00    -0.320 A  
HETATM    8  C   UNL     1     -11.341  11.600  64.861  1.00  0.00    -0.252 A  
HETATM    9  C   UNL     1     -10.481  13.813  64.292  1.00  0.00    -0.088 A  
HETATM   10  C   UNL     1     -11.639  12.022  66.154  1.00  0.00    -0.371 A  
ENDROOT
BRANCH   4  11
HETATM   11  C   UNL     1     -10.646  16.916  65.923  1.00  0.00    -0.233 C  
HETATM   12  H   UNL     1     -10.514  18.822  66.084  1.00  0.00     0.000 HD 
HETATM   13  O   UNL     1     -10.810  17.238  64.733  1.00  0.00    -0.863 OA 
HETATM   14  N   UNL     1     -10.401  18.007  66.686  1.00  0.00    -0.371 N  
BRANCH  14  15
HETATM   15  C   UNL     1     -10.041  18.505  68.018  1.00  0.00    -0.371 C  
HETATM   16  C   UNL     1      -7.872  20.040  68.041  1.00  0.00    -0.244 C  
HETATM   17  C   UNL     1      -9.428  19.910  68.172  1.00  0.00    -0.431 C  
HETATM   18  C   UNL     1      -7.463  20.211  66.577  1.00  0.00    -0.312 C  
HETATM   19  C   UNL     1      -7.600  18.927  65.773  1.00  0.00    -0.111 C  
HETATM   20  C   UNL     1      -7.334  17.631  66.567  1.00  0.00    -0.296 C  
HETATM   21  C   UNL     1      -7.609  17.666  68.091  1.00  0.00    -0.234 C  
HETATM   22  N   UNL     1      -7.155  18.921  68.682  1.00  0.00    -0.286 NA 
HETATM   23  C   UNL     1      -9.056  17.474  68.593  1.00  0.00    -0.263 C  
HETATM   24  C   UNL     1      -5.691  19.031  68.662  1.00  0.00    -0.206 C  
ENDBRANCH  14  15
ENDBRANCH   4  11
TORSDOF 2
ENDMDL
MODEL       56
REMARK 921   NORMALIZED FREE ENERGY PREDICTED BY IDOCK:   -5.90 KCAL/MOL
REMARK 922        TOTAL FREE ENERGY PREDICTED BY IDOCK:   -7.31 KCAL/MOL
REMARK 923 INTER-LIGAND FREE ENERGY PREDICTED BY IDOCK:   -6.65 KCAL/MOL
REMARK 924 INTRA-LIGAND FREE ENERGY PREDICTED BY IDOCK:   -0.66 KCAL/MOL
REMARK 927      BINDING AFFINITY PREDICTED BY RF-SCORE:    0.00 PKD
ROOT
HETATM    1  C   UNL     1     -10.568  14.105  64.747  1.00  0.00    -0.418 C  
HETATM    2  N   UNL     1     -10.847  14.644  66.059  1.00  0.00    -0.310 NA 
HETATM    3  N   UNL     1     -10.627  15.935  66.284  1.00  0.00    -0.308 NA 
HETATM    4  C   UNL     1     -10.691  16.074  67.628  1.00  0.00    -0.320 A  
HETATM    5  C   UNL     1     -11.192  14.869  68.221  1.00  0.00    -0.306 A  
HETATM    6  C   UNL     1     -11.862  13.040  69.683  1.00  0.00    -0.385 A  
HETATM    7  C   UNL     1     -11.237  13.946  67.165  1.00  0.00    -0.313 A  
HETATM    8  C   UNL     1     -11.877  12.152  68.607  1.00  0.00    -0.358 A  
HETATM    9  C   UNL     1     -11.510  14.392  69.510  1.00  0.00    -0.333 A  
HETATM   10  C   UNL     1     -11.559  12.592  67.324  1.00  0.00    -0.434 A  
ENDROOT
BRANCH   4  11
HETATM   11  C   UNL     1     -10.070  17.290  68.155  1.00  0.00    -0.325 C  
HETATM   12  H   UNL     1      -8.708  18.493  68.768  1.00  0.00     0.000 HD 
HETATM   13  O   UNL     1     -10.784  18.195  68.622  1.00  0.00    -0.150 OA 
HETATM   14  N   UNL     1      -8.759  17.619  68.246  1.00  0.00    -0.269 N  
BRANCH  14  15
HETATM   15  C   UNL     1      -7.383  17.242  67.906  1.00  0.00    -0.184 C  
HETATM   16  C   UNL     1      -5.766  19.314  67.515  1.00  0.00    -0.179 C  
HETATM   17  C   UNL     1      -6.206  18.101  68.405  1.00  0.00    -0.191 C  
HETATM   18  C   UNL     1      -6.590  20.559  67.848  1.00  0.00    -0.347 C  
HETATM   19  C   UNL     1      -8.019  20.474  67.335  1.00  0.00    -0.349 C  
HETATM   20  C   UNL     1      -8.192  19.688  66.018  1.00  0.00    -0.307 C  
HETATM   21  C   UNL     1      -7.155  18.576  65.717  1.00  0.00    -0.220 C  
HETATM   22  N   UNL     1      -5.805  19.002  66.074  1.00  0.00    -0.154 NA 
HETATM   23  C   UNL     1      -7.337  17.189  66.369  1.00  0.00    -0.334 C  
HETATM   24  C   UNL     1      -5.325  20.075  65.195  1.00  0.00    -0.158 C  
ENDBRANCH  14  15
ENDBRANCH   4  11
TORSDOF 2
ENDMDL
MODEL       57
REMARK 921   NORMALIZED FREE ENERGY PREDICTED BY IDOCK:   -5.89 KCAL/MOL
REMARK 922        TOTAL FREE ENERGY PREDICTED BY IDOCK:   -7.30 KCAL/MOL
REMARK 923 INTER-LIGAND FREE ENERGY PREDICTED BY IDOCK:   -6.44 KCAL/MOL
REMARK 924 INTRA-LIGAND FREE ENERGY PREDICTED BY IDOCK:   -0.86 KCAL/MOL
REMARK 927      BINDING AFFINITY PREDICTED BY RF-SCORE:    0.00 PKD
ROOT
HETATM    1  C   UNL     1      -8.836   8.438  67.941  1.00  0.00    -0.138 C  
HETATM    2  N   UNL     1      -9.952   9.347  68.080  1.00  0.00    -0.168 NA 
HETATM    3  N   UNL     1     -10.294  10.108  67.046  1.00  0.00    -0.233 NA 
HETATM    4  C   UNL     1     -11.143  11.030  67.553  1.00  0.00    -0.302 A  
HETATM    5  C   UNL     1     -11.504  10.678  68.894  1.00  0.00    -0.334 A  
HETATM    6  C   UNL     1     -12.300  10.581  71.193  1.00  0.00    -0.510 A  
HETATM    7  C   UNL     1     -10.668   9.596  69.214  1.00  0.00    -0.226 A  
HETATM    8  C   UNL     1     -11.440   9.519  71.473  1.00  0.00    -0.466 A  
HETATM    9  C   UNL     1     -12.334  11.178  69.919  1.00  0.00    -0.330 A  
HETATM   10  C   UNL     1     -10.603   9.009  70.484  1.00  0.00    -0.274 A  
ENDROOT
BRANCH   4  11
HETATM   11  C   UNL     1     -11.324  12.226  66.727  1.00  0.00    -0.339 C  
HETATM   12  H   UNL     1     -11.033  13.986  66.023  1.00  0.00     0.000 HD 
HETATM   13  O   UNL     1     -12.344  12.342  66.025  1.00  0.00    -0.609 OA 
HETATM   14  N   UNL     1     -10.526  13.313  66.597  1.00  0.00    -0.276 N  
BRANCH  14  15
HETATM   15  C   UNL     1      -9.238  13.925  66.938  1.00  0.00    -0.259 C  
HETATM   16  C   UNL     1      -9.277  15.326  69.195  1.00  0.00    -0.234 C  
HETATM   17  C   UNL     1      -8.813  14.049  68.413  1.00  0.00    -0.180 C  
HETATM   18  C   UNL     1     -10.670  15.119  69.793  1.00  0.00    -0.288 C  
HETATM   19  C   UNL     1     -11.771  15.146  68.745  1.00  0.00    -0.366 C  
HETATM   20  C   UNL     1     -11.508  16.086  67.549  1.00  0.00     0.051 C  
HETATM   21  C   UNL     1     -10.029  16.362  67.178  1.00  0.00    -0.260 C  
HETATM   22  N   UNL     1      -9.211  16.548  68.373  1.00  0.00    -0.215 NA 
HETATM   23  C   UNL     1      -9.271  15.331  66.315  1.00  0.00    -0.350 C  
HETATM   24  C   UNL     1      -9.556  17.789  69.078  1.00  0.00    -0.135 C  
ENDBRANCH  14  15
ENDBRANCH   4  11
TORSDOF 2
ENDMDL
MODEL       58
REMARK 921   NORMALIZED FREE ENERGY PREDICTED BY IDOCK:   -5.88 KCAL/MOL
REMARK 922        TOTAL FREE ENERGY PREDICTED BY IDOCK:   -7.29 KCAL/MOL
REMARK 923 INTER-LIGAND FREE ENERGY PREDICTED BY IDOCK:   -6.45 KCAL/MOL
REMARK 924 INTRA-LIGAND FREE ENERGY PREDICTED BY IDOCK:   -0.85 KCAL/MOL
REMARK 927      BINDING AFFINITY PREDICTED BY RF-SCORE:    0.00 PKD
ROOT
HETATM    1  C   UNL     1      -9.332   6.331  71.906  1.00  0.00    -0.149 C  
HETATM    2  N   UNL     1      -9.844   7.478  71.190  1.00  0.00    -0.174 NA 
HETATM    3  N   UNL     1      -9.131   7.982  70.189  1.00  0.00    -0.151 NA 
HETATM    4  C   UNL     1      -9.697   9.181  69.922  1.00  0.00    -0.191 A  
HETATM    5  C   UNL     1     -10.934   9.307  70.634  1.00  0.00    -0.336 A  
HETATM    6  C   UNL     1     -12.991  10.038  71.713  1.00  0.00    -0.560 A  
HETATM    7  C   UNL     1     -10.969   8.192  71.485  1.00  0.00    -0.243 A  
HETATM    8  C   UNL     1     -12.977   8.923  72.552  1.00  0.00    -0.415 A  
HETATM    9  C   UNL     1     -11.975  10.251  70.764  1.00  0.00    -0.456 A  
HETATM   10  C   UNL     1     -11.958   7.979  72.454  1.00  0.00    -0.405 A  
ENDROOT
BRANCH   4  11
HETATM   11  C   UNL     1      -8.853  10.110  69.167  1.00  0.00    -0.175 C  
HETATM   12  H   UNL     1      -8.158  11.108  67.685  1.00  0.00     0.000 HD 
HETATM   13  O   UNL     1      -7.827  10.577  69.693  1.00  0.00    -0.149 OA 
HETATM   14  N   UNL     1      -8.996  10.570  67.901  1.00  0.00    -0.135 N  
BRANCH  14  15
HETATM   15  C   UNL     1      -9.853  10.615  66.713  1.00  0.00    -0.198 C  
HETATM   16  C   UNL     1     -10.202  13.060  65.731  1.00  0.00    -0.290 C  
HETATM   17  C   UNL     1      -9.563  11.635  65.595  1.00  0.00    -0.252 C  
HETATM   18  C   UNL     1      -9.306  13.978  66.565  1.00  0.00    -0.274 C  
HETATM   19  C   UNL     1      -9.327  13.635  68.046  1.00  0.00    -0.208 C  
HETATM   20  C   UNL     1     -10.670  13.083  68.568  1.00  0.00    -0.275 C  
HETATM   21  C   UNL     1     -11.571  12.338  67.551  1.00  0.00    -0.353 C  
HETATM   22  N   UNL     1     -11.579  13.015  66.257  1.00  0.00    -0.342 NA 
HETATM   23  C   UNL     1     -11.278  10.855  67.239  1.00  0.00    -0.307 C  
HETATM   24  C   UNL     1     -12.257  14.315  66.329  1.00  0.00    -0.410 C  
ENDBRANCH  14  15
ENDBRANCH   4  11
TORSDOF 2
ENDMDL
MODEL       59
REMARK 921   NORMALIZED FREE ENERGY PREDICTED BY IDOCK:   -5.85 KCAL/MOL
REMARK 922        TOTAL FREE ENERGY PREDICTED BY IDOCK:   -7.26 KCAL/MOL
REMARK 923 INTER-LIGAND FREE ENERGY PREDICTED BY IDOCK:   -6.57 KCAL/MOL
REMARK 924 INTRA-LIGAND FREE ENERGY PREDICTED BY IDOCK:   -0.69 KCAL/MOL
REMARK 927      BINDING AFFINITY PREDICTED BY RF-SCORE:    0.00 PKD
ROOT
HETATM    1  C   UNL     1     -10.556   9.955  68.316  1.00  0.00    -0.229 C  
HETATM    2  N   UNL     1     -10.431  11.083  67.421  1.00  0.00    -0.206 NA 
HETATM    3  N   UNL     1     -10.653  12.305  67.893  1.00  0.00    -0.206 NA 
HETATM    4  C   UNL     1     -10.753  13.093  66.798  1.00  0.00    -0.267 A  
HETATM    5  C   UNL     1     -10.352  12.363  65.633  1.00  0.00    -0.284 A  
HETATM    6  C   UNL     1      -9.902  11.527  63.390  1.00  0.00    -0.422 A  
HETATM    7  C   UNL     1     -10.193  11.041  66.078  1.00  0.00    -0.252 A  
HETATM    8  C   UNL     1      -9.771  10.225  63.874  1.00  0.00    -0.325 A  
HETATM    9  C   UNL     1     -10.204  12.599  64.249  1.00  0.00    -0.358 A  
HETATM   10  C   UNL     1      -9.919   9.959  65.232  1.00  0.00    -0.320 A  
ENDROOT
BRANCH   4  11
HETATM   11  C   UNL     1     -11.412  14.382  67.020  1.00  0.00    -0.361 C  
HETATM   12  H   UNL     1     -11.665  16.280  67.105  1.00  0.00     0.000 HD 
HETATM   13  O   UNL     1     -12.509  14.420  67.604  1.00  0.00    -0.130 OA 
HETATM   14  N   UNL     1     -10.998  15.629  66.692  1.00  0.00    -0.264 N  
BRANCH  14  15
HETATM   15  C   UNL     1      -9.992  16.432  65.991  1.00  0.00    -0.345 C  
HETATM   16  C   UNL     1      -7.860  17.013  67.467  1.00  0.00    -0.170 C  
HETATM   17  C   UNL     1      -8.495  16.211  66.279  1.00  0.00    -0.357 C  
HETATM   18  C   UNL     1      -8.048  16.265  68.788  1.00  0.00    -0.227 C  
HETATM   19  C   UNL     1      -9.482  16.311  69.292  1.00  0.00    -0.202 C  
HETATM   20  C   UNL     1     -10.251  17.605  68.950  1.00  0.00    -0.354 C  
HETATM   21  C   UNL     1      -9.815  18.370  67.675  1.00  0.00    -0.313 C  
HETATM   22  N   UNL     1      -8.361  18.398  67.546  1.00  0.00    -0.251 NA 
HETATM   23  C   UNL     1     -10.342  17.897  66.303  1.00  0.00    -0.364 C  
HETATM   24  C   UNL     1      -7.740  19.222  68.590  1.00  0.00    -0.359 C  
ENDBRANCH  14  15
ENDBRANCH   4  11
TORSDOF 2
ENDMDL
MODEL       60
REMARK 921   NORMALIZED FREE ENERGY PREDICTED BY IDOCK:   -5.79 KCAL/MOL
REMARK 922        TOTAL FREE ENERGY PREDICTED BY IDOCK:   -7.19 KCAL/MOL
REMARK 923 INTER-LIGAND FREE ENERGY PREDICTED BY IDOCK:   -6.67 KCAL/MOL
REMARK 924 INTRA-LIGAND FREE ENERGY PREDICTED BY IDOCK:   -0.52 KCAL/MOL
REMARK 927      BINDING AFFINITY PREDICTED BY RF-SCORE:    0.00 PKD
ROOT
HETATM    1  C   UNL     1     -12.211  13.371  67.682  1.00  0.00    -0.159 C  
HETATM    2  N   UNL     1     -11.629  12.110  67.282  1.00  0.00    -0.440 NA 
HETATM    3  N   UNL     1     -11.446  11.167  68.200  1.00  0.00    -0.387 NA 
HETATM    4  C   UNL     1     -10.640  10.254  67.611  1.00  0.00    -0.263 A  
HETATM    5  C   UNL     1     -10.515  10.541  66.214  1.00  0.00    -0.250 A  
HETATM    6  C   UNL     1      -9.894  10.685  63.863  1.00  0.00    -0.398 A  
HETATM    7  C   UNL     1     -11.139  11.788  66.050  1.00  0.00    -0.312 A  
HETATM    8  C   UNL     1     -10.512  11.931  63.750  1.00  0.00    -0.468 A  
HETATM    9  C   UNL     1      -9.875   9.988  65.085  1.00  0.00    -0.388 A  
HETATM   10  C   UNL     1     -11.144  12.508  64.848  1.00  0.00    -0.336 A  
ENDROOT
BRANCH   4  11
HETATM   11  C   UNL     1      -9.951   9.349  68.534  1.00  0.00    -0.173 C  
HETATM   12  H   UNL     1      -9.644   8.227  70.058  1.00  0.00     0.000 HD 
HETATM   13  O   UNL     1      -8.731   9.148  68.403  1.00  0.00    -0.128 OA 
HETATM   14  N   UNL     1     -10.441   8.658  69.590  1.00  0.00    -0.219 N  
BRANCH  14  15
HETATM   15  C   UNL     1     -11.640   8.271  70.341  1.00  0.00    -0.060 C  
HETATM   16  C   UNL     1     -11.152   7.574  72.859  1.00  0.00    -0.375 C  
HETATM   17  C   UNL     1     -11.748   8.606  71.841  1.00  0.00    -0.422 C  
HETATM   18  C   UNL     1      -9.662   7.833  73.085  1.00  0.00    -0.347 C  
HETATM   19  C   UNL     1      -8.805   7.422  71.898  1.00  0.00    -0.128 C  
HETATM   20  C   UNL     1      -9.329   6.204  71.108  1.00  0.00    -0.175 C  
HETATM   21  C   UNL     1     -10.858   5.950  71.132  1.00  0.00    -0.269 C  
HETATM   22  N   UNL     1     -11.410   6.177  72.464  1.00  0.00    -0.283 NA 
HETATM   23  C   UNL     1     -11.762   6.747  70.168  1.00  0.00    -0.370 C  
HETATM   24  C   UNL     1     -10.947   5.166  73.422  1.00  0.00    -0.320 C  
ENDBRANCH  14  15
ENDBRANCH   4  11
TORSDOF 2
ENDMDL
MODEL       61
REMARK 921   NORMALIZED FREE ENERGY PREDICTED BY IDOCK:   -5.78 KCAL/MOL
REMARK 922        TOTAL FREE ENERGY PREDICTED BY IDOCK:   -7.18 KCAL/MOL
REMARK 923 INTER-LIGAND FREE ENERGY PREDICTED BY IDOCK:   -6.50 KCAL/MOL
REMARK 924 INTRA-LIGAND FREE ENERGY PREDICTED BY IDOCK:   -0.68 KCAL/MOL
REMARK 927      BINDING AFFINITY PREDICTED BY RF-SCORE:    0.00 PKD
ROOT
HETATM    1  C   UNL     1     -11.636   9.821  71.085  1.00  0.00    -0.392 C  
HETATM    2  N   UNL     1     -11.189  10.298  69.796  1.00  0.00    -0.265 NA 
HETATM    3  N   UNL     1     -11.325  11.588  69.506  1.00  0.00    -0.271 NA 
HETATM    4  C   UNL     1     -11.106  11.675  68.175  1.00  0.00    -0.242 A  
HETATM    5  C   UNL     1     -10.599  10.429  67.680  1.00  0.00    -0.304 A  
HETATM    6  C   UNL     1      -9.855   8.521  66.363  1.00  0.00    -0.327 A  
HETATM    7  C   UNL     1     -10.712   9.544  68.765  1.00  0.00    -0.190 A  
HETATM    8  C   UNL     1      -9.999   7.674  67.462  1.00  0.00    -0.233 A  
HETATM    9  C   UNL     1     -10.162   9.891  66.452  1.00  0.00    -0.292 A  
HETATM   10  C   UNL     1     -10.436   8.173  68.686  1.00  0.00    -0.195 A  
ENDROOT
BRANCH   4  11
HETATM   11  C   UNL     1     -11.610  12.895  67.542  1.00  0.00    -0.356 C  
HETATM   12  H   UNL     1     -12.015  14.752  67.286  1.00  0.00     0.000 HD 
HETATM   13  O   UNL     1     -12.342  12.813  66.540  1.00  0.00    -0.476 OA 
HETATM   14  N   UNL     1     -11.418  14.190  67.892  1.00  0.00    -0.294 N  
BRANCH  14  15
HETATM   15  C   UNL     1     -10.712  15.119  68.779  1.00  0.00    -0.239 C  
HETATM   16  C   UNL     1      -9.950  17.371  67.592  1.00  0.00    -0.300 C  
HETATM   17  C   UNL     1     -10.896  16.638  68.605  1.00  0.00    -0.344 C  
HETATM   18  C   UNL     1     -10.523  17.312  66.175  1.00  0.00    -0.279 C  
HETATM   19  C   UNL     1     -10.412  15.930  65.550  1.00  0.00    -0.425 C  
HETATM   20  C   UNL     1      -9.171  15.120  65.982  1.00  0.00    -0.273 C  
HETATM   21  C   UNL     1      -8.575  15.429  67.378  1.00  0.00    -0.179 C  
HETATM   22  N   UNL     1      -8.566  16.864  67.643  1.00  0.00    -0.206 NA 
HETATM   23  C   UNL     1      -9.219  14.784  68.625  1.00  0.00    -0.194 C  
HETATM   24  C   UNL     1      -7.616  17.570  66.774  1.00  0.00    -0.226 C  
ENDBRANCH  14  15
ENDBRANCH   4  11
TORSDOF 2
ENDMDL
MODEL       62
REMARK 921   NORMALIZED FREE ENERGY PREDICTED BY IDOCK:   -5.77 KCAL/MOL
REMARK 922        TOTAL FREE ENERGY PREDICTED BY IDOCK:   -7.17 KCAL/MOL
REMARK 923 INTER-LIGAND FREE ENERGY PREDICTED BY IDOCK:   -6.63 KCAL/MOL
REMARK 924 INTRA-LIGAND FREE ENERGY PREDICTED BY IDOCK:   -0.54 KCAL/MOL
REMARK 927      BINDING AFFINITY PREDICTED BY RF-SCORE:    0.00 PKD
ROOT
HETATM    1  C   UNL     1     -12.114  12.181  70.149  1.00  0.00    -0.290 C  
HETATM    2  N   UNL     1     -11.298  12.444  68.986  1.00  0.00    -0.266 NA 
HETATM    3  N   UNL     1     -10.980  13.700  68.694  1.00  0.00    -0.258 NA 
HETATM    4  C   UNL     1     -10.485  13.655  67.436  1.00  0.00    -0.251 A  
HETATM    5  C   UNL     1     -10.287  12.294  67.036  1.00  0.00    -0.237 A  
HETATM    6  C   UNL     1      -9.905  10.192  65.868  1.00  0.00    -0.308 A  
HETATM    7  C   UNL     1     -10.874  11.534  68.061  1.00  0.00    -0.213 A  
HETATM    8  C   UNL     1     -10.512   9.478  66.902  1.00  0.00    -0.279 A  
HETATM    9  C   UNL     1      -9.797  11.594  65.914  1.00  0.00    -0.262 A  
HETATM   10  C   UNL     1     -11.013  10.141  68.019  1.00  0.00    -0.326 A  
ENDROOT
BRANCH   4  11
HETATM   11  C   UNL     1     -10.463  14.940  66.733  1.00  0.00    -0.284 C  
HETATM   12  H   UNL     1      -9.927  16.717  66.253  1.00  0.00     0.000 HD 
HETATM   13  O   UNL     1     -11.394  15.238  65.964  1.00  0.00    -0.286 OA 
HETATM   14  N   UNL     1      -9.550  15.938  66.791  1.00  0.00    -0.227 N  
BRANCH  14  15
HETATM   15  C   UNL     1      -8.245  16.366  67.305  1.00  0.00    -0.168 C  
HETATM   16  C   UNL     1      -8.313  18.668  68.630  1.00  0.00    -0.313 C  
HETATM   17  C   UNL     1      -8.155  17.109  68.652  1.00  0.00    -0.264 C  
HETATM   18  C   UNL     1      -9.788  19.066  68.705  1.00  0.00    -0.485 C  
HETATM   19  C   UNL     1     -10.538  18.796  67.409  1.00  0.00    -0.505 C  
HETATM   20  C   UNL     1      -9.696  18.955  66.126  1.00  0.00    -0.307 C  
HETATM   21  C   UNL     1      -8.170  18.710  66.246  1.00  0.00    -0.237 C  
HETATM   22  N   UNL     1      -7.638  19.289  67.475  1.00  0.00    -0.235 NA 
HETATM   23  C   UNL     1      -7.641  17.261  66.209  1.00  0.00    -0.360 C  
HETATM   24  C   UNL     1      -7.682  20.756  67.447  1.00  0.00    -0.273 C  
ENDBRANCH  14  15
ENDBRANCH   4  11
TORSDOF 2
ENDMDL
MODEL       63
REMARK 921   NORMALIZED FREE ENERGY PREDICTED BY IDOCK:   -5.72 KCAL/MOL
REMARK 922        TOTAL FREE ENERGY PREDICTED BY IDOCK:   -7.11 KCAL/MOL
REMARK 923 INTER-LIGAND FREE ENERGY PREDICTED BY IDOCK:   -6.43 KCAL/MOL
REMARK 924 INTRA-LIGAND FREE ENERGY PREDICTED BY IDOCK:   -0.68 KCAL/MOL
REMARK 927      BINDING AFFINITY PREDICTED BY RF-SCORE:    0.00 PKD
ROOT
HETATM    1  C   UNL     1     -11.812  15.143  70.634  1.00  0.00    -0.325 C  
HETATM    2  N   UNL     1     -11.746  14.959  69.202  1.00  0.00    -0.295 NA 
HETATM    3  N   UNL     1     -12.254  13.851  68.673  1.00  0.00    -0.288 NA 
HETATM    4  C   UNL     1     -11.793  13.825  67.402  1.00  0.00    -0.396 A  
HETATM    5  C   UNL     1     -11.169  15.074  67.082  1.00  0.00    -0.336 A  
HETATM    6  C   UNL     1      -9.916  16.928  66.119  1.00  0.00    -0.332 A  
HETATM    7  C   UNL     1     -11.120  15.769  68.301  1.00  0.00    -0.342 A  
HETATM    8  C   UNL     1      -9.876  17.575  67.355  1.00  0.00    -0.297 A  
HETATM    9  C   UNL     1     -10.544  15.677  65.970  1.00  0.00    -0.336 A  
HETATM   10  C   UNL     1     -10.477  17.002  68.472  1.00  0.00    -0.373 A  
ENDROOT
BRANCH   4  11
HETATM   11  C   UNL     1     -11.852  12.516  66.748  1.00  0.00    -0.346 C  
HETATM   12  H   UNL     1     -11.475  10.672  66.379  1.00  0.00     0.000 HD 
HETATM   13  O   UNL     1     -12.440  12.396  65.659  1.00  0.00    -0.640 OA 
HETATM   14  N   UNL     1     -11.326  11.331  67.142  1.00  0.00    -0.277 N  
BRANCH  14  15
HETATM   15  C   UNL     1     -10.631  10.602  68.208  1.00  0.00    -0.194 C  
HETATM   16  C   UNL     1      -8.026  10.297  67.781  1.00  0.00    -0.102 C  
HETATM   17  C   UNL     1      -9.186  10.982  68.583  1.00  0.00    -0.186 C  
HETATM   18  C   UNL     1      -7.716  11.077  66.503  1.00  0.00    -0.154 C  
HETATM   19  C   UNL     1      -8.788  10.911  65.437  1.00  0.00    -0.192 C  
HETATM   20  C   UNL     1      -9.486   9.534  65.425  1.00  0.00    -0.336 C  
HETATM   21  C   UNL     1      -9.552   8.763  66.768  1.00  0.00    -0.206 C  
HETATM   22  N   UNL     1      -8.295   8.874  67.502  1.00  0.00    -0.109 NA 
HETATM   23  C   UNL     1     -10.657   9.124  67.783  1.00  0.00    -0.289 C  
HETATM   24  C   UNL     1      -7.206   8.159  66.825  1.00  0.00    -0.082 C  
ENDBRANCH  14  15
ENDBRANCH   4  11
TORSDOF 2
ENDMDL
MODEL       64
REMARK 921   NORMALIZED FREE ENERGY PREDICTED BY IDOCK:   -5.71 KCAL/MOL
REMARK 922        TOTAL FREE ENERGY PREDICTED BY IDOCK:   -7.10 KCAL/MOL
REMARK 923 INTER-LIGAND FREE ENERGY PREDICTED BY IDOCK:   -6.67 KCAL/MOL
REMARK 924 INTRA-LIGAND FREE ENERGY PREDICTED BY IDOCK:   -0.43 KCAL/MOL
REMARK 927      BINDING AFFINITY PREDICTED BY RF-SCORE:    0.00 PKD
ROOT
HETATM    1  C   UNL     1     -10.411  16.557  70.191  1.00  0.00     0.035 C  
HETATM    2  N   UNL     1     -10.555  16.939  68.805  1.00  0.00    -0.343 NA 
HETATM    3  N   UNL     1     -10.880  16.009  67.913  1.00  0.00    -0.326 NA 
HETATM    4  C   UNL     1     -10.654  16.582  66.709  1.00  0.00    -0.224 A  
HETATM    5  C   UNL     1     -10.398  17.981  66.873  1.00  0.00    -0.377 A  
HETATM    6  C   UNL     1      -9.789  20.329  66.648  1.00  0.00    -0.562 A  
HETATM    7  C   UNL     1     -10.298  18.163  68.262  1.00  0.00    -0.363 A  
HETATM    8  C   UNL     1      -9.683  20.460  68.033  1.00  0.00    -0.358 A  
HETATM    9  C   UNL     1     -10.130  19.099  66.055  1.00  0.00    -0.437 A  
HETATM   10  C   UNL     1      -9.933  19.373  68.867  1.00  0.00    -0.519 A  
ENDROOT
BRANCH   4  11
HETATM   11  C   UNL     1     -10.525  15.644  65.591  1.00  0.00    -0.382 C  
HETATM   12  H   UNL     1     -10.735  14.047  64.551  1.00  0.00     0.000 HD 
HETATM   13  O   UNL     1      -9.715  15.881  64.678  1.00  0.00     0.269 OA 
HETATM   14  N   UNL     1     -11.166  14.471  65.372  1.00  0.00    -0.329 N  
BRANCH  14  15
HETATM   15  C   UNL     1     -12.221  13.558  65.822  1.00  0.00    -0.461 C  
HETATM   16  C   UNL     1     -11.514  12.026  67.874  1.00  0.00    -0.330 C  
HETATM   17  C   UNL     1     -12.361  13.223  67.319  1.00  0.00    -0.126 C  
HETATM   18  C   UNL     1     -10.117  12.493  68.285  1.00  0.00    -0.228 C  
HETATM   19  C   UNL     1      -9.224  12.801  67.093  1.00  0.00    -0.219 C  
HETATM   20  C   UNL     1      -9.477  11.925  65.848  1.00  0.00    -0.227 C  
HETATM   21  C   UNL     1     -10.905  11.352  65.665  1.00  0.00    -0.218 C  
HETATM   22  N   UNL     1     -11.457  10.890  66.935  1.00  0.00    -0.296 NA 
HETATM   23  C   UNL     1     -11.996  12.251  65.044  1.00  0.00    -0.413 C  
HETATM   24  C   UNL     1     -10.746   9.707  67.436  1.00  0.00    -0.241 C  
ENDBRANCH  14  15
ENDBRANCH   4  11
TORSDOF 2
ENDMDL
MODEL       65
REMARK 921   NORMALIZED FREE ENERGY PREDICTED BY IDOCK:   -5.70 KCAL/MOL
REMARK 922        TOTAL FREE ENERGY PREDICTED BY IDOCK:   -7.09 KCAL/MOL
REMARK 923 INTER-LIGAND FREE ENERGY PREDICTED BY IDOCK:   -6.42 KCAL/MOL
REMARK 924 INTRA-LIGAND FREE ENERGY PREDICTED BY IDOCK:   -0.67 KCAL/MOL
REMARK 927      BINDING AFFINITY PREDICTED BY RF-SCORE:    0.00 PKD
ROOT
HETATM    1  C   UNL     1     -12.215  10.601  70.168  1.00  0.00    -0.320 C  
HETATM    2  N   UNL     1     -11.594  11.079  68.954  1.00  0.00    -0.289 NA 
HETATM    3  N   UNL     1     -11.721  12.362  68.629  1.00  0.00    -0.312 NA 
HETATM    4  C   UNL     1     -11.308  12.442  67.343  1.00  0.00    -0.321 A  
HETATM    5  C   UNL     1     -10.697  11.208  66.948  1.00  0.00    -0.322 A  
HETATM    6  C   UNL     1      -9.711   9.310  65.783  1.00  0.00    -0.339 A  
HETATM    7  C   UNL     1     -10.946  10.330  68.015  1.00  0.00    -0.289 A  
HETATM    8  C   UNL     1      -9.994   8.469  66.860  1.00  0.00    -0.335 A  
HETATM    9  C   UNL     1     -10.066  10.671  65.806  1.00  0.00    -0.327 A  
HETATM   10  C   UNL     1     -10.623   8.967  67.998  1.00  0.00    -0.242 A  
ENDROOT
BRANCH   4  11
HETATM   11  C   UNL     1     -11.745  13.641  66.626  1.00  0.00    -0.388 C  
HETATM   12  H   UNL     1     -11.668  15.368  65.795  1.00  0.00     0.000 HD 
HETATM   13  O   UNL     1     -12.957  13.828  66.420  1.00  0.00    -0.106 OA 
HETATM   14  N   UNL     1     -11.010  14.663  66.126  1.00  0.00    -0.323 N  
BRANCH  14  15
HETATM   15  C   UNL     1      -9.662  15.178  65.863  1.00  0.00    -0.350 C  
HETATM   16  C   UNL     1      -8.386  16.011  68.040  1.00  0.00    -0.162 C  
HETATM   17  C   UNL     1      -8.539  14.953  66.893  1.00  0.00    -0.269 C  
HETATM   18  C   UNL     1      -9.299  15.670  69.219  1.00  0.00    -0.267 C  
HETATM   19  C   UNL     1     -10.767  15.942  68.925  1.00  0.00    -0.254 C  
HETATM   20  C   UNL     1     -11.031  17.136  67.983  1.00  0.00    -0.229 C  
HETATM   21  C   UNL     1      -9.921  17.491  66.962  1.00  0.00    -0.311 C  
HETATM   22  N   UNL     1      -8.596  17.392  67.567  1.00  0.00    -0.217 NA 
HETATM   23  C   UNL     1      -9.833  16.691  65.645  1.00  0.00    -0.147 C  
HETATM   24  C   UNL     1      -8.383  18.432  68.581  1.00  0.00    -0.296 C  
ENDBRANCH  14  15
ENDBRANCH   4  11
TORSDOF 2
ENDMDL
MODEL       66
REMARK 921   NORMALIZED FREE ENERGY PREDICTED BY IDOCK:   -5.69 KCAL/MOL
REMARK 922        TOTAL FREE ENERGY PREDICTED BY IDOCK:   -7.08 KCAL/MOL
REMARK 923 INTER-LIGAND FREE ENERGY PREDICTED BY IDOCK:   -6.39 KCAL/MOL
REMARK 924 INTRA-LIGAND FREE ENERGY PREDICTED BY IDOCK:   -0.69 KCAL/MOL
REMARK 927      BINDING AFFINITY PREDICTED BY RF-SCORE:    0.00 PKD
ROOT
HETATM    1  C   UNL     1     -13.138  10.388  71.767  1.00  0.00    -0.462 C  
HETATM    2  N   UNL     1     -12.002  10.595  70.897  1.00  0.00    -0.356 NA 
HETATM    3  N   UNL     1     -12.056  11.563  69.988  1.00  0.00    -0.330 NA 
HETATM    4  C   UNL     1     -11.014  11.326  69.159  1.00  0.00    -0.240 A  
HETATM    5  C   UNL     1     -10.168  10.312  69.715  1.00  0.00    -0.262 A  
HETATM    6  C   UNL     1      -8.520   8.576  70.167  1.00  0.00    -0.126 A  
HETATM    7  C   UNL     1     -10.875   9.830  70.828  1.00  0.00    -0.333 A  
HETATM    8  C   UNL     1      -9.264   8.119  71.255  1.00  0.00    -0.193 A  
HETATM    9  C   UNL     1      -8.963   9.658  69.384  1.00  0.00    -0.186 A  
HETATM   10  C   UNL     1     -10.462   8.738  71.603  1.00  0.00    -0.387 A  
ENDROOT
BRANCH   4  11
HETATM   11  C   UNL     1     -11.101  11.981  67.853  1.00  0.00    -0.236 C  
HETATM   12  H   UNL     1     -10.721  13.204  66.426  1.00  0.00     0.000 HD 
HETATM   13  O   UNL     1     -12.051  11.719  67.094  1.00  0.00    -0.592 OA 
HETATM   14  N   UNL     1     -10.279  12.900  67.293  1.00  0.00    -0.233 N  
BRANCH  14  15
HETATM   15  C   UNL     1      -9.018  13.640  67.414  1.00  0.00    -0.218 C  
HETATM   16  C   UNL     1      -9.061  15.539  69.272  1.00  0.00    -0.266 C  
HETATM   17  C   UNL     1      -8.548  14.136  68.795  1.00  0.00    -0.067 C  
HETATM   18  C   UNL     1     -10.416  15.412  69.971  1.00  0.00    -0.301 C  
HETATM   19  C   UNL     1     -11.554  15.131  69.002  1.00  0.00    -0.350 C  
HETATM   20  C   UNL     1     -11.392  15.768  67.606  1.00  0.00    -0.194 C  
HETATM   21  C   UNL     1      -9.947  16.021  67.107  1.00  0.00    -0.249 C  
HETATM   22  N   UNL     1      -9.098  16.529  68.181  1.00  0.00    -0.203 NA 
HETATM   23  C   UNL     1      -9.159  14.852  66.477  1.00  0.00    -0.309 C  
HETATM   24  C   UNL     1      -9.492  17.884  68.587  1.00  0.00    -0.298 C  
ENDBRANCH  14  15
ENDBRANCH   4  11
TORSDOF 2
ENDMDL
MODEL       67
REMARK 921   NORMALIZED FREE ENERGY PREDICTED BY IDOCK:   -5.67 KCAL/MOL
REMARK 922        TOTAL FREE ENERGY PREDICTED BY IDOCK:   -7.06 KCAL/MOL
REMARK 923 INTER-LIGAND FREE ENERGY PREDICTED BY IDOCK:   -6.43 KCAL/MOL
REMARK 924 INTRA-LIGAND FREE ENERGY PREDICTED BY IDOCK:   -0.63 KCAL/MOL
REMARK 927      BINDING AFFINITY PREDICTED BY RF-SCORE:    0.00 PKD
ROOT
HETATM    1  C   UNL     1      -6.074  16.289  69.943  1.00  0.00    -0.180 C  
HETATM    2  N   UNL     1      -7.045  16.981  69.126  1.00  0.00    -0.239 NA 
HETATM    3  N   UNL     1      -8.056  16.292  68.607  1.00  0.00    -0.200 NA 
HETATM    4  C   UNL     1      -8.604  17.114  67.683  1.00  0.00    -0.212 A  
HETATM    5  C   UNL     1      -8.048  18.428  67.806  1.00  0.00    -0.264 A  
HETATM    6  C   UNL     1      -7.327  20.739  67.534  1.00  0.00    -0.362 A  
HETATM    7  C   UNL     1      -7.001  18.286  68.730  1.00  0.00    -0.270 A  
HETATM    8  C   UNL     1      -6.288  20.548  68.446  1.00  0.00    -0.351 A  
HETATM    9  C   UNL     1      -8.203  19.691  67.196  1.00  0.00    -0.323 A  
HETATM   10  C   UNL     1      -6.104  19.311  69.058  1.00  0.00    -0.277 A  
ENDROOT
BRANCH   4  11
HETATM   11  C   UNL     1      -9.447  16.450  66.686  1.00  0.00    -0.256 C  
HETATM   12  H   UNL     1     -10.753  15.260  65.941  1.00  0.00     0.000 HD 
HETATM   13  O   UNL     1      -9.224  16.626  65.475  1.00  0.00    -0.438 OA 
HETATM   14  N   UNL     1     -10.489  15.604  66.864  1.00  0.00    -0.302 N  
BRANCH  14  15
HETATM   15  C   UNL     1     -11.396  14.976  67.831  1.00  0.00    -0.333 C  
HETATM   16  C   UNL     1     -10.488  12.687  68.828  1.00  0.00    -0.143 C  
HETATM   17  C   UNL     1     -10.822  14.205  69.034  1.00  0.00    -0.273 C  
HETATM   18  C   UNL     1      -9.077  12.514  68.265  1.00  0.00    -0.183 C  
HETATM   19  C   UNL     1      -8.974  12.916  66.801  1.00  0.00    -0.182 C  
HETATM   20  C   UNL     1     -10.244  12.655  65.964  1.00  0.00    -0.287 C  
HETATM   21  C   UNL     1     -11.599  12.666  66.714  1.00  0.00    -0.374 C  
HETATM   22  N   UNL     1     -11.495  11.993  68.005  1.00  0.00    -0.304 NA 
HETATM   23  C   UNL     1     -12.279  14.021  67.009  1.00  0.00    -0.387 C  
HETATM   24  C   UNL     1     -11.277  10.550  67.847  1.00  0.00    -0.289 C  
ENDBRANCH  14  15
ENDBRANCH   4  11
TORSDOF 2
ENDMDL
MODEL       68
REMARK 921   NORMALIZED FREE ENERGY PREDICTED BY IDOCK:   -5.67 KCAL/MOL
REMARK 922        TOTAL FREE ENERGY PREDICTED BY IDOCK:   -7.06 KCAL/MOL
REMARK 923 INTER-LIGAND FREE ENERGY PREDICTED BY IDOCK:   -6.47 KCAL/MOL
REMARK 924 INTRA-LIGAND FREE ENERGY PREDICTED BY IDOCK:   -0.59 KCAL/MOL
REMARK 927      BINDING AFFINITY PREDICTED BY RF-SCORE:    0.00 PKD
ROOT
HETATM    1  C   UNL     1     -12.199  12.983  63.481  1.00  0.00    -0.501 C  
HETATM    2  N   UNL     1     -11.459  12.819  64.711  1.00  0.00    -0.305 NA 
HETATM    3  N   UNL     1     -11.535  11.661  65.358  1.00  0.00    -0.175 NA 
HETATM    4  C   UNL     1     -11.001  11.902  66.577  1.00  0.00    -0.292 A  
HETATM    5  C   UNL     1     -10.375  13.191  66.590  1.00  0.00    -0.265 A  
HETATM    6  C   UNL     1      -9.313  15.311  67.143  1.00  0.00    -0.227 A  
HETATM    7  C   UNL     1     -10.737  13.774  65.366  1.00  0.00    -0.317 A  
HETATM    8  C   UNL     1      -9.709  15.857  65.922  1.00  0.00    -0.386 A  
HETATM    9  C   UNL     1      -9.648  13.991  67.496  1.00  0.00    -0.228 A  
HETATM   10  C   UNL     1     -10.435  15.095  65.010  1.00  0.00    -0.418 A  
ENDROOT
BRANCH   4  11
HETATM   11  C   UNL     1     -11.351  10.926  67.611  1.00  0.00    -0.270 C  
HETATM   12  H   UNL     1     -11.546   9.235  68.494  1.00  0.00     0.000 HD 
HETATM   13  O   UNL     1     -12.053  11.274  68.576  1.00  0.00    -0.573 OA 
HETATM   14  N   UNL     1     -11.034   9.612  67.697  1.00  0.00    -0.214 N  
BRANCH  14  15
HETATM   15  C   UNL     1     -10.262   8.505  67.123  1.00  0.00    -0.284 C  
HETATM   16  C   UNL     1     -10.317   6.285  68.582  1.00  0.00    -0.206 C  
HETATM   17  C   UNL     1     -10.756   7.056  67.290  1.00  0.00    -0.412 C  
HETATM   18  C   UNL     1     -11.282   6.564  69.735  1.00  0.00    -0.456 C  
HETATM   19  C   UNL     1     -11.127   7.965  70.306  1.00  0.00    -0.232 C  
HETATM   20  C   UNL     1      -9.692   8.530  70.265  1.00  0.00    -0.182 C  
HETATM   21  C   UNL     1      -8.756   8.003  69.148  1.00  0.00    -0.137 C  
HETATM   22  N   UNL     1      -8.918   6.564  68.958  1.00  0.00    -0.130 NA 
HETATM   23  C   UNL     1      -8.856   8.619  67.736  1.00  0.00    -0.137 C  
HETATM   24  C   UNL     1      -8.425   5.806  70.115  1.00  0.00    -0.121 C  
ENDBRANCH  14  15
ENDBRANCH   4  11
TORSDOF 2
ENDMDL
MODEL       69
REMARK 921   NORMALIZED FREE ENERGY PREDICTED BY IDOCK:   -5.60 KCAL/MOL
REMARK 922        TOTAL FREE ENERGY PREDICTED BY IDOCK:   -6.98 KCAL/MOL
REMARK 923 INTER-LIGAND FREE ENERGY PREDICTED BY IDOCK:   -6.22 KCAL/MOL
REMARK 924 INTRA-LIGAND FREE ENERGY PREDICTED BY IDOCK:   -0.76 KCAL/MOL
REMARK 927      BINDING AFFINITY PREDICTED BY RF-SCORE:    0.00 PKD
ROOT
HETATM    1  C   UNL     1     -13.339  13.999  72.605  1.00  0.00    -0.543 C  
HETATM    2  N   UNL     1     -12.865  13.230  71.477  1.00  0.00    -0.358 NA 
HETATM    3  N   UNL     1     -12.864  11.904  71.558  1.00  0.00    -0.367 NA 
HETATM    4  C   UNL     1     -12.114  11.488  70.511  1.00  0.00    -0.378 A  
HETATM    5  C   UNL     1     -11.841  12.589  69.637  1.00  0.00    -0.382 A  
HETATM    6  C   UNL     1     -11.012  14.131  67.943  1.00  0.00    -0.264 A  
HETATM    7  C   UNL     1     -12.311  13.717  70.329  1.00  0.00    -0.337 A  
HETATM    8  C   UNL     1     -11.480  15.224  68.673  1.00  0.00    -0.350 A  
HETATM    9  C   UNL     1     -11.172  12.815  68.416  1.00  0.00    -0.313 A  
HETATM   10  C   UNL     1     -12.137  15.034  69.886  1.00  0.00    -0.376 A  
ENDROOT
BRANCH   4  11
HETATM   11  C   UNL     1     -11.608  10.118  70.618  1.00  0.00    -0.343 C  
HETATM   12  H   UNL     1     -10.432   8.616  70.423  1.00  0.00     0.000 HD 
HETATM   13  O   UNL     1     -12.364   9.209  71.003  1.00  0.00    -0.288 OA 
HETATM   14  N   UNL     1     -10.377   9.630  70.334  1.00  0.00    -0.273 N  
BRANCH  14  15
HETATM   15  C   UNL     1      -8.998   9.952  69.952  1.00  0.00    -0.202 C  
HETATM   16  C   UNL     1      -8.489   9.601  67.368  1.00  0.00    -0.125 C  
HETATM   17  C   UNL     1      -8.709  10.577  68.574  1.00  0.00    -0.140 C  
HETATM   18  C   UNL     1      -9.824   9.224  66.724  1.00  0.00    -0.289 C  
HETATM   19  C   UNL     1     -10.640   8.266  67.578  1.00  0.00    -0.291 C  
HETATM   20  C   UNL     1      -9.808   7.272  68.416  1.00  0.00    -0.161 C  
HETATM   21  C   UNL     1      -8.384   7.717  68.833  1.00  0.00    -0.129 C  
HETATM   22  N   UNL     1      -7.706   8.408  67.741  1.00  0.00    -0.102 NA 
HETATM   23  C   UNL     1      -8.218   8.631  70.066  1.00  0.00    -0.122 C  
HETATM   24  C   UNL     1      -7.398   7.498  66.631  1.00  0.00    -0.091 C  
ENDBRANCH  14  15
ENDBRANCH   4  11
TORSDOF 2
ENDMDL
MODEL       70
REMARK 921   NORMALIZED FREE ENERGY PREDICTED BY IDOCK:   -5.57 KCAL/MOL
REMARK 922        TOTAL FREE ENERGY PREDICTED BY IDOCK:   -6.95 KCAL/MOL
REMARK 923 INTER-LIGAND FREE ENERGY PREDICTED BY IDOCK:   -6.18 KCAL/MOL
REMARK 924 INTRA-LIGAND FREE ENERGY PREDICTED BY IDOCK:   -0.76 KCAL/MOL
REMARK 927      BINDING AFFINITY PREDICTED BY RF-SCORE:    0.00 PKD
ROOT
HETATM    1  C   UNL     1      -8.303  10.097  63.658  1.00  0.00    -0.170 C  
HETATM    2  N   UNL     1      -8.928  10.932  64.659  1.00  0.00    -0.170 NA 
HETATM    3  N   UNL     1      -8.358  11.038  65.854  1.00  0.00    -0.151 NA 
HETATM    4  C   UNL     1      -9.293  11.619  66.640  1.00  0.00    -0.194 A  
HETATM    5  C   UNL     1     -10.385  12.086  65.838  1.00  0.00    -0.278 A  
HETATM    6  C   UNL     1     -12.490  12.922  64.944  1.00  0.00    -0.540 A  
HETATM    7  C   UNL     1     -10.126  11.576  64.555  1.00  0.00    -0.278 A  
HETATM    8  C   UNL     1     -12.201  12.383  63.690  1.00  0.00    -0.653 A  
HETATM    9  C   UNL     1     -11.603  12.771  66.026  1.00  0.00    -0.432 A  
HETATM   10  C   UNL     1     -11.010  11.694  63.475  1.00  0.00    -0.485 A  
ENDROOT
BRANCH   4  11
HETATM   11  C   UNL     1      -9.080  11.458  68.080  1.00  0.00    -0.171 C  
HETATM   12  H   UNL     1      -9.462  11.110  69.926  1.00  0.00     0.000 HD 
HETATM   13  O   UNL     1      -8.007  11.827  68.588  1.00  0.00    -0.147 OA 
HETATM   14  N   UNL     1      -9.912  10.958  69.024  1.00  0.00    -0.207 N  
BRANCH  14  15
HETATM   15  C   UNL     1     -11.189  10.289  69.290  1.00  0.00    -0.228 C  
HETATM   16  C   UNL     1     -11.117   8.612  71.350  1.00  0.00    -0.274 C  
HETATM   17  C   UNL     1     -11.603   9.971  70.739  1.00  0.00    -0.444 C  
HETATM   18  C   UNL     1      -9.723   8.760  71.963  1.00  0.00    -0.370 C  
HETATM   19  C   UNL     1      -8.628   8.883  70.914  1.00  0.00    -0.242 C  
HETATM   20  C   UNL     1      -8.886   8.100  69.610  1.00  0.00    -0.143 C  
HETATM   21  C   UNL     1     -10.364   7.852  69.214  1.00  0.00    -0.220 C  
HETATM   22  N   UNL     1     -11.171   7.504  70.378  1.00  0.00    -0.267 NA 
HETATM   23  C   UNL     1     -11.141   8.974  68.493  1.00  0.00     0.160 C  
HETATM   24  C   UNL     1     -10.805   6.188  70.918  1.00  0.00    -0.281 C  
ENDBRANCH  14  15
ENDBRANCH   4  11
TORSDOF 2
ENDMDL
MODEL       71
REMARK 921   NORMALIZED FREE ENERGY PREDICTED BY IDOCK:   -5.56 KCAL/MOL
REMARK 922        TOTAL FREE ENERGY PREDICTED BY IDOCK:   -6.93 KCAL/MOL
REMARK 923 INTER-LIGAND FREE ENERGY PREDICTED BY IDOCK:   -6.41 KCAL/MOL
REMARK 924 INTRA-LIGAND FREE ENERGY PREDICTED BY IDOCK:   -0.52 KCAL/MOL
REMARK 927      BINDING AFFINITY PREDICTED BY RF-SCORE:    0.00 PKD
ROOT
HETATM    1  C   UNL     1     -12.774  13.355  65.203  1.00  0.00    -0.399 C  
HETATM    2  N   UNL     1     -11.826  13.073  66.257  1.00  0.00    -0.390 NA 
HETATM    3  N   UNL     1     -12.034  12.023  67.044  1.00  0.00    -0.606 NA 
HETATM    4  C   UNL     1     -11.180  12.186  68.081  1.00  0.00    -0.267 A  
HETATM    5  C   UNL     1     -10.266  13.252  67.799  1.00  0.00    -0.228 A  
HETATM    6  C   UNL     1      -8.604  15.031  67.843  1.00  0.00    -0.155 A  
HETATM    7  C   UNL     1     -10.752  13.834  66.617  1.00  0.00    -0.277 A  
HETATM    8  C   UNL     1      -9.131  15.587  66.676  1.00  0.00    -0.310 A  
HETATM    9  C   UNL     1      -9.165  13.878  68.421  1.00  0.00    -0.194 A  
HETATM   10  C   UNL     1     -10.222  14.997  66.044  1.00  0.00    -0.318 A  
ENDROOT
BRANCH   4  11
HETATM   11  C   UNL     1     -11.506  11.409  69.279  1.00  0.00    -0.303 C  
HETATM   12  H   UNL     1     -11.600   9.923  70.488  1.00  0.00     0.000 HD 
HETATM   13  O   UNL     1     -12.305  11.869  70.113  1.00  0.00    -0.248 OA 
HETATM   14  N   UNL     1     -11.072  10.182  69.655  1.00  0.00    -0.249 N  
BRANCH  14  15
HETATM   15  C   UNL     1     -10.159   9.072  69.364  1.00  0.00    -0.198 C  
HETATM   16  C   UNL     1     -10.958   6.738  70.350  1.00  0.00    -0.283 C  
HETATM   17  C   UNL     1     -10.723   7.662  69.106  1.00  0.00    -0.153 C  
HETATM   18  C   UNL     1     -12.338   6.990  70.961  1.00  0.00    -0.402 C  
HETATM   19  C   UNL     1     -12.418   8.312  71.708  1.00  0.00    -0.367 C  
HETATM   20  C   UNL     1     -11.109   8.752  72.396  1.00  0.00    -0.240 C  
HETATM   21  C   UNL     1      -9.781   8.252  71.774  1.00  0.00    -0.212 C  
HETATM   22  N   UNL     1      -9.885   6.858  71.355  1.00  0.00    -0.178 NA 
HETATM   23  C   UNL     1      -9.195   9.005  70.561  1.00  0.00    -0.261 C  
HETATM   24  C   UNL     1     -10.009   5.954  72.505  1.00  0.00    -0.177 C  
ENDBRANCH  14  15
ENDBRANCH   4  11
TORSDOF 2
ENDMDL
MODEL       72
REMARK 921   NORMALIZED FREE ENERGY PREDICTED BY IDOCK:   -5.55 KCAL/MOL
REMARK 922        TOTAL FREE ENERGY PREDICTED BY IDOCK:   -6.93 KCAL/MOL
REMARK 923 INTER-LIGAND FREE ENERGY PREDICTED BY IDOCK:   -5.94 KCAL/MOL
REMARK 924 INTRA-LIGAND FREE ENERGY PREDICTED BY IDOCK:   -0.99 KCAL/MOL
REMARK 927      BINDING AFFINITY PREDICTED BY RF-SCORE:    0.00 PKD
ROOT
HETATM    1  C   UNL     1     -11.905  15.750  69.036  1.00  0.00    -0.355 C  
HETATM    2  N   UNL     1     -11.889  14.436  68.434  1.00  0.00    -0.326 NA 
HETATM    3  N   UNL     1     -12.180  13.380  69.187  1.00  0.00    -0.246 NA 
HETATM    4  C   UNL     1     -11.803  12.309  68.452  1.00  0.00    -0.304 A  
HETATM    5  C   UNL     1     -11.482  12.720  67.117  1.00  0.00    -0.394 A  
HETATM    6  C   UNL     1     -10.716  12.932  64.815  1.00  0.00    -0.354 A  
HETATM    7  C   UNL     1     -11.508  14.123  67.162  1.00  0.00    -0.353 A  
HETATM    8  C   UNL     1     -10.739  14.324  64.909  1.00  0.00    -0.448 A  
HETATM    9  C   UNL     1     -11.069  12.120  65.909  1.00  0.00    -0.360 A  
HETATM   10  C   UNL     1     -11.133  14.945  66.091  1.00  0.00    -0.335 A  
ENDROOT
BRANCH   4  11
HETATM   11  C   UNL     1     -11.620  11.070  69.211  1.00  0.00    -0.314 C  
HETATM   12  H   UNL     1     -10.768   9.508  69.924  1.00  0.00     0.000 HD 
HETATM   13  O   UNL     1     -12.606  10.508  69.719  1.00  0.00    -0.202 OA 
HETATM   14  N   UNL     1     -10.487  10.372  69.461  1.00  0.00    -0.236 N  
BRANCH  14  15
HETATM   15  C   UNL     1      -9.026  10.339  69.343  1.00  0.00    -0.176 C  
HETATM   16  C   UNL     1      -8.150   9.056  67.187  1.00  0.00    -0.106 C  
HETATM   17  C   UNL     1      -8.366  10.406  67.952  1.00  0.00    -0.114 C  
HETATM   18  C   UNL     1      -9.398   8.680  66.386  1.00  0.00    -0.271 C  
HETATM   19  C   UNL     1     -10.541   8.201  67.267  1.00  0.00    -0.344 C  
HETATM   20  C   UNL     1     -10.109   7.444  68.540  1.00  0.00    -0.187 C  
HETATM   21  C   UNL     1      -8.720   7.792  69.132  1.00  0.00    -0.139 C  
HETATM   22  N   UNL     1      -7.724   7.962  68.079  1.00  0.00    -0.122 NA 
HETATM   23  C   UNL     1      -8.584   9.038  70.034  1.00  0.00    -0.157 C  
HETATM   24  C   UNL     1      -7.426   6.692  67.405  1.00  0.00    -0.096 C  
ENDBRANCH  14  15
ENDBRANCH   4  11
TORSDOF 2
ENDMDL
MODEL       73
REMARK 921   NORMALIZED FREE ENERGY PREDICTED BY IDOCK:   -5.51 KCAL/MOL
REMARK 922        TOTAL FREE ENERGY PREDICTED BY IDOCK:   -6.87 KCAL/MOL
REMARK 923 INTER-LIGAND FREE ENERGY PREDICTED BY IDOCK:   -6.19 KCAL/MOL
REMARK 924 INTRA-LIGAND FREE ENERGY PREDICTED BY IDOCK:   -0.68 KCAL/MOL
REMARK 927      BINDING AFFINITY PREDICTED BY RF-SCORE:    0.00 PKD
ROOT
HETATM    1  C   UNL     1     -12.026  14.710  69.464  1.00  0.00    -0.319 C  
HETATM    2  N   UNL     1     -10.995  14.440  68.486  1.00  0.00    -0.242 NA 
HETATM    3  N   UNL     1      -9.723  14.604  68.833  1.00  0.00    -0.214 NA 
HETATM    4  C   UNL     1      -9.034  14.569  67.669  1.00  0.00    -0.193 A  
HETATM    5  C   UNL     1      -9.894  14.145  66.604  1.00  0.00    -0.289 A  
HETATM    6  C   UNL     1     -10.961  13.606  64.482  1.00  0.00    -0.405 A  
HETATM    7  C   UNL     1     -11.177  14.116  67.174  1.00  0.00    -0.317 A  
HETATM    8  C   UNL     1     -12.219  13.605  65.086  1.00  0.00    -0.461 A  
HETATM    9  C   UNL     1      -9.797  13.886  65.221  1.00  0.00    -0.170 A  
HETATM   10  C   UNL     1     -12.349  13.865  66.448  1.00  0.00    -0.468 A  
ENDROOT
BRANCH   4  11
HETATM   11  C   UNL     1      -7.689  15.145  67.728  1.00  0.00    -0.149 C  
HETATM   12  H   UNL     1      -6.293  16.427  68.017  1.00  0.00     0.000 HD 
HETATM   13  O   UNL     1      -6.734  14.533  67.217  1.00  0.00    -0.274 OA 
HETATM   14  N   UNL     1      -7.276  16.317  68.266  1.00  0.00    -0.137 N  
BRANCH  14  15
HETATM   15  C   UNL     1      -7.652  17.493  69.056  1.00  0.00    -0.161 C  
HETATM   16  C   UNL     1      -8.318  19.606  67.588  1.00  0.00    -0.308 C  
HETATM   17  C   UNL     1      -8.753  18.443  68.545  1.00  0.00    -0.336 C  
HETATM   18  C   UNL     1      -8.292  19.132  66.134  1.00  0.00    -0.254 C  
HETATM   19  C   UNL     1      -7.117  18.213  65.836  1.00  0.00    -0.300 C  
HETATM   20  C   UNL     1      -5.834  18.515  66.638  1.00  0.00    -0.175 C  
HETATM   21  C   UNL     1      -6.008  19.184  68.025  1.00  0.00    -0.211 C  
HETATM   22  N   UNL     1      -7.037  20.218  67.988  1.00  0.00    -0.293 NA 
HETATM   23  C   UNL     1      -6.355  18.299  69.241  1.00  0.00    -0.259 C  
HETATM   24  C   UNL     1      -6.621  21.368  67.176  1.00  0.00    -0.257 C  
ENDBRANCH  14  15
ENDBRANCH   4  11
TORSDOF 2
ENDMDL
MODEL       74
REMARK 921   NORMALIZED FREE ENERGY PREDICTED BY IDOCK:   -5.51 KCAL/MOL
REMARK 922        TOTAL FREE ENERGY PREDICTED BY IDOCK:   -6.87 KCAL/MOL
REMARK 923 INTER-LIGAND FREE ENERGY PREDICTED BY IDOCK:   -6.26 KCAL/MOL
REMARK 924 INTRA-LIGAND FREE ENERGY PREDICTED BY IDOCK:   -0.61 KCAL/MOL
REMARK 927      BINDING AFFINITY PREDICTED BY RF-SCORE:    0.00 PKD
ROOT
HETATM    1  C   UNL     1     -11.267  16.216  70.325  1.00  0.00    -0.381 C  
HETATM    2  N   UNL     1     -10.984  16.373  68.916  1.00  0.00    -0.323 NA 
HETATM    3  N   UNL     1     -11.153  15.332  68.108  1.00  0.00    -0.295 NA 
HETATM    4  C   UNL     1     -10.545  15.682  66.951  1.00  0.00    -0.311 A  
HETATM    5  C   UNL     1     -10.192  17.070  66.985  1.00  0.00    -0.303 A  
HETATM    6  C   UNL     1      -9.290  19.302  66.619  1.00  0.00    -0.387 A  
HETATM    7  C   UNL     1     -10.455  17.471  68.304  1.00  0.00    -0.383 A  
HETATM    8  C   UNL     1      -9.553  19.653  67.944  1.00  0.00    -0.459 A  
HETATM    9  C   UNL     1      -9.589  18.017  66.131  1.00  0.00    -0.184 A  
HETATM   10  C   UNL     1     -10.139  18.738  68.814  1.00  0.00    -0.407 A  
ENDROOT
BRANCH   4  11
HETATM   11  C   UNL     1     -10.219  14.566  66.061  1.00  0.00    -0.315 C  
HETATM   12  H   UNL     1      -9.420  12.939  65.435  1.00  0.00     0.000 HD 
HETATM   13  O   UNL     1     -10.560  14.612  64.865  1.00  0.00    -0.416 OA 
HETATM   14  N   UNL     1      -9.549  13.419  66.325  1.00  0.00    -0.263 N  
BRANCH  14  15
HETATM   15  C   UNL     1      -8.931  12.581  67.357  1.00  0.00    -0.188 C  
HETATM   16  C   UNL     1      -7.958  10.285  66.438  1.00  0.00    -0.121 C  
HETATM   17  C   UNL     1      -7.700  11.720  67.013  1.00  0.00    -0.158 C  
HETATM   18  C   UNL     1      -8.134  10.333  64.919  1.00  0.00    -0.154 C  
HETATM   19  C   UNL     1      -9.467  10.932  64.499  1.00  0.00    -0.284 C  
HETATM   20  C   UNL     1     -10.638  10.656  65.466  1.00  0.00    -0.180 C  
HETATM   21  C   UNL     1     -10.286  10.429  66.957  1.00  0.00    -0.225 C  
HETATM   22  N   UNL     1      -9.089   9.606  67.098  1.00  0.00    -0.134 NA 
HETATM   23  C   UNL     1     -10.051  11.657  67.864  1.00  0.00    -0.198 C  
HETATM   24  C   UNL     1      -9.325   8.226  66.657  1.00  0.00    -0.192 C  
ENDBRANCH  14  15
ENDBRANCH   4  11
TORSDOF 2
ENDMDL
MODEL       75
REMARK 921   NORMALIZED FREE ENERGY PREDICTED BY IDOCK:   -5.48 KCAL/MOL
REMARK 922        TOTAL FREE ENERGY PREDICTED BY IDOCK:   -6.84 KCAL/MOL
REMARK 923 INTER-LIGAND FREE ENERGY PREDICTED BY IDOCK:   -6.45 KCAL/MOL
REMARK 924 INTRA-LIGAND FREE ENERGY PREDICTED BY IDOCK:   -0.40 KCAL/MOL
REMARK 927      BINDING AFFINITY PREDICTED BY RF-SCORE:    0.00 PKD
ROOT
HETATM    1  C   UNL     1      -9.164   7.449  67.891  1.00  0.00    -0.131 C  
HETATM    2  N   UNL     1     -10.095   8.114  68.775  1.00  0.00    -0.194 NA 
HETATM    3  N   UNL     1     -10.699   9.222  68.358  1.00  0.00    -0.185 NA 
HETATM    4  C   UNL     1     -11.255   9.759  69.467  1.00  0.00    -0.142 A  
HETATM    5  C   UNL     1     -11.178   8.828  70.553  1.00  0.00    -0.278 A  
HETATM    6  C   UNL     1     -11.171   7.671  72.696  1.00  0.00    -0.419 A  
HETATM    7  C   UNL     1     -10.372   7.784  70.070  1.00  0.00    -0.221 A  
HETATM    8  C   UNL     1     -10.355   6.665  72.179  1.00  0.00    -0.222 A  
HETATM    9  C   UNL     1     -11.578   8.760  71.904  1.00  0.00    -0.432 A  
HETATM   10  C   UNL     1      -9.936   6.707  70.852  1.00  0.00    -0.204 A  
ENDROOT
BRANCH   4  11
HETATM   11  C   UNL     1     -11.605  11.177  69.360  1.00  0.00    -0.318 C  
HETATM   12  H   UNL     1     -11.744  12.944  68.629  1.00  0.00     0.000 HD 
HETATM   13  O   UNL     1     -12.034  11.783  70.358  1.00  0.00    -0.352 OA 
HETATM   14  N   UNL     1     -11.519  12.008  68.294  1.00  0.00    -0.279 N  
BRANCH  14  15
HETATM   15  C   UNL     1     -11.238  12.122  66.859  1.00  0.00    -0.320 C  
HETATM   16  C   UNL     1      -9.588  14.112  66.242  1.00  0.00    -0.275 C  
HETATM   17  C   UNL     1      -9.844  12.572  66.383  1.00  0.00    -0.260 C  
HETATM   18  C   UNL     1      -9.136  14.711  67.575  1.00  0.00    -0.192 C  
HETATM   19  C   UNL     1     -10.266  14.813  68.588  1.00  0.00    -0.236 C  
HETATM   20  C   UNL     1     -11.660  15.081  67.983  1.00  0.00    -0.356 C  
HETATM   21  C   UNL     1     -11.911  14.585  66.537  1.00  0.00    -0.340 C  
HETATM   22  N   UNL     1     -10.751  14.829  65.686  1.00  0.00    -0.316 NA 
HETATM   23  C   UNL     1     -12.286  13.105  66.310  1.00  0.00    -0.423 C  
HETATM   24  C   UNL     1     -10.540  16.263  65.454  1.00  0.00    -0.352 C  
ENDBRANCH  14  15
ENDBRANCH   4  11
TORSDOF 2
ENDMDL
MODEL       76
REMARK 921   NORMALIZED FREE ENERGY PREDICTED BY IDOCK:   -5.45 KCAL/MOL
REMARK 922        TOTAL FREE ENERGY PREDICTED BY IDOCK:   -6.81 KCAL/MOL
REMARK 923 INTER-LIGAND FREE ENERGY PREDICTED BY IDOCK:   -6.86 KCAL/MOL
REMARK 924 INTRA-LIGAND FREE ENERGY PREDICTED BY IDOCK:    0.05 KCAL/MOL
REMARK 927      BINDING AFFINITY PREDICTED BY RF-SCORE:    0.00 PKD
ROOT
HETATM    1  C   UNL     1      -8.703   8.723  70.125  1.00  0.00    -0.149 C  
HETATM    2  N   UNL     1      -9.938   9.473  70.075  1.00  0.00    -0.221 NA 
HETATM    3  N   UNL     1     -10.004  10.551  69.300  1.00  0.00    -0.220 NA 
HETATM    4  C   UNL     1     -11.135  11.187  69.678  1.00  0.00    -0.232 A  
HETATM    5  C   UNL     1     -11.898  10.350  70.555  1.00  0.00    -0.430 A  
HETATM    6  C   UNL     1     -13.461   9.378  72.150  1.00  0.00    -0.543 A  
HETATM    7  C   UNL     1     -11.058   9.258  70.824  1.00  0.00    -0.285 A  
HETATM    8  C   UNL     1     -12.587   8.320  72.400  1.00  0.00    -0.323 A  
HETATM    9  C   UNL     1     -13.128  10.402  71.245  1.00  0.00    -0.494 A  
HETATM   10  C   UNL     1     -11.363   8.244  71.741  1.00  0.00    -0.350 A  
ENDROOT
BRANCH   4  11
HETATM   11  C   UNL     1     -11.214  12.597  69.287  1.00  0.00    -0.193 C  
HETATM   12  H   UNL     1     -10.745  14.261  68.458  1.00  0.00     0.000 HD 
HETATM   13  O   UNL     1     -12.037  13.345  69.842  1.00  0.00    -0.324 OA 
HETATM   14  N   UNL     1     -10.483  13.279  68.374  1.00  0.00    -0.249 N  
BRANCH  14  15
HETATM   15  C   UNL     1      -9.472  13.196  67.315  1.00  0.00    -0.225 C  
HETATM   16  C   UNL     1     -10.294  14.131  64.967  1.00  0.00    -0.418 C  
HETATM   17  C   UNL     1      -9.393  14.296  66.239  1.00  0.00    -0.236 C  
HETATM   18  C   UNL     1     -11.688  14.711  65.211  1.00  0.00    -0.346 C  
HETATM   19  C   UNL     1     -12.532  13.847  66.136  1.00  0.00    -0.478 C  
HETATM   20  C   UNL     1     -12.266  12.330  66.032  1.00  0.00    -0.050 C  
HETATM   21  C   UNL     1     -10.851  11.890  65.578  1.00  0.00    -0.295 C  
HETATM   22  N   UNL     1     -10.357  12.735  64.495  1.00  0.00    -0.351 NA 
HETATM   23  C   UNL     1      -9.713  11.845  66.619  1.00  0.00    -0.220 C  
HETATM   24  C   UNL     1     -11.120  12.534  63.258  1.00  0.00    -0.226 C  
ENDBRANCH  14  15
ENDBRANCH   4  11
TORSDOF 2
ENDMDL
MODEL       77
REMARK 921   NORMALIZED FREE ENERGY PREDICTED BY IDOCK:   -5.42 KCAL/MOL
REMARK 922        TOTAL FREE ENERGY PREDICTED BY IDOCK:   -6.77 KCAL/MOL
REMARK 923 INTER-LIGAND FREE ENERGY PREDICTED BY IDOCK:   -6.15 KCAL/MOL
REMARK 924 INTRA-LIGAND FREE ENERGY PREDICTED BY IDOCK:   -0.62 KCAL/MOL
REMARK 927      BINDING AFFINITY PREDICTED BY RF-SCORE:    0.00 PKD
ROOT
HETATM    1  C   UNL     1      -6.598  19.485  69.246  1.00  0.00    -0.339 C  
HETATM    2  N   UNL     1      -7.512  18.601  68.559  1.00  0.00    -0.293 NA 
HETATM    3  N   UNL     1      -7.300  17.290  68.611  1.00  0.00    -0.228 NA 
HETATM    4  C   UNL     1      -8.109  16.764  67.663  1.00  0.00    -0.177 A  
HETATM    5  C   UNL     1      -9.008  17.768  67.176  1.00  0.00    -0.249 A  
HETATM    6  C   UNL     1     -10.624  19.120  65.956  1.00  0.00    -0.524 A  
HETATM    7  C   UNL     1      -8.553  18.963  67.755  1.00  0.00    -0.292 A  
HETATM    8  C   UNL     1     -10.129  20.286  66.541  1.00  0.00    -0.518 A  
HETATM    9  C   UNL     1     -10.069  17.862  66.251  1.00  0.00    -0.351 A  
HETATM   10  C   UNL     1      -9.077  20.227  67.452  1.00  0.00    -0.483 A  
ENDROOT
BRANCH   4  11
HETATM   11  C   UNL     1      -7.757  15.410  67.230  1.00  0.00    -0.213 C  
HETATM   12  H   UNL     1      -7.957  13.556  66.783  1.00  0.00     0.000 HD 
HETATM   13  O   UNL     1      -6.560  15.096  67.103  1.00  0.00    -0.285 OA 
HETATM   14  N   UNL     1      -8.563  14.362  66.938  1.00  0.00    -0.199 N  
BRANCH  14  15
HETATM   15  C   UNL     1      -9.943  13.902  66.752  1.00  0.00    -0.269 C  
HETATM   16  C   UNL     1     -10.468  11.576  67.925  1.00  0.00    -0.184 C  
HETATM   17  C   UNL     1     -10.655  13.132  67.880  1.00  0.00    -0.243 C  
HETATM   18  C   UNL     1      -9.204  11.203  68.702  1.00  0.00    -0.173 C  
HETATM   19  C   UNL     1      -7.928  11.510  67.933  1.00  0.00    -0.126 C  
HETATM   20  C   UNL     1      -8.040  11.362  66.401  1.00  0.00    -0.106 C  
HETATM   21  C   UNL     1      -9.438  11.578  65.769  1.00  0.00    -0.234 C  
HETATM   22  N   UNL     1     -10.485  10.966  66.582  1.00  0.00    -0.246 NA 
HETATM   23  C   UNL     1      -9.918  13.018  65.493  1.00  0.00    -0.226 C  
HETATM   24  C   UNL     1     -10.397   9.501  66.567  1.00  0.00    -0.193 C  
ENDBRANCH  14  15
ENDBRANCH   4  11
TORSDOF 2
ENDMDL
MODEL       78
REMARK 921   NORMALIZED FREE ENERGY PREDICTED BY IDOCK:   -5.38 KCAL/MOL
REMARK 922        TOTAL FREE ENERGY PREDICTED BY IDOCK:   -6.74 KCAL/MOL
REMARK 923 INTER-LIGAND FREE ENERGY PREDICTED BY IDOCK:   -6.02 KCAL/MOL
REMARK 924 INTRA-LIGAND FREE ENERGY PREDICTED BY IDOCK:   -0.71 KCAL/MOL
REMARK 927      BINDING AFFINITY PREDICTED BY RF-SCORE:    0.00 PKD
ROOT
HETATM    1  C   UNL     1     -13.594  13.536  72.424  1.00  0.00    -0.608 C  
HETATM    2  N   UNL     1     -12.907  12.772  71.408  1.00  0.00    -0.339 NA 
HETATM    3  N   UNL     1     -12.954  11.445  71.459  1.00  0.00    -0.440 NA 
HETATM    4  C   UNL     1     -12.007  11.025  70.590  1.00  0.00    -0.365 A  
HETATM    5  C   UNL     1     -11.526  12.132  69.818  1.00  0.00    -0.261 A  
HETATM    6  C   UNL     1     -10.316  13.675  68.374  1.00  0.00    -0.248 A  
HETATM    7  C   UNL     1     -12.107  13.261  70.416  1.00  0.00    -0.327 A  
HETATM    8  C   UNL     1     -10.903  14.770  69.009  1.00  0.00    -0.250 A  
HETATM    9  C   UNL     1     -10.605  12.357  68.774  1.00  0.00    -0.213 A  
HETATM   10  C   UNL     1     -11.810  14.580  70.049  1.00  0.00    -0.372 A  
ENDROOT
BRANCH   4  11
HETATM   11  C   UNL     1     -11.568   9.640  70.774  1.00  0.00    -0.321 C  
HETATM   12  H   UNL     1     -10.918   7.888  70.344  1.00  0.00     0.000 HD 
HETATM   13  O   UNL     1     -11.750   9.076  71.867  1.00  0.00    -0.346 OA 
HETATM   14  N   UNL     1     -10.971   8.801  69.894  1.00  0.00    -0.218 N  
BRANCH  14  15
HETATM   15  C   UNL     1     -10.369   8.659  68.565  1.00  0.00    -0.196 C  
HETATM   16  C   UNL     1      -9.838   6.144  67.889  1.00  0.00    -0.123 C  
HETATM   17  C   UNL     1     -10.709   7.433  67.695  1.00  0.00    -0.278 C  
HETATM   18  C   UNL     1     -10.394   5.279  69.021  1.00  0.00    -0.246 C  
HETATM   19  C   UNL     1     -10.136   5.873  70.397  1.00  0.00    -0.259 C  
HETATM   20  C   UNL     1      -8.821   6.670  70.526  1.00  0.00    -0.152 C  
HETATM   21  C   UNL     1      -8.268   7.335  69.240  1.00  0.00    -0.131 C  
HETATM   22  N   UNL     1      -8.409   6.451  68.086  1.00  0.00    -0.116 NA 
HETATM   23  C   UNL     1      -8.849   8.693  68.793  1.00  0.00    -0.139 C  
HETATM   24  C   UNL     1      -7.532   5.279  68.191  1.00  0.00    -0.076 C  
ENDBRANCH  14  15
ENDBRANCH   4  11
TORSDOF 2
ENDMDL
MODEL       79
REMARK 921   NORMALIZED FREE ENERGY PREDICTED BY IDOCK:   -5.35 KCAL/MOL
REMARK 922        TOTAL FREE ENERGY PREDICTED BY IDOCK:   -6.70 KCAL/MOL
REMARK 923 INTER-LIGAND FREE ENERGY PREDICTED BY IDOCK:   -6.01 KCAL/MOL
REMARK 924 INTRA-LIGAND FREE ENERGY PREDICTED BY IDOCK:   -0.69 KCAL/MOL
REMARK 927      BINDING AFFINITY PREDICTED BY RF-SCORE:    0.00 PKD
ROOT
HETATM    1  C   UNL     1     -12.275  14.656  69.315  1.00  0.00    -0.212 C  
HETATM    2  N   UNL     1     -12.010  13.436  68.586  1.00  0.00    -0.351 NA 
HETATM    3  N   UNL     1     -11.929  12.292  69.256  1.00  0.00    -0.283 NA 
HETATM    4  C   UNL     1     -11.395  11.409  68.382  1.00  0.00    -0.281 A  
HETATM    5  C   UNL     1     -11.362  11.980  67.068  1.00  0.00    -0.396 A  
HETATM    6  C   UNL     1     -10.976  12.543  64.730  1.00  0.00    -0.339 A  
HETATM    7  C   UNL     1     -11.730  13.322  67.256  1.00  0.00    -0.377 A  
HETATM    8  C   UNL     1     -11.333  13.872  64.965  1.00  0.00    -0.336 A  
HETATM    9  C   UNL     1     -10.972  11.594  65.769  1.00  0.00    -0.329 A  
HETATM   10  C   UNL     1     -11.714  14.286  66.239  1.00  0.00    -0.404 A  
ENDROOT
BRANCH   4  11
HETATM   11  C   UNL     1     -10.813  10.210  68.989  1.00  0.00    -0.224 C  
HETATM   12  H   UNL     1     -10.240   8.391  69.184  1.00  0.00     0.000 HD 
HETATM   13  O   UNL     1     -10.526  10.210  70.199  1.00  0.00    -0.271 OA 
HETATM   14  N   UNL     1     -10.529   9.011  68.428  1.00  0.00    -0.207 N  
BRANCH  14  15
HETATM   15  C   UNL     1     -10.463   8.233  67.187  1.00  0.00    -0.316 C  
HETATM   16  C   UNL     1     -10.237   5.613  67.571  1.00  0.00    -0.202 C  
HETATM   17  C   UNL     1     -11.109   6.836  67.121  1.00  0.00    -0.404 C  
HETATM   18  C   UNL     1     -10.341   5.400  69.082  1.00  0.00    -0.300 C  
HETATM   19  C   UNL     1      -9.588   6.454  69.879  1.00  0.00    -0.166 C  
HETATM   20  C   UNL     1      -8.313   6.996  69.198  1.00  0.00    -0.125 C  
HETATM   21  C   UNL     1      -8.270   6.967  67.650  1.00  0.00    -0.117 C  
HETATM   22  N   UNL     1      -8.835   5.725  67.129  1.00  0.00    -0.108 NA 
HETATM   23  C   UNL     1      -8.966   8.098  66.862  1.00  0.00    -0.163 C  
HETATM   24  C   UNL     1      -7.990   4.569  67.451  1.00  0.00    -0.100 C  
ENDBRANCH  14  15
ENDBRANCH   4  11
TORSDOF 2
ENDMDL
MODEL       80
REMARK 921   NORMALIZED FREE ENERGY PREDICTED BY IDOCK:   -5.31 KCAL/MOL
REMARK 922        TOTAL FREE ENERGY PREDICTED BY IDOCK:   -6.65 KCAL/MOL
REMARK 923 INTER-LIGAND FREE ENERGY PREDICTED BY IDOCK:   -6.05 KCAL/MOL
REMARK 924 INTRA-LIGAND FREE ENERGY PREDICTED BY IDOCK:   -0.60 KCAL/MOL
REMARK 927      BINDING AFFINITY PREDICTED BY RF-SCORE:    0.00 PKD
ROOT
HETATM    1  C   UNL     1     -12.268  14.052  67.002  1.00  0.00    -0.352 C  
HETATM    2  N   UNL     1     -11.716  12.733  66.794  1.00  0.00    -0.376 NA 
HETATM    3  N   UNL     1     -11.589  11.918  67.836  1.00  0.00    -0.399 NA 
HETATM    4  C   UNL     1     -10.797  10.911  67.402  1.00  0.00    -0.279 A  
HETATM    5  C   UNL     1     -10.624  11.003  65.983  1.00  0.00    -0.275 A  
HETATM    6  C   UNL     1      -9.932  10.810  63.656  1.00  0.00    -0.405 A  
HETATM    7  C   UNL     1     -11.203  12.233  65.633  1.00  0.00    -0.333 A  
HETATM    8  C   UNL     1     -10.507  12.046  63.356  1.00  0.00    -0.474 A  
HETATM    9  C   UNL     1      -9.971  10.284  64.960  1.00  0.00    -0.393 A  
HETATM   10  C   UNL     1     -11.151  12.784  64.346  1.00  0.00    -0.386 A  
ENDROOT
BRANCH   4  11
HETATM   11  C   UNL     1     -10.164  10.121  68.460  1.00  0.00    -0.174 C  
HETATM   12  H   UNL     1      -9.651   8.595  69.502  1.00  0.00     0.000 HD 
HETATM   13  O   UNL     1      -9.641  10.697  69.430  1.00  0.00    -0.187 OA 
HETATM   14  N   UNL     1     -10.055   8.777  68.583  1.00  0.00    -0.184 N  
BRANCH  14  15
HETATM   15  C   UNL     1     -10.275   7.474  67.947  1.00  0.00    -0.194 C  
HETATM   16  C   UNL     1     -10.749   5.504  69.666  1.00  0.00    -0.278 C  
HETATM   17  C   UNL     1     -11.280   6.480  68.560  1.00  0.00    -0.287 C  
HETATM   18  C   UNL     1     -10.819   6.160  71.047  1.00  0.00    -0.338 C  
HETATM   19  C   UNL     1      -9.762   7.236  71.242  1.00  0.00    -0.168 C  
HETATM   20  C   UNL     1      -8.430   6.981  70.506  1.00  0.00    -0.133 C  
HETATM   21  C   UNL     1      -8.487   6.126  69.215  1.00  0.00    -0.119 C  
HETATM   22  N   UNL     1      -9.397   4.995  69.370  1.00  0.00    -0.115 NA 
HETATM   23  C   UNL     1      -8.892   6.803  67.889  1.00  0.00    -0.118 C  
HETATM   24  C   UNL     1      -8.881   4.012  70.331  1.00  0.00    -0.083 C  
ENDBRANCH  14  15
ENDBRANCH   4  11
TORSDOF 2
ENDMDL
MODEL       81
REMARK 921   NORMALIZED FREE ENERGY PREDICTED BY IDOCK:   -5.30 KCAL/MOL
REMARK 922        TOTAL FREE ENERGY PREDICTED BY IDOCK:   -6.64 KCAL/MOL
REMARK 923 INTER-LIGAND FREE ENERGY PREDICTED BY IDOCK:   -5.65 KCAL/MOL
REMARK 924 INTRA-LIGAND FREE ENERGY PREDICTED BY IDOCK:   -0.99 KCAL/MOL
REMARK 927      BINDING AFFINITY PREDICTED BY RF-SCORE:    0.00 PKD
ROOT
HETATM    1  C   UNL     1     -12.020  12.594  68.531  1.00  0.00    -0.214 C  
HETATM    2  N   UNL     1     -11.210  11.593  69.188  1.00  0.00    -0.246 NA 
HETATM    3  N   UNL     1      -9.988  11.351  68.727  1.00  0.00    -0.201 NA 
HETATM    4  C   UNL     1      -9.605  10.203  69.330  1.00  0.00    -0.232 A  
HETATM    5  C   UNL     1     -10.536   9.859  70.364  1.00  0.00    -0.364 A  
HETATM    6  C   UNL     1     -11.873   8.801  72.102  1.00  0.00    -0.436 A  
HETATM    7  C   UNL     1     -11.593  10.770  70.206  1.00  0.00    -0.338 A  
HETATM    8  C   UNL     1     -12.907   9.715  71.900  1.00  0.00    -0.515 A  
HETATM    9  C   UNL     1     -10.693   8.851  71.337  1.00  0.00    -0.382 A  
HETATM   10  C   UNL     1     -12.785  10.717  70.941  1.00  0.00    -0.478 A  
ENDROOT
BRANCH   4  11
HETATM   11  C   UNL     1      -8.495   9.502  68.681  1.00  0.00    -0.119 C  
HETATM   12  H   UNL     1      -7.565   8.232  67.586  1.00  0.00     0.000 HD 
HETATM   13  O   UNL     1      -7.327   9.732  69.041  1.00  0.00    -0.073 OA 
HETATM   14  N   UNL     1      -8.521   8.570  67.700  1.00  0.00    -0.128 N  
BRANCH  14  15
HETATM   15  C   UNL     1      -9.349   7.842  66.733  1.00  0.00    -0.184 C  
HETATM   16  C   UNL     1     -10.607   5.740  67.761  1.00  0.00    -0.237 C  
HETATM   17  C   UNL     1     -10.672   7.197  67.187  1.00  0.00    -0.422 C  
HETATM   18  C   UNL     1     -10.303   5.761  69.260  1.00  0.00    -0.326 C  
HETATM   19  C   UNL     1      -8.860   6.133  69.564  1.00  0.00    -0.130 C  
HETATM   20  C   UNL     1      -7.833   5.666  68.511  1.00  0.00    -0.096 C  
HETATM   21  C   UNL     1      -8.338   5.498  67.056  1.00  0.00    -0.107 C  
HETATM   22  N   UNL     1      -9.661   4.883  67.024  1.00  0.00    -0.162 NA 
HETATM   23  C   UNL     1      -8.441   6.745  66.152  1.00  0.00    -0.135 C  
HETATM   24  C   UNL     1      -9.619   3.483  67.465  1.00  0.00    -0.127 C  
ENDBRANCH  14  15
ENDBRANCH   4  11
TORSDOF 2
ENDMDL
MODEL       82
REMARK 921   NORMALIZED FREE ENERGY PREDICTED BY IDOCK:   -5.29 KCAL/MOL
REMARK 922        TOTAL FREE ENERGY PREDICTED BY IDOCK:   -6.63 KCAL/MOL
REMARK 923 INTER-LIGAND FREE ENERGY PREDICTED BY IDOCK:   -6.06 KCAL/MOL
REMARK 924 INTRA-LIGAND FREE ENERGY PREDICTED BY IDOCK:   -0.57 KCAL/MOL
REMARK 927      BINDING AFFINITY PREDICTED BY RF-SCORE:    0.00 PKD
ROOT
HETATM    1  C   UNL     1      -9.352  10.799  62.789  1.00  0.00    -0.330 C  
HETATM    2  N   UNL     1      -9.836  11.245  64.076  1.00  0.00    -0.267 NA 
HETATM    3  N   UNL     1      -9.430  10.610  65.170  1.00  0.00    -0.208 NA 
HETATM    4  C   UNL     1     -10.252  11.042  66.154  1.00  0.00    -0.247 A  
HETATM    5  C   UNL     1     -11.037  12.145  65.685  1.00  0.00    -0.360 A  
HETATM    6  C   UNL     1     -12.660  13.925  65.328  1.00  0.00    -0.508 A  
HETATM    7  C   UNL     1     -10.766  12.215  64.310  1.00  0.00    -0.338 A  
HETATM    8  C   UNL     1     -12.373  13.948  63.963  1.00  0.00    -0.355 A  
HETATM    9  C   UNL     1     -12.014  13.025  66.196  1.00  0.00    -0.488 A  
HETATM   10  C   UNL     1     -11.419  13.086  63.428  1.00  0.00    -0.304 A  
ENDROOT
BRANCH   4  11
HETATM   11  C   UNL     1     -10.295  10.190  67.344  1.00  0.00    -0.238 C  
HETATM   12  H   UNL     1     -10.452   8.611  68.420  1.00  0.00     0.000 HD 
HETATM   13  O   UNL     1     -10.348  10.711  68.472  1.00  0.00    -0.167 OA 
HETATM   14  N   UNL     1     -10.304   8.839  67.437  1.00  0.00    -0.260 N  
BRANCH  14  15
HETATM   15  C   UNL     1     -10.191   7.568  66.715  1.00  0.00    -0.254 C  
HETATM   16  C   UNL     1     -10.269   5.427  68.286  1.00  0.00    -0.160 C  
HETATM   17  C   UNL     1     -10.964   6.331  67.211  1.00  0.00    -0.455 C  
HETATM   18  C   UNL     1     -10.545   5.951  69.697  1.00  0.00    -0.383 C  
HETATM   19  C   UNL     1      -9.775   7.224  70.014  1.00  0.00    -0.175 C  
HETATM   20  C   UNL     1      -8.390   7.331  69.341  1.00  0.00    -0.133 C  
HETATM   21  C   UNL     1      -8.195   6.578  68.001  1.00  0.00    -0.116 C  
HETATM   22  N   UNL     1      -8.824   5.261  68.038  1.00  0.00    -0.105 NA 
HETATM   23  C   UNL     1      -8.690   7.235  66.696  1.00  0.00    -0.136 C  
HETATM   24  C   UNL     1      -8.136   4.357  68.968  1.00  0.00    -0.072 C  
ENDBRANCH  14  15
ENDBRANCH   4  11
TORSDOF 2
ENDMDL
MODEL       83
REMARK 921   NORMALIZED FREE ENERGY PREDICTED BY IDOCK:   -5.25 KCAL/MOL
REMARK 922        TOTAL FREE ENERGY PREDICTED BY IDOCK:   -6.59 KCAL/MOL
REMARK 923 INTER-LIGAND FREE ENERGY PREDICTED BY IDOCK:   -5.76 KCAL/MOL
REMARK 924 INTRA-LIGAND FREE ENERGY PREDICTED BY IDOCK:   -0.83 KCAL/MOL
REMARK 927      BINDING AFFINITY PREDICTED BY RF-SCORE:    0.00 PKD
ROOT
HETATM    1  C   UNL     1      -9.582   8.956  71.544  1.00  0.00    -0.292 C  
HETATM    2  N   UNL     1      -9.310   8.853  70.128  1.00  0.00    -0.170 NA 
HETATM    3  N   UNL     1      -8.550   9.777  69.550  1.00  0.00    -0.164 NA 
HETATM    4  C   UNL     1      -8.717   9.589  68.221  1.00  0.00    -0.120 A  
HETATM    5  C   UNL     1      -9.424   8.366  67.985  1.00  0.00    -0.157 A  
HETATM    6  C   UNL     1     -10.684   6.484  67.089  1.00  0.00    -0.438 A  
HETATM    7  C   UNL     1      -9.832   7.940  69.259  1.00  0.00    -0.177 A  
HETATM    8  C   UNL     1     -11.081   6.107  68.373  1.00  0.00    -0.343 A  
HETATM    9  C   UNL     1      -9.871   7.613  66.879  1.00  0.00    -0.304 A  
HETATM   10  C   UNL     1     -10.663   6.835  69.484  1.00  0.00    -0.294 A  
ENDROOT
BRANCH   4  11
HETATM   11  C   UNL     1      -8.336  10.728  67.382  1.00  0.00    -0.119 C  
HETATM   12  H   UNL     1      -8.286  11.914  65.877  1.00  0.00     0.000 HD 
HETATM   13  O   UNL     1      -7.362  11.432  67.703  1.00  0.00    -0.093 OA 
HETATM   14  N   UNL     1      -8.887  11.169  66.227  1.00  0.00    -0.181 N  
BRANCH  14  15
HETATM   15  C   UNL     1      -9.988  11.023  65.269  1.00  0.00    -0.266 C  
HETATM   16  C   UNL     1     -10.975  13.333  64.403  1.00  0.00    -0.393 C  
HETATM   17  C   UNL     1     -10.145  12.034  64.118  1.00  0.00    -0.340 C  
HETATM   18  C   UNL     1     -10.088  14.422  65.009  1.00  0.00    -0.322 C  
HETATM   19  C   UNL     1      -9.708  14.136  66.454  1.00  0.00    -0.313 C  
HETATM   20  C   UNL     1     -10.778  13.382  67.271  1.00  0.00    -0.265 C  
HETATM   21  C   UNL     1     -11.744  12.457  66.489  1.00  0.00    -0.379 C  
HETATM   22  N   UNL     1     -12.165  13.073  65.234  1.00  0.00    -0.440 NA 
HETATM   23  C   UNL     1     -11.274  11.035  66.113  1.00  0.00     0.024 C  
HETATM   24  C   UNL     1     -13.026  14.239  65.465  1.00  0.00    -0.211 C  
ENDBRANCH  14  15
ENDBRANCH   4  11
TORSDOF 2
ENDMDL
MODEL       84
REMARK 921   NORMALIZED FREE ENERGY PREDICTED BY IDOCK:   -5.25 KCAL/MOL
REMARK 922        TOTAL FREE ENERGY PREDICTED BY IDOCK:   -6.59 KCAL/MOL
REMARK 923 INTER-LIGAND FREE ENERGY PREDICTED BY IDOCK:   -5.85 KCAL/MOL
REMARK 924 INTRA-LIGAND FREE ENERGY PREDICTED BY IDOCK:   -0.74 KCAL/MOL
REMARK 927      BINDING AFFINITY PREDICTED BY RF-SCORE:    0.00 PKD
ROOT
HETATM    1  C   UNL     1     -12.833  13.714  64.863  1.00  0.00    -0.203 C  
HETATM    2  N   UNL     1     -11.822  13.256  65.788  1.00  0.00    -0.366 NA 
HETATM    3  N   UNL     1     -12.023  12.122  66.450  1.00  0.00    -0.621 NA 
HETATM    4  C   UNL     1     -11.083  12.109  67.422  1.00  0.00    -0.276 A  
HETATM    5  C   UNL     1     -10.137  13.162  67.201  1.00  0.00    -0.242 A  
HETATM    6  C   UNL     1      -8.382  14.846  67.327  1.00  0.00    -0.233 A  
HETATM    7  C   UNL     1     -10.683  13.914  66.148  1.00  0.00    -0.283 A  
HETATM    8  C   UNL     1      -8.969  15.572  66.290  1.00  0.00    -0.362 A  
HETATM    9  C   UNL     1      -8.958  13.653  67.800  1.00  0.00    -0.196 A  
HETATM   10  C   UNL     1     -10.137  15.118  65.683  1.00  0.00    -0.392 A  
ENDROOT
BRANCH   4  11
HETATM   11  C   UNL     1     -11.354  11.198  68.536  1.00  0.00    -0.282 C  
HETATM   12  H   UNL     1     -11.067   9.839  69.857  1.00  0.00     0.000 HD 
HETATM   13  O   UNL     1     -12.520  11.053  68.944  1.00  0.00    -0.460 OA 
HETATM   14  N   UNL     1     -10.500  10.416  69.237  1.00  0.00    -0.220 N  
BRANCH  14  15
HETATM   15  C   UNL     1      -9.100  10.053  69.476  1.00  0.00    -0.220 C  
HETATM   16  C   UNL     1      -7.909   8.925  67.386  1.00  0.00    -0.097 C  
HETATM   17  C   UNL     1      -8.071  10.162  68.334  1.00  0.00    -0.104 C  
HETATM   18  C   UNL     1      -8.925   8.979  66.244  1.00  0.00    -0.199 C  
HETATM   19  C   UNL     1     -10.341   8.664  66.701  1.00  0.00    -0.303 C  
HETATM   20  C   UNL     1     -10.441   7.648  67.858  1.00  0.00    -0.270 C  
HETATM   21  C   UNL     1      -9.238   7.565  68.831  1.00  0.00    -0.142 C  
HETATM   22  N   UNL     1      -7.970   7.643  68.112  1.00  0.00    -0.121 NA 
HETATM   23  C   UNL     1      -9.129   8.597  69.974  1.00  0.00    -0.157 C  
HETATM   24  C   UNL     1      -7.741   6.451  67.286  1.00  0.00    -0.100 C  
ENDBRANCH  14  15
ENDBRANCH   4  11
TORSDOF 2
ENDMDL
MODEL       85
REMARK 921   NORMALIZED FREE ENERGY PREDICTED BY IDOCK:   -5.23 KCAL/MOL
REMARK 922        TOTAL FREE ENERGY PREDICTED BY IDOCK:   -6.56 KCAL/MOL
REMARK 923 INTER-LIGAND FREE ENERGY PREDICTED BY IDOCK:   -5.75 KCAL/MOL
REMARK 924 INTRA-LIGAND FREE ENERGY PREDICTED BY IDOCK:   -0.81 KCAL/MOL
REMARK 927      BINDING AFFINITY PREDICTED BY RF-SCORE:    0.00 PKD
ROOT
HETATM    1  C   UNL     1      -9.913   6.872  73.240  1.00  0.00    -0.215 C  
HETATM    2  N   UNL     1     -10.107   7.849  72.193  1.00  0.00    -0.204 NA 
HETATM    3  N   UNL     1      -9.102   8.110  71.363  1.00  0.00    -0.143 NA 
HETATM    4  C   UNL     1      -9.468   9.236  70.710  1.00  0.00    -0.271 A  
HETATM    5  C   UNL     1     -10.839   9.542  70.991  1.00  0.00    -0.423 A  
HETATM    6  C   UNL     1     -13.046  10.536  71.258  1.00  0.00    -0.478 A  
HETATM    7  C   UNL     1     -11.204   8.636  72.000  1.00  0.00    -0.364 A  
HETATM    8  C   UNL     1     -13.361   9.627  72.269  1.00  0.00    -0.498 A  
HETATM    9  C   UNL     1     -11.791  10.515  70.622  1.00  0.00    -0.458 A  
HETATM   10  C   UNL     1     -12.439   8.660  72.662  1.00  0.00    -0.283 A  
ENDROOT
BRANCH   4  11
HETATM   11  C   UNL     1      -8.372   9.961  70.063  1.00  0.00    -0.168 C  
HETATM   12  H   UNL     1      -7.398  10.923  68.720  1.00  0.00     0.000 HD 
HETATM   13  O   UNL     1      -7.246   9.976  70.592  1.00  0.00    -0.298 OA 
HETATM   14  N   UNL     1      -8.365  10.653  68.899  1.00  0.00    -0.143 N  
BRANCH  14  15
HETATM   15  C   UNL     1      -9.167  11.176  67.789  1.00  0.00    -0.153 C  
HETATM   16  C   UNL     1      -9.845   9.338  65.993  1.00  0.00    -0.293 C  
HETATM   17  C   UNL     1     -10.266  10.301  67.156  1.00  0.00    -0.277 C  
HETATM   18  C   UNL     1      -9.342   8.004  66.548  1.00  0.00    -0.261 C  
HETATM   19  C   UNL     1      -7.968   8.113  67.191  1.00  0.00    -0.105 C  
HETATM   20  C   UNL     1      -7.029   9.155  66.547  1.00  0.00    -0.080 C  
HETATM   21  C   UNL     1      -7.693  10.364  65.842  1.00  0.00    -0.145 C  
HETATM   22  N   UNL     1      -8.866   9.952  65.077  1.00  0.00    -0.174 NA 
HETATM   23  C   UNL     1      -8.157  11.564  66.695  1.00  0.00    -0.139 C  
HETATM   24  C   UNL     1      -8.497   9.126  63.921  1.00  0.00    -0.180 C  
ENDBRANCH  14  15
ENDBRANCH   4  11
TORSDOF 2
ENDMDL
MODEL       86
REMARK 921   NORMALIZED FREE ENERGY PREDICTED BY IDOCK:   -5.22 KCAL/MOL
REMARK 922        TOTAL FREE ENERGY PREDICTED BY IDOCK:   -6.55 KCAL/MOL
REMARK 923 INTER-LIGAND FREE ENERGY PREDICTED BY IDOCK:   -5.53 KCAL/MOL
REMARK 924 INTRA-LIGAND FREE ENERGY PREDICTED BY IDOCK:   -1.02 KCAL/MOL
REMARK 927      BINDING AFFINITY PREDICTED BY RF-SCORE:    0.00 PKD
ROOT
HETATM    1  C   UNL     1      -9.587  10.225  64.862  1.00  0.00    -0.304 C  
HETATM    2  N   UNL     1      -9.471  11.186  65.935  1.00  0.00    -0.207 NA 
HETATM    3  N   UNL     1     -10.534  11.910  66.267  1.00  0.00    -0.232 NA 
HETATM    4  C   UNL     1     -10.056  12.892  67.066  1.00  0.00    -0.245 A  
HETATM    5  C   UNL     1      -8.693  12.620  67.412  1.00  0.00    -0.191 A  
HETATM    6  C   UNL     1      -6.376  12.668  68.162  1.00  0.00    -0.080 A  
HETATM    7  C   UNL     1      -8.337  11.520  66.616  1.00  0.00    -0.167 A  
HETATM    8  C   UNL     1      -6.062  11.584  67.341  1.00  0.00    -0.083 A  
HETATM    9  C   UNL     1      -7.677  13.203  68.198  1.00  0.00    -0.143 A  
HETATM   10  C   UNL     1      -7.041  10.992  66.547  1.00  0.00    -0.136 A  
ENDROOT
BRANCH   4  11
HETATM   11  C   UNL     1     -10.936  14.053  67.215  1.00  0.00    -0.295 C  
HETATM   12  H   UNL     1     -11.545  15.869  67.134  1.00  0.00     0.000 HD 
HETATM   13  O   UNL     1     -11.980  13.953  67.883  1.00  0.00    -0.363 OA 
HETATM   14  N   UNL     1     -10.793  15.310  66.732  1.00  0.00    -0.312 N  
BRANCH  14  15
HETATM   15  C   UNL     1     -10.009  16.202  65.872  1.00  0.00    -0.356 C  
HETATM   16  C   UNL     1      -8.003  17.413  67.125  1.00  0.00    -0.204 C  
HETATM   17  C   UNL     1      -8.490  16.341  66.091  1.00  0.00    -0.313 C  
HETATM   18  C   UNL     1      -7.980  16.832  68.540  1.00  0.00    -0.235 C  
HETATM   19  C   UNL     1      -9.372  16.646  69.123  1.00  0.00    -0.177 C  
HETATM   20  C   UNL     1     -10.413  17.691  68.668  1.00  0.00    -0.317 C  
HETATM   21  C   UNL     1     -10.196  18.347  67.281  1.00  0.00    -0.374 C  
HETATM   22  N   UNL     1      -8.788  18.660  67.059  1.00  0.00    -0.274 NA 
HETATM   23  C   UNL     1     -10.655  17.590  66.017  1.00  0.00    -0.217 C  
HETATM   24  C   UNL     1      -8.324  19.732  67.948  1.00  0.00    -0.304 C  
ENDBRANCH  14  15
ENDBRANCH   4  11
TORSDOF 2
ENDMDL
MODEL       87
REMARK 921   NORMALIZED FREE ENERGY PREDICTED BY IDOCK:   -5.21 KCAL/MOL
REMARK 922        TOTAL FREE ENERGY PREDICTED BY IDOCK:   -6.54 KCAL/MOL
REMARK 923 INTER-LIGAND FREE ENERGY PREDICTED BY IDOCK:   -5.95 KCAL/MOL
REMARK 924 INTRA-LIGAND FREE ENERGY PREDICTED BY IDOCK:   -0.59 KCAL/MOL
REMARK 927      BINDING AFFINITY PREDICTED BY RF-SCORE:    0.00 PKD
ROOT
HETATM    1  C   UNL     1     -10.131   5.093  69.139  1.00  0.00    -0.204 C  
HETATM    2  N   UNL     1     -10.554   6.054  70.133  1.00  0.00    -0.250 NA 
HETATM    3  N   UNL     1     -11.022   7.231  69.730  1.00  0.00    -0.241 NA 
HETATM    4  C   UNL     1     -11.052   7.998  70.843  1.00  0.00    -0.255 A  
HETATM    5  C   UNL     1     -10.807   7.190  72.001  1.00  0.00    -0.252 A  
HETATM    6  C   UNL     1     -10.318   6.288  74.209  1.00  0.00    -0.304 A  
HETATM    7  C   UNL     1     -10.442   5.935  71.487  1.00  0.00    -0.233 A  
HETATM    8  C   UNL     1      -9.946   5.063  73.655  1.00  0.00    -0.185 A  
HETATM    9  C   UNL     1     -10.735   7.360  73.399  1.00  0.00    -0.407 A  
HETATM   10  C   UNL     1      -9.999   4.867  72.277  1.00  0.00    -0.232 A  
ENDROOT
BRANCH   4  11
HETATM   11  C   UNL     1     -11.118   9.440  70.600  1.00  0.00    -0.289 C  
HETATM   12  H   UNL     1     -10.657  11.172  69.916  1.00  0.00     0.000 HD 
HETATM   13  O   UNL     1     -11.892  10.144  71.273  1.00  0.00    -0.359 OA 
HETATM   14  N   UNL     1     -10.423  10.199  69.719  1.00  0.00    -0.248 N  
BRANCH  14  15
HETATM   15  C   UNL     1      -9.475  10.205  68.601  1.00  0.00    -0.164 C  
HETATM   16  C   UNL     1      -9.071  12.610  67.546  1.00  0.00    -0.192 C  
HETATM   17  C   UNL     1      -8.535  11.408  68.397  1.00  0.00    -0.155 C  
HETATM   18  C   UNL     1      -9.853  13.589  68.422  1.00  0.00    -0.225 C  
HETATM   19  C   UNL     1     -11.212  13.051  68.840  1.00  0.00    -0.326 C  
HETATM   20  C   UNL     1     -11.894  12.132  67.805  1.00  0.00    -0.327 C  
HETATM   21  C   UNL     1     -10.971  11.343  66.842  1.00  0.00    -0.299 C  
HETATM   22  N   UNL     1      -9.860  12.170  66.380  1.00  0.00    -0.221 NA 
HETATM   23  C   UNL     1     -10.329  10.028  67.333  1.00  0.00    -0.292 C  
HETATM   24  C   UNL     1     -10.319  13.251  65.499  1.00  0.00    -0.291 C  
ENDBRANCH  14  15
ENDBRANCH   4  11
TORSDOF 2
ENDMDL
MODEL       88
REMARK 921   NORMALIZED FREE ENERGY PREDICTED BY IDOCK:   -5.21 KCAL/MOL
REMARK 922        TOTAL FREE ENERGY PREDICTED BY IDOCK:   -6.54 KCAL/MOL
REMARK 923 INTER-LIGAND FREE ENERGY PREDICTED BY IDOCK:   -5.87 KCAL/MOL
REMARK 924 INTRA-LIGAND FREE ENERGY PREDICTED BY IDOCK:   -0.68 KCAL/MOL
REMARK 927      BINDING AFFINITY PREDICTED BY RF-SCORE:    0.00 PKD
ROOT
HETATM    1  C   UNL     1     -12.703  14.972  70.810  1.00  0.00    -0.381 C  
HETATM    2  N   UNL     1     -12.433  13.730  70.121  1.00  0.00    -0.303 NA 
HETATM    3  N   UNL     1     -12.481  12.592  70.806  1.00  0.00    -0.325 NA 
HETATM    4  C   UNL     1     -11.911  11.670  69.997  1.00  0.00    -0.351 A  
HETATM    5  C   UNL     1     -11.716  12.221  68.689  1.00  0.00    -0.377 A  
HETATM    6  C   UNL     1     -11.070  12.731  66.397  1.00  0.00    -0.320 A  
HETATM    7  C   UNL     1     -12.029  13.583  68.827  1.00  0.00    -0.339 A  
HETATM    8  C   UNL     1     -11.376  14.079  66.584  1.00  0.00    -0.345 A  
HETATM    9  C   UNL     1     -11.221  11.797  67.438  1.00  0.00    -0.357 A  
HETATM   10  C   UNL     1     -11.859  14.530  67.809  1.00  0.00    -0.390 A  
ENDROOT
BRANCH   4  11
HETATM   11  C   UNL     1     -11.458  10.451  70.670  1.00  0.00    -0.349 C  
HETATM   12  H   UNL     1     -10.500   8.819  70.981  1.00  0.00     0.000 HD 
HETATM   13  O   UNL     1     -12.058  10.046  71.681  1.00  0.00    -0.387 OA 
HETATM   14  N   UNL     1     -10.439   9.618  70.351  1.00  0.00    -0.273 N  
BRANCH  14  15
HETATM   15  C   UNL     1      -9.284   9.387  69.477  1.00  0.00    -0.176 C  
HETATM   16  C   UNL     1      -8.241   6.953  69.696  1.00  0.00    -0.131 C  
HETATM   17  C   UNL     1      -9.057   7.995  68.857  1.00  0.00    -0.144 C  
HETATM   18  C   UNL     1      -9.158   6.187  70.650  1.00  0.00    -0.156 C  
HETATM   19  C   UNL     1      -9.623   7.033  71.826  1.00  0.00    -0.161 C  
HETATM   20  C   UNL     1      -8.605   8.085  72.313  1.00  0.00    -0.212 C  
HETATM   21  C   UNL     1      -7.599   8.632  71.270  1.00  0.00    -0.110 C  
HETATM   22  N   UNL     1      -7.102   7.565  70.405  1.00  0.00    -0.058 NA 
HETATM   23  C   UNL     1      -8.049   9.759  70.316  1.00  0.00    -0.181 C  
HETATM   24  C   UNL     1      -6.252   6.622  71.142  1.00  0.00    -0.040 C  
ENDBRANCH  14  15
ENDBRANCH   4  11
TORSDOF 2
ENDMDL
MODEL       89
REMARK 921   NORMALIZED FREE ENERGY PREDICTED BY IDOCK:   -5.19 KCAL/MOL
REMARK 922        TOTAL FREE ENERGY PREDICTED BY IDOCK:   -6.52 KCAL/MOL
REMARK 923 INTER-LIGAND FREE ENERGY PREDICTED BY IDOCK:   -5.75 KCAL/MOL
REMARK 924 INTRA-LIGAND FREE ENERGY PREDICTED BY IDOCK:   -0.77 KCAL/MOL
REMARK 927      BINDING AFFINITY PREDICTED BY RF-SCORE:    0.00 PKD
ROOT
HETATM    1  C   UNL     1     -11.382   5.951  72.532  1.00  0.00    -0.304 C  
HETATM    2  N   UNL     1     -11.193   7.004  71.561  1.00  0.00    -0.243 NA 
HETATM    3  N   UNL     1     -10.238   6.871  70.646  1.00  0.00    -0.195 NA 
HETATM    4  C   UNL     1     -10.109   8.098  70.091  1.00  0.00    -0.194 A  
HETATM    5  C   UNL     1     -11.177   8.947  70.527  1.00  0.00    -0.287 A  
HETATM    6  C   UNL     1     -12.687  10.780  71.068  1.00  0.00    -0.513 A  
HETATM    7  C   UNL     1     -11.837   8.206  71.521  1.00  0.00    -0.294 A  
HETATM    8  C   UNL     1     -13.302  10.014  72.059  1.00  0.00    -0.513 A  
HETATM    9  C   UNL     1     -11.620  10.268  70.307  1.00  0.00    -0.396 A  
HETATM   10  C   UNL     1     -12.882   8.710  72.306  1.00  0.00    -0.438 A  
ENDROOT
BRANCH   4  11
HETATM   11  C   UNL     1      -8.853   8.323  69.373  1.00  0.00    -0.146 C  
HETATM   12  H   UNL     1      -7.553   8.272  67.964  1.00  0.00     0.000 HD 
HETATM   13  O   UNL     1      -7.864   8.766  69.984  1.00  0.00    -0.085 OA 
HETATM   14  N   UNL     1      -8.553   8.103  68.071  1.00  0.00    -0.129 N  
BRANCH  14  15
HETATM   15  C   UNL     1      -9.067   7.722  66.751  1.00  0.00    -0.154 C  
HETATM   16  C   UNL     1      -8.343   9.373  64.799  1.00  0.00    -0.154 C  
HETATM   17  C   UNL     1      -8.214   7.974  65.493  1.00  0.00    -0.138 C  
HETATM   18  C   UNL     1      -7.391  10.386  65.436  1.00  0.00    -0.124 C  
HETATM   19  C   UNL     1      -7.845  10.833  66.817  1.00  0.00    -0.135 C  
HETATM   20  C   UNL     1      -9.374  10.890  67.012  1.00  0.00    -0.180 C  
HETATM   21  C   UNL     1     -10.234   9.935  66.147  1.00  0.00    -0.207 C  
HETATM   22  N   UNL     1      -9.733   9.868  64.777  1.00  0.00    -0.292 NA 
HETATM   23  C   UNL     1     -10.403   8.468  66.596  1.00  0.00    -0.303 C  
HETATM   24  C   UNL     1      -9.927  11.137  64.066  1.00  0.00    -0.323 C  
ENDBRANCH  14  15
ENDBRANCH   4  11
TORSDOF 2
ENDMDL
MODEL       90
REMARK 921   NORMALIZED FREE ENERGY PREDICTED BY IDOCK:   -5.15 KCAL/MOL
REMARK 922        TOTAL FREE ENERGY PREDICTED BY IDOCK:   -6.48 KCAL/MOL
REMARK 923 INTER-LIGAND FREE ENERGY PREDICTED BY IDOCK:   -5.82 KCAL/MOL
REMARK 924 INTRA-LIGAND FREE ENERGY PREDICTED BY IDOCK:   -0.66 KCAL/MOL
REMARK 927      BINDING AFFINITY PREDICTED BY RF-SCORE:    0.00 PKD
ROOT
HETATM    1  C   UNL     1     -10.006  20.504  67.307  1.00  0.00    -0.387 C  
HETATM    2  N   UNL     1      -9.390  19.283  67.775  1.00  0.00    -0.305 NA 
HETATM    3  N   UNL     1     -10.126  18.180  67.850  1.00  0.00    -0.338 NA 
HETATM    4  C   UNL     1      -9.386  17.312  68.577  1.00  0.00    -0.276 A  
HETATM    5  C   UNL     1      -8.061  17.828  68.755  1.00  0.00    -0.228 A  
HETATM    6  C   UNL     1      -5.775  18.324  69.431  1.00  0.00    -0.230 A  
HETATM    7  C   UNL     1      -8.121  19.139  68.254  1.00  0.00    -0.332 A  
HETATM    8  C   UNL     1      -5.884  19.625  68.936  1.00  0.00    -0.261 A  
HETATM    9  C   UNL     1      -6.853  17.423  69.360  1.00  0.00    -0.147 A  
HETATM   10  C   UNL     1      -7.066  20.056  68.341  1.00  0.00    -0.310 A  
ENDROOT
BRANCH   4  11
HETATM   11  C   UNL     1     -10.134  16.196  69.159  1.00  0.00    -0.252 C  
HETATM   12  H   UNL     1     -10.829  14.424  69.392  1.00  0.00     0.000 HD 
HETATM   13  O   UNL     1     -10.966  16.414  70.057  1.00  0.00    -0.354 OA 
HETATM   14  N   UNL     1     -10.087  14.876  68.858  1.00  0.00    -0.231 N  
BRANCH  14  15
HETATM   15  C   UNL     1      -9.416  13.827  68.084  1.00  0.00    -0.212 C  
HETATM   16  C   UNL     1     -10.109  13.772  65.520  1.00  0.00    -0.284 C  
HETATM   17  C   UNL     1      -9.031  14.083  66.615  1.00  0.00    -0.177 C  
HETATM   18  C   UNL     1     -11.030  14.975  65.308  1.00  0.00    -0.391 C  
HETATM   19  C   UNL     1     -12.004  15.180  66.458  1.00  0.00     0.154 C  
HETATM   20  C   UNL     1     -12.471  13.885  67.155  1.00  0.00    -0.084 C  
HETATM   21  C   UNL     1     -11.504  12.674  67.118  1.00  0.00    -0.346 C  
HETATM   22  N   UNL     1     -10.871  12.543  65.809  1.00  0.00    -0.270 NA 
HETATM   23  C   UNL     1     -10.351  12.608  68.142  1.00  0.00    -0.238 C  
HETATM   24  C   UNL     1     -11.839  12.157  64.775  1.00  0.00    -0.318 C  
ENDBRANCH  14  15
ENDBRANCH   4  11
TORSDOF 2
ENDMDL
MODEL       91
REMARK 921   NORMALIZED FREE ENERGY PREDICTED BY IDOCK:   -5.14 KCAL/MOL
REMARK 922        TOTAL FREE ENERGY PREDICTED BY IDOCK:   -6.46 KCAL/MOL
REMARK 923 INTER-LIGAND FREE ENERGY PREDICTED BY IDOCK:   -5.93 KCAL/MOL
REMARK 924 INTRA-LIGAND FREE ENERGY PREDICTED BY IDOCK:   -0.54 KCAL/MOL
REMARK 927      BINDING AFFINITY PREDICTED BY RF-SCORE:    0.00 PKD
ROOT
HETATM    1  C   UNL     1     -10.691  12.570  64.785  1.00  0.00    -0.302 C  
HETATM    2  N   UNL     1     -10.690  11.380  65.605  1.00  0.00    -0.261 NA 
HETATM    3  N   UNL     1     -11.412  11.368  66.721  1.00  0.00    -0.436 NA 
HETATM    4  C   UNL     1     -10.990  10.278  67.402  1.00  0.00    -0.252 A  
HETATM    5  C   UNL     1     -10.145   9.477  66.568  1.00  0.00    -0.326 A  
HETATM    6  C   UNL     1      -8.579   7.877  65.610  1.00  0.00    -0.159 A  
HETATM    7  C   UNL     1      -9.939  10.256  65.418  1.00  0.00    -0.302 A  
HETATM    8  C   UNL     1      -8.390   8.692  64.493  1.00  0.00    -0.157 A  
HETATM    9  C   UNL     1      -9.438   8.260  66.656  1.00  0.00    -0.271 A  
HETATM   10  C   UNL     1      -9.067   9.903  64.380  1.00  0.00    -0.299 A  
ENDROOT
BRANCH   4  11
HETATM   11  C   UNL     1     -11.312  10.277  68.830  1.00  0.00    -0.173 C  
HETATM   12  H   UNL     1     -11.236   9.817  70.690  1.00  0.00     0.000 HD 
HETATM   13  O   UNL     1     -12.337  10.857  69.232  1.00  0.00    -0.395 OA 
HETATM   14  N   UNL     1     -10.653   9.699  69.862  1.00  0.00    -0.231 N  
BRANCH  14  15
HETATM   15  C   UNL     1      -9.450   8.974  70.285  1.00  0.00    -0.200 C  
HETATM   16  C   UNL     1      -9.764   6.337  70.385  1.00  0.00    -0.165 C  
HETATM   17  C   UNL     1      -9.136   7.591  69.684  1.00  0.00    -0.140 C  
HETATM   18  C   UNL     1     -11.168   6.061  69.846  1.00  0.00    -0.438 C  
HETATM   19  C   UNL     1     -12.196   7.068  70.336  1.00  0.00    -0.138 C  
HETATM   20  C   UNL     1     -11.941   7.620  71.755  1.00  0.00    -0.333 C  
HETATM   21  C   UNL     1     -10.472   7.657  72.246  1.00  0.00    -0.237 C  
HETATM   22  N   UNL     1      -9.754   6.447  71.855  1.00  0.00    -0.153 NA 
HETATM   23  C   UNL     1      -9.569   8.831  71.812  1.00  0.00    -0.371 C  
HETATM   24  C   UNL     1     -10.255   5.266  72.568  1.00  0.00    -0.191 C  
ENDBRANCH  14  15
ENDBRANCH   4  11
TORSDOF 2
ENDMDL
MODEL       92
REMARK 921   NORMALIZED FREE ENERGY PREDICTED BY IDOCK:   -5.14 KCAL/MOL
REMARK 922        TOTAL FREE ENERGY PREDICTED BY IDOCK:   -6.46 KCAL/MOL
REMARK 923 INTER-LIGAND FREE ENERGY PREDICTED BY IDOCK:   -5.91 KCAL/MOL
REMARK 924 INTRA-LIGAND FREE ENERGY PREDICTED BY IDOCK:   -0.55 KCAL/MOL
REMARK 927      BINDING AFFINITY PREDICTED BY RF-SCORE:    0.00 PKD
ROOT
HETATM    1  C   UNL     1     -12.204  14.558  69.828  1.00  0.00    -0.312 C  
HETATM    2  N   UNL     1     -11.414  13.620  69.063  1.00  0.00    -0.280 NA 
HETATM    3  N   UNL     1     -11.882  12.391  68.873  1.00  0.00    -0.313 NA 
HETATM    4  C   UNL     1     -10.831  11.683  68.401  1.00  0.00    -0.219 A  
HETATM    5  C   UNL     1      -9.750  12.566  68.081  1.00  0.00    -0.222 A  
HETATM    6  C   UNL     1      -7.626  13.618  67.521  1.00  0.00    -0.180 A  
HETATM    7  C   UNL     1     -10.157  13.817  68.572  1.00  0.00    -0.225 A  
HETATM    8  C   UNL     1      -8.065  14.838  68.037  1.00  0.00    -0.140 A  
HETATM    9  C   UNL     1      -8.447  12.476  67.548  1.00  0.00    -0.177 A  
HETATM   10  C   UNL     1      -9.342  14.957  68.577  1.00  0.00    -0.196 A  
ENDROOT
BRANCH   4  11
HETATM   11  C   UNL     1     -10.962  10.229  68.516  1.00  0.00    -0.247 C  
HETATM   12  H   UNL     1     -11.002   8.484  69.311  1.00  0.00     0.000 HD 
HETATM   13  O   UNL     1     -11.011   9.531  67.487  1.00  0.00    -0.241 OA 
HETATM   14  N   UNL     1     -11.027   9.454  69.625  1.00  0.00    -0.227 N  
BRANCH  14  15
HETATM   15  C   UNL     1     -11.119   9.429  71.088  1.00  0.00    -0.362 C  
HETATM   16  C   UNL     1     -10.036   7.270  72.196  1.00  0.00    -0.165 C  
HETATM   17  C   UNL     1      -9.978   8.811  71.919  1.00  0.00    -0.401 C  
HETATM   18  C   UNL     1      -9.392   6.488  71.050  1.00  0.00    -0.164 C  
HETATM   19  C   UNL     1     -10.249   6.472  69.793  1.00  0.00    -0.221 C  
HETATM   20  C   UNL     1     -11.772   6.482  70.044  1.00  0.00    -0.388 C  
HETATM   21  C   UNL     1     -12.268   7.141  71.355  1.00  0.00    -0.362 C  
HETATM   22  N   UNL     1     -11.403   6.797  72.480  1.00  0.00    -0.265 NA 
HETATM   23  C   UNL     1     -12.422   8.676  71.408  1.00  0.00    -0.337 C  
HETATM   24  C   UNL     1     -11.507   5.375  72.828  1.00  0.00    -0.268 C  
ENDBRANCH  14  15
ENDBRANCH   4  11
TORSDOF 2
ENDMDL
MODEL       93
REMARK 921   NORMALIZED FREE ENERGY PREDICTED BY IDOCK:   -5.14 KCAL/MOL
REMARK 922        TOTAL FREE ENERGY PREDICTED BY IDOCK:   -6.46 KCAL/MOL
REMARK 923 INTER-LIGAND FREE ENERGY PREDICTED BY IDOCK:   -5.71 KCAL/MOL
REMARK 924 INTRA-LIGAND FREE ENERGY PREDICTED BY IDOCK:   -0.75 KCAL/MOL
REMARK 927      BINDING AFFINITY PREDICTED BY RF-SCORE:    0.00 PKD
ROOT
HETATM    1  C   UNL     1     -10.132  15.563  66.637  1.00  0.00    -0.267 C  
HETATM    2  N   UNL     1     -10.137  14.153  66.321  1.00  0.00    -0.290 NA 
HETATM    3  N   UNL     1      -9.343  13.337  67.007  1.00  0.00    -0.235 NA 
HETATM    4  C   UNL     1      -9.343  12.178  66.311  1.00  0.00    -0.218 A  
HETATM    5  C   UNL     1     -10.348  12.219  65.292  1.00  0.00    -0.311 A  
HETATM    6  C   UNL     1     -11.798  11.861  63.368  1.00  0.00    -0.512 A  
HETATM    7  C   UNL     1     -10.812  13.544  65.303  1.00  0.00    -0.310 A  
HETATM    8  C   UNL     1     -12.218  13.191  63.405  1.00  0.00    -0.521 A  
HETATM    9  C   UNL     1     -10.859  11.366  64.290  1.00  0.00    -0.416 A  
HETATM   10  C   UNL     1     -11.726  14.060  64.376  1.00  0.00    -0.415 A  
ENDROOT
BRANCH   4  11
HETATM   11  C   UNL     1      -8.231  11.274  66.614  1.00  0.00    -0.164 C  
HETATM   12  H   UNL     1      -7.297   9.667  67.084  1.00  0.00     0.000 HD 
HETATM   13  O   UNL     1      -7.088  11.737  66.779  1.00  0.00    -0.126 OA 
HETATM   14  N   UNL     1      -8.231   9.929  66.772  1.00  0.00    -0.123 N  
BRANCH  14  15
HETATM   15  C   UNL     1      -9.015   8.694  66.682  1.00  0.00    -0.145 C  
HETATM   16  C   UNL     1     -10.402   8.138  68.880  1.00  0.00    -0.211 C  
HETATM   17  C   UNL     1     -10.384   8.599  67.382  1.00  0.00    -0.353 C  
HETATM   18  C   UNL     1     -10.197   9.329  69.818  1.00  0.00    -0.225 C  
HETATM   19  C   UNL     1      -8.767   9.846  69.810  1.00  0.00    -0.229 C  
HETATM   20  C   UNL     1      -7.686   8.767  69.586  1.00  0.00    -0.088 C  
HETATM   21  C   UNL     1      -8.099   7.511  68.777  1.00  0.00    -0.128 C  
HETATM   22  N   UNL     1      -9.435   7.057  69.150  1.00  0.00    -0.143 NA 
HETATM   23  C   UNL     1      -8.104   7.584  67.235  1.00  0.00    -0.115 C  
HETATM   24  C   UNL     1      -9.465   6.527  70.519  1.00  0.00    -0.166 C  
ENDBRANCH  14  15
ENDBRANCH   4  11
TORSDOF 2
ENDMDL
MODEL       94
REMARK 921   NORMALIZED FREE ENERGY PREDICTED BY IDOCK:   -5.13 KCAL/MOL
REMARK 922        TOTAL FREE ENERGY PREDICTED BY IDOCK:   -6.45 KCAL/MOL
REMARK 923 INTER-LIGAND FREE ENERGY PREDICTED BY IDOCK:   -5.84 KCAL/MOL
REMARK 924 INTRA-LIGAND FREE ENERGY PREDICTED BY IDOCK:   -0.61 KCAL/MOL
REMARK 927      BINDING AFFINITY PREDICTED BY RF-SCORE:    0.00 PKD
ROOT
HETATM    1  C   UNL     1     -11.222  16.289  70.364  1.00  0.00    -0.324 C  
HETATM    2  N   UNL     1     -10.584  16.211  69.070  1.00  0.00    -0.253 NA 
HETATM    3  N   UNL     1     -10.339  15.015  68.545  1.00  0.00    -0.224 NA 
HETATM    4  C   UNL     1      -9.498  15.250  67.512  1.00  0.00    -0.202 A  
HETATM    5  C   UNL     1      -9.411  16.658  67.262  1.00  0.00    -0.234 A  
HETATM    6  C   UNL     1      -8.837  18.913  66.545  1.00  0.00    -0.324 A  
HETATM    7  C   UNL     1     -10.100  17.251  68.332  1.00  0.00    -0.333 A  
HETATM    8  C   UNL     1      -9.518  19.460  67.633  1.00  0.00    -0.395 A  
HETATM    9  C   UNL     1      -8.763  17.521  66.354  1.00  0.00    -0.273 A  
HETATM   10  C   UNL     1     -10.160  18.634  68.551  1.00  0.00    -0.426 A  
ENDROOT
BRANCH   4  11
HETATM   11  C   UNL     1      -8.750  14.081  67.045  1.00  0.00    -0.203 C  
HETATM   12  H   UNL     1      -8.396  12.294  66.444  1.00  0.00     0.000 HD 
HETATM   13  O   UNL     1      -7.507  14.089  67.084  1.00  0.00    -0.104 OA 
HETATM   14  N   UNL     1      -9.207  12.902  66.559  1.00  0.00    -0.218 N  
BRANCH  14  15
HETATM   15  C   UNL     1     -10.381  12.136  66.129  1.00  0.00    -0.234 C  
HETATM   16  C   UNL     1     -11.068  10.192  67.806  1.00  0.00    -0.227 C  
HETATM   17  C   UNL     1     -11.372  11.596  67.178  1.00  0.00    -0.373 C  
HETATM   18  C   UNL     1     -10.135  10.326  69.010  1.00  0.00    -0.225 C  
HETATM   19  C   UNL     1      -8.704  10.653  68.612  1.00  0.00    -0.148 C  
HETATM   20  C   UNL     1      -8.248  10.049  67.267  1.00  0.00    -0.117 C  
HETATM   21  C   UNL     1      -9.344   9.782  66.204  1.00  0.00    -0.191 C  
HETATM   22  N   UNL     1     -10.549   9.230  66.815  1.00  0.00    -0.188 NA 
HETATM   23  C   UNL     1      -9.828  10.951  65.320  1.00  0.00    -0.318 C  
HETATM   24  C   UNL     1     -10.325   7.874  67.329  1.00  0.00    -0.307 C  
ENDBRANCH  14  15
ENDBRANCH   4  11
TORSDOF 2
ENDMDL
MODEL       95
REMARK 921   NORMALIZED FREE ENERGY PREDICTED BY IDOCK:   -5.10 KCAL/MOL
REMARK 922        TOTAL FREE ENERGY PREDICTED BY IDOCK:   -6.42 KCAL/MOL
REMARK 923 INTER-LIGAND FREE ENERGY PREDICTED BY IDOCK:   -5.88 KCAL/MOL
REMARK 924 INTRA-LIGAND FREE ENERGY PREDICTED BY IDOCK:   -0.54 KCAL/MOL
REMARK 927      BINDING AFFINITY PREDICTED BY RF-SCORE:    0.00 PKD
ROOT
HETATM    1  C   UNL     1      -7.774   8.769  63.173  1.00  0.00    -0.123 C  
HETATM    2  N   UNL     1      -8.596   9.228  64.270  1.00  0.00    -0.194 NA 
HETATM    3  N   UNL     1      -8.641   8.506  65.385  1.00  0.00    -0.176 NA 
HETATM    4  C   UNL     1      -9.684   9.006  66.086  1.00  0.00    -0.283 A  
HETATM    5  C   UNL     1     -10.146  10.219  65.478  1.00  0.00    -0.351 A  
HETATM    6  C   UNL     1     -11.356  12.207  64.760  1.00  0.00    -0.378 A  
HETATM    7  C   UNL     1      -9.437  10.302  64.269  1.00  0.00    -0.307 A  
HETATM    8  C   UNL     1     -10.640  12.241  63.563  1.00  0.00    -0.488 A  
HETATM    9  C   UNL     1     -11.131  11.200  65.717  1.00  0.00    -0.084 A  
HETATM   10  C   UNL     1      -9.667  11.282  63.295  1.00  0.00    -0.405 A  
ENDROOT
BRANCH   4  11
HETATM   11  C   UNL     1     -10.206   8.125  67.133  1.00  0.00    -0.296 C  
HETATM   12  H   UNL     1     -10.333   7.206  68.811  1.00  0.00     0.000 HD 
HETATM   13  O   UNL     1     -11.135   7.341  66.871  1.00  0.00    -0.287 OA 
HETATM   14  N   UNL     1      -9.815   7.994  68.422  1.00  0.00    -0.166 N  
BRANCH  14  15
HETATM   15  C   UNL     1      -8.957   8.511  69.493  1.00  0.00    -0.149 C  
HETATM   16  C   UNL     1      -8.847   6.943  71.635  1.00  0.00    -0.128 C  
HETATM   17  C   UNL     1      -8.144   7.536  70.366  1.00  0.00    -0.111 C  
HETATM   18  C   UNL     1      -9.644   5.688  71.278  1.00  0.00    -0.198 C  
HETATM   19  C   UNL     1     -10.916   5.998  70.504  1.00  0.00    -0.388 C  
HETATM   20  C   UNL     1     -11.590   7.337  70.869  1.00  0.00    -0.331 C  
HETATM   21  C   UNL     1     -10.674   8.465  71.410  1.00  0.00    -0.237 C  
HETATM   22  N   UNL     1      -9.679   7.938  72.338  1.00  0.00    -0.193 NA 
HETATM   23  C   UNL     1      -9.884   9.332  70.406  1.00  0.00    -0.290 C  
HETATM   24  C   UNL     1     -10.296   7.461  73.582  1.00  0.00    -0.316 C  
ENDBRANCH  14  15
ENDBRANCH   4  11
TORSDOF 2
ENDMDL
MODEL       96
REMARK 921   NORMALIZED FREE ENERGY PREDICTED BY IDOCK:   -5.10 KCAL/MOL
REMARK 922        TOTAL FREE ENERGY PREDICTED BY IDOCK:   -6.42 KCAL/MOL
REMARK 923 INTER-LIGAND FREE ENERGY PREDICTED BY IDOCK:   -5.50 KCAL/MOL
REMARK 924 INTRA-LIGAND FREE ENERGY PREDICTED BY IDOCK:   -0.92 KCAL/MOL
REMARK 927      BINDING AFFINITY PREDICTED BY RF-SCORE:    0.00 PKD
ROOT
HETATM    1  C   UNL     1      -7.199   8.317  63.843  1.00  0.00    -0.094 C  
HETATM    2  N   UNL     1      -8.392   8.815  64.491  1.00  0.00    -0.168 NA 
HETATM    3  N   UNL     1      -9.101   9.764  63.889  1.00  0.00    -0.247 NA 
HETATM    4  C   UNL     1      -9.953  10.221  64.835  1.00  0.00    -0.323 A  
HETATM    5  C   UNL     1      -9.913   9.365  65.983  1.00  0.00    -0.352 A  
HETATM    6  C   UNL     1     -10.103   8.315  68.172  1.00  0.00    -0.238 A  
HETATM    7  C   UNL     1      -8.847   8.486  65.734  1.00  0.00    -0.190 A  
HETATM    8  C   UNL     1      -9.027   7.473  67.889  1.00  0.00    -0.131 A  
HETATM    9  C   UNL     1     -10.547   9.270  67.240  1.00  0.00    -0.303 A  
HETATM   10  C   UNL     1      -8.375   7.548  66.661  1.00  0.00    -0.127 A  
ENDROOT
BRANCH   4  11
HETATM   11  C   UNL     1     -10.535  11.536  64.561  1.00  0.00    -0.314 C  
HETATM   12  H   UNL     1     -10.915  13.407  64.740  1.00  0.00     0.000 HD 
HETATM   13  O   UNL     1     -11.472  11.638  63.749  1.00  0.00    -0.403 OA 
HETATM   14  N   UNL     1     -10.222  12.744  65.086  1.00  0.00    -0.292 N  
BRANCH  14  15
HETATM   15  C   UNL     1      -9.303  13.496  65.946  1.00  0.00     0.081 C  
HETATM   16  C   UNL     1     -10.174  13.812  68.436  1.00  0.00    -0.248 C  
HETATM   17  C   UNL     1      -9.175  13.133  67.438  1.00  0.00    -0.213 C  
HETATM   18  C   UNL     1     -11.475  13.012  68.530  1.00  0.00    -0.340 C  
HETATM   19  C   UNL     1     -12.344  13.153  67.290  1.00  0.00    -0.066 C  
HETATM   20  C   UNL     1     -12.257  14.524  66.587  1.00  0.00    -0.250 C  
HETATM   21  C   UNL     1     -10.936  15.318  66.745  1.00  0.00    -0.306 C  
HETATM   22  N   UNL     1     -10.426  15.228  68.110  1.00  0.00    -0.242 NA 
HETATM   23  C   UNL     1      -9.740  14.967  65.834  1.00  0.00    -0.366 C  
HETATM   24  C   UNL     1     -11.290  15.939  69.060  1.00  0.00    -0.371 C  
ENDBRANCH  14  15
ENDBRANCH   4  11
TORSDOF 2
ENDMDL
MODEL       97
REMARK 921   NORMALIZED FREE ENERGY PREDICTED BY IDOCK:   -5.10 KCAL/MOL
REMARK 922        TOTAL FREE ENERGY PREDICTED BY IDOCK:   -6.42 KCAL/MOL
REMARK 923 INTER-LIGAND FREE ENERGY PREDICTED BY IDOCK:   -5.94 KCAL/MOL
REMARK 924 INTRA-LIGAND FREE ENERGY PREDICTED BY IDOCK:   -0.47 KCAL/MOL
REMARK 927      BINDING AFFINITY PREDICTED BY RF-SCORE:    0.00 PKD
ROOT
HETATM    1  C   UNL     1      -7.719   8.014  64.536  1.00  0.00    -0.125 C  
HETATM    2  N   UNL     1      -8.842   8.105  65.442  1.00  0.00    -0.102 NA 
HETATM    3  N   UNL     1      -9.528   9.241  65.502  1.00  0.00    -0.256 NA 
HETATM    4  C   UNL     1     -10.297   9.130  66.610  1.00  0.00    -0.218 A  
HETATM    5  C   UNL     1     -10.241   7.789  67.111  1.00  0.00    -0.365 A  
HETATM    6  C   UNL     1     -10.367   5.726  68.400  1.00  0.00    -0.269 A  
HETATM    7  C   UNL     1      -9.244   7.165  66.345  1.00  0.00    -0.157 A  
HETATM    8  C   UNL     1      -9.359   5.151  67.625  1.00  0.00    -0.134 A  
HETATM    9  C   UNL     1     -10.807   7.042  68.166  1.00  0.00    -0.214 A  
HETATM   10  C   UNL     1      -8.775   5.866  66.582  1.00  0.00    -0.121 A  
ENDROOT
BRANCH   4  11
HETATM   11  C   UNL     1     -10.818  10.395  67.132  1.00  0.00    -0.238 C  
HETATM   12  H   UNL     1     -10.926  12.268  67.528  1.00  0.00     0.000 HD 
HETATM   13  O   UNL     1     -11.781  10.387  67.918  1.00  0.00    -0.377 OA 
HETATM   14  N   UNL     1     -10.393  11.661  66.906  1.00  0.00    -0.214 N  
BRANCH  14  15
HETATM   15  C   UNL     1      -9.485  12.522  66.141  1.00  0.00    -0.184 C  
HETATM   16  C   UNL     1     -10.072  15.109  66.296  1.00  0.00    -0.283 C  
HETATM   17  C   UNL     1      -9.122  13.921  66.674  1.00  0.00    -0.209 C  
HETATM   18  C   UNL     1     -11.227  15.219  67.293  1.00  0.00    -0.306 C  
HETATM   19  C   UNL     1     -12.256  14.112  67.126  1.00  0.00    -0.348 C  
HETATM   20  C   UNL     1     -12.449  13.616  65.677  1.00  0.00    -0.540 C  
HETATM   21  C   UNL     1     -11.241  13.751  64.716  1.00  0.00    -0.366 C  
HETATM   22  N   UNL     1     -10.555  15.026  64.906  1.00  0.00    -0.409 NA 
HETATM   23  C   UNL     1     -10.133  12.677  64.755  1.00  0.00    -0.241 C  
HETATM   24  C   UNL     1     -11.384  16.157  64.469  1.00  0.00    -0.267 C  
ENDBRANCH  14  15
ENDBRANCH   4  11
TORSDOF 2
ENDMDL
MODEL       98
REMARK 921   NORMALIZED FREE ENERGY PREDICTED BY IDOCK:   -5.09 KCAL/MOL
REMARK 922        TOTAL FREE ENERGY PREDICTED BY IDOCK:   -6.41 KCAL/MOL
REMARK 923 INTER-LIGAND FREE ENERGY PREDICTED BY IDOCK:   -5.79 KCAL/MOL
REMARK 924 INTRA-LIGAND FREE ENERGY PREDICTED BY IDOCK:   -0.62 KCAL/MOL
REMARK 927      BINDING AFFINITY PREDICTED BY RF-SCORE:    0.00 PKD
ROOT
HETATM    1  C   UNL     1      -9.730  11.066  64.532  1.00  0.00    -0.273 C  
HETATM    2  N   UNL     1      -9.717  11.373  65.945  1.00  0.00    -0.218 NA 
HETATM    3  N   UNL     1      -8.914  10.679  66.745  1.00  0.00    -0.138 NA 
HETATM    4  C   UNL     1      -9.326  10.974  67.999  1.00  0.00    -0.163 A  
HETATM    5  C   UNL     1     -10.264  12.057  67.964  1.00  0.00    -0.203 A  
HETATM    6  C   UNL     1     -11.960  13.747  68.406  1.00  0.00    -0.395 A  
HETATM    7  C   UNL     1     -10.524  12.256  66.599  1.00  0.00    -0.222 A  
HETATM    8  C   UNL     1     -12.200  13.900  67.040  1.00  0.00    -0.392 A  
HETATM    9  C   UNL     1     -11.010  12.825  68.882  1.00  0.00    -0.275 A  
HETATM   10  C   UNL     1     -11.485  13.151  66.110  1.00  0.00    -0.366 A  
ENDROOT
BRANCH   4  11
HETATM   11  C   UNL     1      -8.898  10.027  69.030  1.00  0.00    -0.159 C  
HETATM   12  H   UNL     1      -8.996   8.834  70.529  1.00  0.00     0.000 HD 
HETATM   13  O   UNL     1      -7.684   9.833  69.223  1.00  0.00    -0.085 OA 
HETATM   14  N   UNL     1      -9.644   9.286  69.884  1.00  0.00    -0.186 N  
BRANCH  14  15
HETATM   15  C   UNL     1     -10.994   8.864  70.268  1.00  0.00    -0.241 C  
HETATM   16  C   UNL     1     -11.133   7.774  72.688  1.00  0.00    -0.376 C  
HETATM   17  C   UNL     1     -11.447   8.979  71.736  1.00  0.00    -0.442 C  
HETATM   18  C   UNL     1      -9.733   7.908  73.290  1.00  0.00    -0.352 C  
HETATM   19  C   UNL     1      -8.629   7.628  72.281  1.00  0.00    -0.157 C  
HETATM   20  C   UNL     1      -8.978   6.573  71.211  1.00  0.00    -0.141 C  
HETATM   21  C   UNL     1     -10.474   6.409  70.841  1.00  0.00    -0.228 C  
HETATM   22  N   UNL     1     -11.321   6.468  72.028  1.00  0.00    -0.271 NA 
HETATM   23  C   UNL     1     -11.107   7.392  69.833  1.00  0.00    -0.208 C  
HETATM   24  C   UNL     1     -11.121   5.301  72.896  1.00  0.00    -0.305 C  
ENDBRANCH  14  15
ENDBRANCH   4  11
TORSDOF 2
ENDMDL
MODEL       99
REMARK 921   NORMALIZED FREE ENERGY PREDICTED BY IDOCK:   -5.09 KCAL/MOL
REMARK 922        TOTAL FREE ENERGY PREDICTED BY IDOCK:   -6.40 KCAL/MOL
REMARK 923 INTER-LIGAND FREE ENERGY PREDICTED BY IDOCK:   -5.84 KCAL/MOL
REMARK 924 INTRA-LIGAND FREE ENERGY PREDICTED BY IDOCK:   -0.57 KCAL/MOL
REMARK 927      BINDING AFFINITY PREDICTED BY RF-SCORE:    0.00 PKD
ROOT
HETATM    1  C   UNL     1     -12.314  12.485  64.926  1.00  0.00    -0.470 C  
HETATM    2  N   UNL     1     -11.114  12.793  65.670  1.00  0.00    -0.274 NA 
HETATM    3  N   UNL     1     -10.518  11.825  66.359  1.00  0.00    -0.228 NA 
HETATM    4  C   UNL     1      -9.632  12.458  67.161  1.00  0.00    -0.206 A  
HETATM    5  C   UNL     1      -9.527  13.836  66.783  1.00  0.00    -0.281 A  
HETATM    6  C   UNL     1      -9.103  16.228  66.613  1.00  0.00    -0.278 A  
HETATM    7  C   UNL     1     -10.546  14.023  65.835  1.00  0.00    -0.301 A  
HETATM    8  C   UNL     1     -10.137  16.371  65.687  1.00  0.00    -0.314 A  
HETATM    9  C   UNL     1      -8.796  14.977  67.178  1.00  0.00    -0.233 A  
HETATM   10  C   UNL     1     -10.882  15.266  65.284  1.00  0.00    -0.417 A  
ENDROOT
BRANCH   4  11
HETATM   11  C   UNL     1      -9.163  11.674  68.305  1.00  0.00    -0.187 C  
HETATM   12  H   UNL     1      -9.217  10.560  69.865  1.00  0.00     0.000 HD 
HETATM   13  O   UNL     1      -7.972  11.750  68.658  1.00  0.00    -0.147 OA 
HETATM   14  N   UNL     1      -9.850  10.834  69.114  1.00  0.00    -0.201 N  
BRANCH  14  15
HETATM   15  C   UNL     1     -11.126  10.154  69.361  1.00  0.00    -0.243 C  
HETATM   16  C   UNL     1     -11.094   8.542  71.473  1.00  0.00    -0.275 C  
HETATM   17  C   UNL     1     -11.581   9.874  70.806  1.00  0.00    -0.430 C  
HETATM   18  C   UNL     1      -9.722   8.730  72.124  1.00  0.00    -0.335 C  
HETATM   19  C   UNL     1      -8.597   8.837  71.107  1.00  0.00    -0.244 C  
HETATM   20  C   UNL     1      -8.803   8.011  69.820  1.00  0.00    -0.144 C  
HETATM   21  C   UNL     1     -10.263   7.729  69.386  1.00  0.00    -0.208 C  
HETATM   22  N   UNL     1     -11.102   7.404  70.536  1.00  0.00    -0.257 NA 
HETATM   23  C   UNL     1     -11.034   8.816  68.607  1.00  0.00     0.091 C  
HETATM   24  C   UNL     1     -10.734   6.111  71.127  1.00  0.00    -0.256 C  
ENDBRANCH  14  15
ENDBRANCH   4  11
TORSDOF 2
ENDMDL
MODEL      100
REMARK 921   NORMALIZED FREE ENERGY PREDICTED BY IDOCK:   -5.06 KCAL/MOL
REMARK 922        TOTAL FREE ENERGY PREDICTED BY IDOCK:   -6.38 KCAL/MOL
REMARK 923 INTER-LIGAND FREE ENERGY PREDICTED BY IDOCK:   -5.85 KCAL/MOL
REMARK 924 INTRA-LIGAND FREE ENERGY PREDICTED BY IDOCK:   -0.53 KCAL/MOL
REMARK 927      BINDING AFFINITY PREDICTED BY RF-SCORE:    0.00 PKD
ROOT
HETATM    1  C   UNL     1     -12.129  15.945  70.344  1.00  0.00    -0.287 C  
HETATM    2  N   UNL     1     -11.338  15.472  69.230  1.00  0.00    -0.300 NA 
HETATM    3  N   UNL     1     -11.132  14.166  69.098  1.00  0.00    -0.257 NA 
HETATM    4  C   UNL     1     -10.147  14.056  68.177  1.00  0.00    -0.244 A  
HETATM    5  C   UNL     1      -9.906  15.329  67.565  1.00  0.00    -0.213 A  
HETATM    6  C   UNL     1      -9.051  17.256  66.347  1.00  0.00    -0.281 A  
HETATM    7  C   UNL     1     -10.674  16.235  68.315  1.00  0.00    -0.322 A  
HETATM    8  C   UNL     1      -9.817  18.122  67.128  1.00  0.00    -0.319 A  
HETATM    9  C   UNL     1      -9.074  15.866  66.561  1.00  0.00    -0.320 A  
HETATM   10  C   UNL     1     -10.642  17.623  68.132  1.00  0.00    -0.359 A  
ENDROOT
BRANCH   4  11
HETATM   11  C   UNL     1      -9.449  12.769  68.168  1.00  0.00    -0.219 C  
HETATM   12  H   UNL     1      -9.145  10.887  68.369  1.00  0.00     0.000 HD 
HETATM   13  O   UNL     1      -8.215  12.739  68.017  1.00  0.00    -0.147 OA 
HETATM   14  N   UNL     1      -9.944  11.518  68.322  1.00  0.00    -0.195 N  
BRANCH  14  15
HETATM   15  C   UNL     1     -11.150  10.694  68.450  1.00  0.00    -0.272 C  
HETATM   16  C   UNL     1     -11.044   8.935  70.438  1.00  0.00    -0.239 C  
HETATM   17  C   UNL     1     -11.639  10.258  69.844  1.00  0.00    -0.326 C  
HETATM   18  C   UNL     1      -9.732   9.211  71.174  1.00  0.00    -0.360 C  
HETATM   19  C   UNL     1      -8.579   9.512  70.229  1.00  0.00    -0.258 C  
HETATM   20  C   UNL     1      -8.636   8.772  68.876  1.00  0.00    -0.136 C  
HETATM   21  C   UNL     1     -10.037   8.376  68.345  1.00  0.00    -0.198 C  
HETATM   22  N   UNL     1     -10.889   7.878  69.421  1.00  0.00    -0.164 NA 
HETATM   23  C   UNL     1     -10.882   9.436  67.607  1.00  0.00    -0.222 C  
HETATM   24  C   UNL     1     -10.413   6.588  69.936  1.00  0.00    -0.213 C  
ENDBRANCH  14  15
ENDBRANCH   4  11
TORSDOF 2
ENDMDL
MODEL      101
REMARK 921   NORMALIZED FREE ENERGY PREDICTED BY IDOCK:   -5.05 KCAL/MOL
REMARK 922        TOTAL FREE ENERGY PREDICTED BY IDOCK:   -6.36 KCAL/MOL
REMARK 923 INTER-LIGAND FREE ENERGY PREDICTED BY IDOCK:   -6.07 KCAL/MOL
REMARK 924 INTRA-LIGAND FREE ENERGY PREDICTED BY IDOCK:   -0.30 KCAL/MOL
REMARK 927      BINDING AFFINITY PREDICTED BY RF-SCORE:    0.00 PKD
ROOT
HETATM    1  C   UNL     1     -13.014   9.543  71.971  1.00  0.00    -0.426 C  
HETATM    2  N   UNL     1     -11.598   9.343  71.760  1.00  0.00    -0.389 NA 
HETATM    3  N   UNL     1     -10.942  10.183  70.967  1.00  0.00    -0.210 NA 
HETATM    4  C   UNL     1      -9.750   9.588  70.732  1.00  0.00    -0.219 A  
HETATM    5  C   UNL     1      -9.591   8.455  71.594  1.00  0.00    -0.288 A  
HETATM    6  C   UNL     1      -8.921   6.405  72.727  1.00  0.00    -0.124 A  
HETATM    7  C   UNL     1     -10.841   8.304  72.216  1.00  0.00    -0.338 A  
HETATM    8  C   UNL     1     -10.183   6.285  73.310  1.00  0.00    -0.223 A  
HETATM    9  C   UNL     1      -8.615   7.471  71.861  1.00  0.00    -0.122 A  
HETATM   10  C   UNL     1     -11.170   7.234  73.059  1.00  0.00    -0.309 A  
ENDROOT
BRANCH   4  11
HETATM   11  C   UNL     1      -9.024  10.093  69.565  1.00  0.00    -0.188 C  
HETATM   12  H   UNL     1      -8.626  10.504  67.735  1.00  0.00     0.000 HD 
HETATM   13  O   UNL     1      -7.842  10.460  69.686  1.00  0.00    -0.156 OA 
HETATM   14  N   UNL     1      -9.439  10.225  68.283  1.00  0.00    -0.140 N  
BRANCH  14  15
HETATM   15  C   UNL     1     -10.570  10.133  67.354  1.00  0.00    -0.272 C  
HETATM   16  C   UNL     1     -10.852  12.263  65.789  1.00  0.00    -0.278 C  
HETATM   17  C   UNL     1     -10.462  10.753  65.947  1.00  0.00    -0.270 C  
HETATM   18  C   UNL     1      -9.655  13.167  66.092  1.00  0.00    -0.209 C  
HETATM   19  C   UNL     1      -9.323  13.227  67.574  1.00  0.00    -0.218 C  
HETATM   20  C   UNL     1     -10.537  13.107  68.519  1.00  0.00    -0.274 C  
HETATM   21  C   UNL     1     -11.765  12.321  67.996  1.00  0.00    -0.356 C  
HETATM   22  N   UNL     1     -12.032  12.629  66.594  1.00  0.00    -0.529 NA 
HETATM   23  C   UNL     1     -11.759  10.780  68.085  1.00  0.00    -0.173 C  
HETATM   24  C   UNL     1     -12.494  14.012  66.422  1.00  0.00    -0.355 C  
ENDBRANCH  14  15
ENDBRANCH   4  11
TORSDOF 2
ENDMDL
MODEL      102
REMARK 921   NORMALIZED FREE ENERGY PREDICTED BY IDOCK:   -4.98 KCAL/MOL
REMARK 922        TOTAL FREE ENERGY PREDICTED BY IDOCK:   -6.29 KCAL/MOL
REMARK 923 INTER-LIGAND FREE ENERGY PREDICTED BY IDOCK:   -5.76 KCAL/MOL
REMARK 924 INTRA-LIGAND FREE ENERGY PREDICTED BY IDOCK:   -0.53 KCAL/MOL
REMARK 927      BINDING AFFINITY PREDICTED BY RF-SCORE:    0.00 PKD
ROOT
HETATM    1  C   UNL     1     -12.258  13.586  70.007  1.00  0.00    -0.312 C  
HETATM    2  N   UNL     1     -11.833  12.515  69.135  1.00  0.00    -0.306 NA 
HETATM    3  N   UNL     1     -11.358  11.397  69.675  1.00  0.00    -0.277 NA 
HETATM    4  C   UNL     1     -10.784  10.727  68.649  1.00  0.00    -0.208 A  
HETATM    5  C   UNL     1     -11.122  11.354  67.406  1.00  0.00    -0.349 A  
HETATM    6  C   UNL     1     -11.300  12.115  65.100  1.00  0.00    -0.379 A  
HETATM    7  C   UNL     1     -11.770  12.544  67.773  1.00  0.00    -0.359 A  
HETATM    8  C   UNL     1     -11.926  13.293  65.510  1.00  0.00    -0.445 A  
HETATM    9  C   UNL     1     -10.882  11.147  66.031  1.00  0.00    -0.230 A  
HETATM   10  C   UNL     1     -12.168  13.530  66.860  1.00  0.00    -0.377 A  
ENDROOT
BRANCH   4  11
HETATM   11  C   UNL     1      -9.829   9.690  69.044  1.00  0.00    -0.182 C  
HETATM   12  H   UNL     1      -9.161   8.025  69.721  1.00  0.00     0.000 HD 
HETATM   13  O   UNL     1      -8.615   9.956  69.093  1.00  0.00    -0.135 OA 
HETATM   14  N   UNL     1     -10.054   8.405  69.409  1.00  0.00    -0.193 N  
BRANCH  14  15
HETATM   15  C   UNL     1     -11.046   7.333  69.541  1.00  0.00    -0.107 C  
HETATM   16  C   UNL     1     -11.041   6.153  71.922  1.00  0.00    -0.274 C  
HETATM   17  C   UNL     1     -11.748   7.099  70.892  1.00  0.00    -0.367 C  
HETATM   18  C   UNL     1     -10.038   6.931  72.775  1.00  0.00    -0.199 C  
HETATM   19  C   UNL     1      -8.785   7.318  72.004  1.00  0.00    -0.129 C  
HETATM   20  C   UNL     1      -8.352   6.310  70.918  1.00  0.00    -0.127 C  
HETATM   21  C   UNL     1      -9.462   5.442  70.276  1.00  0.00    -0.163 C  
HETATM   22  N   UNL     1     -10.419   4.981  71.278  1.00  0.00    -0.183 NA 
HETATM   23  C   UNL     1     -10.315   6.041  69.137  1.00  0.00    -0.289 C  
HETATM   24  C   UNL     1      -9.812   4.016  72.203  1.00  0.00    -0.168 C  
ENDBRANCH  14  15
ENDBRANCH   4  11
TORSDOF 2
ENDMDL
MODEL      103
REMARK 921   NORMALIZED FREE ENERGY PREDICTED BY IDOCK:   -4.97 KCAL/MOL
REMARK 922        TOTAL FREE ENERGY PREDICTED BY IDOCK:   -6.28 KCAL/MOL
REMARK 923 INTER-LIGAND FREE ENERGY PREDICTED BY IDOCK:   -5.35 KCAL/MOL
REMARK 924 INTRA-LIGAND FREE ENERGY PREDICTED BY IDOCK:   -0.93 KCAL/MOL
REMARK 927      BINDING AFFINITY PREDICTED BY RF-SCORE:    0.00 PKD
ROOT
HETATM    1  C   UNL     1     -10.202  11.051  66.659  1.00  0.00    -0.235 C  
HETATM    2  N   UNL     1     -10.057  10.492  67.984  1.00  0.00    -0.161 NA 
HETATM    3  N   UNL     1      -9.072   9.631  68.214  1.00  0.00    -0.123 NA 
HETATM    4  C   UNL     1      -9.364   9.074  69.411  1.00  0.00    -0.158 A  
HETATM    5  C   UNL     1     -10.441   9.785  70.032  1.00  0.00    -0.314 A  
HETATM    6  C   UNL     1     -12.291  10.567  71.409  1.00  0.00    -0.477 A  
HETATM    7  C   UNL     1     -10.894  10.675  69.045  1.00  0.00    -0.235 A  
HETATM    8  C   UNL     1     -12.717  11.425  70.394  1.00  0.00    -0.171 A  
HETATM    9  C   UNL     1     -11.169   9.736  71.239  1.00  0.00    -0.417 A  
HETATM   10  C   UNL     1     -12.025  11.490  69.188  1.00  0.00    -0.386 A  
ENDROOT
BRANCH   4  11
HETATM   11  C   UNL     1      -8.682   7.808  69.688  1.00  0.00    -0.135 C  
HETATM   12  H   UNL     1      -8.416   5.995  70.254  1.00  0.00     0.000 HD 
HETATM   13  O   UNL     1      -7.441   7.751  69.632  1.00  0.00    -0.085 OA 
HETATM   14  N   UNL     1      -9.202   6.607  70.035  1.00  0.00    -0.157 N  
BRANCH  14  15
HETATM   15  C   UNL     1     -10.424   5.819  70.228  1.00  0.00    -0.280 C  
HETATM   16  C   UNL     1     -11.332   5.839  72.725  1.00  0.00    -0.282 C  
HETATM   17  C   UNL     1     -11.492   6.291  71.233  1.00  0.00    -0.352 C  
HETATM   18  C   UNL     1     -10.430   6.807  73.493  1.00  0.00    -0.356 C  
HETATM   19  C   UNL     1      -8.964   6.673  73.112  1.00  0.00    -0.140 C  
HETATM   20  C   UNL     1      -8.519   5.246  72.727  1.00  0.00    -0.116 C  
HETATM   21  C   UNL     1      -9.599   4.303  72.138  1.00  0.00    -0.145 C  
HETATM   22  N   UNL     1     -10.867   4.444  72.847  1.00  0.00    -0.197 NA 
HETATM   23  C   UNL     1      -9.950   4.414  70.639  1.00  0.00    -0.254 C  
HETATM   24  C   UNL     1     -10.779   3.939  74.222  1.00  0.00    -0.171 C  
ENDBRANCH  14  15
ENDBRANCH   4  11
TORSDOF 2
ENDMDL
MODEL      104
REMARK 921   NORMALIZED FREE ENERGY PREDICTED BY IDOCK:   -4.97 KCAL/MOL
REMARK 922        TOTAL FREE ENERGY PREDICTED BY IDOCK:   -6.27 KCAL/MOL
REMARK 923 INTER-LIGAND FREE ENERGY PREDICTED BY IDOCK:   -5.70 KCAL/MOL
REMARK 924 INTRA-LIGAND FREE ENERGY PREDICTED BY IDOCK:   -0.58 KCAL/MOL
REMARK 927      BINDING AFFINITY PREDICTED BY RF-SCORE:    0.00 PKD
ROOT
HETATM    1  C   UNL     1     -11.710  10.451  69.424  1.00  0.00    -0.160 C  
HETATM    2  N   UNL     1     -12.031  11.856  69.308  1.00  0.00    -0.302 NA 
HETATM    3  N   UNL     1     -11.738  12.490  68.178  1.00  0.00    -0.336 NA 
HETATM    4  C   UNL     1     -11.873  13.805  68.466  1.00  0.00    -0.370 A  
HETATM    5  C   UNL     1     -12.487  13.963  69.751  1.00  0.00    -0.240 A  
HETATM    6  C   UNL     1     -13.363  14.737  71.887  1.00  0.00    -0.452 A  
HETATM    7  C   UNL     1     -12.531  12.665  70.285  1.00  0.00    -0.090 A  
HETATM    8  C   UNL     1     -13.374  13.433  72.384  1.00  0.00    -0.629 A  
HETATM    9  C   UNL     1     -12.912  15.018  70.585  1.00  0.00    -0.394 A  
HETATM   10  C   UNL     1     -12.952  12.371  71.589  1.00  0.00    -0.409 A  
ENDROOT
BRANCH   4  11
HETATM   11  C   UNL     1     -11.203  14.715  67.535  1.00  0.00    -0.333 C  
HETATM   12  H   UNL     1     -10.243  16.247  66.896  1.00  0.00     0.000 HD 
HETATM   13  O   UNL     1     -11.320  14.538  66.309  1.00  0.00    -0.340 OA 
HETATM   14  N   UNL     1     -10.440  15.803  67.793  1.00  0.00    -0.276 N  
BRANCH  14  15
HETATM   15  C   UNL     1      -9.779  16.610  68.823  1.00  0.00    -0.254 C  
HETATM   16  C   UNL     1      -7.134  16.702  68.584  1.00  0.00    -0.183 C  
HETATM   17  C   UNL     1      -8.520  17.425  68.471  1.00  0.00    -0.274 C  
HETATM   18  C   UNL     1      -6.803  15.957  67.290  1.00  0.00    -0.232 C  
HETATM   19  C   UNL     1      -7.640  14.701  67.103  1.00  0.00    -0.078 C  
HETATM   20  C   UNL     1      -8.024  13.974  68.410  1.00  0.00    -0.143 C  
HETATM   21  C   UNL     1      -8.130  14.836  69.693  1.00  0.00     0.097 C  
HETATM   22  N   UNL     1      -7.052  15.818  69.761  1.00  0.00    -0.139 NA 
HETATM   23  C   UNL     1      -9.428  15.629  69.955  1.00  0.00    -0.030 C  
HETATM   24  C   UNL     1      -5.747  15.177  69.965  1.00  0.00    -0.129 C  
ENDBRANCH  14  15
ENDBRANCH   4  11
TORSDOF 2
ENDMDL
MODEL      105
REMARK 921   NORMALIZED FREE ENERGY PREDICTED BY IDOCK:   -4.96 KCAL/MOL
REMARK 922        TOTAL FREE ENERGY PREDICTED BY IDOCK:   -6.26 KCAL/MOL
REMARK 923 INTER-LIGAND FREE ENERGY PREDICTED BY IDOCK:   -5.65 KCAL/MOL
REMARK 924 INTRA-LIGAND FREE ENERGY PREDICTED BY IDOCK:   -0.61 KCAL/MOL
REMARK 927      BINDING AFFINITY PREDICTED BY RF-SCORE:    0.00 PKD
ROOT
HETATM    1  C   UNL     1     -11.869  12.735  66.158  1.00  0.00    -0.425 C  
HETATM    2  N   UNL     1     -10.735  12.572  67.039  1.00  0.00    -0.239 NA 
HETATM    3  N   UNL     1      -9.939  13.613  67.262  1.00  0.00    -0.237 NA 
HETATM    4  C   UNL     1      -8.841  13.096  67.859  1.00  0.00    -0.196 A  
HETATM    5  C   UNL     1      -9.077  11.728  68.215  1.00  0.00    -0.187 A  
HETATM    6  C   UNL     1      -8.947   9.390  68.886  1.00  0.00    -0.136 A  
HETATM    7  C   UNL     1     -10.309  11.413  67.620  1.00  0.00    -0.183 A  
HETATM    8  C   UNL     1     -10.166   9.118  68.265  1.00  0.00    -0.242 A  
HETATM    9  C   UNL     1      -8.385  10.680  68.858  1.00  0.00    -0.150 A  
HETATM   10  C   UNL     1     -10.869  10.129  67.615  1.00  0.00    -0.346 A  
ENDROOT
BRANCH   4  11
HETATM   11  C   UNL     1      -7.653  13.951  67.819  1.00  0.00    -0.169 C  
HETATM   12  H   UNL     1      -6.550  15.506  68.019  1.00  0.00     0.000 HD 
HETATM   13  O   UNL     1      -6.636  13.565  67.217  1.00  0.00    -0.247 OA 
HETATM   14  N   UNL     1      -7.460  15.183  68.346  1.00  0.00    -0.111 N  
BRANCH  14  15
HETATM   15  C   UNL     1      -8.014  16.246  69.191  1.00  0.00    -0.221 C  
HETATM   16  C   UNL     1      -9.836  17.748  67.972  1.00  0.00    -0.317 C  
HETATM   17  C   UNL     1      -9.492  16.655  69.041  1.00  0.00    -0.236 C  
HETATM   18  C   UNL     1     -10.052  17.114  66.597  1.00  0.00    -0.306 C  
HETATM   19  C   UNL     1      -8.755  16.644  65.956  1.00  0.00    -0.239 C  
HETATM   20  C   UNL     1      -7.515  17.497  66.295  1.00  0.00    -0.355 C  
HETATM   21  C   UNL     1      -7.522  18.248  67.650  1.00  0.00    -0.216 C  
HETATM   22  N   UNL     1      -8.833  18.829  67.925  1.00  0.00    -0.290 NA 
HETATM   23  C   UNL     1      -7.134  17.481  68.932  1.00  0.00    -0.253 C  
HETATM   24  C   UNL     1      -9.146  19.924  66.999  1.00  0.00    -0.348 C  
ENDBRANCH  14  15
ENDBRANCH   4  11
TORSDOF 2
ENDMDL
MODEL      106
REMARK 921   NORMALIZED FREE ENERGY PREDICTED BY IDOCK:   -4.94 KCAL/MOL
REMARK 922        TOTAL FREE ENERGY PREDICTED BY IDOCK:   -6.24 KCAL/MOL
REMARK 923 INTER-LIGAND FREE ENERGY PREDICTED BY IDOCK:   -5.58 KCAL/MOL
REMARK 924 INTRA-LIGAND FREE ENERGY PREDICTED BY IDOCK:   -0.66 KCAL/MOL
REMARK 927      BINDING AFFINITY PREDICTED BY RF-SCORE:    0.00 PKD
ROOT
HETATM    1  C   UNL     1      -9.431   5.087  66.402  1.00  0.00    -0.153 C  
HETATM    2  N   UNL     1      -9.967   6.326  66.920  1.00  0.00    -0.158 NA 
HETATM    3  N   UNL     1     -10.011   7.389  66.124  1.00  0.00     0.097 NA 
HETATM    4  C   UNL     1     -10.270   8.432  66.945  1.00  0.00    -0.313 A  
HETATM    5  C   UNL     1     -10.618   7.954  68.250  1.00  0.00    -0.163 A  
HETATM    6  C   UNL     1     -11.130   7.650  70.611  1.00  0.00    -0.269 A  
HETATM    7  C   UNL     1     -10.363   6.574  68.201  1.00  0.00    -0.187 A  
HETATM    8  C   UNL     1     -10.849   6.286  70.522  1.00  0.00    -0.348 A  
HETATM    9  C   UNL     1     -11.007   8.495  69.493  1.00  0.00    -0.057 A  
HETATM   10  C   UNL     1     -10.455   5.724  69.311  1.00  0.00    -0.358 A  
ENDROOT
BRANCH   4  11
HETATM   11  C   UNL     1      -9.948   9.750  66.392  1.00  0.00    -0.247 C  
HETATM   12  H   UNL     1      -9.838  11.658  66.241  1.00  0.00     0.000 HD 
HETATM   13  O   UNL     1      -9.538   9.844  65.222  1.00  0.00    -0.256 OA 
HETATM   14  N   UNL     1     -10.041  10.972  66.968  1.00  0.00    -0.190 N  
BRANCH  14  15
HETATM   15  C   UNL     1     -10.313  11.720  68.199  1.00  0.00    -0.200 C  
HETATM   16  C   UNL     1     -11.902  13.821  67.853  1.00  0.00    -0.378 C  
HETATM   17  C   UNL     1     -11.692  12.373  68.414  1.00  0.00    -0.386 C  
HETATM   18  C   UNL     1     -12.343  13.777  66.389  1.00  0.00    -0.460 C  
HETATM   19  C   UNL     1     -11.215  13.387  65.446  1.00  0.00    -0.303 C  
HETATM   20  C   UNL     1      -9.811  13.858  65.881  1.00  0.00    -0.287 C  
HETATM   21  C   UNL     1      -9.568  14.050  67.399  1.00  0.00    -0.227 C  
HETATM   22  N   UNL     1     -10.718  14.679  68.043  1.00  0.00    -0.243 NA 
HETATM   23  C   UNL     1      -9.235  12.816  68.264  1.00  0.00    -0.186 C  
HETATM   24  C   UNL     1     -10.886  16.072  67.611  1.00  0.00    -0.311 C  
ENDBRANCH  14  15
ENDBRANCH   4  11
TORSDOF 2
ENDMDL
MODEL      107
REMARK 921   NORMALIZED FREE ENERGY PREDICTED BY IDOCK:   -4.92 KCAL/MOL
REMARK 922        TOTAL FREE ENERGY PREDICTED BY IDOCK:   -6.22 KCAL/MOL
REMARK 923 INTER-LIGAND FREE ENERGY PREDICTED BY IDOCK:   -5.55 KCAL/MOL
REMARK 924 INTRA-LIGAND FREE ENERGY PREDICTED BY IDOCK:   -0.67 KCAL/MOL
REMARK 927      BINDING AFFINITY PREDICTED BY RF-SCORE:    0.00 PKD
ROOT
HETATM    1  C   UNL     1     -11.252  12.154  64.107  1.00  0.00    -0.368 C  
HETATM    2  N   UNL     1     -10.495  12.119  65.338  1.00  0.00    -0.261 NA 
HETATM    3  N   UNL     1     -10.699  13.070  66.244  1.00  0.00    -0.274 NA 
HETATM    4  C   UNL     1      -9.673  12.948  67.118  1.00  0.00    -0.221 A  
HETATM    5  C   UNL     1      -8.950  11.739  66.858  1.00  0.00    -0.195 A  
HETATM    6  C   UNL     1      -7.351   9.906  66.733  1.00  0.00    -0.095 A  
HETATM    7  C   UNL     1      -9.493  11.251  65.658  1.00  0.00    -0.229 A  
HETATM    8  C   UNL     1      -7.910   9.467  65.532  1.00  0.00    -0.103 A  
HETATM    9  C   UNL     1      -7.848  11.042  67.397  1.00  0.00    -0.118 A  
HETATM   10  C   UNL     1      -8.993  10.138  64.970  1.00  0.00    -0.227 A  
ENDROOT
BRANCH   4  11
HETATM   11  C   UNL     1      -9.428  14.125  67.953  1.00  0.00    -0.211 C  
HETATM   12  H   UNL     1      -8.756  15.838  68.493  1.00  0.00     0.000 HD 
HETATM   13  O   UNL     1      -9.751  14.107  69.154  1.00  0.00    -0.065 OA 
HETATM   14  N   UNL     1      -8.857  15.309  67.627  1.00  0.00    -0.172 N  
BRANCH  14  15
HETATM   15  C   UNL     1      -8.321  16.147  66.550  1.00  0.00    -0.317 C  
HETATM   16  C   UNL     1      -8.454  18.754  67.047  1.00  0.00    -0.281 C  
HETATM   17  C   UNL     1      -7.586  17.458  66.888  1.00  0.00    -0.253 C  
HETATM   18  C   UNL     1      -8.981  18.882  68.477  1.00  0.00    -0.388 C  
HETATM   19  C   UNL     1     -10.091  17.890  68.787  1.00  0.00    -0.384 C  
HETATM   20  C   UNL     1     -11.001  17.537  67.591  1.00  0.00    -0.111 C  
HETATM   21  C   UNL     1     -10.381  17.644  66.175  1.00  0.00    -0.334 C  
HETATM   22  N   UNL     1      -9.542  18.832  66.054  1.00  0.00    -0.487 NA 
HETATM   23  C   UNL     1      -9.522  16.476  65.646  1.00  0.00     0.003 C  
HETATM   24  C   UNL     1     -10.337  20.065  66.102  1.00  0.00    -0.458 C  
ENDBRANCH  14  15
ENDBRANCH   4  11
TORSDOF 2
ENDMDL
MODEL      108
REMARK 921   NORMALIZED FREE ENERGY PREDICTED BY IDOCK:   -4.92 KCAL/MOL
REMARK 922        TOTAL FREE ENERGY PREDICTED BY IDOCK:   -6.22 KCAL/MOL
REMARK 923 INTER-LIGAND FREE ENERGY PREDICTED BY IDOCK:   -5.38 KCAL/MOL
REMARK 924 INTRA-LIGAND FREE ENERGY PREDICTED BY IDOCK:   -0.84 KCAL/MOL
REMARK 927      BINDING AFFINITY PREDICTED BY RF-SCORE:    0.00 PKD
ROOT
HETATM    1  C   UNL     1     -12.631  12.144  63.491  1.00  0.00    -0.506 C  
HETATM    2  N   UNL     1     -11.451  12.022  64.317  1.00  0.00    -0.353 NA 
HETATM    3  N   UNL     1     -10.626  11.001  64.113  1.00  0.00    -0.380 NA 
HETATM    4  C   UNL     1      -9.810  10.987  65.191  1.00  0.00    -0.268 A  
HETATM    5  C   UNL     1     -10.000  12.177  65.965  1.00  0.00    -0.257 A  
HETATM    6  C   UNL     1     -10.052  13.932  67.653  1.00  0.00    -0.241 A  
HETATM    7  C   UNL     1     -11.114  12.804  65.383  1.00  0.00    -0.284 A  
HETATM    8  C   UNL     1     -11.170  14.512  67.052  1.00  0.00    -0.342 A  
HETATM    9  C   UNL     1      -9.467  12.763  67.132  1.00  0.00    -0.223 A  
HETATM   10  C   UNL     1     -11.724  13.952  65.904  1.00  0.00    -0.372 A  
ENDROOT
BRANCH   4  11
HETATM   11  C   UNL     1      -9.104   9.723  65.417  1.00  0.00    -0.204 C  
HETATM   12  H   UNL     1      -8.072   8.375  66.309  1.00  0.00     0.000 HD 
HETATM   13  O   UNL     1      -8.899   8.953  64.463  1.00  0.00    -0.144 OA 
HETATM   14  N   UNL     1      -8.584   9.220  66.562  1.00  0.00    -0.129 N  
BRANCH  14  15
HETATM   15  C   UNL     1      -8.449   9.383  68.013  1.00  0.00    -0.120 C  
HETATM   16  C   UNL     1      -8.379   7.088  69.351  1.00  0.00    -0.133 C  
HETATM   17  C   UNL     1      -7.632   8.363  68.828  1.00  0.00    -0.101 C  
HETATM   18  C   UNL     1      -8.376   5.985  68.292  1.00  0.00    -0.113 C  
HETATM   19  C   UNL     1      -9.317   6.277  67.134  1.00  0.00    -0.130 C  
HETATM   20  C   UNL     1     -10.589   7.065  67.512  1.00  0.00    -0.351 C  
HETATM   21  C   UNL     1     -10.498   8.006  68.740  1.00  0.00    -0.173 C  
HETATM   22  N   UNL     1      -9.743   7.387  69.825  1.00  0.00    -0.170 NA 
HETATM   23  C   UNL     1      -9.886   9.412  68.561  1.00  0.00    -0.171 C  
HETATM   24  C   UNL     1     -10.462   6.245  70.403  1.00  0.00    -0.222 C  
ENDBRANCH  14  15
ENDBRANCH   4  11
TORSDOF 2
ENDMDL
MODEL      109
REMARK 921   NORMALIZED FREE ENERGY PREDICTED BY IDOCK:   -4.92 KCAL/MOL
REMARK 922        TOTAL FREE ENERGY PREDICTED BY IDOCK:   -6.22 KCAL/MOL
REMARK 923 INTER-LIGAND FREE ENERGY PREDICTED BY IDOCK:   -5.36 KCAL/MOL
REMARK 924 INTRA-LIGAND FREE ENERGY PREDICTED BY IDOCK:   -0.86 KCAL/MOL
REMARK 927      BINDING AFFINITY PREDICTED BY RF-SCORE:    0.00 PKD
ROOT
HETATM    1  C   UNL     1     -14.379   7.204  71.502  1.00  0.00    -0.338 C  
HETATM    2  N   UNL     1     -13.102   7.875  71.598  1.00  0.00    -0.333 NA 
HETATM    3  N   UNL     1     -13.026   9.162  71.276  1.00  0.00    -0.289 NA 
HETATM    4  C   UNL     1     -11.702   9.423  71.179  1.00  0.00    -0.345 A  
HETATM    5  C   UNL     1     -10.947   8.313  71.680  1.00  0.00    -0.327 A  
HETATM    6  C   UNL     1      -9.254   6.672  72.288  1.00  0.00    -0.139 A  
HETATM    7  C   UNL     1     -11.899   7.306  71.901  1.00  0.00    -0.297 A  
HETATM    8  C   UNL     1     -10.232   5.696  72.478  1.00  0.00    -0.225 A  
HETATM    9  C   UNL     1      -9.592   7.974  71.878  1.00  0.00    -0.242 A  
HETATM   10  C   UNL     1     -11.577   5.997  72.283  1.00  0.00    -0.359 A  
ENDROOT
BRANCH   4  11
HETATM   11  C   UNL     1     -11.363  10.635  70.430  1.00  0.00    -0.304 C  
HETATM   12  H   UNL     1     -10.332  11.887  69.407  1.00  0.00     0.000 HD 
HETATM   13  O   UNL     1     -12.136  11.609  70.452  1.00  0.00    -0.355 OA 
HETATM   14  N   UNL     1     -10.270  10.906  69.678  1.00  0.00    -0.073 N  
BRANCH  14  15
HETATM   15  C   UNL     1      -9.035  10.377  69.092  1.00  0.00    -0.179 C  
HETATM   16  C   UNL     1      -8.471  11.373  66.694  1.00  0.00    -0.171 C  
HETATM   17  C   UNL     1      -8.145  11.287  68.224  1.00  0.00    -0.137 C  
HETATM   18  C   UNL     1      -9.530  12.442  66.423  1.00  0.00    -0.240 C  
HETATM   19  C   UNL     1     -10.920  12.021  66.875  1.00  0.00    -0.328 C  
HETATM   20  C   UNL     1     -11.212  10.510  66.760  1.00  0.00     0.071 C  
HETATM   21  C   UNL     1     -10.002   9.547  66.856  1.00  0.00    -0.216 C  
HETATM   22  N   UNL     1      -8.852  10.067  66.123  1.00  0.00    -0.145 NA 
HETATM   23  C   UNL     1      -9.463   9.162  68.251  1.00  0.00    -0.152 C  
HETATM   24  C   UNL     1      -9.089  10.070  64.674  1.00  0.00    -0.237 C  
ENDBRANCH  14  15
ENDBRANCH   4  11
TORSDOF 2
ENDMDL
MODEL      110
REMARK 921   NORMALIZED FREE ENERGY PREDICTED BY IDOCK:   -4.91 KCAL/MOL
REMARK 922        TOTAL FREE ENERGY PREDICTED BY IDOCK:   -6.21 KCAL/MOL
REMARK 923 INTER-LIGAND FREE ENERGY PREDICTED BY IDOCK:   -5.51 KCAL/MOL
REMARK 924 INTRA-LIGAND FREE ENERGY PREDICTED BY IDOCK:   -0.70 KCAL/MOL
REMARK 927      BINDING AFFINITY PREDICTED BY RF-SCORE:    0.00 PKD
ROOT
HETATM    1  C   UNL     1     -10.410  15.584  67.446  1.00  0.00    -0.266 C  
HETATM    2  N   UNL     1     -10.479  14.220  66.974  1.00  0.00    -0.270 NA 
HETATM    3  N   UNL     1      -9.788  13.283  67.615  1.00  0.00    -0.224 NA 
HETATM    4  C   UNL     1      -9.809  12.207  66.795  1.00  0.00    -0.206 A  
HETATM    5  C   UNL     1     -10.735  12.427  65.724  1.00  0.00    -0.301 A  
HETATM    6  C   UNL     1     -12.064  12.378  63.684  1.00  0.00    -0.648 A  
HETATM    7  C   UNL     1     -11.116  13.772  65.854  1.00  0.00    -0.286 A  
HETATM    8  C   UNL     1     -12.403  13.723  63.843  1.00  0.00    -0.346 A  
HETATM    9  C   UNL     1     -11.225  11.723  64.604  1.00  0.00    -0.349 A  
HETATM   10  C   UNL     1     -11.929  14.446  64.934  1.00  0.00    -0.430 A  
ENDROOT
BRANCH   4  11
HETATM   11  C   UNL     1      -8.779  11.202  67.065  1.00  0.00    -0.148 C  
HETATM   12  H   UNL     1      -7.742   9.902  68.019  1.00  0.00     0.000 HD 
HETATM   13  O   UNL     1      -7.856  11.032  66.249  1.00  0.00    -0.158 OA 
HETATM   14  N   UNL     1      -8.636  10.379  68.131  1.00  0.00    -0.122 N  
BRANCH  14  15
HETATM   15  C   UNL     1      -9.230   9.888  69.378  1.00  0.00    -0.214 C  
HETATM   16  C   UNL     1      -8.952   7.271  69.746  1.00  0.00    -0.142 C  
HETATM   17  C   UNL     1      -8.559   8.734  70.148  1.00  0.00    -0.149 C  
HETATM   18  C   UNL     1      -8.085   6.775  68.588  1.00  0.00    -0.120 C  
HETATM   19  C   UNL     1      -8.446   7.424  67.261  1.00  0.00    -0.118 C  
HETATM   20  C   UNL     1      -9.939   7.774  67.093  1.00  0.00    -0.298 C  
HETATM   21  C   UNL     1     -10.747   8.063  68.383  1.00  0.00    -0.016 C  
HETATM   22  N   UNL     1     -10.390   7.133  69.450  1.00  0.00    -0.193 NA 
HETATM   23  C   UNL     1     -10.665   9.469  69.016  1.00  0.00    -0.224 C  
HETATM   24  C   UNL     1     -10.832   5.766  69.147  1.00  0.00    -0.285 C  
ENDBRANCH  14  15
ENDBRANCH   4  11
TORSDOF 2
ENDMDL
MODEL      111
REMARK 921   NORMALIZED FREE ENERGY PREDICTED BY IDOCK:   -4.90 KCAL/MOL
REMARK 922        TOTAL FREE ENERGY PREDICTED BY IDOCK:   -6.19 KCAL/MOL
REMARK 923 INTER-LIGAND FREE ENERGY PREDICTED BY IDOCK:   -5.37 KCAL/MOL
REMARK 924 INTRA-LIGAND FREE ENERGY PREDICTED BY IDOCK:   -0.82 KCAL/MOL
REMARK 927      BINDING AFFINITY PREDICTED BY RF-SCORE:    0.00 PKD
ROOT
HETATM    1  C   UNL     1     -12.037  13.128  63.976  1.00  0.00    -0.446 C  
HETATM    2  N   UNL     1     -11.424  12.071  64.748  1.00  0.00    -0.317 NA 
HETATM    3  N   UNL     1     -11.670  12.003  66.053  1.00  0.00    -0.500 NA 
HETATM    4  C   UNL     1     -10.757  11.132  66.538  1.00  0.00    -0.260 A  
HETATM    5  C   UNL     1     -10.081  10.478  65.457  1.00  0.00    -0.349 A  
HETATM    6  C   UNL     1      -8.589   9.219  64.001  1.00  0.00    -0.204 A  
HETATM    7  C   UNL     1     -10.516  11.155  64.306  1.00  0.00    -0.362 A  
HETATM    8  C   UNL     1      -9.037   9.929  62.886  1.00  0.00    -0.291 A  
HETATM    9  C   UNL     1      -9.089   9.489  65.288  1.00  0.00    -0.276 A  
HETATM   10  C   UNL     1     -10.009  10.916  63.022  1.00  0.00    -0.317 A  
ENDROOT
BRANCH   4  11
HETATM   11  C   UNL     1     -10.537  11.206  67.984  1.00  0.00    -0.198 C  
HETATM   12  H   UNL     1     -10.608  10.731  69.840  1.00  0.00     0.000 HD 
HETATM   13  O   UNL     1     -10.074  12.247  68.484  1.00  0.00    -0.216 OA 
HETATM   14  N   UNL     1     -10.782  10.281  68.942  1.00  0.00    -0.214 N  
BRANCH  14  15
HETATM   15  C   UNL     1     -11.194   8.903  69.226  1.00  0.00     0.216 C  
HETATM   16  C   UNL     1      -9.676   7.677  71.030  1.00  0.00    -0.163 C  
HETATM   17  C   UNL     1     -11.047   8.335  70.651  1.00  0.00    -0.269 C  
HETATM   18  C   UNL     1      -8.690   8.731  71.535  1.00  0.00    -0.274 C  
HETATM   19  C   UNL     1      -8.155   9.619  70.421  1.00  0.00    -0.198 C  
HETATM   20  C   UNL     1      -8.005   8.924  69.051  1.00  0.00    -0.106 C  
HETATM   21  C   UNL     1      -8.950   7.733  68.755  1.00  0.00    -0.141 C  
HETATM   22  N   UNL     1      -9.108   6.879  69.928  1.00  0.00    -0.145 NA 
HETATM   23  C   UNL     1     -10.384   8.022  68.260  1.00  0.00    -0.240 C  
HETATM   24  C   UNL     1      -7.864   6.171  70.255  1.00  0.00    -0.102 C  
ENDBRANCH  14  15
ENDBRANCH   4  11
TORSDOF 2
ENDMDL
MODEL      112
REMARK 921   NORMALIZED FREE ENERGY PREDICTED BY IDOCK:   -4.89 KCAL/MOL
REMARK 922        TOTAL FREE ENERGY PREDICTED BY IDOCK:   -6.19 KCAL/MOL
REMARK 923 INTER-LIGAND FREE ENERGY PREDICTED BY IDOCK:   -5.43 KCAL/MOL
REMARK 924 INTRA-LIGAND FREE ENERGY PREDICTED BY IDOCK:   -0.76 KCAL/MOL
REMARK 927      BINDING AFFINITY PREDICTED BY RF-SCORE:    0.00 PKD
ROOT
HETATM    1  C   UNL     1     -13.156  11.076  71.790  1.00  0.00    -0.449 C  
HETATM    2  N   UNL     1     -12.032  10.502  71.086  1.00  0.00    -0.353 NA 
HETATM    3  N   UNL     1     -11.364   9.501  71.649  1.00  0.00    -0.382 NA 
HETATM    4  C   UNL     1     -10.230   9.381  70.922  1.00  0.00    -0.303 A  
HETATM    5  C   UNL     1     -10.318  10.188  69.742  1.00  0.00    -0.297 A  
HETATM    6  C   UNL     1      -9.941  11.473  67.707  1.00  0.00    -0.195 A  
HETATM    7  C   UNL     1     -11.492  10.939  69.911  1.00  0.00    -0.323 A  
HETATM    8  C   UNL     1     -11.107  12.207  67.925  1.00  0.00    -0.295 A  
HETATM    9  C   UNL     1      -9.528  10.475  68.609  1.00  0.00    -0.172 A  
HETATM   10  C   UNL     1     -11.904  11.954  69.038  1.00  0.00    -0.368 A  
ENDROOT
BRANCH   4  11
HETATM   11  C   UNL     1      -9.145   8.652  71.582  1.00  0.00    -0.247 C  
HETATM   12  H   UNL     1      -7.739   7.376  71.851  1.00  0.00     0.000 HD 
HETATM   13  O   UNL     1      -8.942   8.817  72.798  1.00  0.00    -0.361 OA 
HETATM   14  N   UNL     1      -8.274   7.752  71.068  1.00  0.00    -0.101 N  
BRANCH  14  15
HETATM   15  C   UNL     1      -7.778   7.093  69.855  1.00  0.00    -0.108 C  
HETATM   16  C   UNL     1      -9.571   5.527  68.674  1.00  0.00    -0.135 C  
HETATM   17  C   UNL     1      -8.731   6.851  68.669  1.00  0.00    -0.122 C  
HETATM   18  C   UNL     1     -10.871   5.713  69.457  1.00  0.00    -0.345 C  
HETATM   19  C   UNL     1     -10.649   5.784  70.960  1.00  0.00    -0.318 C  
HETATM   20  C   UNL     1      -9.474   4.933  71.485  1.00  0.00    -0.208 C  
HETATM   21  C   UNL     1      -8.305   4.659  70.505  1.00  0.00    -0.090 C  
HETATM   22  N   UNL     1      -8.799   4.369  69.162  1.00  0.00    -0.088 NA 
HETATM   23  C   UNL     1      -7.217   5.739  70.320  1.00  0.00    -0.075 C  
HETATM   24  C   UNL     1      -9.509   3.086  69.111  1.00  0.00    -0.096 C  
ENDBRANCH  14  15
ENDBRANCH   4  11
TORSDOF 2
ENDMDL
MODEL      113
REMARK 921   NORMALIZED FREE ENERGY PREDICTED BY IDOCK:   -4.87 KCAL/MOL
REMARK 922        TOTAL FREE ENERGY PREDICTED BY IDOCK:   -6.17 KCAL/MOL
REMARK 923 INTER-LIGAND FREE ENERGY PREDICTED BY IDOCK:   -5.41 KCAL/MOL
REMARK 924 INTRA-LIGAND FREE ENERGY PREDICTED BY IDOCK:   -0.76 KCAL/MOL
REMARK 927      BINDING AFFINITY PREDICTED BY RF-SCORE:    0.00 PKD
ROOT
HETATM    1  C   UNL     1      -9.084   6.713  66.821  1.00  0.00    -0.142 C  
HETATM    2  N   UNL     1      -9.173   7.956  67.554  1.00  0.00    -0.135 NA 
HETATM    3  N   UNL     1     -10.366   8.514  67.729  1.00  0.00    -0.231 NA 
HETATM    4  C   UNL     1     -10.108   9.766  68.168  1.00  0.00    -0.165 A  
HETATM    5  C   UNL     1      -8.717   9.896  68.486  1.00  0.00    -0.121 A  
HETATM    6  C   UNL     1      -6.462  10.641  69.028  1.00  0.00    -0.052 A  
HETATM    7  C   UNL     1      -8.135   8.704  68.026  1.00  0.00    -0.111 A  
HETATM    8  C   UNL     1      -5.925   9.448  68.543  1.00  0.00    -0.044 A  
HETATM    9  C   UNL     1      -7.848  10.885  68.994  1.00  0.00    -0.138 A  
HETATM   10  C   UNL     1      -6.756   8.457  68.028  1.00  0.00    -0.065 A  
ENDROOT
BRANCH   4  11
HETATM   11  C   UNL     1     -11.217  10.713  68.028  1.00  0.00    -0.307 C  
HETATM   12  H   UNL     1     -12.292  12.129  67.310  1.00  0.00     0.000 HD 
HETATM   13  O   UNL     1     -12.038  10.842  68.954  1.00  0.00    -0.463 OA 
HETATM   14  N   UNL     1     -11.516  11.544  67.002  1.00  0.00    -0.277 N  
BRANCH  14  15
HETATM   15  C   UNL     1     -11.190  11.953  65.632  1.00  0.00    -0.306 C  
HETATM   16  C   UNL     1      -9.819  14.224  65.485  1.00  0.00    -0.252 C  
HETATM   17  C   UNL     1      -9.855  12.664  65.339  1.00  0.00    -0.157 C  
HETATM   18  C   UNL     1      -9.519  14.627  66.930  1.00  0.00    -0.259 C  
HETATM   19  C   UNL     1     -10.696  14.392  67.863  1.00  0.00    -0.246 C  
HETATM   20  C   UNL     1     -12.086  14.576  67.218  1.00  0.00    -0.298 C  
HETATM   21  C   UNL     1     -12.197  14.320  65.693  1.00  0.00    -0.400 C  
HETATM   22  N   UNL     1     -11.046  14.868  64.981  1.00  0.00    -0.391 NA 
HETATM   23  C   UNL     1     -12.343  12.869  65.188  1.00  0.00    -0.547 C  
HETATM   24  C   UNL     1     -11.035  16.335  65.016  1.00  0.00    -0.298 C  
ENDBRANCH  14  15
ENDBRANCH   4  11
TORSDOF 2
ENDMDL
MODEL      114
REMARK 921   NORMALIZED FREE ENERGY PREDICTED BY IDOCK:   -4.85 KCAL/MOL
REMARK 922        TOTAL FREE ENERGY PREDICTED BY IDOCK:   -6.14 KCAL/MOL
REMARK 923 INTER-LIGAND FREE ENERGY PREDICTED BY IDOCK:   -5.29 KCAL/MOL
REMARK 924 INTRA-LIGAND FREE ENERGY PREDICTED BY IDOCK:   -0.85 KCAL/MOL
REMARK 927      BINDING AFFINITY PREDICTED BY RF-SCORE:    0.00 PKD
ROOT
HETATM    1  C   UNL     1      -9.104   3.772  71.004  1.00  0.00    -0.112 C  
HETATM    2  N   UNL     1      -9.964   4.829  70.523  1.00  0.00    -0.228 NA 
HETATM    3  N   UNL     1     -10.237   4.895  69.224  1.00  0.00    -0.182 NA 
HETATM    4  C   UNL     1     -10.794   6.114  69.042  1.00  0.00    -0.350 A  
HETATM    5  C   UNL     1     -11.074   6.717  70.311  1.00  0.00    -0.360 A  
HETATM    6  C   UNL     1     -11.612   8.189  72.176  1.00  0.00    -0.417 A  
HETATM    7  C   UNL     1     -10.475   5.864  71.251  1.00  0.00    -0.233 A  
HETATM    8  C   UNL     1     -10.989   7.320  73.073  1.00  0.00    -0.388 A  
HETATM    9  C   UNL     1     -11.651   7.910  70.797  1.00  0.00    -0.258 A  
HETATM   10  C   UNL     1     -10.403   6.140  72.622  1.00  0.00    -0.219 A  
ENDROOT
BRANCH   4  11
HETATM   11  C   UNL     1     -10.790   6.596  67.660  1.00  0.00    -0.315 C  
HETATM   12  H   UNL     1     -10.819   7.817  66.181  1.00  0.00     0.000 HD 
HETATM   13  O   UNL     1     -10.940   5.789  66.725  1.00  0.00    -0.280 OA 
HETATM   14  N   UNL     1     -10.660   7.859  67.188  1.00  0.00    -0.336 N  
BRANCH  14  15
HETATM   15  C   UNL     1     -10.387   9.260  67.520  1.00  0.00    -0.262 C  
HETATM   16  C   UNL     1      -8.941  10.537  65.692  1.00  0.00    -0.180 C  
HETATM   17  C   UNL     1     -10.322  10.317  66.401  1.00  0.00    -0.262 C  
HETATM   18  C   UNL     1      -8.762   9.552  64.536  1.00  0.00    -0.232 C  
HETATM   19  C   UNL     1      -8.492   8.132  65.008  1.00  0.00    -0.117 C  
HETATM   20  C   UNL     1      -7.695   8.025  66.326  1.00  0.00    -0.091 C  
HETATM   21  C   UNL     1      -7.821   9.202  67.326  1.00  0.00    -0.099 C  
HETATM   22  N   UNL     1      -7.808  10.487  66.634  1.00  0.00    -0.120 NA 
HETATM   23  C   UNL     1      -9.043   9.253  68.268  1.00  0.00    -0.128 C  
HETATM   24  C   UNL     1      -6.495  10.769  66.039  1.00  0.00    -0.117 C  
ENDBRANCH  14  15
ENDBRANCH   4  11
TORSDOF 2
ENDMDL
MODEL      115
REMARK 921   NORMALIZED FREE ENERGY PREDICTED BY IDOCK:   -4.81 KCAL/MOL
REMARK 922        TOTAL FREE ENERGY PREDICTED BY IDOCK:   -6.10 KCAL/MOL
REMARK 923 INTER-LIGAND FREE ENERGY PREDICTED BY IDOCK:   -5.55 KCAL/MOL
REMARK 924 INTRA-LIGAND FREE ENERGY PREDICTED BY IDOCK:   -0.54 KCAL/MOL
REMARK 927      BINDING AFFINITY PREDICTED BY RF-SCORE:    0.00 PKD
ROOT
HETATM    1  C   UNL     1      -9.809  15.100  67.873  1.00  0.00    -0.216 C  
HETATM    2  N   UNL     1     -10.295  13.877  67.277  1.00  0.00    -0.255 NA 
HETATM    3  N   UNL     1     -10.040  12.721  67.882  1.00  0.00    -0.224 NA 
HETATM    4  C   UNL     1     -10.346  11.771  66.969  1.00  0.00    -0.214 A  
HETATM    5  C   UNL     1     -11.024  12.363  65.855  1.00  0.00    -0.323 A  
HETATM    6  C   UNL     1     -12.069  12.903  63.722  1.00  0.00    -0.583 A  
HETATM    7  C   UNL     1     -10.929  13.747  66.076  1.00  0.00    -0.284 A  
HETATM    8  C   UNL     1     -11.938  14.269  63.975  1.00  0.00    -0.328 A  
HETATM    9  C   UNL     1     -11.607  11.943  64.641  1.00  0.00    -0.320 A  
HETATM   10  C   UNL     1     -11.359  14.715  65.160  1.00  0.00    -0.375 A  
ENDROOT
BRANCH   4  11
HETATM   11  C   UNL     1      -9.759  10.454  67.226  1.00  0.00    -0.165 C  
HETATM   12  H   UNL     1      -8.953   9.000  68.182  1.00  0.00     0.000 HD 
HETATM   13  O   UNL     1      -9.464   9.715  66.271  1.00  0.00    -0.170 OA 
HETATM   14  N   UNL     1      -9.445   9.866  68.404  1.00  0.00    -0.136 N  
BRANCH  14  15
HETATM   15  C   UNL     1      -9.515   9.954  69.866  1.00  0.00    -0.220 C  
HETATM   16  C   UNL     1      -9.066   7.647  71.106  1.00  0.00    -0.146 C  
HETATM   17  C   UNL     1      -8.580   9.090  70.734  1.00  0.00    -0.259 C  
HETATM   18  C   UNL     1      -8.689   6.648  70.010  1.00  0.00    -0.141 C  
HETATM   19  C   UNL     1      -9.537   6.801  68.757  1.00  0.00    -0.132 C  
HETATM   20  C   UNL     1     -10.990   7.255  69.006  1.00  0.00    -0.077 C  
HETATM   21  C   UNL     1     -11.258   8.105  70.274  1.00  0.00    -0.182 C  
HETATM   22  N   UNL     1     -10.507   7.598  71.418  1.00  0.00    -0.208 NA 
HETATM   23  C   UNL     1     -10.971   9.621  70.231  1.00  0.00    -0.337 C  
HETATM   24  C   UNL     1     -11.002   6.286  71.854  1.00  0.00    -0.256 C  
ENDBRANCH  14  15
ENDBRANCH   4  11
TORSDOF 2
ENDMDL
MODEL      116
REMARK 921   NORMALIZED FREE ENERGY PREDICTED BY IDOCK:   -4.79 KCAL/MOL
REMARK 922        TOTAL FREE ENERGY PREDICTED BY IDOCK:   -6.07 KCAL/MOL
REMARK 923 INTER-LIGAND FREE ENERGY PREDICTED BY IDOCK:   -5.12 KCAL/MOL
REMARK 924 INTRA-LIGAND FREE ENERGY PREDICTED BY IDOCK:   -0.95 KCAL/MOL
REMARK 927      BINDING AFFINITY PREDICTED BY RF-SCORE:    0.00 PKD
ROOT
HETATM    1  C   UNL     1     -12.940   9.568  71.398  1.00  0.00    -0.368 C  
HETATM    2  N   UNL     1     -11.502   9.428  71.382  1.00  0.00    -0.352 NA 
HETATM    3  N   UNL     1     -10.799  10.117  70.490  1.00  0.00    -0.303 NA 
HETATM    4  C   UNL     1      -9.562   9.572  70.519  1.00  0.00    -0.251 A  
HETATM    5  C   UNL     1      -9.450   8.672  71.627  1.00  0.00    -0.339 A  
HETATM    6  C   UNL     1      -8.818   6.978  73.259  1.00  0.00    -0.155 A  
HETATM    7  C   UNL     1     -10.754   8.573  72.138  1.00  0.00    -0.356 A  
HETATM    8  C   UNL     1     -10.131   6.899  73.724  1.00  0.00    -0.373 A  
HETATM    9  C   UNL     1      -8.465   7.845  72.209  1.00  0.00    -0.185 A  
HETATM   10  C   UNL     1     -11.127   7.696  73.165  1.00  0.00    -0.373 A  
ENDROOT
BRANCH   4  11
HETATM   11  C   UNL     1      -8.731   9.857  69.347  1.00  0.00    -0.179 C  
HETATM   12  H   UNL     1      -8.082   9.789  67.544  1.00  0.00     0.000 HD 
HETATM   13  O   UNL     1      -7.669  10.489  69.483  1.00  0.00    -0.146 OA 
HETATM   14  N   UNL     1      -8.923   9.514  68.051  1.00  0.00    -0.124 N  
BRANCH  14  15
HETATM   15  C   UNL     1      -9.834   8.911  67.073  1.00  0.00    -0.214 C  
HETATM   16  C   UNL     1     -10.182   6.297  67.394  1.00  0.00    -0.180 C  
HETATM   17  C   UNL     1     -10.756   7.751  67.495  1.00  0.00    -0.265 C  
HETATM   18  C   UNL     1      -9.419   5.925  68.667  1.00  0.00    -0.137 C  
HETATM   19  C   UNL     1      -8.079   6.636  68.780  1.00  0.00    -0.119 C  
HETATM   20  C   UNL     1      -7.373   6.909  67.435  1.00  0.00    -0.092 C  
HETATM   21  C   UNL     1      -8.273   7.069  66.184  1.00  0.00    -0.125 C  
HETATM   22  N   UNL     1      -9.360   6.095  66.186  1.00  0.00    -0.139 NA 
HETATM   23  C   UNL     1      -8.942   8.434  65.914  1.00  0.00    -0.223 C  
HETATM   24  C   UNL     1      -8.862   4.727  65.997  1.00  0.00    -0.123 C  
ENDBRANCH  14  15
ENDBRANCH   4  11
TORSDOF 2
ENDMDL
MODEL      117
REMARK 921   NORMALIZED FREE ENERGY PREDICTED BY IDOCK:   -4.78 KCAL/MOL
REMARK 922        TOTAL FREE ENERGY PREDICTED BY IDOCK:   -6.07 KCAL/MOL
REMARK 923 INTER-LIGAND FREE ENERGY PREDICTED BY IDOCK:   -5.22 KCAL/MOL
REMARK 924 INTRA-LIGAND FREE ENERGY PREDICTED BY IDOCK:   -0.85 KCAL/MOL
REMARK 927      BINDING AFFINITY PREDICTED BY RF-SCORE:    0.00 PKD
ROOT
HETATM    1  C   UNL     1      -5.299  11.066  67.820  1.00  0.00    -0.039 C  
HETATM    2  N   UNL     1      -6.188  12.202  67.722  1.00  0.00    -0.076 NA 
HETATM    3  N   UNL     1      -5.671  13.407  67.508  1.00  0.00    -0.338 NA 
HETATM    4  C   UNL     1      -6.680  14.272  67.757  1.00  0.00    -0.176 A  
HETATM    5  C   UNL     1      -7.912  13.557  67.906  1.00  0.00    -0.162 A  
HETATM    6  C   UNL     1     -10.183  12.804  68.362  1.00  0.00    -0.237 A  
HETATM    7  C   UNL     1      -7.538  12.204  67.921  1.00  0.00    -0.123 A  
HETATM    8  C   UNL     1      -9.764  11.474  68.386  1.00  0.00    -0.202 A  
HETATM    9  C   UNL     1      -9.272  13.853  68.138  1.00  0.00    -0.202 A  
HETATM   10  C   UNL     1      -8.427  11.150  68.170  1.00  0.00    -0.138 A  
ENDROOT
BRANCH   4  11
HETATM   11  C   UNL     1      -6.263  15.654  68.008  1.00  0.00    -0.136 C  
HETATM   12  H   UNL     1      -5.888  17.506  67.683  1.00  0.00     0.000 HD 
HETATM   13  O   UNL     1      -5.680  15.938  69.069  1.00  0.00    -0.107 OA 
HETATM   14  N   UNL     1      -6.396  16.750  67.224  1.00  0.00    -0.162 N  
BRANCH  14  15
HETATM   15  C   UNL     1      -6.964  17.303  65.991  1.00  0.00    -0.131 C  
HETATM   16  C   UNL     1      -8.106  19.682  66.306  1.00  0.00    -0.334 C  
HETATM   17  C   UNL     1      -6.923  18.823  65.740  1.00  0.00    -0.291 C  
HETATM   18  C   UNL     1      -7.836  20.088  67.756  1.00  0.00    -0.330 C  
HETATM   19  C   UNL     1      -7.981  18.929  68.730  1.00  0.00    -0.352 C  
HETATM   20  C   UNL     1      -9.047  17.883  68.342  1.00  0.00    -0.292 C  
HETATM   21  C   UNL     1      -9.361  17.719  66.833  1.00  0.00    -0.269 C  
HETATM   22  N   UNL     1      -9.412  19.013  66.160  1.00  0.00    -0.455 NA 
HETATM   23  C   UNL     1      -8.431  16.841  65.968  1.00  0.00    -0.201 C  
HETATM   24  C   UNL     1     -10.567  19.807  66.598  1.00  0.00    -0.462 C  
ENDBRANCH  14  15
ENDBRANCH   4  11
TORSDOF 2
ENDMDL
MODEL      118
REMARK 921   NORMALIZED FREE ENERGY PREDICTED BY IDOCK:   -4.75 KCAL/MOL
REMARK 922        TOTAL FREE ENERGY PREDICTED BY IDOCK:   -6.03 KCAL/MOL
REMARK 923 INTER-LIGAND FREE ENERGY PREDICTED BY IDOCK:   -5.35 KCAL/MOL
REMARK 924 INTRA-LIGAND FREE ENERGY PREDICTED BY IDOCK:   -0.68 KCAL/MOL
REMARK 927      BINDING AFFINITY PREDICTED BY RF-SCORE:    0.00 PKD
ROOT
HETATM    1  C   UNL     1     -12.024   6.895  72.196  1.00  0.00    -0.267 C  
HETATM    2  N   UNL     1     -11.736   7.888  71.186  1.00  0.00    -0.284 NA 
HETATM    3  N   UNL     1     -10.934   7.564  70.177  1.00  0.00    -0.259 NA 
HETATM    4  C   UNL     1     -10.623   8.739  69.583  1.00  0.00    -0.219 A  
HETATM    5  C   UNL     1     -11.444   9.787  70.113  1.00  0.00    -0.272 A  
HETATM    6  C   UNL     1     -12.484  11.888  70.773  1.00  0.00    -0.384 A  
HETATM    7  C   UNL     1     -12.124   9.196  71.189  1.00  0.00    -0.299 A  
HETATM    8  C   UNL     1     -13.127  11.263  71.842  1.00  0.00    -0.510 A  
HETATM    9  C   UNL     1     -11.634  11.170  69.912  1.00  0.00    -0.416 A  
HETATM   10  C   UNL     1     -12.953   9.901  72.072  1.00  0.00    -0.518 A  
ENDROOT
BRANCH   4  11
HETATM   11  C   UNL     1      -9.435   8.705  68.728  1.00  0.00    -0.143 C  
HETATM   12  H   UNL     1      -8.251   8.176  67.316  1.00  0.00     0.000 HD 
HETATM   13  O   UNL     1      -8.414   9.329  69.067  1.00  0.00    -0.126 OA 
HETATM   14  N   UNL     1      -9.234   8.054  67.558  1.00  0.00    -0.136 N  
BRANCH  14  15
HETATM   15  C   UNL     1      -9.839   7.246  66.494  1.00  0.00    -0.132 C  
HETATM   16  C   UNL     1     -10.011   4.659  67.074  1.00  0.00    -0.195 C  
HETATM   17  C   UNL     1     -10.723   6.038  66.856  1.00  0.00    -0.407 C  
HETATM   18  C   UNL     1      -9.528   4.520  68.519  1.00  0.00    -0.213 C  
HETATM   19  C   UNL     1      -8.320   5.391  68.823  1.00  0.00    -0.097 C  
HETATM   20  C   UNL     1      -7.353   5.600  67.638  1.00  0.00    -0.077 C  
HETATM   21  C   UNL     1      -7.954   5.517  66.212  1.00  0.00    -0.105 C  
HETATM   22  N   UNL     1      -8.920   4.427  66.109  1.00  0.00    -0.118 NA 
HETATM   23  C   UNL     1      -8.667   6.756  65.628  1.00  0.00    -0.086 C  
HETATM   24  C   UNL     1      -8.270   3.115  66.212  1.00  0.00    -0.090 C  
ENDBRANCH  14  15
ENDBRANCH   4  11
TORSDOF 2
ENDMDL
MODEL      119
REMARK 921   NORMALIZED FREE ENERGY PREDICTED BY IDOCK:   -4.74 KCAL/MOL
REMARK 922        TOTAL FREE ENERGY PREDICTED BY IDOCK:   -6.01 KCAL/MOL
REMARK 923 INTER-LIGAND FREE ENERGY PREDICTED BY IDOCK:   -5.50 KCAL/MOL
REMARK 924 INTRA-LIGAND FREE ENERGY PREDICTED BY IDOCK:   -0.51 KCAL/MOL
REMARK 927      BINDING AFFINITY PREDICTED BY RF-SCORE:    0.00 PKD
ROOT
HETATM    1  C   UNL     1      -6.569   8.034  67.891  1.00  0.00    -0.053 C  
HETATM    2  N   UNL     1      -7.814   8.340  68.560  1.00  0.00    -0.118 NA 
HETATM    3  N   UNL     1      -8.817   8.844  67.850  1.00  0.00    -0.132 NA 
HETATM    4  C   UNL     1      -9.706   9.292  68.766  1.00  0.00    -0.157 A  
HETATM    5  C   UNL     1      -9.332   8.840  70.073  1.00  0.00    -0.175 A  
HETATM    6  C   UNL     1      -9.049   8.437  72.458  1.00  0.00    -0.326 A  
HETATM    7  C   UNL     1      -8.065   8.260  69.899  1.00  0.00    -0.117 A  
HETATM    8  C   UNL     1      -7.786   7.885  72.241  1.00  0.00    -0.138 A  
HETATM    9  C   UNL     1      -9.824   8.929  71.392  1.00  0.00    -0.376 A  
HETATM   10  C   UNL     1      -7.269   7.791  70.952  1.00  0.00    -0.054 A  
ENDROOT
BRANCH   4  11
HETATM   11  C   UNL     1     -10.683  10.260  68.260  1.00  0.00    -0.237 C  
HETATM   12  H   UNL     1     -11.389  11.792  67.350  1.00  0.00     0.000 HD 
HETATM   13  O   UNL     1     -11.853  10.230  68.678  1.00  0.00    -0.166 OA 
HETATM   14  N   UNL     1     -10.517  11.263  67.367  1.00  0.00    -0.203 N  
BRANCH  14  15
HETATM   15  C   UNL     1      -9.608  11.907  66.413  1.00  0.00    -0.225 C  
HETATM   16  C   UNL     1      -9.739  14.561  66.426  1.00  0.00    -0.296 C  
HETATM   17  C   UNL     1      -8.948  13.253  66.770  1.00  0.00    -0.183 C  
HETATM   18  C   UNL     1     -10.699  14.929  67.559  1.00  0.00    -0.276 C  
HETATM   19  C   UNL     1     -11.907  14.007  67.630  1.00  0.00    -0.430 C  
HETATM   20  C   UNL     1     -12.392  13.465  66.270  1.00  0.00    -0.410 C  
HETATM   21  C   UNL     1     -11.336  13.331  65.144  1.00  0.00    -0.297 C  
HETATM   22  N   UNL     1     -10.433  14.478  65.127  1.00  0.00    -0.391 NA 
HETATM   23  C   UNL     1     -10.423  12.087  65.121  1.00  0.00    -0.328 C  
HETATM   24  C   UNL     1     -11.124  15.705  64.714  1.00  0.00    -0.412 C  
ENDBRANCH  14  15
ENDBRANCH   4  11
TORSDOF 2
ENDMDL
MODEL      120
REMARK 921   NORMALIZED FREE ENERGY PREDICTED BY IDOCK:   -4.73 KCAL/MOL
REMARK 922        TOTAL FREE ENERGY PREDICTED BY IDOCK:   -6.01 KCAL/MOL
REMARK 923 INTER-LIGAND FREE ENERGY PREDICTED BY IDOCK:   -5.44 KCAL/MOL
REMARK 924 INTRA-LIGAND FREE ENERGY PREDICTED BY IDOCK:   -0.56 KCAL/MOL
REMARK 927      BINDING AFFINITY PREDICTED BY RF-SCORE:    0.00 PKD
ROOT
HETATM    1  C   UNL     1     -13.335   8.504  72.216  1.00  0.00    -0.323 C  
HETATM    2  N   UNL     1     -11.941   8.273  71.911  1.00  0.00    -0.309 NA 
HETATM    3  N   UNL     1     -11.224   9.265  71.393  1.00  0.00    -0.335 NA 
HETATM    4  C   UNL     1     -10.086   8.683  70.952  1.00  0.00    -0.211 A  
HETATM    5  C   UNL     1     -10.013   7.332  71.422  1.00  0.00    -0.193 A  
HETATM    6  C   UNL     1      -9.503   4.990  71.855  1.00  0.00    -0.189 A  
HETATM    7  C   UNL     1     -11.267   7.091  72.006  1.00  0.00    -0.253 A  
HETATM    8  C   UNL     1     -10.767   4.791  72.411  1.00  0.00    -0.216 A  
HETATM    9  C   UNL     1      -9.118   6.244  71.346  1.00  0.00    -0.143 A  
HETATM   10  C   UNL     1     -11.676   5.843  72.492  1.00  0.00    -0.288 A  
ENDROOT
BRANCH   4  11
HETATM   11  C   UNL     1      -9.329   9.466  69.973  1.00  0.00    -0.226 C  
HETATM   12  H   UNL     1      -8.763  10.163  68.278  1.00  0.00     0.000 HD 
HETATM   13  O   UNL     1      -8.298  10.065  70.327  1.00  0.00    -0.135 OA 
HETATM   14  N   UNL     1      -9.562   9.652  68.652  1.00  0.00    -0.148 N  
BRANCH  14  15
HETATM   15  C   UNL     1     -10.485   9.424  67.535  1.00  0.00    -0.280 C  
HETATM   16  C   UNL     1      -9.486  10.088  65.163  1.00  0.00    -0.270 C  
HETATM   17  C   UNL     1      -9.938   8.972  66.167  1.00  0.00    -0.311 C  
HETATM   18  C   UNL     1      -8.032  10.489  65.418  1.00  0.00    -0.129 C  
HETATM   19  C   UNL     1      -7.862  11.314  66.684  1.00  0.00    -0.152 C  
HETATM   20  C   UNL     1      -9.053  12.234  67.027  1.00  0.00    -0.201 C  
HETATM   21  C   UNL     1     -10.452  11.793  66.529  1.00  0.00    -0.230 C  
HETATM   22  N   UNL     1     -10.386  11.256  65.173  1.00  0.00    -0.281 NA 
HETATM   23  C   UNL     1     -11.242  10.750  67.348  1.00  0.00    -0.315 C  
HETATM   24  C   UNL     1     -10.058  12.298  64.193  1.00  0.00    -0.302 C  
ENDBRANCH  14  15
ENDBRANCH   4  11
TORSDOF 2
ENDMDL
MODEL      121
REMARK 921   NORMALIZED FREE ENERGY PREDICTED BY IDOCK:   -4.72 KCAL/MOL
REMARK 922        TOTAL FREE ENERGY PREDICTED BY IDOCK:   -6.00 KCAL/MOL
REMARK 923 INTER-LIGAND FREE ENERGY PREDICTED BY IDOCK:   -5.31 KCAL/MOL
REMARK 924 INTRA-LIGAND FREE ENERGY PREDICTED BY IDOCK:   -0.69 KCAL/MOL
REMARK 927      BINDING AFFINITY PREDICTED BY RF-SCORE:    0.00 PKD
ROOT
HETATM    1  C   UNL     1     -10.835  15.366  64.959  1.00  0.00    -0.444 C  
HETATM    2  N   UNL     1     -10.715  14.623  66.193  1.00  0.00    -0.305 NA 
HETATM    3  N   UNL     1     -10.757  13.296  66.151  1.00  0.00    -0.277 NA 
HETATM    4  C   UNL     1     -10.918  12.907  67.436  1.00  0.00    -0.260 A  
HETATM    5  C   UNL     1     -10.741  14.027  68.312  1.00  0.00    -0.262 A  
HETATM    6  C   UNL     1     -10.661  15.608  70.163  1.00  0.00    -0.355 A  
HETATM    7  C   UNL     1     -10.655  15.137  67.456  1.00  0.00    -0.269 A  
HETATM    8  C   UNL     1     -10.596  16.682  69.276  1.00  0.00    -0.343 A  
HETATM    9  C   UNL     1     -10.747  14.282  69.699  1.00  0.00    -0.034 A  
HETATM   10  C   UNL     1     -10.596  16.464  67.901  1.00  0.00    -0.320 A  
ENDROOT
BRANCH   4  11
HETATM   11  C   UNL     1     -11.416  11.541  67.613  1.00  0.00    -0.285 C  
HETATM   12  H   UNL     1     -11.571   9.642  67.397  1.00  0.00     0.000 HD 
HETATM   13  O   UNL     1     -12.483  11.348  68.222  1.00  0.00    -0.314 OA 
HETATM   14  N   UNL     1     -10.889  10.370  67.184  1.00  0.00    -0.264 N  
BRANCH  14  15
HETATM   15  C   UNL     1      -9.748   9.712  66.541  1.00  0.00    -0.212 C  
HETATM   16  C   UNL     1      -9.231   7.285  67.491  1.00  0.00    -0.130 C  
HETATM   17  C   UNL     1      -9.762   8.186  66.324  1.00  0.00    -0.223 C  
HETATM   18  C   UNL     1     -10.346   6.979  68.493  1.00  0.00    -0.204 C  
HETATM   19  C   UNL     1     -10.710   8.180  69.352  1.00  0.00    -0.164 C  
HETATM   20  C   UNL     1      -9.537   9.130  69.674  1.00  0.00    -0.182 C  
HETATM   21  C   UNL     1      -8.373   9.188  68.653  1.00  0.00    -0.126 C  
HETATM   22  N   UNL     1      -8.043   7.857  68.152  1.00  0.00    -0.121 NA 
HETATM   23  C   UNL     1      -8.524  10.075  67.398  1.00  0.00    -0.121 C  
HETATM   24  C   UNL     1      -7.451   7.015  69.199  1.00  0.00    -0.095 C  
ENDBRANCH  14  15
ENDBRANCH   4  11
TORSDOF 2
ENDMDL
MODEL      122
REMARK 921   NORMALIZED FREE ENERGY PREDICTED BY IDOCK:   -4.71 KCAL/MOL
REMARK 922        TOTAL FREE ENERGY PREDICTED BY IDOCK:   -5.99 KCAL/MOL
REMARK 923 INTER-LIGAND FREE ENERGY PREDICTED BY IDOCK:   -5.49 KCAL/MOL
REMARK 924 INTRA-LIGAND FREE ENERGY PREDICTED BY IDOCK:   -0.50 KCAL/MOL
REMARK 927      BINDING AFFINITY PREDICTED BY RF-SCORE:    0.00 PKD
ROOT
HETATM    1  C   UNL     1     -11.037   7.989  70.668  1.00  0.00    -0.262 C  
HETATM    2  N   UNL     1     -10.109   8.156  69.573  1.00  0.00    -0.189 NA 
HETATM    3  N   UNL     1     -10.269   9.184  68.746  1.00  0.00    -0.204 NA 
HETATM    4  C   UNL     1      -9.465   8.916  67.691  1.00  0.00    -0.138 A  
HETATM    5  C   UNL     1      -8.619   7.800  67.993  1.00  0.00    -0.123 A  
HETATM    6  C   UNL     1      -7.089   5.905  67.978  1.00  0.00    -0.074 A  
HETATM    7  C   UNL     1      -9.104   7.306  69.214  1.00  0.00    -0.138 A  
HETATM    8  C   UNL     1      -7.614   5.440  69.184  1.00  0.00    -0.085 A  
HETATM    9  C   UNL     1      -7.588   7.069  67.366  1.00  0.00    -0.109 A  
HETATM   10  C   UNL     1      -8.638   6.134  69.823  1.00  0.00    -0.132 A  
ENDROOT
BRANCH   4  11
HETATM   11  C   UNL     1      -9.776   9.662  66.470  1.00  0.00    -0.212 C  
HETATM   12  H   UNL     1     -10.429  11.064  65.337  1.00  0.00     0.000 HD 
HETATM   13  O   UNL     1      -9.656   9.109  65.363  1.00  0.00    -0.231 OA 
HETATM   14  N   UNL     1     -10.219  10.934  66.326  1.00  0.00    -0.240 N  
BRANCH  14  15
HETATM   15  C   UNL     1     -10.522  12.200  66.999  1.00  0.00    -0.220 C  
HETATM   16  C   UNL     1     -12.444  13.610  65.824  1.00  0.00    -0.477 C  
HETATM   17  C   UNL     1     -11.969  12.727  67.029  1.00  0.00    -0.364 C  
HETATM   18  C   UNL     1     -12.969  12.735  64.684  1.00  0.00    -0.231 C  
HETATM   19  C   UNL     1     -11.860  12.006  63.942  1.00  0.00    -0.543 C  
HETATM   20  C   UNL     1     -10.522  12.771  63.857  1.00  0.00    -0.402 C  
HETATM   21  C   UNL     1     -10.211  13.780  64.991  1.00  0.00    -0.346 C  
HETATM   22  N   UNL     1     -11.400  14.543  65.360  1.00  0.00    -0.331 NA 
HETATM   23  C   UNL     1      -9.630  13.254  66.321  1.00  0.00    -0.244 C  
HETATM   24  C   UNL     1     -11.815  15.453  64.286  1.00  0.00    -0.199 C  
ENDBRANCH  14  15
ENDBRANCH   4  11
TORSDOF 2
ENDMDL
MODEL      123
REMARK 921   NORMALIZED FREE ENERGY PREDICTED BY IDOCK:   -4.71 KCAL/MOL
REMARK 922        TOTAL FREE ENERGY PREDICTED BY IDOCK:   -5.98 KCAL/MOL
REMARK 923 INTER-LIGAND FREE ENERGY PREDICTED BY IDOCK:   -5.51 KCAL/MOL
REMARK 924 INTRA-LIGAND FREE ENERGY PREDICTED BY IDOCK:   -0.47 KCAL/MOL
REMARK 927      BINDING AFFINITY PREDICTED BY RF-SCORE:    0.00 PKD
ROOT
HETATM    1  C   UNL     1     -13.240  10.951  71.948  1.00  0.00    -0.403 C  
HETATM    2  N   UNL     1     -12.414  11.064  70.767  1.00  0.00    -0.374 NA 
HETATM    3  N   UNL     1     -11.891   9.962  70.241  1.00  0.00    -0.223 NA 
HETATM    4  C   UNL     1     -10.960  10.399  69.362  1.00  0.00    -0.251 A  
HETATM    5  C   UNL     1     -11.082  11.816  69.185  1.00  0.00    -0.294 A  
HETATM    6  C   UNL     1     -10.808  14.177  68.655  1.00  0.00    -0.268 A  
HETATM    7  C   UNL     1     -12.014  12.216  70.156  1.00  0.00    -0.314 A  
HETATM    8  C   UNL     1     -11.727  14.531  69.643  1.00  0.00    -0.356 A  
HETATM    9  C   UNL     1     -10.467  12.832  68.424  1.00  0.00    -0.253 A  
HETATM   10  C   UNL     1     -12.345  13.552  70.416  1.00  0.00    -0.397 A  
ENDROOT
BRANCH   4  11
HETATM   11  C   UNL     1      -9.960   9.403  68.973  1.00  0.00    -0.177 C  
HETATM   12  H   UNL     1      -9.139   7.692  68.696  1.00  0.00     0.000 HD 
HETATM   13  O   UNL     1      -8.809   9.769  68.675  1.00  0.00    -0.121 OA 
HETATM   14  N   UNL     1     -10.072   8.056  68.891  1.00  0.00    -0.196 N  
BRANCH  14  15
HETATM   15  C   UNL     1     -10.974   6.903  68.965  1.00  0.00    -0.181 C  
HETATM   16  C   UNL     1      -9.899   4.769  70.128  1.00  0.00    -0.238 C  
HETATM   17  C   UNL     1     -10.917   5.959  70.182  1.00  0.00    -0.412 C  
HETATM   18  C   UNL     1      -8.521   5.211  70.624  1.00  0.00    -0.118 C  
HETATM   19  C   UNL     1      -7.796   6.106  69.630  1.00  0.00    -0.103 C  
HETATM   20  C   UNL     1      -8.090   5.801  68.146  1.00  0.00    -0.104 C  
HETATM   21  C   UNL     1      -9.463   5.166  67.813  1.00  0.00    -0.128 C  
HETATM   22  N   UNL     1      -9.826   4.147  68.793  1.00  0.00    -0.088 NA 
HETATM   23  C   UNL     1     -10.701   6.081  67.693  1.00  0.00    -0.377 C  
HETATM   24  C   UNL     1      -8.948   2.973  68.704  1.00  0.00    -0.137 C  
ENDBRANCH  14  15
ENDBRANCH   4  11
TORSDOF 2
ENDMDL
MODEL      124
REMARK 921   NORMALIZED FREE ENERGY PREDICTED BY IDOCK:   -4.70 KCAL/MOL
REMARK 922        TOTAL FREE ENERGY PREDICTED BY IDOCK:   -5.97 KCAL/MOL
REMARK 923 INTER-LIGAND FREE ENERGY PREDICTED BY IDOCK:   -5.61 KCAL/MOL
REMARK 924 INTRA-LIGAND FREE ENERGY PREDICTED BY IDOCK:   -0.36 KCAL/MOL
REMARK 927      BINDING AFFINITY PREDICTED BY RF-SCORE:    0.00 PKD
ROOT
HETATM    1  C   UNL     1     -12.052  13.676  68.975  1.00  0.00    -0.309 C  
HETATM    2  N   UNL     1     -11.125  13.614  67.869  1.00  0.00    -0.253 NA 
HETATM    3  N   UNL     1      -9.859  13.964  68.070  1.00  0.00    -0.227 NA 
HETATM    4  C   UNL     1      -9.327  14.087  66.833  1.00  0.00    -0.257 A  
HETATM    5  C   UNL     1     -10.238  13.573  65.855  1.00  0.00    -0.306 A  
HETATM    6  C   UNL     1     -11.470  12.954  63.846  1.00  0.00    -0.504 A  
HETATM    7  C   UNL     1     -11.419  13.316  66.570  1.00  0.00    -0.337 A  
HETATM    8  C   UNL     1     -12.626  12.728  64.594  1.00  0.00    -0.491 A  
HETATM    9  C   UNL     1     -10.278  13.387  64.457  1.00  0.00    -0.321 A  
HETATM   10  C   UNL     1     -12.620  12.910  65.975  1.00  0.00     0.031 A  
ENDROOT
BRANCH   4  11
HETATM   11  C   UNL     1      -8.089  14.867  66.766  1.00  0.00     0.027 C  
HETATM   12  H   UNL     1      -6.890  16.304  66.347  1.00  0.00     0.000 HD 
HETATM   13  O   UNL     1      -7.011  14.342  67.096  1.00  0.00    -0.173 OA 
HETATM   14  N   UNL     1      -7.897  16.146  66.362  1.00  0.00    -0.235 N  
BRANCH  14  15
HETATM   15  C   UNL     1      -8.534  17.396  65.938  1.00  0.00     0.050 C  
HETATM   16  C   UNL     1      -8.271  19.383  67.683  1.00  0.00    -0.294 C  
HETATM   17  C   UNL     1      -7.890  18.748  66.301  1.00  0.00    -0.295 C  
HETATM   18  C   UNL     1      -7.365  18.849  68.794  1.00  0.00    -0.356 C  
HETATM   19  C   UNL     1      -7.681  17.409  69.170  1.00  0.00    -0.055 C  
HETATM   20  C   UNL     1      -9.167  17.015  69.045  1.00  0.00    -0.154 C  
HETATM   21  C   UNL     1     -10.018  17.786  68.004  1.00  0.00    -0.333 C  
HETATM   22  N   UNL     1      -9.698  19.210  68.011  1.00  0.00    -0.326 NA 
HETATM   23  C   UNL     1      -9.956  17.356  66.523  1.00  0.00    -0.314 C  
HETATM   24  C   UNL     1     -10.130  19.857  69.256  1.00  0.00    -0.177 C  
ENDBRANCH  14  15
ENDBRANCH   4  11
TORSDOF 2
ENDMDL
MODEL      125
REMARK 921   NORMALIZED FREE ENERGY PREDICTED BY IDOCK:   -4.70 KCAL/MOL
REMARK 922        TOTAL FREE ENERGY PREDICTED BY IDOCK:   -5.97 KCAL/MOL
REMARK 923 INTER-LIGAND FREE ENERGY PREDICTED BY IDOCK:   -5.00 KCAL/MOL
REMARK 924 INTRA-LIGAND FREE ENERGY PREDICTED BY IDOCK:   -0.96 KCAL/MOL
REMARK 927      BINDING AFFINITY PREDICTED BY RF-SCORE:    0.00 PKD
ROOT
HETATM    1  C   UNL     1     -10.120   6.796  71.733  1.00  0.00    -0.182 C  
HETATM    2  N   UNL     1      -9.714   7.459  70.514  1.00  0.00    -0.176 NA 
HETATM    3  N   UNL     1      -9.035   8.598  70.598  1.00  0.00    -0.157 NA 
HETATM    4  C   UNL     1      -9.059   9.115  69.348  1.00  0.00    -0.148 A  
HETATM    5  C   UNL     1      -9.575   8.145  68.428  1.00  0.00    -0.155 A  
HETATM    6  C   UNL     1     -10.494   6.918  66.536  1.00  0.00    -0.088 A  
HETATM    7  C   UNL     1     -10.033   7.095  69.239  1.00  0.00    -0.168 A  
HETATM    8  C   UNL     1     -10.948   5.905  67.381  1.00  0.00    -0.258 A  
HETATM    9  C   UNL     1      -9.822   8.045  67.043  1.00  0.00    -0.295 A  
HETATM   10  C   UNL     1     -10.728   5.979  68.754  1.00  0.00    -0.375 A  
ENDROOT
BRANCH   4  11
HETATM   11  C   UNL     1      -8.760  10.546  69.263  1.00  0.00    -0.123 C  
HETATM   12  H   UNL     1      -9.003  12.416  68.918  1.00  0.00     0.000 HD 
HETATM   13  O   UNL     1      -7.591  10.941  69.421  1.00  0.00    -0.142 OA 
HETATM   14  N   UNL     1      -9.588  11.586  69.008  1.00  0.00    -0.021 N  
BRANCH  14  15
HETATM   15  C   UNL     1     -10.976  12.016  68.807  1.00  0.00    -0.239 C  
HETATM   16  C   UNL     1     -11.715  12.106  66.256  1.00  0.00    -0.320 C  
HETATM   17  C   UNL     1     -11.808  11.414  67.659  1.00  0.00    -0.157 C  
HETATM   18  C   UNL     1     -10.532  11.556  65.457  1.00  0.00    -0.327 C  
HETATM   19  C   UNL     1      -9.190  12.041  65.982  1.00  0.00    -0.152 C  
HETATM   20  C   UNL     1      -9.201  13.463  66.581  1.00  0.00    -0.223 C  
HETATM   21  C   UNL     1     -10.537  13.965  67.185  1.00  0.00    -0.277 C  
HETATM   22  N   UNL     1     -11.672  13.577  66.354  1.00  0.00    -0.351 NA 
HETATM   23  C   UNL     1     -10.913  13.541  68.621  1.00  0.00    -0.289 C  
HETATM   24  C   UNL     1     -11.667  14.283  65.066  1.00  0.00    -0.383 C  
ENDBRANCH  14  15
ENDBRANCH   4  11
TORSDOF 2
ENDMDL
MODEL      126
REMARK 921   NORMALIZED FREE ENERGY PREDICTED BY IDOCK:   -4.66 KCAL/MOL
REMARK 922        TOTAL FREE ENERGY PREDICTED BY IDOCK:   -5.93 KCAL/MOL
REMARK 923 INTER-LIGAND FREE ENERGY PREDICTED BY IDOCK:   -5.08 KCAL/MOL
REMARK 924 INTRA-LIGAND FREE ENERGY PREDICTED BY IDOCK:   -0.85 KCAL/MOL
REMARK 927      BINDING AFFINITY PREDICTED BY RF-SCORE:    0.00 PKD
ROOT
HETATM    1  C   UNL     1      -9.699   7.915  66.468  1.00  0.00    -0.209 C  
HETATM    2  N   UNL     1      -9.591   9.170  67.178  1.00  0.00    -0.156 NA 
HETATM    3  N   UNL     1     -10.660   9.954  67.261  1.00  0.00    -0.258 NA 
HETATM    4  C   UNL     1     -10.191  11.143  67.703  1.00  0.00    -0.181 A  
HETATM    5  C   UNL     1      -8.826  11.007  68.117  1.00  0.00    -0.141 A  
HETATM    6  C   UNL     1      -6.511  11.310  68.809  1.00  0.00    -0.058 A  
HETATM    7  C   UNL     1      -8.460   9.713  67.714  1.00  0.00    -0.125 A  
HETATM    8  C   UNL     1      -6.187  10.023  68.378  1.00  0.00    -0.049 A  
HETATM    9  C   UNL     1      -7.815  11.818  68.674  1.00  0.00    -0.117 A  
HETATM   10  C   UNL     1      -7.160   9.200  67.817  1.00  0.00    -0.079 A  
ENDROOT
BRANCH   4  11
HETATM   11  C   UNL     1     -11.079  12.284  67.474  1.00  0.00    -0.275 C  
HETATM   12  H   UNL     1     -11.644  14.065  67.041  1.00  0.00     0.000 HD 
HETATM   13  O   UNL     1     -12.274  12.213  67.812  1.00  0.00    -0.451 OA 
HETATM   14  N   UNL     1     -10.805  13.496  66.934  1.00  0.00    -0.281 N  
BRANCH  14  15
HETATM   15  C   UNL     1      -9.804  14.330  66.261  1.00  0.00    -0.307 C  
HETATM   16  C   UNL     1      -8.375  15.841  67.915  1.00  0.00    -0.149 C  
HETATM   17  C   UNL     1      -8.453  14.612  66.945  1.00  0.00    -0.203 C  
HETATM   18  C   UNL     1      -8.812  15.447  69.327  1.00  0.00    -0.258 C  
HETATM   19  C   UNL     1     -10.313  15.229  69.440  1.00  0.00    -0.255 C  
HETATM   20  C   UNL     1     -11.171  16.124  68.522  1.00  0.00    -0.365 C  
HETATM   21  C   UNL     1     -10.521  16.615  67.204  1.00  0.00    -0.300 C  
HETATM   22  N   UNL     1      -9.130  17.005  67.415  1.00  0.00    -0.221 NA 
HETATM   23  C   UNL     1     -10.504  15.671  65.982  1.00  0.00    -0.343 C  
HETATM   24  C   UNL     1      -9.025  18.213  68.242  1.00  0.00    -0.296 C  
ENDBRANCH  14  15
ENDBRANCH   4  11
TORSDOF 2
ENDMDL
MODEL      127
REMARK 921   NORMALIZED FREE ENERGY PREDICTED BY IDOCK:   -4.66 KCAL/MOL
REMARK 922        TOTAL FREE ENERGY PREDICTED BY IDOCK:   -5.93 KCAL/MOL
REMARK 923 INTER-LIGAND FREE ENERGY PREDICTED BY IDOCK:   -5.18 KCAL/MOL
REMARK 924 INTRA-LIGAND FREE ENERGY PREDICTED BY IDOCK:   -0.75 KCAL/MOL
REMARK 927      BINDING AFFINITY PREDICTED BY RF-SCORE:    0.00 PKD
ROOT
HETATM    1  C   UNL     1      -7.441  13.116  67.564  1.00  0.00    -0.160 C  
HETATM    2  N   UNL     1      -8.311  12.044  67.134  1.00  0.00    -0.175 NA 
HETATM    3  N   UNL     1      -9.519  11.940  67.678  1.00  0.00    -0.178 NA 
HETATM    4  C   UNL     1      -9.965  10.717  67.313  1.00  0.00    -0.188 A  
HETATM    5  C   UNL     1      -9.093  10.152  66.327  1.00  0.00    -0.180 A  
HETATM    6  C   UNL     1      -7.869   8.738  64.767  1.00  0.00    -0.124 A  
HETATM    7  C   UNL     1      -8.001  11.032  66.273  1.00  0.00    -0.148 A  
HETATM    8  C   UNL     1      -6.798   9.633  64.757  1.00  0.00    -0.111 A  
HETATM    9  C   UNL     1      -9.011   8.975  65.553  1.00  0.00    -0.252 A  
HETATM   10  C   UNL     1      -6.845  10.798  65.517  1.00  0.00     0.015 A  
ENDROOT
BRANCH   4  11
HETATM   11  C   UNL     1     -11.068  10.193  68.122  1.00  0.00    -0.230 C  
HETATM   12  H   UNL     1     -12.134   8.948  69.117  1.00  0.00     0.000 HD 
HETATM   13  O   UNL     1     -12.090  10.881  68.290  1.00  0.00    -0.562 OA 
HETATM   14  N   UNL     1     -11.184   8.998  68.750  1.00  0.00     0.204 N  
BRANCH  14  15
HETATM   15  C   UNL     1     -10.514   7.748  69.121  1.00  0.00    -0.211 C  
HETATM   16  C   UNL     1     -11.566   6.556  71.250  1.00  0.00    -0.327 C  
HETATM   17  C   UNL     1     -11.334   6.580  69.701  1.00  0.00    -0.443 C  
HETATM   18  C   UNL     1     -12.798   7.381  71.628  1.00  0.00    -0.406 C  
HETATM   19  C   UNL     1     -12.563   8.879  71.509  1.00  0.00    -0.385 C  
HETATM   20  C   UNL     1     -11.124   9.338  71.823  1.00  0.00    -0.398 C  
HETATM   21  C   UNL     1      -9.985   8.317  71.575  1.00  0.00    -0.199 C  
HETATM   22  N   UNL     1     -10.373   6.978  72.007  1.00  0.00    -0.198 NA 
HETATM   23  C   UNL     1      -9.435   8.145  70.143  1.00  0.00    -0.167 C  
HETATM   24  C   UNL     1     -10.505   6.897  73.467  1.00  0.00    -0.352 C  
ENDBRANCH  14  15
ENDBRANCH   4  11
TORSDOF 2
ENDMDL
MODEL      128
REMARK 921   NORMALIZED FREE ENERGY PREDICTED BY IDOCK:   -4.65 KCAL/MOL
REMARK 922        TOTAL FREE ENERGY PREDICTED BY IDOCK:   -5.92 KCAL/MOL
REMARK 923 INTER-LIGAND FREE ENERGY PREDICTED BY IDOCK:   -5.45 KCAL/MOL
REMARK 924 INTRA-LIGAND FREE ENERGY PREDICTED BY IDOCK:   -0.47 KCAL/MOL
REMARK 927      BINDING AFFINITY PREDICTED BY RF-SCORE:    0.00 PKD
ROOT
HETATM    1  C   UNL     1      -6.379  11.439  67.782  1.00  0.00    -0.057 C  
HETATM    2  N   UNL     1      -7.739  11.328  67.303  1.00  0.00    -0.130 NA 
HETATM    3  N   UNL     1      -8.401  12.437  66.989  1.00  0.00    -0.177 NA 
HETATM    4  C   UNL     1      -9.692  12.053  66.867  1.00  0.00    -0.203 A  
HETATM    5  C   UNL     1      -9.781  10.623  66.885  1.00  0.00    -0.213 A  
HETATM    6  C   UNL     1     -10.453   8.285  66.992  1.00  0.00    -0.384 A  
HETATM    7  C   UNL     1      -8.487  10.191  67.218  1.00  0.00    -0.125 A  
HETATM    8  C   UNL     1      -9.157   7.902  67.339  1.00  0.00    -0.146 A  
HETATM    9  C   UNL     1     -10.782   9.635  66.776  1.00  0.00    -0.149 A  
HETATM   10  C   UNL     1      -8.149   8.854  67.462  1.00  0.00    -0.109 A  
ENDROOT
BRANCH   4  11
HETATM   11  C   UNL     1     -10.672  13.138  66.948  1.00  0.00    -0.263 C  
HETATM   12  H   UNL     1     -11.399  14.912  66.891  1.00  0.00     0.000 HD 
HETATM   13  O   UNL     1     -11.797  12.918  67.429  1.00  0.00    -0.367 OA 
HETATM   14  N   UNL     1     -10.552  14.436  66.580  1.00  0.00    -0.292 N  
BRANCH  14  15
HETATM   15  C   UNL     1      -9.713  15.442  65.921  1.00  0.00    -0.357 C  
HETATM   16  C   UNL     1      -8.238  16.878  67.601  1.00  0.00    -0.186 C  
HETATM   17  C   UNL     1      -8.321  15.775  66.492  1.00  0.00    -0.313 C  
HETATM   18  C   UNL     1      -8.471  16.273  68.987  1.00  0.00    -0.244 C  
HETATM   19  C   UNL     1      -9.924  15.893  69.227  1.00  0.00    -0.254 C  
HETATM   20  C   UNL     1     -10.958  16.802  68.529  1.00  0.00    -0.312 C  
HETATM   21  C   UNL     1     -10.510  17.512  67.227  1.00  0.00    -0.327 C  
HETATM   22  N   UNL     1      -9.144  18.012  67.341  1.00  0.00    -0.248 NA 
HETATM   23  C   UNL     1     -10.554  16.730  65.897  1.00  0.00    -0.255 C  
HETATM   24  C   UNL     1      -9.048  19.116  68.304  1.00  0.00    -0.338 C  
ENDBRANCH  14  15
ENDBRANCH   4  11
TORSDOF 2
ENDMDL
MODEL      129
REMARK 921   NORMALIZED FREE ENERGY PREDICTED BY IDOCK:   -4.64 KCAL/MOL
REMARK 922        TOTAL FREE ENERGY PREDICTED BY IDOCK:   -5.91 KCAL/MOL
REMARK 923 INTER-LIGAND FREE ENERGY PREDICTED BY IDOCK:   -5.29 KCAL/MOL
REMARK 924 INTRA-LIGAND FREE ENERGY PREDICTED BY IDOCK:   -0.62 KCAL/MOL
REMARK 927      BINDING AFFINITY PREDICTED BY RF-SCORE:    0.00 PKD
ROOT
HETATM    1  C   UNL     1     -12.154  15.608  70.175  1.00  0.00    -0.377 C  
HETATM    2  N   UNL     1     -11.480  14.856  69.141  1.00  0.00    -0.285 NA 
HETATM    3  N   UNL     1     -12.049  13.748  68.678  1.00  0.00    -0.355 NA 
HETATM    4  C   UNL     1     -11.081  13.126  67.966  1.00  0.00    -0.263 A  
HETATM    5  C   UNL     1      -9.956  13.998  67.805  1.00  0.00    -0.236 A  
HETATM    6  C   UNL     1      -7.793  15.033  67.379  1.00  0.00    -0.226 A  
HETATM    7  C   UNL     1     -10.240  15.100  68.626  1.00  0.00    -0.227 A  
HETATM    8  C   UNL     1      -8.110  16.101  68.219  1.00  0.00    -0.153 A  
HETATM    9  C   UNL     1      -8.695  13.973  67.173  1.00  0.00    -0.234 A  
HETATM   10  C   UNL     1      -9.343  16.150  68.863  1.00  0.00    -0.235 A  
ENDROOT
BRANCH   4  11
HETATM   11  C   UNL     1     -11.315  11.702  67.715  1.00  0.00    -0.288 C  
HETATM   12  H   UNL     1     -11.184   9.799  67.904  1.00  0.00     0.000 HD 
HETATM   13  O   UNL     1     -11.921  11.349  66.689  1.00  0.00    -0.322 OA 
HETATM   14  N   UNL     1     -10.945  10.626  68.450  1.00  0.00    -0.231 N  
BRANCH  14  15
HETATM   15  C   UNL     1     -10.345  10.155  69.702  1.00  0.00    -0.247 C  
HETATM   16  C   UNL     1      -8.209   8.612  69.356  1.00  0.00    -0.113 C  
HETATM   17  C   UNL     1      -8.817   9.985  69.805  1.00  0.00    -0.205 C  
HETATM   18  C   UNL     1      -7.935   8.606  67.851  1.00  0.00    -0.107 C  
HETATM   19  C   UNL     1      -9.206   8.514  67.021  1.00  0.00    -0.187 C  
HETATM   20  C   UNL     1     -10.345   7.696  67.664  1.00  0.00    -0.303 C  
HETATM   21  C   UNL     1     -10.381   7.628  69.211  1.00  0.00    -0.217 C  
HETATM   22  N   UNL     1      -9.040   7.464  69.764  1.00  0.00    -0.142 NA 
HETATM   23  C   UNL     1     -11.011   8.800  69.996  1.00  0.00    -0.216 C  
HETATM   24  C   UNL     1      -8.479   6.147  69.443  1.00  0.00    -0.120 C  
ENDBRANCH  14  15
ENDBRANCH   4  11
TORSDOF 2
ENDMDL
MODEL      130
REMARK 921   NORMALIZED FREE ENERGY PREDICTED BY IDOCK:   -4.64 KCAL/MOL
REMARK 922        TOTAL FREE ENERGY PREDICTED BY IDOCK:   -5.90 KCAL/MOL
REMARK 923 INTER-LIGAND FREE ENERGY PREDICTED BY IDOCK:   -5.32 KCAL/MOL
REMARK 924 INTRA-LIGAND FREE ENERGY PREDICTED BY IDOCK:   -0.58 KCAL/MOL
REMARK 927      BINDING AFFINITY PREDICTED BY RF-SCORE:    0.00 PKD
ROOT
HETATM    1  C   UNL     1      -6.411   8.736  65.120  1.00  0.00    -0.064 C  
HETATM    2  N   UNL     1      -7.524   9.531  65.589  1.00  0.00    -0.092 NA 
HETATM    3  N   UNL     1      -7.717   9.658  66.897  1.00  0.00    -0.098 NA 
HETATM    4  C   UNL     1      -8.957  10.184  67.021  1.00  0.00    -0.135 A  
HETATM    5  C   UNL     1      -9.442  10.600  65.739  1.00  0.00    -0.244 A  
HETATM    6  C   UNL     1     -10.737  11.333  63.811  1.00  0.00    -0.448 A  
HETATM    7  C   UNL     1      -8.493  10.113  64.825  1.00  0.00    -0.174 A  
HETATM    8  C   UNL     1      -9.777  10.818  62.939  1.00  0.00    -0.337 A  
HETATM    9  C   UNL     1     -10.591  11.220  65.206  1.00  0.00    -0.323 A  
HETATM   10  C   UNL     1      -8.636  10.193  63.434  1.00  0.00    -0.199 A  
ENDROOT
BRANCH   4  11
HETATM   11  C   UNL     1      -9.568  10.024  68.342  1.00  0.00    -0.145 C  
HETATM   12  H   UNL     1     -10.374   9.172  69.859  1.00  0.00     0.000 HD 
HETATM   13  O   UNL     1      -9.923  11.030  68.982  1.00  0.00    -0.205 OA 
HETATM   14  N   UNL     1      -9.851   8.892  69.030  1.00  0.00    -0.175 N  
BRANCH  14  15
HETATM   15  C   UNL     1      -9.718   7.433  69.079  1.00  0.00    -0.160 C  
HETATM   16  C   UNL     1     -11.263   6.274  70.904  1.00  0.00    -0.324 C  
HETATM   17  C   UNL     1     -10.947   6.560  69.396  1.00  0.00    -0.395 C  
HETATM   18  C   UNL     1     -12.119   7.392  71.501  1.00  0.00    -0.357 C  
HETATM   19  C   UNL     1     -11.336   8.677  71.727  1.00  0.00    -0.393 C  
HETATM   20  C   UNL     1      -9.851   8.477  72.094  1.00  0.00    -0.388 C  
HETATM   21  C   UNL     1      -9.162   7.188  71.580  1.00  0.00    -0.145 C  
HETATM   22  N   UNL     1     -10.046   6.032  71.701  1.00  0.00    -0.187 NA 
HETATM   23  C   UNL     1      -8.632   7.152  70.131  1.00  0.00    -0.140 C  
HETATM   24  C   UNL     1     -10.285   5.677  73.105  1.00  0.00    -0.191 C  
ENDBRANCH  14  15
ENDBRANCH   4  11
TORSDOF 2
ENDMDL
MODEL      131
REMARK 921   NORMALIZED FREE ENERGY PREDICTED BY IDOCK:   -4.63 KCAL/MOL
REMARK 922        TOTAL FREE ENERGY PREDICTED BY IDOCK:   -5.90 KCAL/MOL
REMARK 923 INTER-LIGAND FREE ENERGY PREDICTED BY IDOCK:   -5.30 KCAL/MOL
REMARK 924 INTRA-LIGAND FREE ENERGY PREDICTED BY IDOCK:   -0.59 KCAL/MOL
REMARK 927      BINDING AFFINITY PREDICTED BY RF-SCORE:    0.00 PKD
ROOT
HETATM    1  C   UNL     1      -7.369  10.041  63.415  1.00  0.00    -0.137 C  
HETATM    2  N   UNL     1      -8.302   9.841  64.501  1.00  0.00    -0.152 NA 
HETATM    3  N   UNL     1      -8.828  10.904  65.100  1.00  0.00    -0.185 NA 
HETATM    4  C   UNL     1      -9.404  10.425  66.226  1.00  0.00    -0.166 A  
HETATM    5  C   UNL     1      -9.423   8.993  66.195  1.00  0.00    -0.318 A  
HETATM    6  C   UNL     1      -9.569   6.607  66.661  1.00  0.00    -0.207 A  
HETATM    7  C   UNL     1      -8.652   8.652  65.072  1.00  0.00    -0.158 A  
HETATM    8  C   UNL     1      -8.784   6.315  65.545  1.00  0.00    -0.090 A  
HETATM    9  C   UNL     1      -9.885   7.934  67.005  1.00  0.00    -0.293 A  
HETATM   10  C   UNL     1      -8.307   7.338  64.731  1.00  0.00     0.011 A  
ENDROOT
BRANCH   4  11
HETATM   11  C   UNL     1      -9.675  11.428  67.258  1.00  0.00    -0.185 C  
HETATM   12  H   UNL     1     -10.178  13.098  68.054  1.00  0.00     0.000 HD 
HETATM   13  O   UNL     1      -9.322  11.215  68.432  1.00  0.00    -0.171 OA 
HETATM   14  N   UNL     1     -10.269  12.640  67.148  1.00  0.00    -0.224 N  
BRANCH  14  15
HETATM   15  C   UNL     1     -10.987  13.568  66.269  1.00  0.00    -0.289 C  
HETATM   16  C   UNL     1      -9.682  15.834  65.801  1.00  0.00    -0.337 C  
HETATM   17  C   UNL     1     -10.204  14.451  65.279  1.00  0.00    -0.416 C  
HETATM   18  C   UNL     1      -8.318  15.680  66.476  1.00  0.00    -0.276 C  
HETATM   19  C   UNL     1      -8.406  15.003  67.835  1.00  0.00    -0.151 C  
HETATM   20  C   UNL     1      -9.699  15.297  68.625  1.00  0.00    -0.212 C  
HETATM   21  C   UNL     1     -10.969  15.634  67.803  1.00  0.00    -0.316 C  
HETATM   22  N   UNL     1     -10.654  16.511  66.680  1.00  0.00    -0.262 NA 
HETATM   23  C   UNL     1     -11.800  14.479  67.205  1.00  0.00    -0.412 C  
HETATM   24  C   UNL     1     -10.253  17.849  67.132  1.00  0.00    -0.353 C  
ENDBRANCH  14  15
ENDBRANCH   4  11
TORSDOF 2
ENDMDL
MODEL      132
REMARK 921   NORMALIZED FREE ENERGY PREDICTED BY IDOCK:   -4.62 KCAL/MOL
REMARK 922        TOTAL FREE ENERGY PREDICTED BY IDOCK:   -5.89 KCAL/MOL
REMARK 923 INTER-LIGAND FREE ENERGY PREDICTED BY IDOCK:   -4.96 KCAL/MOL
REMARK 924 INTRA-LIGAND FREE ENERGY PREDICTED BY IDOCK:   -0.92 KCAL/MOL
REMARK 927      BINDING AFFINITY PREDICTED BY RF-SCORE:    0.00 PKD
ROOT
HETATM    1  C   UNL     1      -7.785  11.630  67.738  1.00  0.00    -0.126 C  
HETATM    2  N   UNL     1      -8.870  10.723  68.039  1.00  0.00    -0.129 NA 
HETATM    3  N   UNL     1      -9.664  10.991  69.070  1.00  0.00    -0.174 NA 
HETATM    4  C   UNL     1     -10.367   9.854  69.278  1.00  0.00    -0.219 A  
HETATM    5  C   UNL     1     -10.154   8.942  68.193  1.00  0.00    -0.227 A  
HETATM    6  C   UNL     1     -10.013   7.037  66.683  1.00  0.00    -0.224 A  
HETATM    7  C   UNL     1      -9.134   9.531  67.429  1.00  0.00    -0.130 A  
HETATM    8  C   UNL     1      -8.988   7.652  65.963  1.00  0.00    -0.178 A  
HETATM    9  C   UNL     1     -10.594   7.660  67.803  1.00  0.00    -0.265 A  
HETATM   10  C   UNL     1      -8.527   8.913  66.328  1.00  0.00    -0.129 A  
ENDROOT
BRANCH   4  11
HETATM   11  C   UNL     1     -10.989   9.743  70.599  1.00  0.00    -0.331 C  
HETATM   12  H   UNL     1     -11.292   9.158  72.400  1.00  0.00     0.000 HD 
HETATM   13  O   UNL     1     -12.102  10.259  70.802  1.00  0.00    -0.298 OA 
HETATM   14  N   UNL     1     -10.539   9.118  71.713  1.00  0.00    -0.358 N  
BRANCH  14  15
HETATM   15  C   UNL     1      -9.422   8.406  72.343  1.00  0.00    -0.295 C  
HETATM   16  C   UNL     1      -9.264   5.841  71.670  1.00  0.00    -0.146 C  
HETATM   17  C   UNL     1      -8.686   7.294  71.571  1.00  0.00    -0.120 C  
HETATM   18  C   UNL     1     -10.349   5.616  70.615  1.00  0.00    -0.320 C  
HETATM   19  C   UNL     1     -11.646   6.342  70.940  1.00  0.00    -0.338 C  
HETATM   20  C   UNL     1     -11.960   6.470  72.446  1.00  0.00    -0.199 C  
HETATM   21  C   UNL     1     -10.755   6.487  73.421  1.00  0.00    -0.270 C  
HETATM   22  N   UNL     1      -9.743   5.513  73.026  1.00  0.00    -0.150 NA 
HETATM   23  C   UNL     1      -9.991   7.810  73.641  1.00  0.00    -0.180 C  
HETATM   24  C   UNL     1     -10.219   4.135  73.198  1.00  0.00    -0.157 C  
ENDBRANCH  14  15
ENDBRANCH   4  11
TORSDOF 2
ENDMDL
MODEL      133
REMARK 921   NORMALIZED FREE ENERGY PREDICTED BY IDOCK:   -4.61 KCAL/MOL
REMARK 922        TOTAL FREE ENERGY PREDICTED BY IDOCK:   -5.87 KCAL/MOL
REMARK 923 INTER-LIGAND FREE ENERGY PREDICTED BY IDOCK:   -5.07 KCAL/MOL
REMARK 924 INTRA-LIGAND FREE ENERGY PREDICTED BY IDOCK:   -0.81 KCAL/MOL
REMARK 927      BINDING AFFINITY PREDICTED BY RF-SCORE:    0.00 PKD
ROOT
HETATM    1  C   UNL     1      -6.262   8.909  68.715  1.00  0.00    -0.045 C  
HETATM    2  N   UNL     1      -7.394   8.797  67.824  1.00  0.00    -0.087 NA 
HETATM    3  N   UNL     1      -7.436   9.564  66.739  1.00  0.00    -0.094 NA 
HETATM    4  C   UNL     1      -8.705   9.458  66.282  1.00  0.00    -0.140 A  
HETATM    5  C   UNL     1      -9.392   8.414  66.983  1.00  0.00    -0.202 A  
HETATM    6  C   UNL     1     -10.995   6.862  67.958  1.00  0.00    -0.241 A  
HETATM    7  C   UNL     1      -8.513   8.040  68.013  1.00  0.00    -0.126 A  
HETATM    8  C   UNL     1     -10.097   6.533  68.974  1.00  0.00    -0.186 A  
HETATM    9  C   UNL     1     -10.664   7.805  66.968  1.00  0.00    -0.316 A  
HETATM   10  C   UNL     1      -8.837   7.123  69.021  1.00  0.00    -0.131 A  
ENDROOT
BRANCH   4  11
HETATM   11  C   UNL     1      -9.124  10.520  65.365  1.00  0.00    -0.187 C  
HETATM   12  H   UNL     1     -10.246  11.819  64.512  1.00  0.00     0.000 HD 
HETATM   13  O   UNL     1      -8.392  10.834  64.410  1.00  0.00    -0.088 OA 
HETATM   14  N   UNL     1     -10.257  11.261  65.365  1.00  0.00    -0.258 N  
BRANCH  14  15
HETATM   15  C   UNL     1     -11.493  11.595  66.080  1.00  0.00    -0.127 C  
HETATM   16  C   UNL     1     -12.073  14.188  66.070  1.00  0.00    -0.432 C  
HETATM   17  C   UNL     1     -12.391  12.738  65.569  1.00  0.00    -0.495 C  
HETATM   18  C   UNL     1     -11.020  14.851  65.180  1.00  0.00    -0.410 C  
HETATM   19  C   UNL     1      -9.626  14.282  65.395  1.00  0.00     0.012 C  
HETATM   20  C   UNL     1      -9.327  13.818  66.836  1.00  0.00    -0.267 C  
HETATM   21  C   UNL     1     -10.532  13.355  67.694  1.00  0.00    -0.241 C  
HETATM   22  N   UNL     1     -11.688  14.224  67.493  1.00  0.00    -0.366 NA 
HETATM   23  C   UNL     1     -11.063  11.916  67.522  1.00  0.00    -0.332 C  
HETATM   24  C   UNL     1     -11.458  15.567  68.039  1.00  0.00    -0.308 C  
ENDBRANCH  14  15
ENDBRANCH   4  11
TORSDOF 2
ENDMDL
MODEL      134
REMARK 921   NORMALIZED FREE ENERGY PREDICTED BY IDOCK:   -4.61 KCAL/MOL
REMARK 922        TOTAL FREE ENERGY PREDICTED BY IDOCK:   -5.87 KCAL/MOL
REMARK 923 INTER-LIGAND FREE ENERGY PREDICTED BY IDOCK:   -5.16 KCAL/MOL
REMARK 924 INTRA-LIGAND FREE ENERGY PREDICTED BY IDOCK:   -0.70 KCAL/MOL
REMARK 927      BINDING AFFINITY PREDICTED BY RF-SCORE:    0.00 PKD
ROOT
HETATM    1  C   UNL     1     -12.563  11.870  70.846  1.00  0.00    -0.266 C  
HETATM    2  N   UNL     1     -11.959  10.558  70.918  1.00  0.00    -0.357 NA 
HETATM    3  N   UNL     1     -10.684  10.418  70.572  1.00  0.00    -0.155 NA 
HETATM    4  C   UNL     1     -10.495   9.084  70.457  1.00  0.00    -0.223 A  
HETATM    5  C   UNL     1     -11.634   8.383  70.970  1.00  0.00    -0.307 A  
HETATM    6  C   UNL     1     -13.352   6.772  71.591  1.00  0.00    -0.209 A  
HETATM    7  C   UNL     1     -12.586   9.384  71.219  1.00  0.00    -0.325 A  
HETATM    8  C   UNL     1     -14.271   7.799  71.809  1.00  0.00    -0.558 A  
HETATM    9  C   UNL     1     -12.041   7.045  71.161  1.00  0.00    -0.412 A  
HETATM   10  C   UNL     1     -13.903   9.128  71.621  1.00  0.00    -0.396 A  
ENDROOT
BRANCH   4  11
HETATM   11  C   UNL     1      -9.316   8.690  69.683  1.00  0.00    -0.161 C  
HETATM   12  H   UNL     1      -8.265   7.940  68.265  1.00  0.00     0.000 HD 
HETATM   13  O   UNL     1      -8.187   8.768  70.197  1.00  0.00    -0.102 OA 
HETATM   14  N   UNL     1      -9.237   8.204  68.421  1.00  0.00    -0.136 N  
BRANCH  14  15
HETATM   15  C   UNL     1      -9.966   7.901  67.185  1.00  0.00    -0.230 C  
HETATM   16  C   UNL     1      -8.559   8.332  64.973  1.00  0.00    -0.075 C  
HETATM   17  C   UNL     1      -9.214   7.319  65.973  1.00  0.00    -0.079 C  
HETATM   18  C   UNL     1      -7.155   8.722  65.438  1.00  0.00    -0.083 C  
HETATM   19  C   UNL     1      -7.170   9.650  66.642  1.00  0.00    -0.086 C  
HETATM   20  C   UNL     1      -8.367  10.622  66.700  1.00  0.00    -0.136 C  
HETATM   21  C   UNL     1      -9.678  10.171  66.008  1.00  0.00    -0.226 C  
HETATM   22  N   UNL     1      -9.404   9.517  64.732  1.00  0.00    -0.223 NA 
HETATM   23  C   UNL     1     -10.632   9.221  66.763  1.00  0.00    -0.207 C  
HETATM   24  C   UNL     1      -8.878  10.462  63.740  1.00  0.00    -0.212 C  
ENDBRANCH  14  15
ENDBRANCH   4  11
TORSDOF 2
ENDMDL
MODEL      135
REMARK 921   NORMALIZED FREE ENERGY PREDICTED BY IDOCK:   -4.58 KCAL/MOL
REMARK 922        TOTAL FREE ENERGY PREDICTED BY IDOCK:   -5.84 KCAL/MOL
REMARK 923 INTER-LIGAND FREE ENERGY PREDICTED BY IDOCK:   -5.33 KCAL/MOL
REMARK 924 INTRA-LIGAND FREE ENERGY PREDICTED BY IDOCK:   -0.51 KCAL/MOL
REMARK 927      BINDING AFFINITY PREDICTED BY RF-SCORE:    0.00 PKD
ROOT
HETATM    1  C   UNL     1     -10.232   4.915  69.182  1.00  0.00    -0.116 C  
HETATM    2  N   UNL     1     -10.287   6.139  69.948  1.00  0.00    -0.196 NA 
HETATM    3  N   UNL     1     -10.178   7.301  69.311  1.00  0.00    -0.187 NA 
HETATM    4  C   UNL     1      -9.969   8.217  70.284  1.00  0.00    -0.189 A  
HETATM    5  C   UNL     1     -10.185   7.623  71.570  1.00  0.00    -0.212 A  
HETATM    6  C   UNL     1     -10.305   7.053  73.934  1.00  0.00    -0.386 A  
HETATM    7  C   UNL     1     -10.346   6.254  71.306  1.00  0.00    -0.212 A  
HETATM    8  C   UNL     1     -10.444   5.700  73.627  1.00  0.00    -0.289 A  
HETATM    9  C   UNL     1     -10.161   8.021  72.923  1.00  0.00    -0.384 A  
HETATM   10  C   UNL     1     -10.463   5.275  72.301  1.00  0.00    -0.273 A  
ENDROOT
BRANCH   4  11
HETATM   11  C   UNL     1      -9.398   9.486  69.827  1.00  0.00    -0.211 C  
HETATM   12  H   UNL     1      -9.234  11.148  68.886  1.00  0.00     0.000 HD 
HETATM   13  O   UNL     1      -8.212   9.756  70.086  1.00  0.00    -0.176 OA 
HETATM   14  N   UNL     1      -9.971  10.479  69.107  1.00  0.00    -0.214 N  
BRANCH  14  15
HETATM   15  C   UNL     1     -11.209  10.993  68.512  1.00  0.00    -0.268 C  
HETATM   16  C   UNL     1     -10.813  12.670  66.489  1.00  0.00    -0.258 C  
HETATM   17  C   UNL     1     -11.279  11.262  66.996  1.00  0.00    -0.324 C  
HETATM   18  C   UNL     1      -9.303  12.688  66.248  1.00  0.00    -0.162 C  
HETATM   19  C   UNL     1      -8.500  12.694  67.539  1.00  0.00    -0.176 C  
HETATM   20  C   UNL     1      -9.166  13.439  68.716  1.00  0.00     0.106 C  
HETATM   21  C   UNL     1     -10.713  13.510  68.723  1.00  0.00    -0.238 C  
HETATM   22  N   UNL     1     -11.237  13.763  67.384  1.00  0.00    -0.299 NA 
HETATM   23  C   UNL     1     -11.514  12.303  69.258  1.00  0.00    -0.352 C  
HETATM   24  C   UNL     1     -10.900  15.113  66.916  1.00  0.00    -0.317 C  
ENDBRANCH  14  15
ENDBRANCH   4  11
TORSDOF 2
ENDMDL
MODEL      136
REMARK 921   NORMALIZED FREE ENERGY PREDICTED BY IDOCK:   -4.58 KCAL/MOL
REMARK 922        TOTAL FREE ENERGY PREDICTED BY IDOCK:   -5.84 KCAL/MOL
REMARK 923 INTER-LIGAND FREE ENERGY PREDICTED BY IDOCK:   -5.28 KCAL/MOL
REMARK 924 INTRA-LIGAND FREE ENERGY PREDICTED BY IDOCK:   -0.57 KCAL/MOL
REMARK 927      BINDING AFFINITY PREDICTED BY RF-SCORE:    0.00 PKD
ROOT
HETATM    1  C   UNL     1     -12.334  12.236  64.925  1.00  0.00    -0.299 C  
HETATM    2  N   UNL     1     -11.696  12.244  66.221  1.00  0.00    -0.511 NA 
HETATM    3  N   UNL     1     -11.213  11.105  66.707  1.00  0.00    -0.312 NA 
HETATM    4  C   UNL     1     -10.958  11.359  68.011  1.00  0.00    -0.237 A  
HETATM    5  C   UNL     1     -11.078  12.763  68.269  1.00  0.00    -0.288 A  
HETATM    6  C   UNL     1     -11.282  14.996  69.219  1.00  0.00    -0.297 A  
HETATM    7  C   UNL     1     -11.606  13.298  67.083  1.00  0.00    -0.357 A  
HETATM    8  C   UNL     1     -11.820  15.482  68.027  1.00  0.00    -0.088 A  
HETATM    9  C   UNL     1     -10.920  13.644  69.360  1.00  0.00    -0.117 A  
HETATM   10  C   UNL     1     -11.996  14.635  66.935  1.00  0.00    -0.294 A  
ENDROOT
BRANCH   4  11
HETATM   11  C   UNL     1     -10.828  10.172  68.859  1.00  0.00    -0.223 C  
HETATM   12  H   UNL     1     -10.240   8.449  69.462  1.00  0.00     0.000 HD 
HETATM   13  O   UNL     1     -11.609  10.007  69.813  1.00  0.00    -0.216 OA 
HETATM   14  N   UNL     1      -9.954   9.141  68.770  1.00  0.00    -0.171 N  
BRANCH  14  15
HETATM   15  C   UNL     1      -8.770   8.604  68.092  1.00  0.00    -0.142 C  
HETATM   16  C   UNL     1      -9.144   6.204  67.013  1.00  0.00    -0.118 C  
HETATM   17  C   UNL     1      -8.934   7.746  66.823  1.00  0.00    -0.163 C  
HETATM   18  C   UNL     1     -10.625   5.879  67.215  1.00  0.00    -0.365 C  
HETATM   19  C   UNL     1     -11.138   6.296  68.585  1.00  0.00    -0.409 C  
HETATM   20  C   UNL     1     -10.101   6.203  69.724  1.00  0.00    -0.229 C  
HETATM   21  C   UNL     1      -8.609   6.357  69.336  1.00  0.00    -0.130 C  
HETATM   22  N   UNL     1      -8.310   5.649  68.095  1.00  0.00    -0.100 NA 
HETATM   23  C   UNL     1      -8.027   7.775  69.153  1.00  0.00    -0.119 C  
HETATM   24  C   UNL     1      -8.403   4.194  68.265  1.00  0.00    -0.092 C  
ENDBRANCH  14  15
ENDBRANCH   4  11
TORSDOF 2
ENDMDL
MODEL      137
REMARK 921   NORMALIZED FREE ENERGY PREDICTED BY IDOCK:   -4.58 KCAL/MOL
REMARK 922        TOTAL FREE ENERGY PREDICTED BY IDOCK:   -5.84 KCAL/MOL
REMARK 923 INTER-LIGAND FREE ENERGY PREDICTED BY IDOCK:   -5.23 KCAL/MOL
REMARK 924 INTRA-LIGAND FREE ENERGY PREDICTED BY IDOCK:   -0.61 KCAL/MOL
REMARK 927      BINDING AFFINITY PREDICTED BY RF-SCORE:    0.00 PKD
ROOT
HETATM    1  C   UNL     1     -10.287   4.835  65.857  1.00  0.00    -0.270 C  
HETATM    2  N   UNL     1     -10.442   5.365  67.193  1.00  0.00    -0.242 NA 
HETATM    3  N   UNL     1     -10.862   6.616  67.343  1.00  0.00    -0.330 NA 
HETATM    4  C   UNL     1     -10.628   6.912  68.642  1.00  0.00    -0.223 A  
HETATM    5  C   UNL     1     -10.263   5.725  69.357  1.00  0.00    -0.301 A  
HETATM    6  C   UNL     1      -9.487   4.052  70.947  1.00  0.00    -0.237 A  
HETATM    7  C   UNL     1     -10.109   4.746  68.362  1.00  0.00    -0.041 A  
HETATM    8  C   UNL     1      -9.331   3.116  69.925  1.00  0.00    -0.228 A  
HETATM    9  C   UNL     1      -9.936   5.358  70.679  1.00  0.00    -0.280 A  
HETATM   10  C   UNL     1      -9.638   3.450  68.609  1.00  0.00    -0.127 A  
ENDROOT
BRANCH   4  11
HETATM   11  C   UNL     1     -10.602   8.342  68.957  1.00  0.00    -0.154 C  
HETATM   12  H   UNL     1     -10.091  10.189  68.888  1.00  0.00     0.000 HD 
HETATM   13  O   UNL     1     -11.210   8.765  69.956  1.00  0.00    -0.215 OA 
HETATM   14  N   UNL     1      -9.973   9.355  68.314  1.00  0.00    -0.167 N  
BRANCH  14  15
HETATM   15  C   UNL     1      -9.192   9.751  67.138  1.00  0.00    -0.138 C  
HETATM   16  C   UNL     1      -8.823  12.374  66.926  1.00  0.00    -0.205 C  
HETATM   17  C   UNL     1      -8.232  10.953  67.222  1.00  0.00    -0.123 C  
HETATM   18  C   UNL     1      -9.424  12.986  68.193  1.00  0.00    -0.218 C  
HETATM   19  C   UNL     1     -10.736  12.332  68.597  1.00  0.00    -0.261 C  
HETATM   20  C   UNL     1     -11.601  11.828  67.423  1.00  0.00    -0.352 C  
HETATM   21  C   UNL     1     -10.862  11.425  66.122  1.00  0.00    -0.255 C  
HETATM   22  N   UNL     1      -9.789  12.364  65.812  1.00  0.00    -0.255 NA 
HETATM   23  C   UNL     1     -10.223  10.023  66.029  1.00  0.00    -0.277 C  
HETATM   24  C   UNL     1     -10.313  13.683  65.435  1.00  0.00    -0.332 C  
ENDBRANCH  14  15
ENDBRANCH   4  11
TORSDOF 2
ENDMDL
MODEL      138
REMARK 921   NORMALIZED FREE ENERGY PREDICTED BY IDOCK:   -4.58 KCAL/MOL
REMARK 922        TOTAL FREE ENERGY PREDICTED BY IDOCK:   -5.84 KCAL/MOL
REMARK 923 INTER-LIGAND FREE ENERGY PREDICTED BY IDOCK:   -5.15 KCAL/MOL
REMARK 924 INTRA-LIGAND FREE ENERGY PREDICTED BY IDOCK:   -0.69 KCAL/MOL
REMARK 927      BINDING AFFINITY PREDICTED BY RF-SCORE:    0.00 PKD
ROOT
HETATM    1  C   UNL     1     -10.178   3.936  63.770  1.00  0.00    -0.190 C  
HETATM    2  N   UNL     1     -10.159   4.117  65.204  1.00  0.00    -0.215 NA 
HETATM    3  N   UNL     1     -10.888   5.091  65.738  1.00  0.00    -0.133 NA 
HETATM    4  C   UNL     1     -10.449   5.202  67.012  1.00  0.00    -0.196 A  
HETATM    5  C   UNL     1      -9.581   4.106  67.328  1.00  0.00    -0.228 A  
HETATM    6  C   UNL     1      -7.976   2.545  68.286  1.00  0.00    -0.064 A  
HETATM    7  C   UNL     1      -9.383   3.447  66.104  1.00  0.00    -0.143 A  
HETATM    8  C   UNL     1      -7.796   1.930  67.046  1.00  0.00    -0.066 A  
HETATM    9  C   UNL     1      -8.850   3.636  68.439  1.00  0.00    -0.154 A  
HETATM   10  C   UNL     1      -8.497   2.376  65.928  1.00  0.00    -0.100 A  
ENDROOT
BRANCH   4  11
HETATM   11  C   UNL     1     -10.781   6.465  67.675  1.00  0.00    -0.311 C  
HETATM   12  H   UNL     1     -11.452   7.678  69.000  1.00  0.00     0.000 HD 
HETATM   13  O   UNL     1     -10.685   7.534  67.047  1.00  0.00    -0.346 OA 
HETATM   14  N   UNL     1     -11.223   6.686  68.936  1.00  0.00    -0.238 N  
BRANCH  14  15
HETATM   15  C   UNL     1     -11.509   6.095  70.247  1.00  0.00    -0.287 C  
HETATM   16  C   UNL     1     -11.348   7.820  72.262  1.00  0.00    -0.321 C  
HETATM   17  C   UNL     1     -12.231   6.927  71.324  1.00  0.00    -0.427 C  
HETATM   18  C   UNL     1     -11.090   9.187  71.625  1.00  0.00    -0.445 C  
HETATM   19  C   UNL     1     -10.105   9.121  70.469  1.00  0.00    -0.288 C  
HETATM   20  C   UNL     1      -9.006   8.046  70.610  1.00  0.00    -0.148 C  
HETATM   21  C   UNL     1      -9.347   6.794  71.457  1.00  0.00    -0.153 C  
HETATM   22  N   UNL     1     -10.092   7.155  72.658  1.00  0.00    -0.177 NA 
HETATM   23  C   UNL     1     -10.147   5.646  70.804  1.00  0.00    -0.270 C  
HETATM   24  C   UNL     1      -9.263   7.912  73.604  1.00  0.00    -0.255 C  
ENDBRANCH  14  15
ENDBRANCH   4  11
TORSDOF 2
ENDMDL
MODEL      139
REMARK 921   NORMALIZED FREE ENERGY PREDICTED BY IDOCK:   -4.56 KCAL/MOL
REMARK 922        TOTAL FREE ENERGY PREDICTED BY IDOCK:   -5.81 KCAL/MOL
REMARK 923 INTER-LIGAND FREE ENERGY PREDICTED BY IDOCK:   -5.62 KCAL/MOL
REMARK 924 INTRA-LIGAND FREE ENERGY PREDICTED BY IDOCK:   -0.19 KCAL/MOL
REMARK 927      BINDING AFFINITY PREDICTED BY RF-SCORE:    0.00 PKD
ROOT
HETATM    1  C   UNL     1     -11.399  16.588  70.610  1.00  0.00    -0.041 C  
HETATM    2  N   UNL     1     -10.650  16.488  69.377  1.00  0.00    -0.315 NA 
HETATM    3  N   UNL     1     -10.487  15.292  68.820  1.00  0.00    -0.230 NA 
HETATM    4  C   UNL     1      -9.529  15.469  67.882  1.00  0.00    -0.201 A  
HETATM    5  C   UNL     1      -9.265  16.866  67.710  1.00  0.00    -0.230 A  
HETATM    6  C   UNL     1      -8.380  19.068  67.158  1.00  0.00    -0.296 A  
HETATM    7  C   UNL     1      -9.986  17.493  68.739  1.00  0.00    -0.342 A  
HETATM    8  C   UNL     1      -9.101  19.646  68.204  1.00  0.00    -0.392 A  
HETATM    9  C   UNL     1      -8.441  17.684  66.908  1.00  0.00    -0.261 A  
HETATM   10  C   UNL     1      -9.916  18.865  69.018  1.00  0.00    -0.365 A  
ENDROOT
BRANCH   4  11
HETATM   11  C   UNL     1      -8.871  14.241  67.430  1.00  0.00    -0.205 C  
HETATM   12  H   UNL     1      -8.595  12.379  67.064  1.00  0.00     0.000 HD 
HETATM   13  O   UNL     1      -7.665  14.265  67.126  1.00  0.00    -0.164 OA 
HETATM   14  N   UNL     1      -9.377  12.993  67.292  1.00  0.00    -0.212 N  
BRANCH  14  15
HETATM   15  C   UNL     1     -10.580  12.155  67.334  1.00  0.00    -0.226 C  
HETATM   16  C   UNL     1     -11.160  10.990  65.017  1.00  0.00     0.053 C  
HETATM   17  C   UNL     1     -10.648  10.866  66.493  1.00  0.00    -0.295 C  
HETATM   18  C   UNL     1     -10.010  11.340  64.071  1.00  0.00    -0.362 C  
HETATM   19  C   UNL     1      -9.545  12.781  64.217  1.00  0.00     0.311 C  
HETATM   20  C   UNL     1     -10.654  13.787  64.590  1.00  0.00    -0.443 C  
HETATM   21  C   UNL     1     -11.866  13.242  65.387  1.00  0.00    -0.359 C  
HETATM   22  N   UNL     1     -12.283  11.936  64.886  1.00  0.00    -0.264 NA 
HETATM   23  C   UNL     1     -11.740  13.076  66.916  1.00  0.00    -0.441 C  
HETATM   24  C   UNL     1     -12.858  12.031  63.538  1.00  0.00    -0.341 C  
ENDBRANCH  14  15
ENDBRANCH   4  11
TORSDOF 2
ENDMDL
MODEL      140
REMARK 921   NORMALIZED FREE ENERGY PREDICTED BY IDOCK:   -4.52 KCAL/MOL
REMARK 922        TOTAL FREE ENERGY PREDICTED BY IDOCK:   -5.77 KCAL/MOL
REMARK 923 INTER-LIGAND FREE ENERGY PREDICTED BY IDOCK:   -4.97 KCAL/MOL
REMARK 924 INTRA-LIGAND FREE ENERGY PREDICTED BY IDOCK:   -0.80 KCAL/MOL
REMARK 927      BINDING AFFINITY PREDICTED BY RF-SCORE:    0.00 PKD
ROOT
HETATM    1  C   UNL     1     -13.483   9.405  72.241  1.00  0.00    -0.465 C  
HETATM    2  N   UNL     1     -12.424   9.331  71.260  1.00  0.00    -0.318 NA 
HETATM    3  N   UNL     1     -11.742   8.197  71.135  1.00  0.00    -0.283 NA 
HETATM    4  C   UNL     1     -10.664   8.516  70.383  1.00  0.00    -0.228 A  
HETATM    5  C   UNL     1     -10.815   9.835  69.845  1.00  0.00    -0.306 A  
HETATM    6  C   UNL     1     -10.551  12.029  68.823  1.00  0.00    -0.237 A  
HETATM    7  C   UNL     1     -11.957  10.348  70.480  1.00  0.00    -0.334 A  
HETATM    8  C   UNL     1     -11.682  12.503  69.488  1.00  0.00    -0.375 A  
HETATM    9  C   UNL     1     -10.099  10.709  69.000  1.00  0.00    -0.226 A  
HETATM   10  C   UNL     1     -12.405  11.668  70.335  1.00  0.00    -0.373 A  
ENDROOT
BRANCH   4  11
HETATM   11  C   UNL     1      -9.553   7.564  70.459  1.00  0.00    -0.168 C  
HETATM   12  H   UNL     1      -8.074   6.480  69.900  1.00  0.00     0.000 HD 
HETATM   13  O   UNL     1      -9.397   6.880  71.485  1.00  0.00    -0.155 OA 
HETATM   14  N   UNL     1      -8.609   7.267  69.534  1.00  0.00    -0.134 N  
BRANCH  14  15
HETATM   15  C   UNL     1      -8.036   7.604  68.228  1.00  0.00    -0.123 C  
HETATM   16  C   UNL     1      -9.154   6.307  66.196  1.00  0.00    -0.138 C  
HETATM   17  C   UNL     1      -8.939   7.647  66.980  1.00  0.00    -0.148 C  
HETATM   18  C   UNL     1     -10.312   5.507  66.795  1.00  0.00    -0.321 C  
HETATM   19  C   UNL     1      -9.960   4.873  68.131  1.00  0.00    -0.171 C  
HETATM   20  C   UNL     1      -8.486   4.443  68.280  1.00  0.00    -0.101 C  
HETATM   21  C   UNL     1      -7.435   5.225  67.452  1.00  0.00    -0.084 C  
HETATM   22  N   UNL     1      -7.922   5.501  66.105  1.00  0.00    -0.104 NA 
HETATM   23  C   UNL     1      -6.916   6.576  67.989  1.00  0.00    -0.077 C  
HETATM   24  C   UNL     1      -8.043   4.273  65.309  1.00  0.00    -0.101 C  
ENDBRANCH  14  15
ENDBRANCH   4  11
TORSDOF 2
ENDMDL
MODEL      141
REMARK 921   NORMALIZED FREE ENERGY PREDICTED BY IDOCK:   -4.52 KCAL/MOL
REMARK 922        TOTAL FREE ENERGY PREDICTED BY IDOCK:   -5.77 KCAL/MOL
REMARK 923 INTER-LIGAND FREE ENERGY PREDICTED BY IDOCK:   -4.98 KCAL/MOL
REMARK 924 INTRA-LIGAND FREE ENERGY PREDICTED BY IDOCK:   -0.79 KCAL/MOL
REMARK 927      BINDING AFFINITY PREDICTED BY RF-SCORE:    0.00 PKD
ROOT
HETATM    1  C   UNL     1     -12.346  12.338  63.553  1.00  0.00    -0.565 C  
HETATM    2  N   UNL     1     -11.356  11.644  64.345  1.00  0.00    -0.297 NA 
HETATM    3  N   UNL     1     -11.551  11.523  65.654  1.00  0.00    -0.170 NA 
HETATM    4  C   UNL     1     -10.363  11.111  66.151  1.00  0.00    -0.250 A  
HETATM    5  C   UNL     1      -9.482  10.754  65.079  1.00  0.00    -0.286 A  
HETATM    6  C   UNL     1      -7.611  10.161  63.637  1.00  0.00    -0.139 A  
HETATM    7  C   UNL     1     -10.156  11.160  63.916  1.00  0.00    -0.348 A  
HETATM    8  C   UNL     1      -8.310  10.594  62.509  1.00  0.00    -0.242 A  
HETATM    9  C   UNL     1      -8.175  10.246  64.923  1.00  0.00    -0.157 A  
HETATM   10  C   UNL     1      -9.598  11.107  62.631  1.00  0.00    -0.271 A  
ENDROOT
BRANCH   4  11
HETATM   11  C   UNL     1     -10.189  11.314  67.591  1.00  0.00    -0.181 C  
HETATM   12  H   UNL     1      -9.561  11.041  69.382  1.00  0.00     0.000 HD 
HETATM   13  O   UNL     1     -10.934  12.104  68.196  1.00  0.00    -0.207 OA 
HETATM   14  N   UNL     1      -9.307  10.737  68.442  1.00  0.00    -0.160 N  
BRANCH  14  15
HETATM   15  C   UNL     1      -8.141   9.859  68.575  1.00  0.00    -0.101 C  
HETATM   16  C   UNL     1      -8.751   7.350  69.206  1.00  0.00    -0.137 C  
HETATM   17  C   UNL     1      -8.237   8.383  68.145  1.00  0.00    -0.124 C  
HETATM   18  C   UNL     1     -10.279   7.274  69.195  1.00  0.00    -0.197 C  
HETATM   19  C   UNL     1     -10.934   8.500  69.811  1.00  0.00    -0.131 C  
HETATM   20  C   UNL     1     -10.141   9.152  70.963  1.00  0.00    -0.373 C  
HETATM   21  C   UNL     1      -8.601   8.977  70.949  1.00  0.00    -0.215 C  
HETATM   22  N   UNL     1      -8.227   7.622  70.558  1.00  0.00    -0.119 NA 
HETATM   23  C   UNL     1      -7.751   9.912  70.062  1.00  0.00    -0.188 C  
HETATM   24  C   UNL     1      -8.609   6.638  71.579  1.00  0.00    -0.124 C  
ENDBRANCH  14  15
ENDBRANCH   4  11
TORSDOF 2
ENDMDL
MODEL      142
REMARK 921   NORMALIZED FREE ENERGY PREDICTED BY IDOCK:   -4.51 KCAL/MOL
REMARK 922        TOTAL FREE ENERGY PREDICTED BY IDOCK:   -5.76 KCAL/MOL
REMARK 923 INTER-LIGAND FREE ENERGY PREDICTED BY IDOCK:   -5.22 KCAL/MOL
REMARK 924 INTRA-LIGAND FREE ENERGY PREDICTED BY IDOCK:   -0.53 KCAL/MOL
REMARK 927      BINDING AFFINITY PREDICTED BY RF-SCORE:    0.00 PKD
ROOT
HETATM    1  C   UNL     1      -6.812  13.222  67.677  1.00  0.00    -0.163 C  
HETATM    2  N   UNL     1      -8.253  13.116  67.678  1.00  0.00    -0.161 NA 
HETATM    3  N   UNL     1      -8.824  12.129  68.361  1.00  0.00    -0.171 NA 
HETATM    4  C   UNL     1     -10.110  12.110  67.943  1.00  0.00    -0.197 A  
HETATM    5  C   UNL     1     -10.384  13.270  67.148  1.00  0.00    -0.248 A  
HETATM    6  C   UNL     1     -11.288  14.971  65.658  1.00  0.00    -0.297 A  
HETATM    7  C   UNL     1      -9.131  13.877  66.963  1.00  0.00    -0.250 A  
HETATM    8  C   UNL     1     -10.021  15.531  65.488  1.00  0.00    -0.377 A  
HETATM    9  C   UNL     1     -11.482  13.839  66.470  1.00  0.00    -0.364 A  
HETATM   10  C   UNL     1      -8.916  14.988  66.137  1.00  0.00    -0.158 A  
ENDROOT
BRANCH   4  11
HETATM   11  C   UNL     1     -10.832  10.865  68.216  1.00  0.00    -0.225 C  
HETATM   12  H   UNL     1     -11.342   9.238  69.092  1.00  0.00     0.000 HD 
HETATM   13  O   UNL     1     -11.598  10.396  67.355  1.00  0.00    -0.295 OA 
HETATM   14  N   UNL     1     -10.795  10.070  69.311  1.00  0.00    -0.221 N  
BRANCH  14  15
HETATM   15  C   UNL     1     -10.298   9.907  70.681  1.00  0.00    -0.187 C  
HETATM   16  C   UNL     1      -9.069   7.590  71.109  1.00  0.00    -0.147 C  
HETATM   17  C   UNL     1      -8.983   9.145  70.935  1.00  0.00    -0.298 C  
HETATM   18  C   UNL     1      -9.013   6.887  69.752  1.00  0.00    -0.141 C  
HETATM   19  C   UNL     1     -10.297   7.045  68.953  1.00  0.00    -0.198 C  
HETATM   20  C   UNL     1     -11.585   7.120  69.799  1.00  0.00    -0.038 C  
HETATM   21  C   UNL     1     -11.453   7.676  71.240  1.00  0.00    -0.269 C  
HETATM   22  N   UNL     1     -10.248   7.173  71.892  1.00  0.00    -0.190 NA 
HETATM   23  C   UNL     1     -11.429   9.205  71.451  1.00  0.00    -0.420 C  
HETATM   24  C   UNL     1     -10.337   5.732  72.158  1.00  0.00    -0.205 C  
ENDBRANCH  14  15
ENDBRANCH   4  11
TORSDOF 2
ENDMDL
MODEL      143
REMARK 921   NORMALIZED FREE ENERGY PREDICTED BY IDOCK:   -4.46 KCAL/MOL
REMARK 922        TOTAL FREE ENERGY PREDICTED BY IDOCK:   -5.71 KCAL/MOL
REMARK 923 INTER-LIGAND FREE ENERGY PREDICTED BY IDOCK:   -5.54 KCAL/MOL
REMARK 924 INTRA-LIGAND FREE ENERGY PREDICTED BY IDOCK:   -0.17 KCAL/MOL
REMARK 927      BINDING AFFINITY PREDICTED BY RF-SCORE:    0.00 PKD
ROOT
HETATM    1  C   UNL     1     -11.589  12.427  68.955  1.00  0.00    -0.311 C  
HETATM    2  N   UNL     1     -11.037  11.291  69.658  1.00  0.00    -0.236 NA 
HETATM    3  N   UNL     1      -9.819  10.868  69.339  1.00  0.00    -0.099 NA 
HETATM    4  C   UNL     1      -9.701   9.657  69.928  1.00  0.00    -0.231 A  
HETATM    5  C   UNL     1     -10.800   9.438  70.820  1.00  0.00    -0.372 A  
HETATM    6  C   UNL     1     -12.499   8.558  72.327  1.00  0.00    -0.448 A  
HETATM    7  C   UNL     1     -11.673  10.511  70.579  1.00  0.00    -0.350 A  
HETATM    8  C   UNL     1     -13.342   9.633  72.044  1.00  0.00    -0.547 A  
HETATM    9  C   UNL     1     -11.237   8.440  71.717  1.00  0.00    -0.360 A  
HETATM   10  C   UNL     1     -12.943  10.630  71.158  1.00  0.00    -0.483 A  
ENDROOT
BRANCH   4  11
HETATM   11  C   UNL     1      -8.639   8.805  69.387  1.00  0.00    -0.133 C  
HETATM   12  H   UNL     1      -7.244   8.192  68.223  1.00  0.00     0.000 HD 
HETATM   13  O   UNL     1      -8.475   7.660  69.842  1.00  0.00    -0.133 OA 
HETATM   14  N   UNL     1      -7.752   9.059  68.395  1.00  0.00    -0.097 N  
BRANCH  14  15
HETATM   15  C   UNL     1      -7.218  10.061  67.467  1.00  0.00    -0.089 C  
HETATM   16  C   UNL     1      -8.911  10.749  65.537  1.00  0.00    -0.190 C  
HETATM   17  C   UNL     1      -8.155  11.122  66.859  1.00  0.00    -0.150 C  
HETATM   18  C   UNL     1     -10.220  10.020  65.848  1.00  0.00    -0.275 C  
HETATM   19  C   UNL     1     -10.000   8.596  66.332  1.00  0.00    -0.331 C  
HETATM   20  C   UNL     1      -8.774   7.883  65.724  1.00  0.00    -0.163 C  
HETATM   21  C   UNL     1      -7.592   8.775  65.268  1.00  0.00    -0.091 C  
HETATM   22  N   UNL     1      -8.068   9.983  64.600  1.00  0.00    -0.150 NA 
HETATM   23  C   UNL     1      -6.573   9.261  66.322  1.00  0.00    -0.070 C  
HETATM   24  C   UNL     1      -8.697   9.676  63.310  1.00  0.00    -0.230 C  
ENDBRANCH  14  15
ENDBRANCH   4  11
TORSDOF 2
ENDMDL
MODEL      144
REMARK 921   NORMALIZED FREE ENERGY PREDICTED BY IDOCK:   -4.41 KCAL/MOL
REMARK 922        TOTAL FREE ENERGY PREDICTED BY IDOCK:   -5.65 KCAL/MOL
REMARK 923 INTER-LIGAND FREE ENERGY PREDICTED BY IDOCK:   -4.92 KCAL/MOL
REMARK 924 INTRA-LIGAND FREE ENERGY PREDICTED BY IDOCK:   -0.73 KCAL/MOL
REMARK 927      BINDING AFFINITY PREDICTED BY RF-SCORE:    0.00 PKD
ROOT
HETATM    1  C   UNL     1     -10.561  11.653  67.410  1.00  0.00    -0.220 C  
HETATM    2  N   UNL     1     -10.383  10.777  68.546  1.00  0.00    -0.176 NA 
HETATM    3  N   UNL     1      -9.274  10.051  68.630  1.00  0.00    -0.147 NA 
HETATM    4  C   UNL     1      -9.519   9.144  69.602  1.00  0.00    -0.172 A  
HETATM    5  C   UNL     1     -10.734   9.476  70.286  1.00  0.00    -0.315 A  
HETATM    6  C   UNL     1     -12.756   9.543  71.640  1.00  0.00    -0.478 A  
HETATM    7  C   UNL     1     -11.289  10.523  69.534  1.00  0.00    -0.278 A  
HETATM    8  C   UNL     1     -13.278  10.572  70.855  1.00  0.00    -0.281 A  
HETATM    9  C   UNL     1     -11.498   8.978  71.362  1.00  0.00    -0.400 A  
HETATM   10  C   UNL     1     -12.552  11.078  69.781  1.00  0.00    -0.151 A  
ENDROOT
BRANCH   4  11
HETATM   11  C   UNL     1      -8.638   7.974  69.595  1.00  0.00    -0.135 C  
HETATM   12  H   UNL     1      -8.088   6.137  69.623  1.00  0.00     0.000 HD 
HETATM   13  O   UNL     1      -7.412   8.125  69.736  1.00  0.00    -0.080 OA 
HETATM   14  N   UNL     1      -8.948   6.662  69.469  1.00  0.00    -0.138 N  
BRANCH  14  15
HETATM   15  C   UNL     1     -10.006   5.681  69.204  1.00  0.00    -0.183 C  
HETATM   16  C   UNL     1      -9.375   3.896  67.339  1.00  0.00    -0.191 C  
HETATM   17  C   UNL     1      -9.636   4.229  68.849  1.00  0.00    -0.227 C  
HETATM   18  C   UNL     1      -7.918   4.177  66.966  1.00  0.00    -0.097 C  
HETATM   19  C   UNL     1      -7.610   5.663  66.873  1.00  0.00    -0.096 C  
HETATM   20  C   UNL     1      -8.780   6.542  66.383  1.00  0.00    -0.142 C  
HETATM   21  C   UNL     1     -10.215   6.028  66.662  1.00  0.00    -0.189 C  
HETATM   22  N   UNL     1     -10.314   4.589  66.437  1.00  0.00    -0.224 NA 
HETATM   23  C   UNL     1     -10.839   6.272  68.053  1.00  0.00    -0.409 C  
HETATM   24  C   UNL     1     -10.170   4.251  65.016  1.00  0.00    -0.196 C  
ENDBRANCH  14  15
ENDBRANCH   4  11
TORSDOF 2
ENDMDL
MODEL      145
REMARK 921   NORMALIZED FREE ENERGY PREDICTED BY IDOCK:   -4.41 KCAL/MOL
REMARK 922        TOTAL FREE ENERGY PREDICTED BY IDOCK:   -5.64 KCAL/MOL
REMARK 923 INTER-LIGAND FREE ENERGY PREDICTED BY IDOCK:   -5.07 KCAL/MOL
REMARK 924 INTRA-LIGAND FREE ENERGY PREDICTED BY IDOCK:   -0.57 KCAL/MOL
REMARK 927      BINDING AFFINITY PREDICTED BY RF-SCORE:    0.00 PKD
ROOT
HETATM    1  C   UNL     1     -12.186  15.427  69.932  1.00  0.00    -0.334 C  
HETATM    2  N   UNL     1     -11.219  15.096  68.910  1.00  0.00    -0.267 NA 
HETATM    3  N   UNL     1     -10.852  13.828  68.759  1.00  0.00    -0.256 NA 
HETATM    4  C   UNL     1      -9.758  13.870  67.965  1.00  0.00    -0.226 A  
HETATM    5  C   UNL     1      -9.590  15.189  67.433  1.00  0.00    -0.208 A  
HETATM    6  C   UNL     1      -8.817  17.255  66.401  1.00  0.00    -0.278 A  
HETATM    7  C   UNL     1     -10.539  15.970  68.113  1.00  0.00    -0.286 A  
HETATM    8  C   UNL     1      -9.764  17.994  67.111  1.00  0.00    -0.297 A  
HETATM    9  C   UNL     1      -8.709  15.862  66.561  1.00  0.00    -0.350 A  
HETATM   10  C   UNL     1     -10.642  17.361  67.986  1.00  0.00    -0.389 A  
ENDROOT
BRANCH   4  11
HETATM   11  C   UNL     1      -8.923  12.667  67.997  1.00  0.00    -0.200 C  
HETATM   12  H   UNL     1      -8.399  10.836  67.775  1.00  0.00     0.000 HD 
HETATM   13  O   UNL     1      -7.842  12.683  68.611  1.00  0.00    -0.118 OA 
HETATM   14  N   UNL     1      -9.146  11.449  67.449  1.00  0.00    -0.158 N  
BRANCH  14  15
HETATM   15  C   UNL     1     -10.013  10.643  66.583  1.00  0.00    -0.212 C  
HETATM   16  C   UNL     1      -9.146   8.160  66.204  1.00  0.00    -0.183 C  
HETATM   17  C   UNL     1     -10.185   9.137  66.855  1.00  0.00    -0.336 C  
HETATM   18  C   UNL     1      -7.913   8.005  67.096  1.00  0.00    -0.113 C  
HETATM   19  C   UNL     1      -7.023   9.238  67.090  1.00  0.00    -0.085 C  
HETATM   20  C   UNL     1      -6.993  10.012  65.756  1.00  0.00    -0.112 C  
HETATM   21  C   UNL     1      -8.250   9.916  64.854  1.00  0.00    -0.146 C  
HETATM   22  N   UNL     1      -8.780   8.557  64.831  1.00  0.00    -0.113 NA 
HETATM   23  C   UNL     1      -9.459  10.826  65.159  1.00  0.00    -0.271 C  
HETATM   24  C   UNL     1      -7.873   7.632  64.140  1.00  0.00    -0.133 C  
ENDBRANCH  14  15
ENDBRANCH   4  11
TORSDOF 2
ENDMDL
MODEL      146
REMARK 921   NORMALIZED FREE ENERGY PREDICTED BY IDOCK:   -4.39 KCAL/MOL
REMARK 922        TOTAL FREE ENERGY PREDICTED BY IDOCK:   -5.63 KCAL/MOL
REMARK 923 INTER-LIGAND FREE ENERGY PREDICTED BY IDOCK:   -5.02 KCAL/MOL
REMARK 924 INTRA-LIGAND FREE ENERGY PREDICTED BY IDOCK:   -0.61 KCAL/MOL
REMARK 927      BINDING AFFINITY PREDICTED BY RF-SCORE:    0.00 PKD
ROOT
HETATM    1  C   UNL     1     -12.564  11.869  70.845  1.00  0.00    -0.266 C  
HETATM    2  N   UNL     1     -11.975  10.551  70.906  1.00  0.00    -0.357 NA 
HETATM    3  N   UNL     1     -10.705  10.397  70.546  1.00  0.00    -0.155 NA 
HETATM    4  C   UNL     1     -10.533   9.061  70.424  1.00  0.00    -0.213 A  
HETATM    5  C   UNL     1     -11.674   8.371  70.948  1.00  0.00    -0.269 A  
HETATM    6  C   UNL     1     -13.403   6.778  71.582  1.00  0.00    -0.209 A  
HETATM    7  C   UNL     1     -12.612   9.383  71.210  1.00  0.00    -0.325 A  
HETATM    8  C   UNL     1     -14.309   7.814  71.813  1.00  0.00    -0.594 A  
HETATM    9  C   UNL     1     -12.094   7.038  71.138  1.00  0.00    -0.412 A  
HETATM   10  C   UNL     1     -13.927   9.140  71.626  1.00  0.00    -0.345 A  
ENDROOT
BRANCH   4  11
HETATM   11  C   UNL     1      -9.367   8.657  69.636  1.00  0.00    -0.161 C  
HETATM   12  H   UNL     1      -8.339   7.897  68.207  1.00  0.00     0.000 HD 
HETATM   13  O   UNL     1      -8.231   8.726  70.137  1.00  0.00    -0.102 OA 
HETATM   14  N   UNL     1      -9.307   8.170  68.374  1.00  0.00    -0.135 N  
BRANCH  14  15
HETATM   15  C   UNL     1     -10.053   7.871  67.148  1.00  0.00    -0.258 C  
HETATM   16  C   UNL     1      -9.516   5.482  66.117  1.00  0.00    -0.151 C  
HETATM   17  C   UNL     1     -10.517   6.430  66.862  1.00  0.00    -0.340 C  
HETATM   18  C   UNL     1      -8.575   4.798  67.110  1.00  0.00    -0.104 C  
HETATM   19  C   UNL     1      -7.529   5.745  67.677  1.00  0.00    -0.078 C  
HETATM   20  C   UNL     1      -7.059   6.851  66.709  1.00  0.00    -0.075 C  
HETATM   21  C   UNL     1      -8.061   7.309  65.619  1.00  0.00    -0.133 C  
HETATM   22  N   UNL     1      -8.774   6.172  65.046  1.00  0.00    -0.011 NA 
HETATM   23  C   UNL     1      -9.152   8.335  65.991  1.00  0.00    -0.228 C  
HETATM   24  C   UNL     1      -7.881   5.313  64.258  1.00  0.00    -0.101 C  
ENDBRANCH  14  15
ENDBRANCH   4  11
TORSDOF 2
ENDMDL
MODEL      147
REMARK 921   NORMALIZED FREE ENERGY PREDICTED BY IDOCK:   -4.38 KCAL/MOL
REMARK 922        TOTAL FREE ENERGY PREDICTED BY IDOCK:   -5.62 KCAL/MOL
REMARK 923 INTER-LIGAND FREE ENERGY PREDICTED BY IDOCK:   -4.84 KCAL/MOL
REMARK 924 INTRA-LIGAND FREE ENERGY PREDICTED BY IDOCK:   -0.78 KCAL/MOL
REMARK 927      BINDING AFFINITY PREDICTED BY RF-SCORE:    0.00 PKD
ROOT
HETATM    1  C   UNL     1      -9.155   5.051  67.795  1.00  0.00    -0.114 C  
HETATM    2  N   UNL     1      -8.956   6.358  67.210  1.00  0.00    -0.107 NA 
HETATM    3  N   UNL     1      -9.329   7.433  67.897  1.00  0.00    -0.134 NA 
HETATM    4  C   UNL     1      -9.297   8.449  67.005  1.00  0.00    -0.159 A  
HETATM    5  C   UNL     1      -8.666   8.017  65.794  1.00  0.00    -0.175 A  
HETATM    6  C   UNL     1      -7.803   7.731  63.534  1.00  0.00    -0.129 A  
HETATM    7  C   UNL     1      -8.500   6.632  65.954  1.00  0.00    -0.144 A  
HETATM    8  C   UNL     1      -7.671   6.356  63.731  1.00  0.00    -0.111 A  
HETATM    9  C   UNL     1      -8.309   8.569  64.545  1.00  0.00    -0.138 A  
HETATM   10  C   UNL     1      -8.023   5.781  64.949  1.00  0.00    -0.123 A  
ENDROOT
BRANCH   4  11
HETATM   11  C   UNL     1     -10.063   9.636  67.391  1.00  0.00    -0.204 C  
HETATM   12  H   UNL     1     -10.528  11.484  67.607  1.00  0.00     0.000 HD 
HETATM   13  O   UNL     1     -11.046   9.517  68.143  1.00  0.00    -0.140 OA 
HETATM   14  N   UNL     1      -9.863  10.935  67.062  1.00  0.00    -0.179 N  
BRANCH  14  15
HETATM   15  C   UNL     1      -9.091  11.880  66.250  1.00  0.00    -0.188 C  
HETATM   16  C   UNL     1      -9.943  14.391  66.420  1.00  0.00    -0.294 C  
HETATM   17  C   UNL     1      -8.854  13.315  66.758  1.00  0.00    -0.140 C  
HETATM   18  C   UNL     1     -11.055  14.387  67.471  1.00  0.00    -0.312 C  
HETATM   19  C   UNL     1     -11.966  13.174  67.359  1.00  0.00    -0.379 C  
HETATM   20  C   UNL     1     -12.174  12.647  65.924  1.00  0.00    -0.375 C  
HETATM   21  C   UNL     1     -11.034  12.900  64.905  1.00  0.00    -0.301 C  
HETATM   22  N   UNL     1     -10.481  14.243  65.055  1.00  0.00    -0.414 NA 
HETATM   23  C   UNL     1      -9.816  11.951  64.895  1.00  0.00    -0.224 C  
HETATM   24  C   UNL     1     -11.445  15.274  64.654  1.00  0.00    -0.354 C  
ENDBRANCH  14  15
ENDBRANCH   4  11
TORSDOF 2
ENDMDL
MODEL      148
REMARK 921   NORMALIZED FREE ENERGY PREDICTED BY IDOCK:   -4.37 KCAL/MOL
REMARK 922        TOTAL FREE ENERGY PREDICTED BY IDOCK:   -5.60 KCAL/MOL
REMARK 923 INTER-LIGAND FREE ENERGY PREDICTED BY IDOCK:   -4.81 KCAL/MOL
REMARK 924 INTRA-LIGAND FREE ENERGY PREDICTED BY IDOCK:   -0.79 KCAL/MOL
REMARK 927      BINDING AFFINITY PREDICTED BY RF-SCORE:    0.00 PKD
ROOT
HETATM    1  C   UNL     1      -9.798   6.869  66.736  1.00  0.00    -0.181 C  
HETATM    2  N   UNL     1      -9.368   8.247  66.676  1.00  0.00    -0.178 NA 
HETATM    3  N   UNL     1     -10.228   9.171  66.261  1.00  0.00    -0.248 NA 
HETATM    4  C   UNL     1      -9.477  10.273  66.033  1.00  0.00    -0.185 A  
HETATM    5  C   UNL     1      -8.153  10.077  66.543  1.00  0.00    -0.119 A  
HETATM    6  C   UNL     1      -5.788  10.176  67.117  1.00  0.00    -0.050 A  
HETATM    7  C   UNL     1      -8.112   8.724  66.914  1.00  0.00    -0.101 A  
HETATM    8  C   UNL     1      -5.788   8.823  67.457  1.00  0.00    -0.043 A  
HETATM    9  C   UNL     1      -6.953  10.811  66.648  1.00  0.00    -0.129 A  
HETATM   10  C   UNL     1      -6.955   8.070  67.357  1.00  0.00    -0.075 A  
ENDROOT
BRANCH   4  11
HETATM   11  C   UNL     1     -10.103  11.282  65.176  1.00  0.00    -0.275 C  
HETATM   12  H   UNL     1     -10.665  13.001  64.538  1.00  0.00     0.000 HD 
HETATM   13  O   UNL     1     -10.865  10.926  64.260  1.00  0.00    -0.309 OA 
HETATM   14  N   UNL     1     -10.002  12.632  65.219  1.00  0.00    -0.239 N  
BRANCH  14  15
HETATM   15  C   UNL     1      -9.337  13.784  65.836  1.00  0.00     0.062 C  
HETATM   16  C   UNL     1     -10.048  14.210  68.361  1.00  0.00    -0.238 C  
HETATM   17  C   UNL     1      -8.963  13.746  67.330  1.00  0.00    -0.227 C  
HETATM   18  C   UNL     1     -10.970  13.050  68.739  1.00  0.00    -0.295 C  
HETATM   19  C   UNL     1     -11.935  12.677  67.624  1.00  0.00    -0.309 C  
HETATM   20  C   UNL     1     -12.398  13.856  66.743  1.00  0.00    -0.370 C  
HETATM   21  C   UNL     1     -11.433  15.061  66.610  1.00  0.00    -0.251 C  
HETATM   22  N   UNL     1     -10.810  15.382  67.890  1.00  0.00    -0.290 NA 
HETATM   23  C   UNL     1     -10.273  14.980  65.595  1.00  0.00    -0.386 C  
HETATM   24  C   UNL     1     -11.785  15.913  68.850  1.00  0.00    -0.370 C  
ENDBRANCH  14  15
ENDBRANCH   4  11
TORSDOF 2
ENDMDL
MODEL      149
REMARK 921   NORMALIZED FREE ENERGY PREDICTED BY IDOCK:   -4.34 KCAL/MOL
REMARK 922        TOTAL FREE ENERGY PREDICTED BY IDOCK:   -5.58 KCAL/MOL
REMARK 923 INTER-LIGAND FREE ENERGY PREDICTED BY IDOCK:   -4.81 KCAL/MOL
REMARK 924 INTRA-LIGAND FREE ENERGY PREDICTED BY IDOCK:   -0.76 KCAL/MOL
REMARK 927      BINDING AFFINITY PREDICTED BY RF-SCORE:    0.00 PKD
ROOT
HETATM    1  C   UNL     1      -9.874  10.856  64.184  1.00  0.00    -0.314 C  
HETATM    2  N   UNL     1      -9.641   9.843  65.188  1.00  0.00    -0.284 NA 
HETATM    3  N   UNL     1     -10.333   9.890  66.321  1.00  0.00    -0.202 NA 
HETATM    4  C   UNL     1      -9.707   9.027  67.153  1.00  0.00    -0.181 A  
HETATM    5  C   UNL     1      -8.737   8.263  66.425  1.00  0.00    -0.162 A  
HETATM    6  C   UNL     1      -6.912   6.835  65.676  1.00  0.00    -0.063 A  
HETATM    7  C   UNL     1      -8.695   8.860  65.156  1.00  0.00    -0.178 A  
HETATM    8  C   UNL     1      -6.893   7.469  64.433  1.00  0.00    -0.054 A  
HETATM    9  C   UNL     1      -7.814   7.228  66.682  1.00  0.00    -0.102 A  
HETATM   10  C   UNL     1      -7.786   8.500  64.153  1.00  0.00    -0.135 A  
ENDROOT
BRANCH   4  11
HETATM   11  C   UNL     1     -10.005   9.210  68.575  1.00  0.00    -0.174 C  
HETATM   12  H   UNL     1     -10.766   8.897  70.307  1.00  0.00     0.000 HD 
HETATM   13  O   UNL     1      -9.663  10.260  69.147  1.00  0.00    -0.195 OA 
HETATM   14  N   UNL     1     -10.649   8.384  69.434  1.00  0.00    -0.219 N  
BRANCH  14  15
HETATM   15  C   UNL     1     -11.250   7.061  69.631  1.00  0.00    -0.182 C  
HETATM   16  C   UNL     1     -11.380   6.307  72.175  1.00  0.00    -0.297 C  
HETATM   17  C   UNL     1     -12.114   6.787  70.876  1.00  0.00    -0.421 C  
HETATM   18  C   UNL     1     -10.887   7.503  72.993  1.00  0.00    -0.445 C  
HETATM   19  C   UNL     1      -9.690   8.195  72.361  1.00  0.00    -0.338 C  
HETATM   20  C   UNL     1      -8.733   7.263  71.587  1.00  0.00    -0.122 C  
HETATM   21  C   UNL     1      -9.342   5.976  70.975  1.00  0.00    -0.161 C  
HETATM   22  N   UNL     1     -10.292   5.353  71.891  1.00  0.00    -0.207 NA 
HETATM   23  C   UNL     1     -10.075   6.068  69.619  1.00  0.00    -0.244 C  
HETATM   24  C   UNL     1      -9.622   4.806  73.077  1.00  0.00    -0.132 C  
ENDBRANCH  14  15
ENDBRANCH   4  11
TORSDOF 2
ENDMDL
MODEL      150
REMARK 921   NORMALIZED FREE ENERGY PREDICTED BY IDOCK:   -4.34 KCAL/MOL
REMARK 922        TOTAL FREE ENERGY PREDICTED BY IDOCK:   -5.57 KCAL/MOL
REMARK 923 INTER-LIGAND FREE ENERGY PREDICTED BY IDOCK:   -4.80 KCAL/MOL
REMARK 924 INTRA-LIGAND FREE ENERGY PREDICTED BY IDOCK:   -0.77 KCAL/MOL
REMARK 927      BINDING AFFINITY PREDICTED BY RF-SCORE:    0.00 PKD
ROOT
HETATM    1  C   UNL     1      -6.833   8.245  64.557  1.00  0.00    -0.068 C  
HETATM    2  N   UNL     1      -7.983   7.776  65.297  1.00  0.00    -0.120 NA 
HETATM    3  N   UNL     1      -8.538   8.578  66.199  1.00  0.00    -0.130 NA 
HETATM    4  C   UNL     1      -9.369   7.785  66.911  1.00  0.00    -0.169 A  
HETATM    5  C   UNL     1      -9.492   6.507  66.274  1.00  0.00    -0.126 A  
HETATM    6  C   UNL     1      -9.916   4.190  65.658  1.00  0.00    -0.205 A  
HETATM    7  C   UNL     1      -8.534   6.529  65.248  1.00  0.00    -0.087 A  
HETATM    8  C   UNL     1      -8.942   4.250  64.661  1.00  0.00    -0.146 A  
HETATM    9  C   UNL     1     -10.192   5.300  66.478  1.00  0.00    -0.293 A  
HETATM   10  C   UNL     1      -8.229   5.425  64.441  1.00  0.00    -0.133 A  
ENDROOT
BRANCH   4  11
HETATM   11  C   UNL     1      -9.769   8.319  68.215  1.00  0.00    -0.158 C  
HETATM   12  H   UNL     1     -10.682   8.464  69.895  1.00  0.00     0.000 HD 
HETATM   13  O   UNL     1      -9.413   9.463  68.548  1.00  0.00    -0.144 OA 
HETATM   14  N   UNL     1     -10.526   7.751  69.184  1.00  0.00    -0.219 N  
BRANCH  14  15
HETATM   15  C   UNL     1     -11.216   6.538  69.635  1.00  0.00    -0.384 C  
HETATM   16  C   UNL     1     -11.918   6.592  72.198  1.00  0.00    -0.290 C  
HETATM   17  C   UNL     1     -12.336   6.638  70.688  1.00  0.00    -0.161 C  
HETATM   18  C   UNL     1     -11.554   7.989  72.704  1.00  0.00    -0.448 C  
HETATM   19  C   UNL     1     -10.218   8.480  72.167  1.00  0.00    -0.403 C  
HETATM   20  C   UNL     1      -9.164   7.377  71.935  1.00  0.00    -0.151 C  
HETATM   21  C   UNL     1      -9.689   5.952  71.622  1.00  0.00    -0.160 C  
HETATM   22  N   UNL     1     -10.840   5.619  72.456  1.00  0.00    -0.237 NA 
HETATM   23  C   UNL     1     -10.113   5.613  70.178  1.00  0.00    -0.293 C  
HETATM   24  C   UNL     1     -10.463   5.472  73.867  1.00  0.00    -0.279 C  
ENDBRANCH  14  15
ENDBRANCH   4  11
TORSDOF 2
ENDMDL
MODEL      151
REMARK 921   NORMALIZED FREE ENERGY PREDICTED BY IDOCK:   -4.32 KCAL/MOL
REMARK 922        TOTAL FREE ENERGY PREDICTED BY IDOCK:   -5.55 KCAL/MOL
REMARK 923 INTER-LIGAND FREE ENERGY PREDICTED BY IDOCK:   -4.77 KCAL/MOL
REMARK 924 INTRA-LIGAND FREE ENERGY PREDICTED BY IDOCK:   -0.78 KCAL/MOL
REMARK 927      BINDING AFFINITY PREDICTED BY RF-SCORE:    0.00 PKD
ROOT
HETATM    1  C   UNL     1      -6.030  11.111  68.407  1.00  0.00    -0.045 C  
HETATM    2  N   UNL     1      -7.428  11.033  68.049  1.00  0.00    -0.088 NA 
HETATM    3  N   UNL     1      -8.343  11.184  69.001  1.00  0.00    -0.100 NA 
HETATM    4  C   UNL     1      -9.504  10.776  68.440  1.00  0.00    -0.174 A  
HETATM    5  C   UNL     1      -9.327  10.585  67.031  1.00  0.00    -0.176 A  
HETATM    6  C   UNL     1      -9.492  10.005  64.671  1.00  0.00    -0.367 A  
HETATM    7  C   UNL     1      -7.944  10.720  66.826  1.00  0.00    -0.138 A  
HETATM    8  C   UNL     1      -8.111  10.133  64.517  1.00  0.00    -0.160 A  
HETATM    9  C   UNL     1     -10.110  10.214  65.918  1.00  0.00    -0.325 A  
HETATM   10  C   UNL     1      -7.310  10.491  65.598  1.00  0.00    -0.126 A  
ENDROOT
BRANCH   4  11
HETATM   11  C   UNL     1     -10.567  10.441  69.389  1.00  0.00    -0.239 C  
HETATM   12  H   UNL     1     -11.467   9.591  70.854  1.00  0.00     0.000 HD 
HETATM   13  O   UNL     1     -11.725  10.849  69.189  1.00  0.00    -0.292 OA 
HETATM   14  N   UNL     1     -10.510   9.697  70.520  1.00  0.00    -0.284 N  
BRANCH  14  15
HETATM   15  C   UNL     1      -9.646   8.979  71.462  1.00  0.00    -0.270 C  
HETATM   16  C   UNL     1      -8.753   6.651  70.544  1.00  0.00    -0.144 C  
HETATM   17  C   UNL     1      -8.465   8.141  70.937  1.00  0.00    -0.136 C  
HETATM   18  C   UNL     1      -9.240   6.555  69.097  1.00  0.00    -0.135 C  
HETATM   19  C   UNL     1     -10.664   7.061  68.921  1.00  0.00    -0.227 C  
HETATM   20  C   UNL     1     -11.593   6.826  70.131  1.00  0.00    -0.397 C  
HETATM   21  C   UNL     1     -10.928   6.748  71.528  1.00  0.00    -0.240 C  
HETATM   22  N   UNL     1      -9.682   5.989  71.479  1.00  0.00    -0.163 NA 
HETATM   23  C   UNL     1     -10.582   8.060  72.265  1.00  0.00    -0.356 C  
HETATM   24  C   UNL     1      -9.924   4.567  71.208  1.00  0.00    -0.188 C  
ENDBRANCH  14  15
ENDBRANCH   4  11
TORSDOF 2
ENDMDL
MODEL      152
REMARK 921   NORMALIZED FREE ENERGY PREDICTED BY IDOCK:   -4.29 KCAL/MOL
REMARK 922        TOTAL FREE ENERGY PREDICTED BY IDOCK:   -5.52 KCAL/MOL
REMARK 923 INTER-LIGAND FREE ENERGY PREDICTED BY IDOCK:   -4.85 KCAL/MOL
REMARK 924 INTRA-LIGAND FREE ENERGY PREDICTED BY IDOCK:   -0.66 KCAL/MOL
REMARK 927      BINDING AFFINITY PREDICTED BY RF-SCORE:    0.00 PKD
ROOT
HETATM    1  C   UNL     1     -10.795  15.355  64.788  1.00  0.00    -0.364 C  
HETATM    2  N   UNL     1     -10.421  15.046  66.149  1.00  0.00    -0.293 NA 
HETATM    3  N   UNL     1     -10.226  13.777  66.490  1.00  0.00    -0.278 NA 
HETATM    4  C   UNL     1     -10.185  13.777  67.842  1.00  0.00    -0.245 A  
HETATM    5  C   UNL     1     -10.127  15.123  68.329  1.00  0.00    -0.223 A  
HETATM    6  C   UNL     1     -10.151  17.185  69.626  1.00  0.00     0.098 A  
HETATM    7  C   UNL     1     -10.329  15.921  67.192  1.00  0.00    -0.300 A  
HETATM    8  C   UNL     1     -10.369  17.938  68.471  1.00  0.00    -0.365 A  
HETATM    9  C   UNL     1     -10.041  15.783  69.573  1.00  0.00    -0.279 A  
HETATM   10  C   UNL     1     -10.467  17.315  67.230  1.00  0.00    -0.319 A  
ENDROOT
BRANCH   4  11
HETATM   11  C   UNL     1     -10.408  12.473  68.469  1.00  0.00    -0.222 C  
HETATM   12  H   UNL     1     -10.133  10.635  68.943  1.00  0.00     0.000 HD 
HETATM   13  O   UNL     1     -11.487  12.241  69.043  1.00  0.00    -0.254 OA 
HETATM   14  N   UNL     1      -9.594  11.392  68.522  1.00  0.00    -0.190 N  
BRANCH  14  15
HETATM   15  C   UNL     1      -8.262  10.856  68.227  1.00  0.00    -0.127 C  
HETATM   16  C   UNL     1      -7.934  10.123  65.694  1.00  0.00    -0.147 C  
HETATM   17  C   UNL     1      -7.612  11.124  66.857  1.00  0.00    -0.145 C  
HETATM   18  C   UNL     1      -9.219  10.527  64.971  1.00  0.00    -0.245 C  
HETATM   19  C   UNL     1     -10.469  10.250  65.792  1.00  0.00    -0.159 C  
HETATM   20  C   UNL     1     -10.383   9.013  66.711  1.00  0.00    -0.310 C  
HETATM   21  C   UNL     1      -8.977   8.601  67.213  1.00  0.00    -0.133 C  
HETATM   22  N   UNL     1      -7.981   8.721  66.152  1.00  0.00    -0.101 NA 
HETATM   23  C   UNL     1      -8.373   9.335  68.429  1.00  0.00    -0.119 C  
HETATM   24  C   UNL     1      -8.197   7.730  65.091  1.00  0.00    -0.132 C  
ENDBRANCH  14  15
ENDBRANCH   4  11
TORSDOF 2
ENDMDL
MODEL      153
REMARK 921   NORMALIZED FREE ENERGY PREDICTED BY IDOCK:   -4.29 KCAL/MOL
REMARK 922        TOTAL FREE ENERGY PREDICTED BY IDOCK:   -5.51 KCAL/MOL
REMARK 923 INTER-LIGAND FREE ENERGY PREDICTED BY IDOCK:   -4.83 KCAL/MOL
REMARK 924 INTRA-LIGAND FREE ENERGY PREDICTED BY IDOCK:   -0.68 KCAL/MOL
REMARK 927      BINDING AFFINITY PREDICTED BY RF-SCORE:    0.00 PKD
ROOT
HETATM    1  C   UNL     1     -13.334   7.444  71.825  1.00  0.00    -0.312 C  
HETATM    2  N   UNL     1     -12.143   6.919  71.196  1.00  0.00    -0.366 NA 
HETATM    3  N   UNL     1     -11.785   7.387  70.005  1.00  0.00    -0.006 NA 
HETATM    4  C   UNL     1     -10.844   6.526  69.556  1.00  0.00    -0.304 A  
HETATM    5  C   UNL     1     -10.456   5.634  70.607  1.00  0.00    -0.340 A  
HETATM    6  C   UNL     1      -9.574   3.838  71.997  1.00  0.00    -0.213 A  
HETATM    7  C   UNL     1     -11.362   5.895  71.648  1.00  0.00    -0.207 A  
HETATM    8  C   UNL     1     -10.504   4.121  72.997  1.00  0.00    -0.247 A  
HETATM    9  C   UNL     1      -9.546   4.573  70.797  1.00  0.00    -0.253 A  
HETATM   10  C   UNL     1     -11.421   5.157  72.837  1.00  0.00    -0.329 A  
ENDROOT
BRANCH   4  11
HETATM   11  C   UNL     1     -10.602   6.570  68.112  1.00  0.00    -0.251 C  
HETATM   12  H   UNL     1     -10.349   7.290  66.353  1.00  0.00     0.000 HD 
HETATM   13  O   UNL     1     -10.631   5.518  67.450  1.00  0.00    -0.232 OA 
HETATM   14  N   UNL     1     -10.351   7.634  67.313  1.00  0.00    -0.267 N  
BRANCH  14  15
HETATM   15  C   UNL     1     -10.081   9.074  67.251  1.00  0.00    -0.234 C  
HETATM   16  C   UNL     1      -8.389   9.770  65.324  1.00  0.00    -0.142 C  
HETATM   17  C   UNL     1      -9.851   9.756  65.889  1.00  0.00    -0.352 C  
HETATM   18  C   UNL     1      -8.098   8.490  64.539  1.00  0.00    -0.158 C  
HETATM   19  C   UNL     1      -7.927   7.275  65.437  1.00  0.00    -0.125 C  
HETATM   20  C   UNL     1      -7.299   7.568  66.816  1.00  0.00    -0.092 C  
HETATM   21  C   UNL     1      -7.514   8.985  67.404  1.00  0.00    -0.085 C  
HETATM   22  N   UNL     1      -7.380  10.010  66.373  1.00  0.00    -0.100 NA 
HETATM   23  C   UNL     1      -8.839   9.300  68.130  1.00  0.00    -0.129 C  
HETATM   24  C   UNL     1      -5.998  10.117  65.890  1.00  0.00    -0.084 C  
ENDBRANCH  14  15
ENDBRANCH   4  11
TORSDOF 2
ENDMDL
MODEL      154
REMARK 921   NORMALIZED FREE ENERGY PREDICTED BY IDOCK:   -4.28 KCAL/MOL
REMARK 922        TOTAL FREE ENERGY PREDICTED BY IDOCK:   -5.50 KCAL/MOL
REMARK 923 INTER-LIGAND FREE ENERGY PREDICTED BY IDOCK:   -4.79 KCAL/MOL
REMARK 924 INTRA-LIGAND FREE ENERGY PREDICTED BY IDOCK:   -0.71 KCAL/MOL
REMARK 927      BINDING AFFINITY PREDICTED BY RF-SCORE:    0.00 PKD
ROOT
HETATM    1  C   UNL     1     -13.185  11.307  71.839  1.00  0.00    -0.386 C  
HETATM    2  N   UNL     1     -12.429  11.458  70.616  1.00  0.00    -0.340 NA 
HETATM    3  N   UNL     1     -11.909  10.377  70.045  1.00  0.00    -0.276 NA 
HETATM    4  C   UNL     1     -11.039  10.849  69.123  1.00  0.00    -0.245 A  
HETATM    5  C   UNL     1     -11.205  12.265  68.975  1.00  0.00    -0.319 A  
HETATM    6  C   UNL     1     -11.018  14.639  68.467  1.00  0.00    -0.261 A  
HETATM    7  C   UNL     1     -12.091  12.628  70.001  1.00  0.00    -0.269 A  
HETATM    8  C   UNL     1     -11.889  14.957  69.510  1.00  0.00    -0.360 A  
HETATM    9  C   UNL     1     -10.658  13.306  68.197  1.00  0.00    -0.259 A  
HETATM   10  C   UNL     1     -12.440  13.951  70.301  1.00  0.00    -0.380 A  
ENDROOT
BRANCH   4  11
HETATM   11  C   UNL     1     -10.038   9.885  68.664  1.00  0.00    -0.175 C  
HETATM   12  H   UNL     1      -8.880   8.923  67.476  1.00  0.00     0.000 HD 
HETATM   13  O   UNL     1      -9.650   8.987  69.432  1.00  0.00    -0.156 OA 
HETATM   14  N   UNL     1      -9.430   9.781  67.458  1.00  0.00    -0.146 N  
BRANCH  14  15
HETATM   15  C   UNL     1      -9.233  10.389  66.138  1.00  0.00    -0.168 C  
HETATM   16  C   UNL     1      -7.909   8.843  64.430  1.00  0.00    -0.128 C  
HETATM   17  C   UNL     1      -9.257   9.508  64.875  1.00  0.00    -0.284 C  
HETATM   18  C   UNL     1      -7.698   7.509  65.147  1.00  0.00    -0.111 C  
HETATM   19  C   UNL     1      -7.333   7.680  66.614  1.00  0.00    -0.088 C  
HETATM   20  C   UNL     1      -6.501   8.939  66.934  1.00  0.00    -0.060 C  
HETATM   21  C   UNL     1      -6.673  10.159  65.994  1.00  0.00    -0.106 C  
HETATM   22  N   UNL     1      -6.753   9.743  64.598  1.00  0.00    -0.106 NA 
HETATM   23  C   UNL     1      -7.874  11.105  66.212  1.00  0.00    -0.109 C  
HETATM   24  C   UNL     1      -5.474   9.204  64.119  1.00  0.00    -0.060 C  
ENDBRANCH  14  15
ENDBRANCH   4  11
TORSDOF 2
ENDMDL
MODEL      155
REMARK 921   NORMALIZED FREE ENERGY PREDICTED BY IDOCK:   -4.28 KCAL/MOL
REMARK 922        TOTAL FREE ENERGY PREDICTED BY IDOCK:   -5.50 KCAL/MOL
REMARK 923 INTER-LIGAND FREE ENERGY PREDICTED BY IDOCK:   -4.88 KCAL/MOL
REMARK 924 INTRA-LIGAND FREE ENERGY PREDICTED BY IDOCK:   -0.62 KCAL/MOL
REMARK 927      BINDING AFFINITY PREDICTED BY RF-SCORE:    0.00 PKD
ROOT
HETATM    1  C   UNL     1     -12.055  12.975  63.877  1.00  0.00    -0.471 C  
HETATM    2  N   UNL     1     -11.069  13.343  64.867  1.00  0.00    -0.320 NA 
HETATM    3  N   UNL     1     -10.541  12.394  65.633  1.00  0.00    -0.258 NA 
HETATM    4  C   UNL     1      -9.902  13.056  66.625  1.00  0.00    -0.252 A  
HETATM    5  C   UNL     1      -9.850  14.455  66.324  1.00  0.00    -0.321 A  
HETATM    6  C   UNL     1      -9.623  16.880  66.328  1.00  0.00    -0.300 A  
HETATM    7  C   UNL     1     -10.663  14.606  65.190  1.00  0.00    -0.414 A  
HETATM    8  C   UNL     1     -10.452  16.985  65.210  1.00  0.00    -0.056 A  
HETATM    9  C   UNL     1      -9.326  15.631  66.902  1.00  0.00    -0.252 A  
HETATM   10  C   UNL     1     -10.991  15.844  64.622  1.00  0.00    -0.323 A  
ENDROOT
BRANCH   4  11
HETATM   11  C   UNL     1      -9.610  12.255  67.815  1.00  0.00    -0.200 C  
HETATM   12  H   UNL     1      -8.895  10.848  68.904  1.00  0.00     0.000 HD 
HETATM   13  O   UNL     1     -10.218  12.482  68.876  1.00  0.00    -0.131 OA 
HETATM   14  N   UNL     1      -8.742  11.226  67.970  1.00  0.00    -0.139 N  
BRANCH  14  15
HETATM   15  C   UNL     1      -7.676  10.430  67.355  1.00  0.00    -0.095 C  
HETATM   16  C   UNL     1      -8.500   8.099  66.380  1.00  0.00    -0.130 C  
HETATM   17  C   UNL     1      -7.982   9.556  66.123  1.00  0.00    -0.107 C  
HETATM   18  C   UNL     1     -10.020   8.086  66.553  1.00  0.00    -0.283 C  
HETATM   19  C   UNL     1     -10.466   8.667  67.885  1.00  0.00    -0.269 C  
HETATM   20  C   UNL     1      -9.492   8.430  69.058  1.00  0.00    -0.151 C  
HETATM   21  C   UNL     1      -7.991   8.264  68.709  1.00  0.00    -0.114 C  
HETATM   22  N   UNL     1      -7.815   7.447  67.512  1.00  0.00    -0.111 NA 
HETATM   23  C   UNL     1      -7.135   9.527  68.476  1.00  0.00    -0.070 C  
HETATM   24  C   UNL     1      -8.201   6.050  67.747  1.00  0.00    -0.112 C  
ENDBRANCH  14  15
ENDBRANCH   4  11
TORSDOF 2
ENDMDL
MODEL      156
REMARK 921   NORMALIZED FREE ENERGY PREDICTED BY IDOCK:   -4.26 KCAL/MOL
REMARK 922        TOTAL FREE ENERGY PREDICTED BY IDOCK:   -5.49 KCAL/MOL
REMARK 923 INTER-LIGAND FREE ENERGY PREDICTED BY IDOCK:   -4.86 KCAL/MOL
REMARK 924 INTRA-LIGAND FREE ENERGY PREDICTED BY IDOCK:   -0.63 KCAL/MOL
REMARK 927      BINDING AFFINITY PREDICTED BY RF-SCORE:    0.00 PKD
ROOT
HETATM    1  C   UNL     1      -5.518   9.517  65.815  1.00  0.00    -0.040 C  
HETATM    2  N   UNL     1      -6.775  10.196  65.594  1.00  0.00    -0.109 NA 
HETATM    3  N   UNL     1      -7.268  10.964  66.560  1.00  0.00    -0.137 NA 
HETATM    4  C   UNL     1      -8.546  11.213  66.194  1.00  0.00    -0.172 A  
HETATM    5  C   UNL     1      -8.766  10.768  64.850  1.00  0.00    -0.135 A  
HETATM    6  C   UNL     1      -9.655  10.073  62.692  1.00  0.00    -0.122 A  
HETATM    7  C   UNL     1      -7.596  10.069  64.512  1.00  0.00    -0.142 A  
HETATM    8  C   UNL     1      -8.481   9.375  62.405  1.00  0.00    -0.201 A  
HETATM    9  C   UNL     1      -9.817  10.759  63.909  1.00  0.00    -0.389 A  
HETATM   10  C   UNL     1      -7.428   9.359  63.316  1.00  0.00    -0.105 A  
ENDROOT
BRANCH   4  11
HETATM   11  C   UNL     1      -9.423  11.668  67.275  1.00  0.00    -0.168 C  
HETATM   12  H   UNL     1     -10.039  12.674  68.787  1.00  0.00     0.000 HD 
HETATM   13  O   UNL     1     -10.440  11.013  67.562  1.00  0.00    -0.190 OA 
HETATM   14  N   UNL     1      -9.302  12.746  68.087  1.00  0.00    -0.211 N  
BRANCH  14  15
HETATM   15  C   UNL     1      -8.553  13.973  68.378  1.00  0.00    -0.174 C  
HETATM   16  C   UNL     1     -10.070  16.150  68.522  1.00  0.00    -0.241 C  
HETATM   17  C   UNL     1      -9.190  15.074  69.246  1.00  0.00    -0.159 C  
HETATM   18  C   UNL     1     -11.514  15.666  68.382  1.00  0.00    -0.374 C  
HETATM   19  C   UNL     1     -11.671  14.576  67.333  1.00  0.00    -0.425 C  
HETATM   20  C   UNL     1     -10.708  14.686  66.131  1.00  0.00    -0.314 C  
HETATM   21  C   UNL     1      -9.347  15.384  66.377  1.00  0.00    -0.299 C  
HETATM   22  N   UNL     1      -9.503  16.563  67.224  1.00  0.00    -0.232 NA 
HETATM   23  C   UNL     1      -8.195  14.573  67.008  1.00  0.00    -0.164 C  
HETATM   24  C   UNL     1     -10.242  17.630  66.538  1.00  0.00    -0.355 C  
ENDBRANCH  14  15
ENDBRANCH   4  11
TORSDOF 2
ENDMDL
MODEL      157
REMARK 921   NORMALIZED FREE ENERGY PREDICTED BY IDOCK:   -4.26 KCAL/MOL
REMARK 922        TOTAL FREE ENERGY PREDICTED BY IDOCK:   -5.48 KCAL/MOL
REMARK 923 INTER-LIGAND FREE ENERGY PREDICTED BY IDOCK:   -4.82 KCAL/MOL
REMARK 924 INTRA-LIGAND FREE ENERGY PREDICTED BY IDOCK:   -0.66 KCAL/MOL
REMARK 927      BINDING AFFINITY PREDICTED BY RF-SCORE:    0.00 PKD
ROOT
HETATM    1  C   UNL     1     -10.720   5.983  66.405  1.00  0.00    -0.054 C  
HETATM    2  N   UNL     1     -10.568   6.895  67.516  1.00  0.00    -0.245 NA 
HETATM    3  N   UNL     1     -10.813   6.456  68.746  1.00  0.00    -0.287 NA 
HETATM    4  C   UNL     1     -10.878   7.570  69.511  1.00  0.00    -0.175 A  
HETATM    5  C   UNL     1     -10.434   8.706  68.759  1.00  0.00    -0.209 A  
HETATM    6  C   UNL     1      -9.902  10.914  67.881  1.00  0.00    -0.189 A  
HETATM    7  C   UNL     1     -10.285   8.228  67.448  1.00  0.00    -0.258 A  
HETATM    8  C   UNL     1      -9.782  10.400  66.590  1.00  0.00    -0.236 A  
HETATM    9  C   UNL     1     -10.239  10.087  68.968  1.00  0.00    -0.216 A  
HETATM   10  C   UNL     1      -9.976   9.042  66.350  1.00  0.00    -0.370 A  
ENDROOT
BRANCH   4  11
HETATM   11  C   UNL     1     -11.551   7.397  70.800  1.00  0.00    -0.290 C  
HETATM   12  H   UNL     1     -11.784   7.156  72.688  1.00  0.00     0.000 HD 
HETATM   13  O   UNL     1     -12.773   7.168  70.832  1.00  0.00    -0.314 OA 
HETATM   14  N   UNL     1     -11.035   7.428  72.052  1.00  0.00    -0.230 N  
BRANCH  14  15
HETATM   15  C   UNL     1      -9.850   7.690  72.874  1.00  0.00    -0.242 C  
HETATM   16  C   UNL     1      -8.018   5.768  72.762  1.00  0.00    -0.101 C  
HETATM   17  C   UNL     1      -8.462   7.225  72.392  1.00  0.00    -0.127 C  
HETATM   18  C   UNL     1      -8.524   4.766  71.723  1.00  0.00    -0.120 C  
HETATM   19  C   UNL     1     -10.022   4.522  71.821  1.00  0.00    -0.264 C  
HETATM   20  C   UNL     1     -10.604   4.609  73.248  1.00  0.00    -0.284 C  
HETATM   21  C   UNL     1      -9.863   5.521  74.259  1.00  0.00    -0.201 C  
HETATM   22  N   UNL     1      -8.415   5.386  74.130  1.00  0.00    -0.114 NA 
HETATM   23  C   UNL     1     -10.140   7.039  74.237  1.00  0.00    -0.206 C  
HETATM   24  C   UNL     1      -7.954   4.061  74.561  1.00  0.00    -0.086 C  
ENDBRANCH  14  15
ENDBRANCH   4  11
TORSDOF 2
ENDMDL
MODEL      158
REMARK 921   NORMALIZED FREE ENERGY PREDICTED BY IDOCK:   -4.25 KCAL/MOL
REMARK 922        TOTAL FREE ENERGY PREDICTED BY IDOCK:   -5.48 KCAL/MOL
REMARK 923 INTER-LIGAND FREE ENERGY PREDICTED BY IDOCK:   -4.78 KCAL/MOL
REMARK 924 INTRA-LIGAND FREE ENERGY PREDICTED BY IDOCK:   -0.70 KCAL/MOL
REMARK 927      BINDING AFFINITY PREDICTED BY RF-SCORE:    0.00 PKD
ROOT
HETATM    1  C   UNL     1      -8.852  10.399  64.620  1.00  0.00    -0.198 C  
HETATM    2  N   UNL     1      -9.133  10.866  65.959  1.00  0.00    -0.184 NA 
HETATM    3  N   UNL     1      -8.434  10.368  66.973  1.00  0.00    -0.126 NA 
HETATM    4  C   UNL     1      -9.100  10.755  68.084  1.00  0.00    -0.151 A  
HETATM    5  C   UNL     1     -10.111  11.711  67.740  1.00  0.00    -0.200 A  
HETATM    6  C   UNL     1     -12.010  13.232  67.648  1.00  0.00    -0.366 A  
HETATM    7  C   UNL     1     -10.128  11.720  66.336  1.00  0.00    -0.210 A  
HETATM    8  C   UNL     1     -12.002  13.197  66.253  1.00  0.00    -0.473 A  
HETATM    9  C   UNL     1     -11.085  12.488  68.402  1.00  0.00    -0.293 A  
HETATM   10  C   UNL     1     -11.059  12.433  65.571  1.00  0.00    -0.338 A  
ENDROOT
BRANCH   4  11
HETATM   11  C   UNL     1      -8.786   9.991  69.293  1.00  0.00    -0.178 C  
HETATM   12  H   UNL     1      -9.001   8.762  70.750  1.00  0.00     0.000 HD 
HETATM   13  O   UNL     1      -7.777  10.280  69.960  1.00  0.00    -0.164 OA 
HETATM   14  N   UNL     1      -9.459   8.962  69.861  1.00  0.00    -0.165 N  
BRANCH  14  15
HETATM   15  C   UNL     1     -10.572   8.016  69.731  1.00  0.00    -0.238 C  
HETATM   16  C   UNL     1      -9.974   5.541  70.492  1.00  0.00    -0.212 C  
HETATM   17  C   UNL     1     -10.741   6.882  70.760  1.00  0.00    -0.262 C  
HETATM   18  C   UNL     1      -8.553   5.607  71.054  1.00  0.00    -0.127 C  
HETATM   19  C   UNL     1      -7.636   6.500  70.233  1.00  0.00    -0.096 C  
HETATM   20  C   UNL     1      -7.936   6.525  68.719  1.00  0.00    -0.111 C  
HETATM   21  C   UNL     1      -9.396   6.244  68.283  1.00  0.00    -0.112 C  
HETATM   22  N   UNL     1      -9.982   5.161  69.067  1.00  0.00    -0.187 NA 
HETATM   23  C   UNL     1     -10.425   7.393  68.333  1.00  0.00    -0.220 C  
HETATM   24  C   UNL     1      -9.350   3.871  68.767  1.00  0.00    -0.166 C  
ENDBRANCH  14  15
ENDBRANCH   4  11
TORSDOF 2
ENDMDL
MODEL      159
REMARK 921   NORMALIZED FREE ENERGY PREDICTED BY IDOCK:   -4.24 KCAL/MOL
REMARK 922        TOTAL FREE ENERGY PREDICTED BY IDOCK:   -5.46 KCAL/MOL
REMARK 923 INTER-LIGAND FREE ENERGY PREDICTED BY IDOCK:   -4.47 KCAL/MOL
REMARK 924 INTRA-LIGAND FREE ENERGY PREDICTED BY IDOCK:   -0.99 KCAL/MOL
REMARK 927      BINDING AFFINITY PREDICTED BY RF-SCORE:    0.00 PKD
ROOT
HETATM    1  C   UNL     1      -7.353   5.486  72.643  1.00  0.00    -0.095 C  
HETATM    2  N   UNL     1      -8.216   5.688  71.502  1.00  0.00    -0.118 NA 
HETATM    3  N   UNL     1      -7.677   5.742  70.289  1.00  0.00    -0.092 NA 
HETATM    4  C   UNL     1      -8.656   6.223  69.490  1.00  0.00    -0.132 A  
HETATM    5  C   UNL     1      -9.900   6.247  70.200  1.00  0.00    -0.201 A  
HETATM    6  C   UNL     1     -12.173   6.598  71.001  1.00  0.00    -0.344 A  
HETATM    7  C   UNL     1      -9.559   5.932  71.525  1.00  0.00    -0.153 A  
HETATM    8  C   UNL     1     -11.786   6.296  72.307  1.00  0.00    -0.344 A  
HETATM    9  C   UNL     1     -11.244   6.591  69.944  1.00  0.00    -0.456 A  
HETATM   10  C   UNL     1     -10.465   5.961  72.593  1.00  0.00    -0.237 A  
ENDROOT
BRANCH   4  11
HETATM   11  C   UNL     1      -8.198   6.774  68.212  1.00  0.00    -0.115 C  
HETATM   12  H   UNL     1      -7.693   8.067  66.890  1.00  0.00     0.000 HD 
HETATM   13  O   UNL     1      -8.107   6.032  67.218  1.00  0.00    -0.105 OA 
HETATM   14  N   UNL     1      -7.847   8.043  67.898  1.00  0.00    -0.124 N  
BRANCH  14  15
HETATM   15  C   UNL     1      -7.598   9.398  68.401  1.00  0.00    -0.082 C  
HETATM   16  C   UNL     1      -9.787  10.891  68.601  1.00  0.00    -0.190 C  
HETATM   17  C   UNL     1      -8.640  10.086  69.303  1.00  0.00    -0.172 C  
HETATM   18  C   UNL     1     -10.956   9.971  68.245  1.00  0.00    -0.278 C  
HETATM   19  C   UNL     1     -10.646   9.050  67.075  1.00  0.00    -0.270 C  
HETATM   20  C   UNL     1      -9.701   9.646  66.011  1.00  0.00    -0.331 C  
HETATM   21  C   UNL     1      -8.691  10.722  66.484  1.00  0.00    -0.151 C  
HETATM   22  N   UNL     1      -9.310  11.648  67.428  1.00  0.00    -0.166 NA 
HETATM   23  C   UNL     1      -7.376  10.269  67.153  1.00  0.00    -0.091 C  
HETATM   24  C   UNL     1     -10.324  12.487  66.778  1.00  0.00    -0.226 C  
ENDBRANCH  14  15
ENDBRANCH   4  11
TORSDOF 2
ENDMDL
MODEL      160
REMARK 921   NORMALIZED FREE ENERGY PREDICTED BY IDOCK:   -4.21 KCAL/MOL
REMARK 922        TOTAL FREE ENERGY PREDICTED BY IDOCK:   -5.43 KCAL/MOL
REMARK 923 INTER-LIGAND FREE ENERGY PREDICTED BY IDOCK:   -4.58 KCAL/MOL
REMARK 924 INTRA-LIGAND FREE ENERGY PREDICTED BY IDOCK:   -0.85 KCAL/MOL
REMARK 927      BINDING AFFINITY PREDICTED BY RF-SCORE:    0.00 PKD
ROOT
HETATM    1  C   UNL     1      -7.583   4.362  67.366  1.00  0.00    -0.081 C  
HETATM    2  N   UNL     1      -8.299   5.605  67.540  1.00  0.00    -0.101 NA 
HETATM    3  N   UNL     1      -8.012   6.629  66.743  1.00  0.00    -0.107 NA 
HETATM    4  C   UNL     1      -8.603   7.700  67.320  1.00  0.00    -0.121 A  
HETATM    5  C   UNL     1      -9.466   7.271  68.380  1.00  0.00    -0.142 A  
HETATM    6  C   UNL     1     -10.927   7.058  70.317  1.00  0.00    -0.304 A  
HETATM    7  C   UNL     1      -9.202   5.899  68.519  1.00  0.00    -0.117 A  
HETATM    8  C   UNL     1     -10.623   5.701  70.429  1.00  0.00    -0.364 A  
HETATM    9  C   UNL     1     -10.350   7.855  69.311  1.00  0.00    -0.222 A  
HETATM   10  C   UNL     1      -9.748   5.097  69.530  1.00  0.00    -0.262 A  
ENDROOT
BRANCH   4  11
HETATM   11  C   UNL     1      -8.090   9.000  66.884  1.00  0.00    -0.112 C  
HETATM   12  H   UNL     1      -7.993  10.676  65.957  1.00  0.00     0.000 HD 
HETATM   13  O   UNL     1      -6.925   9.331  67.170  1.00  0.00    -0.083 OA 
HETATM   14  N   UNL     1      -8.699   9.968  66.158  1.00  0.00    -0.138 N  
BRANCH  14  15
HETATM   15  C   UNL     1      -9.949  10.422  65.541  1.00  0.00    -0.282 C  
HETATM   16  C   UNL     1     -10.503  12.981  65.989  1.00  0.00    -0.279 C  
HETATM   17  C   UNL     1     -10.059  11.857  64.992  1.00  0.00    -0.297 C  
HETATM   18  C   UNL     1      -9.298  13.546  66.743  1.00  0.00    -0.262 C  
HETATM   19  C   UNL     1      -8.757  12.586  67.792  1.00  0.00    -0.178 C  
HETATM   20  C   UNL     1      -9.819  11.694  68.467  1.00  0.00    -0.196 C  
HETATM   21  C   UNL     1     -11.091  11.363  67.646  1.00  0.00    -0.268 C  
HETATM   22  N   UNL     1     -11.564  12.533  66.911  1.00  0.00    -0.352 NA 
HETATM   23  C   UNL     1     -11.036  10.220  66.610  1.00  0.00    -0.030 C  
HETATM   24  C   UNL     1     -12.079  13.569  67.814  1.00  0.00    -0.280 C  
ENDBRANCH  14  15
ENDBRANCH   4  11
TORSDOF 2
ENDMDL
MODEL      161
REMARK 921   NORMALIZED FREE ENERGY PREDICTED BY IDOCK:   -4.20 KCAL/MOL
REMARK 922        TOTAL FREE ENERGY PREDICTED BY IDOCK:   -5.42 KCAL/MOL
REMARK 923 INTER-LIGAND FREE ENERGY PREDICTED BY IDOCK:   -4.63 KCAL/MOL
REMARK 924 INTRA-LIGAND FREE ENERGY PREDICTED BY IDOCK:   -0.79 KCAL/MOL
REMARK 927      BINDING AFFINITY PREDICTED BY RF-SCORE:    0.00 PKD
ROOT
HETATM    1  C   UNL     1     -10.586   3.671  73.851  1.00  0.00    -0.210 C  
HETATM    2  N   UNL     1     -10.292   4.179  72.531  1.00  0.00    -0.173 NA 
HETATM    3  N   UNL     1     -10.561   5.451  72.257  1.00  0.00    -0.219 NA 
HETATM    4  C   UNL     1     -10.463   5.550  70.911  1.00  0.00    -0.249 A  
HETATM    5  C   UNL     1      -9.894   4.350  70.373  1.00  0.00    -0.286 A  
HETATM    6  C   UNL     1      -9.103   2.507  68.992  1.00  0.00    -0.190 A  
HETATM    7  C   UNL     1      -9.839   3.464  71.461  1.00  0.00    -0.142 A  
HETATM    8  C   UNL     1      -9.081   1.655  70.098  1.00  0.00    -0.147 A  
HETATM    9  C   UNL     1      -9.518   3.846  69.110  1.00  0.00    -0.246 A  
HETATM   10  C   UNL     1      -9.455   2.121  71.355  1.00  0.00    -0.205 A  
ENDROOT
BRANCH   4  11
HETATM   11  C   UNL     1     -11.121   6.720  70.326  1.00  0.00    -0.310 C  
HETATM   12  H   UNL     1     -11.431   8.217  69.169  1.00  0.00     0.000 HD 
HETATM   13  O   UNL     1     -12.090   7.238  70.910  1.00  0.00    -0.320 OA 
HETATM   14  N   UNL     1     -10.828   7.395  69.189  1.00  0.00    -0.162 N  
BRANCH  14  15
HETATM   15  C   UNL     1     -10.005   7.437  67.977  1.00  0.00    -0.164 C  
HETATM   16  C   UNL     1      -7.832   8.948  68.204  1.00  0.00    -0.101 C  
HETATM   17  C   UNL     1      -8.471   7.522  68.091  1.00  0.00    -0.124 C  
HETATM   18  C   UNL     1      -7.794   9.413  69.661  1.00  0.00    -0.105 C  
HETATM   19  C   UNL     1      -9.166   9.794  70.193  1.00  0.00    -0.253 C  
HETATM   20  C   UNL     1     -10.123  10.406  69.148  1.00  0.00    -0.236 C  
HETATM   21  C   UNL     1      -9.914   9.991  67.670  1.00  0.00    -0.176 C  
HETATM   22  N   UNL     1      -8.495   9.936  67.332  1.00  0.00    -0.118 NA 
HETATM   23  C   UNL     1     -10.507   8.653  67.179  1.00  0.00    -0.360 C  
HETATM   24  C   UNL     1      -7.885  11.271  67.334  1.00  0.00    -0.128 C  
ENDBRANCH  14  15
ENDBRANCH   4  11
TORSDOF 2
ENDMDL
MODEL      162
REMARK 921   NORMALIZED FREE ENERGY PREDICTED BY IDOCK:   -4.17 KCAL/MOL
REMARK 922        TOTAL FREE ENERGY PREDICTED BY IDOCK:   -5.39 KCAL/MOL
REMARK 923 INTER-LIGAND FREE ENERGY PREDICTED BY IDOCK:   -4.45 KCAL/MOL
REMARK 924 INTRA-LIGAND FREE ENERGY PREDICTED BY IDOCK:   -0.93 KCAL/MOL
REMARK 927      BINDING AFFINITY PREDICTED BY RF-SCORE:    0.00 PKD
ROOT
HETATM    1  C   UNL     1      -9.215   1.791  69.900  1.00  0.00    -0.103 C  
HETATM    2  N   UNL     1      -8.742   3.105  69.530  1.00  0.00    -0.068 NA 
HETATM    3  N   UNL     1      -8.139   3.853  70.449  1.00  0.00    -0.054 NA 
HETATM    4  C   UNL     1      -8.082   5.093  69.911  1.00  0.00    -0.082 A  
HETATM    5  C   UNL     1      -8.458   5.045  68.529  1.00  0.00    -0.091 A  
HETATM    6  C   UNL     1      -9.134   5.494  66.233  1.00  0.00    -0.149 A  
HETATM    7  C   UNL     1      -8.925   3.735  68.334  1.00  0.00    -0.125 A  
HETATM    8  C   UNL     1      -9.602   4.187  66.089  1.00  0.00    -0.204 A  
HETATM    9  C   UNL     1      -8.575   5.939  67.445  1.00  0.00    -0.106 A  
HETATM   10  C   UNL     1      -9.509   3.283  67.144  1.00  0.00    -0.178 A  
ENDROOT
BRANCH   4  11
HETATM   11  C   UNL     1      -7.858   6.175  70.872  1.00  0.00    -0.107 C  
HETATM   12  H   UNL     1      -8.202   7.422  72.288  1.00  0.00     0.000 HD 
HETATM   13  O   UNL     1      -6.851   6.897  70.764  1.00  0.00    -0.056 OA 
HETATM   14  N   UNL     1      -8.619   6.566  71.921  1.00  0.00    -0.129 N  
BRANCH  14  15
HETATM   15  C   UNL     1      -9.793   6.273  72.750  1.00  0.00    -0.166 C  
HETATM   16  C   UNL     1     -12.106   6.534  71.469  1.00  0.00    -0.308 C  
HETATM   17  C   UNL     1     -11.029   5.602  72.122  1.00  0.00    -0.307 C  
HETATM   18  C   UNL     1     -11.748   6.841  70.014  1.00  0.00    -0.330 C  
HETATM   19  C   UNL     1     -10.580   7.807  69.886  1.00  0.00    -0.239 C  
HETATM   20  C   UNL     1     -10.482   8.861  71.009  1.00  0.00    -0.316 C  
HETATM   21  C   UNL     1     -11.070   8.479  72.391  1.00  0.00    -0.327 C  
HETATM   22  N   UNL     1     -12.335   7.766  72.247  1.00  0.00    -0.260 NA 
HETATM   23  C   UNL     1     -10.220   7.622  73.354  1.00  0.00    -0.375 C  
HETATM   24  C   UNL     1     -13.394   8.639  71.727  1.00  0.00    -0.374 C  
ENDBRANCH  14  15
ENDBRANCH   4  11
TORSDOF 2
ENDMDL
MODEL      163
REMARK 921   NORMALIZED FREE ENERGY PREDICTED BY IDOCK:   -4.17 KCAL/MOL
REMARK 922        TOTAL FREE ENERGY PREDICTED BY IDOCK:   -5.38 KCAL/MOL
REMARK 923 INTER-LIGAND FREE ENERGY PREDICTED BY IDOCK:   -4.82 KCAL/MOL
REMARK 924 INTRA-LIGAND FREE ENERGY PREDICTED BY IDOCK:   -0.57 KCAL/MOL
REMARK 927      BINDING AFFINITY PREDICTED BY RF-SCORE:    0.00 PKD
ROOT
HETATM    1  C   UNL     1      -9.381   9.258  70.576  1.00  0.00    -0.264 C  
HETATM    2  N   UNL     1      -8.872   9.942  69.410  1.00  0.00    -0.173 NA 
HETATM    3  N   UNL     1      -8.178  11.064  69.574  1.00  0.00     0.110 NA 
HETATM    4  C   UNL     1      -8.098  11.612  68.341  1.00  0.00    -0.153 A  
HETATM    5  C   UNL     1      -8.563  10.678  67.359  1.00  0.00    -0.122 A  
HETATM    6  C   UNL     1      -9.361   9.520  65.371  1.00  0.00    -0.324 A  
HETATM    7  C   UNL     1      -9.102   9.618  68.105  1.00  0.00    -0.122 A  
HETATM    8  C   UNL     1      -9.897   8.496  66.152  1.00  0.00    -0.227 A  
HETATM    9  C   UNL     1      -8.706  10.619  65.957  1.00  0.00    -0.186 A  
HETATM   10  C   UNL     1      -9.780   8.530  67.539  1.00  0.00    -0.209 A  
ENDROOT
BRANCH   4  11
HETATM   11  C   UNL     1      -7.764  13.038  68.317  1.00  0.00    -0.141 C  
HETATM   12  H   UNL     1      -7.978  14.931  68.097  1.00  0.00     0.000 HD 
HETATM   13  O   UNL     1      -6.577  13.395  68.417  1.00  0.00    -0.077 OA 
HETATM   14  N   UNL     1      -8.579  14.111  68.179  1.00  0.00    -0.167 N  
BRANCH  14  15
HETATM   15  C   UNL     1      -9.964  14.586  68.099  1.00  0.00    -0.220 C  
HETATM   16  C   UNL     1     -10.257  16.808  66.671  1.00  0.00    -0.309 C  
HETATM   17  C   UNL     1     -10.471  15.261  66.810  1.00  0.00    -0.293 C  
HETATM   18  C   UNL     1      -8.878  17.115  66.084  1.00  0.00    -0.220 C  
HETATM   19  C   UNL     1      -7.749  16.871  67.073  1.00  0.00    -0.230 C  
HETATM   20  C   UNL     1      -8.107  17.145  68.549  1.00  0.00    -0.260 C  
HETATM   21  C   UNL     1      -9.593  16.983  68.959  1.00  0.00    -0.197 C  
HETATM   22  N   UNL     1     -10.484  17.526  67.938  1.00  0.00    -0.371 NA 
HETATM   23  C   UNL     1     -10.132  15.570  69.268  1.00  0.00    -0.256 C  
HETATM   24  C   UNL     1     -10.379  18.988  67.849  1.00  0.00    -0.405 C  
ENDBRANCH  14  15
ENDBRANCH   4  11
TORSDOF 2
ENDMDL
MODEL      164
REMARK 921   NORMALIZED FREE ENERGY PREDICTED BY IDOCK:   -4.15 KCAL/MOL
REMARK 922        TOTAL FREE ENERGY PREDICTED BY IDOCK:   -5.36 KCAL/MOL
REMARK 923 INTER-LIGAND FREE ENERGY PREDICTED BY IDOCK:   -4.48 KCAL/MOL
REMARK 924 INTRA-LIGAND FREE ENERGY PREDICTED BY IDOCK:   -0.88 KCAL/MOL
REMARK 927      BINDING AFFINITY PREDICTED BY RF-SCORE:    0.00 PKD
ROOT
HETATM    1  C   UNL     1     -11.983  12.271  68.793  1.00  0.00    -0.231 C  
HETATM    2  N   UNL     1     -11.095  11.302  68.192  1.00  0.00    -0.237 NA 
HETATM    3  N   UNL     1     -11.518  10.052  68.035  1.00  0.00    -0.132 NA 
HETATM    4  C   UNL     1     -10.408   9.339  67.738  1.00  0.00    -0.237 A  
HETATM    5  C   UNL     1      -9.311  10.224  67.484  1.00  0.00    -0.164 A  
HETATM    6  C   UNL     1      -7.153  11.285  67.101  1.00  0.00    -0.125 A  
HETATM    7  C   UNL     1      -9.792  11.495  67.836  1.00  0.00    -0.185 A  
HETATM    8  C   UNL     1      -7.668  12.526  67.476  1.00  0.00    -0.165 A  
HETATM    9  C   UNL     1      -7.953  10.128  67.112  1.00  0.00    -0.109 A  
HETATM   10  C   UNL     1      -9.001  12.652  67.856  1.00  0.00    -0.189 A  
ENDROOT
BRANCH   4  11
HETATM   11  C   UNL     1     -10.529   7.893  67.938  1.00  0.00    -0.198 C  
HETATM   12  H   UNL     1     -10.772   6.217  68.837  1.00  0.00     0.000 HD 
HETATM   13  O   UNL     1     -10.229   7.116  67.015  1.00  0.00    -0.217 OA 
HETATM   14  N   UNL     1     -10.923   7.205  69.036  1.00  0.00    -0.141 N  
BRANCH  14  15
HETATM   15  C   UNL     1     -11.475   7.289  70.392  1.00  0.00    -0.248 C  
HETATM   16  C   UNL     1      -9.860   8.470  72.140  1.00  0.00    -0.318 C  
HETATM   17  C   UNL     1     -11.165   8.513  71.274  1.00  0.00    -0.321 C  
HETATM   18  C   UNL     1      -8.657   8.962  71.334  1.00  0.00    -0.238 C  
HETATM   19  C   UNL     1      -8.203   7.961  70.283  1.00  0.00    -0.124 C  
HETATM   20  C   UNL     1      -8.398   6.479  70.668  1.00  0.00    -0.133 C  
HETATM   21  C   UNL     1      -9.544   6.152  71.658  1.00  0.00    -0.151 C  
HETATM   22  N   UNL     1      -9.616   7.140  72.729  1.00  0.00    -0.147 NA 
HETATM   23  C   UNL     1     -10.985   6.024  71.117  1.00  0.00    -0.341 C  
HETATM   24  C   UNL     1      -8.451   7.061  73.619  1.00  0.00    -0.127 C  
ENDBRANCH  14  15
ENDBRANCH   4  11
TORSDOF 2
ENDMDL
MODEL      165
REMARK 921   NORMALIZED FREE ENERGY PREDICTED BY IDOCK:   -4.13 KCAL/MOL
REMARK 922        TOTAL FREE ENERGY PREDICTED BY IDOCK:   -5.34 KCAL/MOL
REMARK 923 INTER-LIGAND FREE ENERGY PREDICTED BY IDOCK:   -4.48 KCAL/MOL
REMARK 924 INTRA-LIGAND FREE ENERGY PREDICTED BY IDOCK:   -0.86 KCAL/MOL
REMARK 927      BINDING AFFINITY PREDICTED BY RF-SCORE:    0.00 PKD
ROOT
HETATM    1  C   UNL     1     -12.525  12.151  64.049  1.00  0.00    -0.440 C  
HETATM    2  N   UNL     1     -11.259  12.347  64.719  1.00  0.00    -0.301 NA 
HETATM    3  N   UNL     1     -10.390  11.342  64.757  1.00  0.00    -0.275 NA 
HETATM    4  C   UNL     1      -9.466  11.711  65.673  1.00  0.00    -0.209 A  
HETATM    5  C   UNL     1      -9.657  13.084  66.036  1.00  0.00    -0.175 A  
HETATM    6  C   UNL     1      -9.655  15.295  67.057  1.00  0.00    -0.233 A  
HETATM    7  C   UNL     1     -10.867  13.447  65.423  1.00  0.00    -0.294 A  
HETATM    8  C   UNL     1     -10.868  15.608  66.442  1.00  0.00    -0.252 A  
HETATM    9  C   UNL     1      -9.047  14.040  66.875  1.00  0.00    -0.262 A  
HETATM   10  C   UNL     1     -11.500  14.683  65.615  1.00  0.00    -0.340 A  
ENDROOT
BRANCH   4  11
HETATM   11  C   UNL     1      -8.652  10.617  66.208  1.00  0.00    -0.153 C  
HETATM   12  H   UNL     1      -7.490   9.652  67.389  1.00  0.00     0.000 HD 
HETATM   13  O   UNL     1      -8.410   9.626  65.498  1.00  0.00    -0.130 OA 
HETATM   14  N   UNL     1      -8.062  10.495  67.421  1.00  0.00    -0.111 N  
BRANCH  14  15
HETATM   15  C   UNL     1      -7.904  11.070  68.760  1.00  0.00    -0.138 C  
HETATM   16  C   UNL     1      -7.421   9.268  70.653  1.00  0.00    -0.136 C  
HETATM   17  C   UNL     1      -6.905  10.443  69.752  1.00  0.00    -0.130 C  
HETATM   18  C   UNL     1      -7.279   7.928  69.930  1.00  0.00    -0.066 C  
HETATM   19  C   UNL     1      -8.296   7.751  68.813  1.00  0.00    -0.128 C  
HETATM   20  C   UNL     1      -9.663   8.422  69.065  1.00  0.00    -0.171 C  
HETATM   21  C   UNL     1      -9.680   9.668  69.987  1.00  0.00    -0.241 C  
HETATM   22  N   UNL     1      -8.797   9.487  71.135  1.00  0.00    -0.191 NA 
HETATM   23  C   UNL     1      -9.306  11.042  69.391  1.00  0.00     0.160 C  
HETATM   24  C   UNL     1      -9.303   8.458  72.051  1.00  0.00    -0.262 C  
ENDBRANCH  14  15
ENDBRANCH   4  11
TORSDOF 2
ENDMDL
MODEL      166
REMARK 921   NORMALIZED FREE ENERGY PREDICTED BY IDOCK:   -4.12 KCAL/MOL
REMARK 922        TOTAL FREE ENERGY PREDICTED BY IDOCK:   -5.33 KCAL/MOL
REMARK 923 INTER-LIGAND FREE ENERGY PREDICTED BY IDOCK:   -4.63 KCAL/MOL
REMARK 924 INTRA-LIGAND FREE ENERGY PREDICTED BY IDOCK:   -0.70 KCAL/MOL
REMARK 927      BINDING AFFINITY PREDICTED BY RF-SCORE:    0.00 PKD
ROOT
HETATM    1  C   UNL     1      -6.543  15.374  67.572  1.00  0.00    -0.161 C  
HETATM    2  N   UNL     1      -7.603  14.392  67.552  1.00  0.00    -0.183 NA 
HETATM    3  N   UNL     1      -7.288  13.107  67.426  1.00  0.00    -0.141 NA 
HETATM    4  C   UNL     1      -8.455  12.483  67.147  1.00  0.00    -0.186 A  
HETATM    5  C   UNL     1      -9.550  13.388  67.333  1.00  0.00    -0.223 A  
HETATM    6  C   UNL     1     -11.687  14.555  67.381  1.00  0.00    -0.425 A  
HETATM    7  C   UNL     1      -8.946  14.636  67.554  1.00  0.00    -0.190 A  
HETATM    8  C   UNL     1     -11.044  15.777  67.582  1.00  0.00    -0.283 A  
HETATM    9  C   UNL     1     -10.957  13.360  67.243  1.00  0.00    -0.286 A  
HETATM   10  C   UNL     1      -9.656  15.838  67.667  1.00  0.00    -0.220 A  
ENDROOT
BRANCH   4  11
HETATM   11  C   UNL     1      -8.318  11.154  66.549  1.00  0.00    -0.166 C  
HETATM   12  H   UNL     1      -7.857   9.301  66.371  1.00  0.00     0.000 HD 
HETATM   13  O   UNL     1      -8.547  10.997  65.337  1.00  0.00    -0.158 OA 
HETATM   14  N   UNL     1      -7.944   9.985  67.122  1.00  0.00    -0.109 N  
BRANCH  14  15
HETATM   15  C   UNL     1      -7.611   9.294  68.371  1.00  0.00    -0.086 C  
HETATM   16  C   UNL     1      -8.872   6.977  68.688  1.00  0.00    -0.128 C  
HETATM   17  C   UNL     1      -7.542   7.755  68.403  1.00  0.00    -0.109 C  
HETATM   18  C   UNL     1      -9.652   6.743  67.392  1.00  0.00    -0.158 C  
HETATM   19  C   UNL     1     -10.301   8.010  66.859  1.00  0.00    -0.408 C  
HETATM   20  C   UNL     1     -10.762   9.010  67.940  1.00  0.00    -0.200 C  
HETATM   21  C   UNL     1      -9.997   8.997  69.287  1.00  0.00    -0.188 C  
HETATM   22  N   UNL     1      -9.703   7.632  69.715  1.00  0.00    -0.171 NA 
HETATM   23  C   UNL     1      -8.660   9.760  69.395  1.00  0.00    -0.168 C  
HETATM   24  C   UNL     1     -10.924   6.904  70.082  1.00  0.00    -0.281 C  
ENDBRANCH  14  15
ENDBRANCH   4  11
TORSDOF 2
ENDMDL
MODEL      167
REMARK 921   NORMALIZED FREE ENERGY PREDICTED BY IDOCK:   -4.10 KCAL/MOL
REMARK 922        TOTAL FREE ENERGY PREDICTED BY IDOCK:   -5.30 KCAL/MOL
REMARK 923 INTER-LIGAND FREE ENERGY PREDICTED BY IDOCK:   -4.65 KCAL/MOL
REMARK 924 INTRA-LIGAND FREE ENERGY PREDICTED BY IDOCK:   -0.65 KCAL/MOL
REMARK 927      BINDING AFFINITY PREDICTED BY RF-SCORE:    0.00 PKD
ROOT
HETATM    1  C   UNL     1     -11.169   6.496  66.925  1.00  0.00    -0.134 C  
HETATM    2  N   UNL     1     -10.309   7.648  67.078  1.00  0.00    -0.305 NA 
HETATM    3  N   UNL     1     -10.656   8.790  66.493  1.00  0.00    -0.108 NA 
HETATM    4  C   UNL     1      -9.551   9.568  66.560  1.00  0.00    -0.201 A  
HETATM    5  C   UNL     1      -8.575   8.960  67.413  1.00  0.00    -0.119 A  
HETATM    6  C   UNL     1      -6.584   8.283  68.643  1.00  0.00    -0.054 A  
HETATM    7  C   UNL     1      -9.093   7.685  67.694  1.00  0.00    -0.129 A  
HETATM    8  C   UNL     1      -7.131   7.022  68.883  1.00  0.00    -0.085 A  
HETATM    9  C   UNL     1      -7.284   9.253  67.902  1.00  0.00    -0.079 A  
HETATM   10  C   UNL     1      -8.398   6.699  68.407  1.00  0.00    -0.122 A  
ENDROOT
BRANCH   4  11
HETATM   11  C   UNL     1      -9.531  10.695  65.625  1.00  0.00    -0.212 C  
HETATM   12  H   UNL     1     -10.160  12.165  64.567  1.00  0.00     0.000 HD 
HETATM   13  O   UNL     1      -8.519  10.903  64.933  1.00  0.00    -0.110 OA 
HETATM   14  N   UNL     1     -10.496  11.604  65.350  1.00  0.00    -0.265 N  
BRANCH  14  15
HETATM   15  C   UNL     1     -11.821  12.119  65.708  1.00  0.00    -0.274 C  
HETATM   16  C   UNL     1     -11.965  14.771  65.772  1.00  0.00    -0.155 C  
HETATM   17  C   UNL     1     -12.339  13.421  65.069  1.00  0.00    -0.481 C  
HETATM   18  C   UNL     1     -10.605  15.277  65.288  1.00  0.00    -0.438 C  
HETATM   19  C   UNL     1      -9.444  14.464  65.840  1.00  0.00    -0.189 C  
HETATM   20  C   UNL     1      -9.664  13.893  67.257  1.00  0.00    -0.245 C  
HETATM   21  C   UNL     1     -11.126  13.612  67.686  1.00  0.00    -0.273 C  
HETATM   22  N   UNL     1     -12.021  14.677  67.243  1.00  0.00    -0.356 NA 
HETATM   23  C   UNL     1     -11.797  12.296  67.236  1.00  0.00    -0.330 C  
HETATM   24  C   UNL     1     -11.760  15.935  67.955  1.00  0.00     0.009 C  
ENDBRANCH  14  15
ENDBRANCH   4  11
TORSDOF 2
ENDMDL
MODEL      168
REMARK 921   NORMALIZED FREE ENERGY PREDICTED BY IDOCK:   -4.09 KCAL/MOL
REMARK 922        TOTAL FREE ENERGY PREDICTED BY IDOCK:   -5.30 KCAL/MOL
REMARK 923 INTER-LIGAND FREE ENERGY PREDICTED BY IDOCK:   -4.51 KCAL/MOL
REMARK 924 INTRA-LIGAND FREE ENERGY PREDICTED BY IDOCK:   -0.79 KCAL/MOL
REMARK 927      BINDING AFFINITY PREDICTED BY RF-SCORE:    0.00 PKD
ROOT
HETATM    1  C   UNL     1      -6.074   7.823  66.300  1.00  0.00    -0.045 C  
HETATM    2  N   UNL     1      -7.151   7.144  66.983  1.00  0.00    -0.087 NA 
HETATM    3  N   UNL     1      -7.299   7.328  68.291  1.00  0.00    -0.097 NA 
HETATM    4  C   UNL     1      -8.167   6.368  68.685  1.00  0.00    -0.121 A  
HETATM    5  C   UNL     1      -8.737   5.724  67.540  1.00  0.00    -0.107 A  
HETATM    6  C   UNL     1      -9.865   4.264  65.950  1.00  0.00    -0.230 A  
HETATM    7  C   UNL     1      -8.012   6.230  66.450  1.00  0.00    -0.109 A  
HETATM    8  C   UNL     1      -9.109   4.783  64.898  1.00  0.00    -0.141 A  
HETATM    9  C   UNL     1      -9.682   4.711  67.271  1.00  0.00    -0.216 A  
HETATM   10  C   UNL     1      -8.163   5.777  65.133  1.00  0.00    -0.140 A  
ENDROOT
BRANCH   4  11
HETATM   11  C   UNL     1      -8.165   6.083  70.122  1.00  0.00    -0.119 C  
HETATM   12  H   UNL     1      -8.825   5.817  71.903  1.00  0.00     0.000 HD 
HETATM   13  O   UNL     1      -7.087   6.031  70.739  1.00  0.00    -0.064 OA 
HETATM   14  N   UNL     1      -9.208   5.869  70.959  1.00  0.00    -0.149 N  
BRANCH  14  15
HETATM   15  C   UNL     1     -10.658   5.682  71.075  1.00  0.00    -0.249 C  
HETATM   16  C   UNL     1     -12.066   7.893  70.636  1.00  0.00     0.013 C  
HETATM   17  C   UNL     1     -11.610   6.472  70.156  1.00  0.00    -0.466 C  
HETATM   18  C   UNL     1     -11.053   8.959  70.214  1.00  0.00    -0.251 C  
HETATM   19  C   UNL     1      -9.768   8.904  71.025  1.00  0.00    -0.320 C  
HETATM   20  C   UNL     1      -9.942   8.454  72.491  1.00  0.00    -0.356 C  
HETATM   21  C   UNL     1     -11.140   7.523  72.807  1.00  0.00    -0.366 C  
HETATM   22  N   UNL     1     -12.338   7.940  72.085  1.00  0.00    -0.306 NA 
HETATM   23  C   UNL     1     -11.002   6.009  72.538  1.00  0.00    -0.300 C  
HETATM   24  C   UNL     1     -12.849   9.226  72.577  1.00  0.00    -0.281 C  
ENDBRANCH  14  15
ENDBRANCH   4  11
TORSDOF 2
ENDMDL
MODEL      169
REMARK 921   NORMALIZED FREE ENERGY PREDICTED BY IDOCK:   -4.09 KCAL/MOL
REMARK 922        TOTAL FREE ENERGY PREDICTED BY IDOCK:   -5.30 KCAL/MOL
REMARK 923 INTER-LIGAND FREE ENERGY PREDICTED BY IDOCK:   -4.70 KCAL/MOL
REMARK 924 INTRA-LIGAND FREE ENERGY PREDICTED BY IDOCK:   -0.60 KCAL/MOL
REMARK 927      BINDING AFFINITY PREDICTED BY RF-SCORE:    0.00 PKD
ROOT
HETATM    1  C   UNL     1     -10.682  10.915  66.697  1.00  0.00    -0.230 C  
HETATM    2  N   UNL     1      -9.440  10.549  67.340  1.00  0.00    -0.153 NA 
HETATM    3  N   UNL     1      -9.316   9.327  67.849  1.00  0.00    -0.129 NA 
HETATM    4  C   UNL     1      -8.204   9.378  68.618  1.00  0.00    -0.112 A  
HETATM    5  C   UNL     1      -7.506  10.607  68.388  1.00  0.00    -0.093 A  
HETATM    6  C   UNL     1      -6.055  12.563  68.444  1.00  0.00    -0.058 A  
HETATM    7  C   UNL     1      -8.371  11.362  67.581  1.00  0.00    -0.129 A  
HETATM    8  C   UNL     1      -6.953  13.282  67.654  1.00  0.00    -0.164 A  
HETATM    9  C   UNL     1      -6.322  11.236  68.829  1.00  0.00    -0.051 A  
HETATM   10  C   UNL     1      -8.134  12.692  67.211  1.00  0.00    -0.178 A  
ENDROOT
BRANCH   4  11
HETATM   11  C   UNL     1      -8.090   8.308  69.611  1.00  0.00    -0.116 C  
HETATM   12  H   UNL     1      -8.247   7.382  71.283  1.00  0.00     0.000 HD 
HETATM   13  O   UNL     1      -7.385   7.313  69.366  1.00  0.00    -0.084 OA 
HETATM   14  N   UNL     1      -8.642   8.213  70.844  1.00  0.00    -0.130 N  
BRANCH  14  15
HETATM   15  C   UNL     1      -9.570   8.808  71.811  1.00  0.00    -0.301 C  
HETATM   16  C   UNL     1     -11.399   7.112  72.728  1.00  0.00    -0.245 C  
HETATM   17  C   UNL     1     -10.107   7.962  72.981  1.00  0.00    -0.384 C  
HETATM   18  C   UNL     1     -11.044   5.749  72.131  1.00  0.00    -0.327 C  
HETATM   19  C   UNL     1     -10.606   5.838  70.678  1.00  0.00    -0.346 C  
HETATM   20  C   UNL     1     -11.289   6.954  69.859  1.00  0.00    -0.321 C  
HETATM   21  C   UNL     1     -11.779   8.202  70.636  1.00  0.00    -0.143 C  
HETATM   22  N   UNL     1     -12.394   7.826  71.906  1.00  0.00    -0.302 NA 
HETATM   23  C   UNL     1     -10.764   9.312  70.982  1.00  0.00    -0.387 C  
HETATM   24  C   UNL     1     -13.660   7.111  71.704  1.00  0.00    -0.310 C  
ENDBRANCH  14  15
ENDBRANCH   4  11
TORSDOF 2
ENDMDL
MODEL      170
REMARK 921   NORMALIZED FREE ENERGY PREDICTED BY IDOCK:   -4.09 KCAL/MOL
REMARK 922        TOTAL FREE ENERGY PREDICTED BY IDOCK:   -5.29 KCAL/MOL
REMARK 923 INTER-LIGAND FREE ENERGY PREDICTED BY IDOCK:   -4.84 KCAL/MOL
REMARK 924 INTRA-LIGAND FREE ENERGY PREDICTED BY IDOCK:   -0.46 KCAL/MOL
REMARK 927      BINDING AFFINITY PREDICTED BY RF-SCORE:    0.00 PKD
ROOT
HETATM    1  C   UNL     1     -11.770  14.446  66.067  1.00  0.00    -0.375 C  
HETATM    2  N   UNL     1     -10.364  14.541  66.388  1.00  0.00    -0.286 NA 
HETATM    3  N   UNL     1      -9.654  13.424  66.503  1.00  0.00    -0.272 NA 
HETATM    4  C   UNL     1      -8.492  13.804  67.082  1.00  0.00    -0.175 A  
HETATM    5  C   UNL     1      -8.405  15.233  67.112  1.00  0.00    -0.244 A  
HETATM    6  C   UNL     1      -7.857  17.573  67.508  1.00  0.00    -0.210 A  
HETATM    7  C   UNL     1      -9.668  15.675  66.690  1.00  0.00    -0.249 A  
HETATM    8  C   UNL     1      -9.131  17.967  67.098  1.00  0.00    -0.251 A  
HETATM    9  C   UNL     1      -7.485  16.217  67.534  1.00  0.00    -0.179 A  
HETATM   10  C   UNL     1     -10.064  17.019  66.684  1.00  0.00    -0.308 A  
ENDROOT
BRANCH   4  11
HETATM   11  C   UNL     1      -7.726  12.720  67.701  1.00  0.00    -0.162 C  
HETATM   12  H   UNL     1      -7.076  10.950  68.052  1.00  0.00     0.000 HD 
HETATM   13  O   UNL     1      -7.089  12.935  68.747  1.00  0.00    -0.100 OA 
HETATM   14  N   UNL     1      -7.593  11.429  67.315  1.00  0.00    -0.130 N  
BRANCH  14  15
HETATM   15  C   UNL     1      -7.884  10.432  66.279  1.00  0.00    -0.132 C  
HETATM   16  C   UNL     1     -10.272   9.292  66.524  1.00  0.00    -0.246 C  
HETATM   17  C   UNL     1      -9.321  10.270  65.750  1.00  0.00    -0.233 C  
HETATM   18  C   UNL     1     -10.963  10.011  67.683  1.00  0.00    -0.297 C  
HETATM   19  C   UNL     1     -10.023  10.296  68.844  1.00  0.00    -0.209 C  
HETATM   20  C   UNL     1      -8.916   9.243  69.058  1.00  0.00    -0.140 C  
HETATM   21  C   UNL     1      -8.449   8.445  67.815  1.00  0.00    -0.131 C  
HETATM   22  N   UNL     1      -9.581   8.069  66.973  1.00  0.00    -0.180 NA 
HETATM   23  C   UNL     1      -7.419   9.085  66.860  1.00  0.00    -0.090 C  
HETATM   24  C   UNL     1     -10.441   7.078  67.631  1.00  0.00    -0.237 C  
ENDBRANCH  14  15
ENDBRANCH   4  11
TORSDOF 2
ENDMDL
MODEL      171
REMARK 921   NORMALIZED FREE ENERGY PREDICTED BY IDOCK:   -4.09 KCAL/MOL
REMARK 922        TOTAL FREE ENERGY PREDICTED BY IDOCK:   -5.29 KCAL/MOL
REMARK 923 INTER-LIGAND FREE ENERGY PREDICTED BY IDOCK:   -4.84 KCAL/MOL
REMARK 924 INTRA-LIGAND FREE ENERGY PREDICTED BY IDOCK:   -0.45 KCAL/MOL
REMARK 927      BINDING AFFINITY PREDICTED BY RF-SCORE:    0.00 PKD
ROOT
HETATM    1  C   UNL     1     -10.960  11.401  67.677  1.00  0.00    -0.250 C  
HETATM    2  N   UNL     1      -9.688  12.039  67.934  1.00  0.00    -0.189 NA 
HETATM    3  N   UNL     1      -9.597  13.360  67.819  1.00  0.00    -0.207 NA 
HETATM    4  C   UNL     1      -8.271  13.623  67.824  1.00  0.00    -0.179 A  
HETATM    5  C   UNL     1      -7.539  12.444  68.181  1.00  0.00    -0.129 A  
HETATM    6  C   UNL     1      -5.877  10.716  68.604  1.00  0.00    -0.040 A  
HETATM    7  C   UNL     1      -8.501  11.422  68.199  1.00  0.00    -0.152 A  
HETATM    8  C   UNL     1      -6.863   9.729  68.597  1.00  0.00    -0.051 A  
HETATM    9  C   UNL     1      -6.195  12.068  68.386  1.00  0.00    -0.051 A  
HETATM   10  C   UNL     1      -8.198  10.067  68.389  1.00  0.00    -0.106 A  
ENDROOT
BRANCH   4  11
HETATM   11  C   UNL     1      -7.897  14.933  67.287  1.00  0.00    -0.206 C  
HETATM   12  H   UNL     1      -8.078  16.665  66.484  1.00  0.00     0.000 HD 
HETATM   13  O   UNL     1      -6.697  15.206  67.107  1.00  0.00    -0.279 OA 
HETATM   14  N   UNL     1      -8.687  15.968  66.911  1.00  0.00    -0.208 N  
BRANCH  14  15
HETATM   15  C   UNL     1     -10.051  16.502  66.861  1.00  0.00    -0.281 C  
HETATM   16  C   UNL     1     -10.167  19.110  66.364  1.00  0.00    -0.438 C  
HETATM   17  C   UNL     1     -10.396  17.637  65.878  1.00  0.00    -0.261 C  
HETATM   18  C   UNL     1      -8.727  19.551  66.099  1.00  0.00    -0.332 C  
HETATM   19  C   UNL     1      -7.728  18.899  67.042  1.00  0.00    -0.241 C  
HETATM   20  C   UNL     1      -8.264  18.610  68.460  1.00  0.00    -0.370 C  
HETATM   21  C   UNL     1      -9.789  18.375  68.606  1.00  0.00    -0.376 C  
HETATM   22  N   UNL     1     -10.548  19.305  67.776  1.00  0.00    -0.425 NA 
HETATM   23  C   UNL     1     -10.362  16.977  68.290  1.00  0.00    -0.347 C  
HETATM   24  C   UNL     1     -10.433  20.685  68.263  1.00  0.00     0.280 C  
ENDBRANCH  14  15
ENDBRANCH   4  11
TORSDOF 2
ENDMDL
MODEL      172
REMARK 921   NORMALIZED FREE ENERGY PREDICTED BY IDOCK:   -4.07 KCAL/MOL
REMARK 922        TOTAL FREE ENERGY PREDICTED BY IDOCK:   -5.27 KCAL/MOL
REMARK 923 INTER-LIGAND FREE ENERGY PREDICTED BY IDOCK:   -4.59 KCAL/MOL
REMARK 924 INTRA-LIGAND FREE ENERGY PREDICTED BY IDOCK:   -0.68 KCAL/MOL
REMARK 927      BINDING AFFINITY PREDICTED BY RF-SCORE:    0.00 PKD
ROOT
HETATM    1  C   UNL     1      -8.108   8.297  62.810  1.00  0.00    -0.163 C  
HETATM    2  N   UNL     1      -8.418   9.134  63.947  1.00  0.00    -0.186 NA 
HETATM    3  N   UNL     1      -7.988   8.769  65.150  1.00  0.00    -0.118 NA 
HETATM    4  C   UNL     1      -8.662   9.557  66.019  1.00  0.00    -0.147 A  
HETATM    5  C   UNL     1      -9.354  10.589  65.307  1.00  0.00    -0.258 A  
HETATM    6  C   UNL     1     -10.789  12.410  64.561  1.00  0.00    -0.358 A  
HETATM    7  C   UNL     1      -9.205  10.249  63.953  1.00  0.00    -0.274 A  
HETATM    8  C   UNL     1     -10.627  12.026  63.229  1.00  0.00    -0.399 A  
HETATM    9  C   UNL     1     -10.173  11.698  65.606  1.00  0.00    -0.284 A  
HETATM   10  C   UNL     1      -9.832  10.931  62.902  1.00  0.00    -0.313 A  
ENDROOT
BRANCH   4  11
HETATM   11  C   UNL     1      -8.692   9.071  67.400  1.00  0.00    -0.119 C  
HETATM   12  H   UNL     1      -9.296   8.146  68.968  1.00  0.00     0.000 HD 
HETATM   13  O   UNL     1      -7.913   9.554  68.241  1.00  0.00    -0.093 OA 
HETATM   14  N   UNL     1      -9.489   8.134  67.967  1.00  0.00    -0.142 N  
BRANCH  14  15
HETATM   15  C   UNL     1     -10.513   7.109  67.741  1.00  0.00    -0.223 C  
HETATM   16  C   UNL     1     -10.466   5.132  69.515  1.00  0.00    -0.163 C  
HETATM   17  C   UNL     1     -11.175   6.406  68.942  1.00  0.00    -0.385 C  
HETATM   18  C   UNL     1      -9.405   5.519  70.547  1.00  0.00    -0.195 C  
HETATM   19  C   UNL     1      -8.168   6.138  69.916  1.00  0.00    -0.120 C  
HETATM   20  C   UNL     1      -7.810   5.595  68.516  1.00  0.00    -0.096 C  
HETATM   21  C   UNL     1      -8.974   5.048  67.651  1.00  0.00    -0.110 C  
HETATM   22  N   UNL     1      -9.909   4.269  68.456  1.00  0.00    -0.096 NA 
HETATM   23  C   UNL     1      -9.845   6.044  66.855  1.00  0.00    -0.190 C  
HETATM   24  C   UNL     1      -9.305   3.018  68.930  1.00  0.00    -0.160 C  
ENDBRANCH  14  15
ENDBRANCH   4  11
TORSDOF 2
ENDMDL
MODEL      173
REMARK 921   NORMALIZED FREE ENERGY PREDICTED BY IDOCK:   -4.07 KCAL/MOL
REMARK 922        TOTAL FREE ENERGY PREDICTED BY IDOCK:   -5.27 KCAL/MOL
REMARK 923 INTER-LIGAND FREE ENERGY PREDICTED BY IDOCK:   -4.70 KCAL/MOL
REMARK 924 INTRA-LIGAND FREE ENERGY PREDICTED BY IDOCK:   -0.56 KCAL/MOL
REMARK 927      BINDING AFFINITY PREDICTED BY RF-SCORE:    0.00 PKD
ROOT
HETATM    1  C   UNL     1     -10.380  11.697  63.387  1.00  0.00    -0.435 C  
HETATM    2  N   UNL     1     -10.309  11.346  64.788  1.00  0.00    -0.275 NA 
HETATM    3  N   UNL     1      -9.770  10.181  65.131  1.00  0.00    -0.284 NA 
HETATM    4  C   UNL     1     -10.104  10.007  66.430  1.00  0.00    -0.241 A  
HETATM    5  C   UNL     1     -10.673  11.213  66.954  1.00  0.00    -0.322 A  
HETATM    6  C   UNL     1     -11.795  12.946  68.246  1.00  0.00    -0.372 A  
HETATM    7  C   UNL     1     -10.830  12.047  65.835  1.00  0.00    -0.288 A  
HETATM    8  C   UNL     1     -11.946  13.734  67.105  1.00  0.00    -0.442 A  
HETATM    9  C   UNL     1     -11.176  11.684  68.185  1.00  0.00    -0.325 A  
HETATM   10  C   UNL     1     -11.467  13.294  65.874  1.00  0.00    -0.359 A  
ENDROOT
BRANCH   4  11
HETATM   11  C   UNL     1     -10.003   8.630  66.917  1.00  0.00    -0.260 C  
HETATM   12  H   UNL     1      -9.271   6.888  67.243  1.00  0.00     0.000 HD 
HETATM   13  O   UNL     1     -11.009   8.064  67.379  1.00  0.00    -0.151 OA 
HETATM   14  N   UNL     1      -8.933   7.800  66.937  1.00  0.00    -0.128 N  
BRANCH  14  15
HETATM   15  C   UNL     1      -7.492   7.665  66.703  1.00  0.00    -0.093 C  
HETATM   16  C   UNL     1      -6.855   5.724  65.004  1.00  0.00    -0.051 C  
HETATM   17  C   UNL     1      -6.974   7.256  65.311  1.00  0.00    -0.056 C  
HETATM   18  C   UNL     1      -8.183   5.170  64.483  1.00  0.00    -0.133 C  
HETATM   19  C   UNL     1      -9.238   5.048  65.572  1.00  0.00    -0.157 C  
HETATM   20  C   UNL     1      -8.689   4.717  66.976  1.00  0.00    -0.104 C  
HETATM   21  C   UNL     1      -7.243   5.173  67.296  1.00  0.00    -0.081 C  
HETATM   22  N   UNL     1      -6.356   4.953  66.158  1.00  0.00    -0.035 NA 
HETATM   23  C   UNL     1      -7.000   6.633  67.732  1.00  0.00    -0.083 C  
HETATM   24  C   UNL     1      -6.145   3.523  65.903  1.00  0.00    -0.027 C  
ENDBRANCH  14  15
ENDBRANCH   4  11
TORSDOF 2
ENDMDL
MODEL      174
REMARK 921   NORMALIZED FREE ENERGY PREDICTED BY IDOCK:   -4.06 KCAL/MOL
REMARK 922        TOTAL FREE ENERGY PREDICTED BY IDOCK:   -5.26 KCAL/MOL
REMARK 923 INTER-LIGAND FREE ENERGY PREDICTED BY IDOCK:   -4.58 KCAL/MOL
REMARK 924 INTRA-LIGAND FREE ENERGY PREDICTED BY IDOCK:   -0.68 KCAL/MOL
REMARK 927      BINDING AFFINITY PREDICTED BY RF-SCORE:    0.00 PKD
ROOT
HETATM    1  C   UNL     1     -13.211  10.877  72.078  1.00  0.00    -0.351 C  
HETATM    2  N   UNL     1     -12.356  10.673  70.931  1.00  0.00    -0.364 NA 
HETATM    3  N   UNL     1     -11.852   9.463  70.711  1.00  0.00    -0.274 NA 
HETATM    4  C   UNL     1     -10.890   9.646  69.778  1.00  0.00    -0.250 A  
HETATM    5  C   UNL     1     -10.968  10.976  69.250  1.00  0.00    -0.305 A  
HETATM    6  C   UNL     1     -10.617  13.123  68.155  1.00  0.00    -0.257 A  
HETATM    7  C   UNL     1     -11.910  11.626  70.063  1.00  0.00    -0.355 A  
HETATM    8  C   UNL     1     -11.547  13.733  68.997  1.00  0.00    -0.356 A  
HETATM    9  C   UNL     1     -10.308  11.755  68.277  1.00  0.00    -0.217 A  
HETATM   10  C   UNL     1     -12.209  12.992  69.972  1.00  0.00    -0.306 A  
ENDROOT
BRANCH   4  11
HETATM   11  C   UNL     1      -9.910   8.563  69.679  1.00  0.00    -0.183 C  
HETATM   12  H   UNL     1      -8.582   7.404  68.924  1.00  0.00     0.000 HD 
HETATM   13  O   UNL     1      -9.840   7.710  70.581  1.00  0.00    -0.182 OA 
HETATM   14  N   UNL     1      -9.013   8.300  68.698  1.00  0.00    -0.137 N  
BRANCH  14  15
HETATM   15  C   UNL     1      -8.404   8.766  67.448  1.00  0.00    -0.109 C  
HETATM   16  C   UNL     1      -8.395   6.945  65.513  1.00  0.00    -0.137 C  
HETATM   17  C   UNL     1      -8.963   8.285  66.096  1.00  0.00    -0.222 C  
HETATM   18  C   UNL     1      -9.167   5.744  66.063  1.00  0.00    -0.155 C  
HETATM   19  C   UNL     1      -8.842   5.452  67.520  1.00  0.00    -0.105 C  
HETATM   20  C   UNL     1      -7.393   5.777  67.941  1.00  0.00    -0.077 C  
HETATM   21  C   UNL     1      -6.662   6.894  67.156  1.00  0.00    -0.063 C  
HETATM   22  N   UNL     1      -6.943   6.806  65.726  1.00  0.00    -0.062 NA 
HETATM   23  C   UNL     1      -6.921   8.368  67.537  1.00  0.00    -0.075 C  
HETATM   24  C   UNL     1      -6.341   5.608  65.129  1.00  0.00    -0.038 C  
ENDBRANCH  14  15
ENDBRANCH   4  11
TORSDOF 2
ENDMDL
MODEL      175
REMARK 921   NORMALIZED FREE ENERGY PREDICTED BY IDOCK:   -4.06 KCAL/MOL
REMARK 922        TOTAL FREE ENERGY PREDICTED BY IDOCK:   -5.26 KCAL/MOL
REMARK 923 INTER-LIGAND FREE ENERGY PREDICTED BY IDOCK:   -4.52 KCAL/MOL
REMARK 924 INTRA-LIGAND FREE ENERGY PREDICTED BY IDOCK:   -0.74 KCAL/MOL
REMARK 927      BINDING AFFINITY PREDICTED BY RF-SCORE:    0.00 PKD
ROOT
HETATM    1  C   UNL     1      -7.848   7.497  62.807  1.00  0.00    -0.132 C  
HETATM    2  N   UNL     1      -7.946   8.197  64.067  1.00  0.00    -0.146 NA 
HETATM    3  N   UNL     1      -7.348   7.683  65.137  1.00  0.00    -0.072 NA 
HETATM    4  C   UNL     1      -7.849   8.373  66.186  1.00  0.00    -0.101 A  
HETATM    5  C   UNL     1      -8.607   9.495  65.717  1.00  0.00    -0.152 A  
HETATM    6  C   UNL     1     -10.076  11.415  65.424  1.00  0.00    -0.308 A  
HETATM    7  C   UNL     1      -8.683   9.316  64.327  1.00  0.00    -0.175 A  
HETATM    8  C   UNL     1     -10.137  11.190  64.048  1.00  0.00    -0.392 A  
HETATM    9  C   UNL     1      -9.330  10.574  66.269  1.00  0.00    -0.202 A  
HETATM   10  C   UNL     1      -9.442  10.129  63.475  1.00  0.00    -0.310 A  
ENDROOT
BRANCH   4  11
HETATM   11  C   UNL     1      -7.681   7.727  67.490  1.00  0.00    -0.117 C  
HETATM   12  H   UNL     1      -7.760   7.458  69.387  1.00  0.00     0.000 HD 
HETATM   13  O   UNL     1      -6.975   6.708  67.586  1.00  0.00    -0.077 OA 
HETATM   14  N   UNL     1      -8.183   8.079  68.697  1.00  0.00    -0.125 N  
BRANCH  14  15
HETATM   15  C   UNL     1      -9.080   8.981  69.427  1.00  0.00    -0.146 C  
HETATM   16  C   UNL     1      -9.995   7.973  71.709  1.00  0.00    -0.187 C  
HETATM   17  C   UNL     1      -9.068   8.996  70.967  1.00  0.00    -0.322 C  
HETATM   18  C   UNL     1      -9.287   6.629  71.888  1.00  0.00    -0.147 C  
HETATM   19  C   UNL     1      -9.168   5.848  70.589  1.00  0.00    -0.167 C  
HETATM   20  C   UNL     1     -10.335   6.049  69.599  1.00  0.00    -0.294 C  
HETATM   21  C   UNL     1     -11.095   7.398  69.667  1.00  0.00    -0.111 C  
HETATM   22  N   UNL     1     -11.305   7.817  71.050  1.00  0.00    -0.268 NA 
HETATM   23  C   UNL     1     -10.499   8.628  68.950  1.00  0.00    -0.211 C  
HETATM   24  C   UNL     1     -12.248   6.933  71.747  1.00  0.00    -0.356 C  
ENDBRANCH  14  15
ENDBRANCH   4  11
TORSDOF 2
ENDMDL
MODEL      176
REMARK 921   NORMALIZED FREE ENERGY PREDICTED BY IDOCK:   -4.04 KCAL/MOL
REMARK 922        TOTAL FREE ENERGY PREDICTED BY IDOCK:   -5.23 KCAL/MOL
REMARK 923 INTER-LIGAND FREE ENERGY PREDICTED BY IDOCK:   -4.58 KCAL/MOL
REMARK 924 INTRA-LIGAND FREE ENERGY PREDICTED BY IDOCK:   -0.65 KCAL/MOL
REMARK 927      BINDING AFFINITY PREDICTED BY RF-SCORE:    0.00 PKD
ROOT
HETATM    1  C   UNL     1     -11.238   6.174  72.926  1.00  0.00    -0.215 C  
HETATM    2  N   UNL     1     -11.028   7.097  71.834  1.00  0.00    -0.228 NA 
HETATM    3  N   UNL     1     -10.067   6.840  70.952  1.00  0.00    -0.190 NA 
HETATM    4  C   UNL     1      -9.918   7.987  70.250  1.00  0.00    -0.189 A  
HETATM    5  C   UNL     1     -10.980   8.896  70.567  1.00  0.00    -0.280 A  
HETATM    6  C   UNL     1     -12.470  10.799  70.862  1.00  0.00    -0.500 A  
HETATM    7  C   UNL     1     -11.656   8.292  71.639  1.00  0.00    -0.284 A  
HETATM    8  C   UNL     1     -13.102  10.170  71.935  1.00  0.00    -0.571 A  
HETATM    9  C   UNL     1     -11.404  10.184  70.180  1.00  0.00    -0.372 A  
HETATM   10  C   UNL     1     -12.701   8.901  72.346  1.00  0.00    -0.436 A  
ENDROOT
BRANCH   4  11
HETATM   11  C   UNL     1      -8.654   8.107  69.521  1.00  0.00    -0.134 C  
HETATM   12  H   UNL     1      -7.080   7.592  68.555  1.00  0.00     0.000 HD 
HETATM   13  O   UNL     1      -8.055   9.197  69.502  1.00  0.00    -0.097 OA 
HETATM   14  N   UNL     1      -7.966   7.168  68.829  1.00  0.00    -0.121 N  
BRANCH  14  15
HETATM   15  C   UNL     1      -7.964   5.797  68.309  1.00  0.00    -0.104 C  
HETATM   16  C   UNL     1      -6.737   5.538  65.966  1.00  0.00    -0.056 C  
HETATM   17  C   UNL     1      -6.751   5.280  67.512  1.00  0.00    -0.055 C  
HETATM   18  C   UNL     1      -6.140   6.910  65.650  1.00  0.00    -0.036 C  
HETATM   19  C   UNL     1      -7.074   8.056  66.010  1.00  0.00    -0.062 C  
HETATM   20  C   UNL     1      -8.577   7.744  65.852  1.00  0.00    -0.170 C  
HETATM   21  C   UNL     1      -9.012   6.265  66.005  1.00  0.00    -0.137 C  
HETATM   22  N   UNL     1      -8.066   5.365  65.351  1.00  0.00    -0.114 NA 
HETATM   23  C   UNL     1      -9.216   5.689  67.423  1.00  0.00    -0.109 C  
HETATM   24  C   UNL     1      -8.098   5.514  63.891  1.00  0.00    -0.122 C  
ENDBRANCH  14  15
ENDBRANCH   4  11
TORSDOF 2
ENDMDL
MODEL      177
REMARK 921   NORMALIZED FREE ENERGY PREDICTED BY IDOCK:   -4.03 KCAL/MOL
REMARK 922        TOTAL FREE ENERGY PREDICTED BY IDOCK:   -5.23 KCAL/MOL
REMARK 923 INTER-LIGAND FREE ENERGY PREDICTED BY IDOCK:   -4.65 KCAL/MOL
REMARK 924 INTRA-LIGAND FREE ENERGY PREDICTED BY IDOCK:   -0.58 KCAL/MOL
REMARK 927      BINDING AFFINITY PREDICTED BY RF-SCORE:    0.00 PKD
ROOT
HETATM    1  C   UNL     1      -7.617   9.277  70.679  1.00  0.00    -0.147 C  
HETATM    2  N   UNL     1      -8.681   8.391  70.263  1.00  0.00    -0.136 NA 
HETATM    3  N   UNL     1      -8.699   7.953  69.008  1.00  0.00    -0.138 NA 
HETATM    4  C   UNL     1      -9.927   7.411  68.843  1.00  0.00    -0.169 A  
HETATM    5  C   UNL     1     -10.594   7.314  70.107  1.00  0.00    -0.245 A  
HETATM    6  C   UNL     1     -12.161   7.065  71.955  1.00  0.00    -0.358 A  
HETATM    7  C   UNL     1      -9.762   8.008  71.001  1.00  0.00    -0.160 A  
HETATM    8  C   UNL     1     -11.311   7.775  72.804  1.00  0.00    -0.446 A  
HETATM    9  C   UNL     1     -11.824   6.838  70.607  1.00  0.00    -0.442 A  
HETATM   10  C   UNL     1     -10.094   8.265  72.337  1.00  0.00    -0.383 A  
ENDROOT
BRANCH   4  11
HETATM   11  C   UNL     1     -10.349   7.247  67.450  1.00  0.00    -0.260 C  
HETATM   12  H   UNL     1     -10.669   6.409  65.755  1.00  0.00     0.000 HD 
HETATM   13  O   UNL     1     -10.656   8.247  66.778  1.00  0.00    -0.306 OA 
HETATM   14  N   UNL     1     -10.454   6.119  66.708  1.00  0.00    -0.245 N  
BRANCH  14  15
HETATM   15  C   UNL     1     -10.388   4.654  66.705  1.00  0.00    -0.160 C  
HETATM   16  C   UNL     1      -7.941   3.687  67.077  1.00  0.00    -0.087 C  
HETATM   17  C   UNL     1      -9.390   3.927  67.626  1.00  0.00    -0.232 C  
HETATM   18  C   UNL     1      -7.049   4.898  67.352  1.00  0.00    -0.066 C  
HETATM   19  C   UNL     1      -7.378   6.087  66.462  1.00  0.00    -0.081 C  
HETATM   20  C   UNL     1      -7.876   5.722  65.048  1.00  0.00    -0.107 C  
HETATM   21  C   UNL     1      -8.596   4.361  64.881  1.00  0.00    -0.130 C  
HETATM   22  N   UNL     1      -7.932   3.313  65.650  1.00  0.00    -0.085 NA 
HETATM   23  C   UNL     1     -10.092   4.257  65.248  1.00  0.00    -0.231 C  
HETATM   24  C   UNL     1      -6.607   2.995  65.102  1.00  0.00    -0.036 C  
ENDBRANCH  14  15
ENDBRANCH   4  11
TORSDOF 2
ENDMDL
MODEL      178
REMARK 921   NORMALIZED FREE ENERGY PREDICTED BY IDOCK:   -4.03 KCAL/MOL
REMARK 922        TOTAL FREE ENERGY PREDICTED BY IDOCK:   -5.23 KCAL/MOL
REMARK 923 INTER-LIGAND FREE ENERGY PREDICTED BY IDOCK:   -4.58 KCAL/MOL
REMARK 924 INTRA-LIGAND FREE ENERGY PREDICTED BY IDOCK:   -0.65 KCAL/MOL
REMARK 927      BINDING AFFINITY PREDICTED BY RF-SCORE:    0.00 PKD
ROOT
HETATM    1  C   UNL     1     -12.540  13.426  64.989  1.00  0.00    -0.403 C  
HETATM    2  N   UNL     1     -11.289  13.327  65.706  1.00  0.00    -0.303 NA 
HETATM    3  N   UNL     1     -10.489  12.295  65.461  1.00  0.00    -0.256 NA 
HETATM    4  C   UNL     1      -9.576  12.314  66.459  1.00  0.00    -0.238 A  
HETATM    5  C   UNL     1      -9.692  13.530  67.206  1.00  0.00    -0.236 A  
HETATM    6  C   UNL     1      -9.585  15.341  68.832  1.00  0.00    -0.220 A  
HETATM    7  C   UNL     1     -10.854  14.143  66.709  1.00  0.00    -0.296 A  
HETATM    8  C   UNL     1     -10.752  15.905  68.318  1.00  0.00    -0.291 A  
HETATM    9  C   UNL     1      -9.052  14.153  68.299  1.00  0.00    -0.190 A  
HETATM   10  C   UNL     1     -11.412  15.310  67.245  1.00  0.00    -0.227 A  
ENDROOT
BRANCH   4  11
HETATM   11  C   UNL     1      -8.854  11.056  66.661  1.00  0.00    -0.164 C  
HETATM   12  H   UNL     1      -8.047   9.571  67.569  1.00  0.00     0.000 HD 
HETATM   13  O   UNL     1      -8.248  10.533  65.709  1.00  0.00    -0.152 OA 
HETATM   14  N   UNL     1      -8.706  10.318  67.788  1.00  0.00    -0.122 N  
BRANCH  14  15
HETATM   15  C   UNL     1      -9.098  10.146  69.190  1.00  0.00    -0.183 C  
HETATM   16  C   UNL     1      -7.933   8.080  70.387  1.00  0.00    -0.103 C  
HETATM   17  C   UNL     1      -8.072   9.632  70.217  1.00  0.00    -0.206 C  
HETATM   18  C   UNL     1      -6.944   7.509  69.370  1.00  0.00    -0.057 C  
HETATM   19  C   UNL     1      -7.503   7.481  67.956  1.00  0.00    -0.105 C  
HETATM   20  C   UNL     1      -9.025   7.243  67.862  1.00  0.00    -0.130 C  
HETATM   21  C   UNL     1      -9.887   7.700  69.066  1.00  0.00    -0.168 C  
HETATM   22  N   UNL     1      -9.234   7.386  70.333  1.00  0.00    -0.158 NA 
HETATM   23  C   UNL     1     -10.298   9.184  69.170  1.00  0.00    -0.223 C  
HETATM   24  C   UNL     1      -9.174   5.939  70.568  1.00  0.00    -0.152 C  
ENDBRANCH  14  15
ENDBRANCH   4  11
TORSDOF 2
ENDMDL
MODEL      179
REMARK 921   NORMALIZED FREE ENERGY PREDICTED BY IDOCK:   -4.03 KCAL/MOL
REMARK 922        TOTAL FREE ENERGY PREDICTED BY IDOCK:   -5.22 KCAL/MOL
REMARK 923 INTER-LIGAND FREE ENERGY PREDICTED BY IDOCK:   -4.72 KCAL/MOL
REMARK 924 INTRA-LIGAND FREE ENERGY PREDICTED BY IDOCK:   -0.50 KCAL/MOL
REMARK 927      BINDING AFFINITY PREDICTED BY RF-SCORE:    0.00 PKD
ROOT
HETATM    1  C   UNL     1     -10.241  11.015  68.094  1.00  0.00    -0.182 C  
HETATM    2  N   UNL     1     -10.551  10.103  69.172  1.00  0.00    -0.210 NA 
HETATM    3  N   UNL     1      -9.915   8.938  69.232  1.00  0.00    -0.187 NA 
HETATM    4  C   UNL     1     -10.606   8.206  70.135  1.00  0.00    -0.237 A  
HETATM    5  C   UNL     1     -11.558   9.035  70.811  1.00  0.00    -0.313 A  
HETATM    6  C   UNL     1     -13.382   9.976  72.122  1.00  0.00    -0.469 A  
HETATM    7  C   UNL     1     -11.521  10.256  70.120  1.00  0.00    -0.309 A  
HETATM    8  C   UNL     1     -13.322  11.167  71.396  1.00  0.00    -0.139 A  
HETATM    9  C   UNL     1     -12.521   8.902  71.834  1.00  0.00    -0.445 A  
HETATM   10  C   UNL     1     -12.389  11.325  70.376  1.00  0.00    -0.415 A  
ENDROOT
BRANCH   4  11
HETATM   11  C   UNL     1     -10.374   6.761  70.068  1.00  0.00    -0.199 C  
HETATM   12  H   UNL     1      -9.533   5.094  69.632  1.00  0.00     0.000 HD 
HETATM   13  O   UNL     1     -11.267   5.976  70.430  1.00  0.00    -0.337 OA 
HETATM   14  N   UNL     1      -9.285   6.082  69.634  1.00  0.00    -0.137 N  
BRANCH  14  15
HETATM   15  C   UNL     1      -7.899   6.176  69.166  1.00  0.00    -0.104 C  
HETATM   16  C   UNL     1      -7.594   5.611  66.588  1.00  0.00    -0.092 C  
HETATM   17  C   UNL     1      -7.602   6.675  67.739  1.00  0.00    -0.106 C  
HETATM   18  C   UNL     1      -9.004   5.399  66.035  1.00  0.00    -0.147 C  
HETATM   19  C   UNL     1      -9.899   4.620  66.986  1.00  0.00    -0.232 C  
HETATM   20  C   UNL     1      -9.172   3.563  67.844  1.00  0.00    -0.230 C  
HETATM   21  C   UNL     1      -7.677   3.817  68.163  1.00  0.00    -0.065 C  
HETATM   22  N   UNL     1      -6.970   4.339  66.997  1.00  0.00    -0.062 NA 
HETATM   23  C   UNL     1      -7.311   4.764  69.326  1.00  0.00    -0.053 C  
HETATM   24  C   UNL     1      -6.860   3.333  65.934  1.00  0.00    -0.052 C  
ENDBRANCH  14  15
ENDBRANCH   4  11
TORSDOF 2
ENDMDL
MODEL      180
REMARK 921   NORMALIZED FREE ENERGY PREDICTED BY IDOCK:   -4.00 KCAL/MOL
REMARK 922        TOTAL FREE ENERGY PREDICTED BY IDOCK:   -5.19 KCAL/MOL
REMARK 923 INTER-LIGAND FREE ENERGY PREDICTED BY IDOCK:   -4.59 KCAL/MOL
REMARK 924 INTRA-LIGAND FREE ENERGY PREDICTED BY IDOCK:   -0.61 KCAL/MOL
REMARK 927      BINDING AFFINITY PREDICTED BY RF-SCORE:    0.00 PKD
ROOT
HETATM    1  C   UNL     1     -12.272  12.048  64.138  1.00  0.00    -0.359 C  
HETATM    2  N   UNL     1     -11.180  12.109  65.083  1.00  0.00    -0.321 NA 
HETATM    3  N   UNL     1     -10.817  10.998  65.717  1.00  0.00    -0.155 NA 
HETATM    4  C   UNL     1     -10.006  11.413  66.716  1.00  0.00    -0.208 A  
HETATM    5  C   UNL     1      -9.687  12.799  66.545  1.00  0.00    -0.255 A  
HETATM    6  C   UNL     1      -8.973  15.118  66.758  1.00  0.00    -0.293 A  
HETATM    7  C   UNL     1     -10.511  13.225  65.491  1.00  0.00    -0.288 A  
HETATM    8  C   UNL     1      -9.821  15.501  65.718  1.00  0.00    -0.392 A  
HETATM    9  C   UNL     1      -8.905  13.780  67.189  1.00  0.00    -0.240 A  
HETATM   10  C   UNL     1     -10.611  14.557  65.067  1.00  0.00    -0.458 A  
ENDROOT
BRANCH   4  11
HETATM   11  C   UNL     1      -9.819  10.449  67.803  1.00  0.00    -0.168 C  
HETATM   12  H   UNL     1      -9.750   8.767  68.722  1.00  0.00     0.000 HD 
HETATM   13  O   UNL     1      -9.682  10.854  68.970  1.00  0.00    -0.202 OA 
HETATM   14  N   UNL     1      -9.784   9.096  67.757  1.00  0.00    -0.149 N  
BRANCH  14  15
HETATM   15  C   UNL     1      -9.775   7.906  66.900  1.00  0.00    -0.219 C  
HETATM   16  C   UNL     1      -8.492   5.831  67.953  1.00  0.00    -0.103 C  
HETATM   17  C   UNL     1      -9.844   6.503  67.531  1.00  0.00    -0.150 C  
HETATM   18  C   UNL     1      -8.090   6.259  69.365  1.00  0.00    -0.113 C  
HETATM   19  C   UNL     1      -7.598   7.696  69.428  1.00  0.00    -0.095 C  
HETATM   20  C   UNL     1      -6.856   8.186  68.166  1.00  0.00    -0.076 C  
HETATM   21  C   UNL     1      -7.232   7.516  66.821  1.00  0.00    -0.084 C  
HETATM   22  N   UNL     1      -7.411   6.076  66.979  1.00  0.00    -0.083 NA 
HETATM   23  C   UNL     1      -8.486   8.007  66.066  1.00  0.00    -0.144 C  
HETATM   24  C   UNL     1      -6.142   5.402  67.280  1.00  0.00    -0.030 C  
ENDBRANCH  14  15
ENDBRANCH   4  11
TORSDOF 2
ENDMDL
MODEL      181
REMARK 921   NORMALIZED FREE ENERGY PREDICTED BY IDOCK:   -3.96 KCAL/MOL
REMARK 922        TOTAL FREE ENERGY PREDICTED BY IDOCK:   -5.15 KCAL/MOL
REMARK 923 INTER-LIGAND FREE ENERGY PREDICTED BY IDOCK:   -4.47 KCAL/MOL
REMARK 924 INTRA-LIGAND FREE ENERGY PREDICTED BY IDOCK:   -0.67 KCAL/MOL
REMARK 927      BINDING AFFINITY PREDICTED BY RF-SCORE:    0.00 PKD
ROOT
HETATM    1  C   UNL     1     -10.619   4.885  74.227  1.00  0.00    -0.270 C  
HETATM    2  N   UNL     1     -10.001   6.077  73.692  1.00  0.00    -0.181 NA 
HETATM    3  N   UNL     1     -10.776   7.048  73.223  1.00  0.00    -0.325 NA 
HETATM    4  C   UNL     1      -9.942   7.867  72.542  1.00  0.00    -0.249 A  
HETATM    5  C   UNL     1      -8.581   7.500  72.796  1.00  0.00    -0.159 A  
HETATM    6  C   UNL     1      -6.165   7.191  72.809  1.00  0.00    -0.056 A  
HETATM    7  C   UNL     1      -8.666   6.298  73.516  1.00  0.00    -0.124 A  
HETATM    8  C   UNL     1      -6.297   5.992  73.509  1.00  0.00    -0.065 A  
HETATM    9  C   UNL     1      -7.292   7.946  72.435  1.00  0.00    -0.104 A  
HETATM   10  C   UNL     1      -7.556   5.521  73.872  1.00  0.00    -0.094 A  
ENDROOT
BRANCH   4  11
HETATM   11  C   UNL     1     -10.598   8.762  71.586  1.00  0.00    -0.331 C  
HETATM   12  H   UNL     1     -10.856   9.853  70.030  1.00  0.00     0.000 HD 
HETATM   13  O   UNL     1     -11.670   9.313  71.892  1.00  0.00    -0.370 OA 
HETATM   14  N   UNL     1     -10.204   9.135  70.345  1.00  0.00    -0.206 N  
BRANCH  14  15
HETATM   15  C   UNL     1      -9.232   8.937  69.265  1.00  0.00    -0.145 C  
HETATM   16  C   UNL     1      -8.818  11.100  67.780  1.00  0.00    -0.135 C  
HETATM   17  C   UNL     1      -8.294  10.088  68.855  1.00  0.00    -0.130 C  
HETATM   18  C   UNL     1      -9.624  12.222  68.438  1.00  0.00    -0.183 C  
HETATM   19  C   UNL     1     -10.989  11.759  68.923  1.00  0.00    -0.288 C  
HETATM   20  C   UNL     1     -11.643  10.653  68.068  1.00  0.00    -0.182 C  
HETATM   21  C   UNL     1     -10.695   9.705  67.292  1.00  0.00    -0.214 C  
HETATM   22  N   UNL     1      -9.579  10.439  66.703  1.00  0.00    -0.172 NA 
HETATM   23  C   UNL     1     -10.056   8.513  68.038  1.00  0.00    -0.245 C  
HETATM   24  C   UNL     1     -10.025  11.328  65.624  1.00  0.00    -0.247 C  
ENDBRANCH  14  15
ENDBRANCH   4  11
TORSDOF 2
ENDMDL
MODEL      182
REMARK 921   NORMALIZED FREE ENERGY PREDICTED BY IDOCK:   -3.91 KCAL/MOL
REMARK 922        TOTAL FREE ENERGY PREDICTED BY IDOCK:   -5.08 KCAL/MOL
REMARK 923 INTER-LIGAND FREE ENERGY PREDICTED BY IDOCK:   -4.53 KCAL/MOL
REMARK 924 INTRA-LIGAND FREE ENERGY PREDICTED BY IDOCK:   -0.55 KCAL/MOL
REMARK 927      BINDING AFFINITY PREDICTED BY RF-SCORE:    0.00 PKD
ROOT
HETATM    1  C   UNL     1      -9.370  14.691  67.392  1.00  0.00    -0.196 C  
HETATM    2  N   UNL     1      -9.702  13.549  66.572  1.00  0.00    -0.277 NA 
HETATM    3  N   UNL     1      -9.016  12.422  66.731  1.00  0.00    -0.211 NA 
HETATM    4  C   UNL     1      -9.337  11.660  65.661  1.00  0.00    -0.180 A  
HETATM    5  C   UNL     1     -10.428  12.254  64.947  1.00  0.00    -0.321 A  
HETATM    6  C   UNL     1     -12.142  12.920  63.349  1.00  0.00    -0.610 A  
HETATM    7  C   UNL     1     -10.605  13.510  65.550  1.00  0.00    -0.296 A  
HETATM    8  C   UNL     1     -12.272  14.163  63.969  1.00  0.00    -0.369 A  
HETATM    9  C   UNL     1     -11.220  11.965  63.816  1.00  0.00    -0.519 A  
HETATM   10  C   UNL     1     -11.499  14.482  65.082  1.00  0.00    -0.368 A  
ENDROOT
BRANCH   4  11
HETATM   11  C   UNL     1      -8.406  10.566  65.377  1.00  0.00    -0.165 C  
HETATM   12  H   UNL     1      -7.037   9.253  65.656  1.00  0.00     0.000 HD 
HETATM   13  O   UNL     1      -8.233  10.193  64.204  1.00  0.00    -0.156 OA 
HETATM   14  N   UNL     1      -7.633   9.850  66.228  1.00  0.00    -0.100 N  
BRANCH  14  15
HETATM   15  C   UNL     1      -7.296   9.575  67.629  1.00  0.00    -0.083 C  
HETATM   16  C   UNL     1      -6.037   7.265  67.999  1.00  0.00    -0.031 C  
HETATM   17  C   UNL     1      -5.992   8.831  67.973  1.00  0.00    -0.046 C  
HETATM   18  C   UNL     1      -5.791   6.692  66.602  1.00  0.00    -0.018 C  
HETATM   19  C   UNL     1      -6.976   6.886  65.669  1.00  0.00    -0.064 C  
HETATM   20  C   UNL     1      -8.358   6.846  66.355  1.00  0.00    -0.125 C  
HETATM   21  C   UNL     1      -8.421   7.271  67.844  1.00  0.00    -0.118 C  
HETATM   22  N   UNL     1      -7.283   6.744  68.592  1.00  0.00    -0.082 NA 
HETATM   23  C   UNL     1      -8.482   8.774  68.190  1.00  0.00    -0.130 C  
HETATM   24  C   UNL     1      -7.345   5.283  68.717  1.00  0.00    -0.070 C  
ENDBRANCH  14  15
ENDBRANCH   4  11
TORSDOF 2
ENDMDL
MODEL      183
REMARK 921   NORMALIZED FREE ENERGY PREDICTED BY IDOCK:   -3.90 KCAL/MOL
REMARK 922        TOTAL FREE ENERGY PREDICTED BY IDOCK:   -5.08 KCAL/MOL
REMARK 923 INTER-LIGAND FREE ENERGY PREDICTED BY IDOCK:   -4.47 KCAL/MOL
REMARK 924 INTRA-LIGAND FREE ENERGY PREDICTED BY IDOCK:   -0.61 KCAL/MOL
REMARK 927      BINDING AFFINITY PREDICTED BY RF-SCORE:    0.00 PKD
ROOT
HETATM    1  C   UNL     1      -7.553   8.128  72.586  1.00  0.00    -0.125 C  
HETATM    2  N   UNL     1      -8.473   7.555  71.629  1.00  0.00    -0.110 NA 
HETATM    3  N   UNL     1      -8.014   7.187  70.437  1.00  0.00    -0.110 NA 
HETATM    4  C   UNL     1      -9.117   6.977  69.685  1.00  0.00    -0.144 A  
HETATM    5  C   UNL     1     -10.286   6.999  70.513  1.00  0.00    -0.218 A  
HETATM    6  C   UNL     1     -12.531   7.075  71.454  1.00  0.00    -0.426 A  
HETATM    7  C   UNL     1      -9.824   7.425  71.768  1.00  0.00    -0.167 A  
HETATM    8  C   UNL     1     -12.029   7.515  72.680  1.00  0.00    -0.155 A  
HETATM    9  C   UNL     1     -11.678   6.827  70.363  1.00  0.00    -0.418 A  
HETATM   10  C   UNL     1     -10.661   7.702  72.856  1.00  0.00    -0.428 A  
ENDROOT
BRANCH   4  11
HETATM   11  C   UNL     1      -8.891   6.981  68.238  1.00  0.00    -0.126 C  
HETATM   12  H   UNL     1      -9.125   7.404  66.382  1.00  0.00     0.000 HD 
HETATM   13  O   UNL     1      -8.105   6.158  67.735  1.00  0.00    -0.111 OA 
HETATM   14  N   UNL     1      -9.438   7.769  67.282  1.00  0.00    -0.142 N  
BRANCH  14  15
HETATM   15  C   UNL     1     -10.293   8.926  67.001  1.00  0.00    -0.269 C  
HETATM   16  C   UNL     1      -9.016  10.953  65.852  1.00  0.00    -0.192 C  
HETATM   17  C   UNL     1     -10.046   9.777  65.741  1.00  0.00    -0.308 C  
HETATM   18  C   UNL     1      -7.594  10.457  65.587  1.00  0.00    -0.150 C  
HETATM   19  C   UNL     1      -7.036   9.627  66.733  1.00  0.00    -0.085 C  
HETATM   20  C   UNL     1      -7.525  10.044  68.136  1.00  0.00    -0.083 C  
HETATM   21  C   UNL     1      -8.916  10.721  68.228  1.00  0.00    -0.143 C  
HETATM   22  N   UNL     1      -9.114  11.671  67.137  1.00  0.00    -0.167 NA 
HETATM   23  C   UNL     1     -10.179   9.834  68.237  1.00  0.00    -0.212 C  
HETATM   24  C   UNL     1      -8.229  12.835  67.265  1.00  0.00    -0.181 C  
ENDBRANCH  14  15
ENDBRANCH   4  11
TORSDOF 2
ENDMDL
MODEL      184
REMARK 921   NORMALIZED FREE ENERGY PREDICTED BY IDOCK:   -3.87 KCAL/MOL
REMARK 922        TOTAL FREE ENERGY PREDICTED BY IDOCK:   -5.04 KCAL/MOL
REMARK 923 INTER-LIGAND FREE ENERGY PREDICTED BY IDOCK:   -4.35 KCAL/MOL
REMARK 924 INTRA-LIGAND FREE ENERGY PREDICTED BY IDOCK:   -0.69 KCAL/MOL
REMARK 927      BINDING AFFINITY PREDICTED BY RF-SCORE:    0.00 PKD
ROOT
HETATM    1  C   UNL     1      -9.734   8.640  66.185  1.00  0.00    -0.222 C  
HETATM    2  N   UNL     1     -10.039   7.417  66.894  1.00  0.00    -0.242 NA 
HETATM    3  N   UNL     1     -10.772   7.482  68.000  1.00  0.00    -0.152 NA 
HETATM    4  C   UNL     1     -10.641   6.268  68.581  1.00  0.00    -0.264 A  
HETATM    5  C   UNL     1      -9.988   5.363  67.682  1.00  0.00    -0.195 A  
HETATM    6  C   UNL     1      -8.823   3.524  66.591  1.00  0.00    -0.139 A  
HETATM    7  C   UNL     1      -9.572   6.168  66.609  1.00  0.00    -0.152 A  
HETATM    8  C   UNL     1      -8.416   4.364  65.554  1.00  0.00    -0.116 A  
HETATM    9  C   UNL     1      -9.594   4.009  67.663  1.00  0.00    -0.210 A  
HETATM   10  C   UNL     1      -8.782   5.707  65.548  1.00  0.00    -0.151 A  
ENDROOT
BRANCH   4  11
HETATM   11  C   UNL     1     -10.992   6.219  70.002  1.00  0.00    -0.358 C  
HETATM   12  H   UNL     1     -10.882   5.791  71.868  1.00  0.00     0.000 HD 
HETATM   13  O   UNL     1     -12.110   6.617  70.374  1.00  0.00    -0.374 OA 
HETATM   14  N   UNL     1     -10.268   5.770  71.054  1.00  0.00    -0.207 N  
BRANCH  14  15
HETATM   15  C   UNL     1      -8.969   5.266  71.511  1.00  0.00    -0.135 C  
HETATM   16  C   UNL     1      -7.855   6.739  73.421  1.00  0.00    -0.091 C  
HETATM   17  C   UNL     1      -8.566   5.410  72.991  1.00  0.00    -0.122 C  
HETATM   18  C   UNL     1      -8.883   7.816  73.775  1.00  0.00    -0.326 C  
HETATM   19  C   UNL     1      -9.587   8.382  72.551  1.00  0.00    -0.358 C  
HETATM   20  C   UNL     1      -8.724   8.441  71.273  1.00  0.00    -0.203 C  
HETATM   21  C   UNL     1      -7.582   7.402  71.142  1.00  0.00    -0.082 C  
HETATM   22  N   UNL     1      -6.889   7.216  72.413  1.00  0.00    -0.063 NA 
HETATM   23  C   UNL     1      -7.919   5.980  70.644  1.00  0.00    -0.111 C  
HETATM   24  C   UNL     1      -6.132   8.413  72.798  1.00  0.00    -0.077 C  
ENDBRANCH  14  15
ENDBRANCH   4  11
TORSDOF 2
ENDMDL
MODEL      185
REMARK 921   NORMALIZED FREE ENERGY PREDICTED BY IDOCK:   -3.84 KCAL/MOL
REMARK 922        TOTAL FREE ENERGY PREDICTED BY IDOCK:   -5.01 KCAL/MOL
REMARK 923 INTER-LIGAND FREE ENERGY PREDICTED BY IDOCK:   -4.27 KCAL/MOL
REMARK 924 INTRA-LIGAND FREE ENERGY PREDICTED BY IDOCK:   -0.75 KCAL/MOL
REMARK 927      BINDING AFFINITY PREDICTED BY RF-SCORE:    0.00 PKD
ROOT
HETATM    1  C   UNL     1      -7.642   7.698  64.186  1.00  0.00    -0.113 C  
HETATM    2  N   UNL     1      -7.816   8.086  65.567  1.00  0.00    -0.100 NA 
HETATM    3  N   UNL     1      -8.934   7.738  66.196  1.00  0.00    -0.168 NA 
HETATM    4  C   UNL     1      -8.941   8.471  67.332  1.00  0.00    -0.134 A  
HETATM    5  C   UNL     1      -7.674   9.116  67.506  1.00  0.00    -0.092 A  
HETATM    6  C   UNL     1      -5.784  10.502  68.167  1.00  0.00    -0.043 A  
HETATM    7  C   UNL     1      -6.985   8.874  66.307  1.00  0.00    -0.079 A  
HETATM    8  C   UNL     1      -5.142  10.250  66.954  1.00  0.00    -0.040 A  
HETATM    9  C   UNL     1      -7.049   9.957  68.451  1.00  0.00    -0.072 A  
HETATM   10  C   UNL     1      -5.737   9.431  65.998  1.00  0.00    -0.049 A  
ENDROOT
BRANCH   4  11
HETATM   11  C   UNL     1     -10.248   8.594  67.982  1.00  0.00    -0.210 C  
HETATM   12  H   UNL     1     -11.802   8.116  68.998  1.00  0.00     0.000 HD 
HETATM   13  O   UNL     1     -10.968   9.578  67.737  1.00  0.00    -0.244 OA 
HETATM   14  N   UNL     1     -10.860   7.755  68.851  1.00  0.00    -0.070 N  
BRANCH  14  15
HETATM   15  C   UNL     1     -10.734   6.544  69.669  1.00  0.00    -0.269 C  
HETATM   16  C   UNL     1     -11.539   6.855  72.182  1.00  0.00    -0.284 C  
HETATM   17  C   UNL     1     -11.779   6.241  70.760  1.00  0.00    -0.289 C  
HETATM   18  C   UNL     1     -12.114   8.270  72.267  1.00  0.00    -0.439 C  
HETATM   19  C   UNL     1     -11.289   9.288  71.496  1.00  0.00    -0.455 C  
HETATM   20  C   UNL     1      -9.772   9.006  71.462  1.00  0.00    -0.365 C  
HETATM   21  C   UNL     1      -9.326   7.527  71.586  1.00  0.00    -0.145 C  
HETATM   22  N   UNL     1     -10.120   6.817  72.583  1.00  0.00    -0.171 NA 
HETATM   23  C   UNL     1      -9.347   6.633  70.328  1.00  0.00    -0.160 C  
HETATM   24  C   UNL     1      -9.847   7.303  73.941  1.00  0.00    -0.276 C  
ENDBRANCH  14  15
ENDBRANCH   4  11
TORSDOF 2
ENDMDL
MODEL      186
REMARK 921   NORMALIZED FREE ENERGY PREDICTED BY IDOCK:   -3.82 KCAL/MOL
REMARK 922        TOTAL FREE ENERGY PREDICTED BY IDOCK:   -4.99 KCAL/MOL
REMARK 923 INTER-LIGAND FREE ENERGY PREDICTED BY IDOCK:   -4.43 KCAL/MOL
REMARK 924 INTRA-LIGAND FREE ENERGY PREDICTED BY IDOCK:   -0.56 KCAL/MOL
REMARK 927      BINDING AFFINITY PREDICTED BY RF-SCORE:    0.00 PKD
ROOT
HETATM    1  C   UNL     1      -7.633   5.099  64.460  1.00  0.00    -0.079 C  
HETATM    2  N   UNL     1      -7.854   6.005  65.565  1.00  0.00    -0.099 NA 
HETATM    3  N   UNL     1      -7.806   5.529  66.805  1.00  0.00    -0.100 NA 
HETATM    4  C   UNL     1      -8.328   6.508  67.578  1.00  0.00    -0.121 A  
HETATM    5  C   UNL     1      -8.489   7.706  66.808  1.00  0.00    -0.127 A  
HETATM    6  C   UNL     1      -9.067   9.895  65.913  1.00  0.00    -0.201 A  
HETATM    7  C   UNL     1      -8.210   7.319  65.488  1.00  0.00    -0.139 A  
HETATM    8  C   UNL     1      -8.795   9.464  64.614  1.00  0.00    -0.238 A  
HETATM    9  C   UNL     1      -8.932   9.029  67.013  1.00  0.00    -0.144 A  
HETATM   10  C   UNL     1      -8.364   8.161  64.378  1.00  0.00    -0.050 A  
ENDROOT
BRANCH   4  11
HETATM   11  C   UNL     1      -8.778   6.077  68.903  1.00  0.00    -0.122 C  
HETATM   12  H   UNL     1      -9.211   6.158  70.769  1.00  0.00     0.000 HD 
HETATM   13  O   UNL     1      -8.968   4.868  69.126  1.00  0.00    -0.094 OA 
HETATM   14  N   UNL     1      -9.026   6.815  70.011  1.00  0.00    -0.141 N  
BRANCH  14  15
HETATM   15  C   UNL     1      -9.138   8.163  70.576  1.00  0.00    -0.150 C  
HETATM   16  C   UNL     1     -10.736   8.314  72.693  1.00  0.00    -0.314 C  
HETATM   17  C   UNL     1      -9.287   8.349  72.098  1.00  0.00    -0.339 C  
HETATM   18  C   UNL     1     -11.161   6.877  73.001  1.00  0.00    -0.220 C  
HETATM   19  C   UNL     1     -11.467   6.072  71.748  1.00  0.00    -0.314 C  
HETATM   20  C   UNL     1     -12.065   6.886  70.581  1.00  0.00    -0.363 C  
HETATM   21  C   UNL     1     -11.700   8.390  70.509  1.00  0.00    -0.070 C  
HETATM   22  N   UNL     1     -11.718   9.002  71.834  1.00  0.00    -0.367 NA 
HETATM   23  C   UNL     1     -10.352   8.803  69.881  1.00  0.00    -0.212 C  
HETATM   24  C   UNL     1     -13.078   9.072  72.381  1.00  0.00    -0.423 C  
ENDBRANCH  14  15
ENDBRANCH   4  11
TORSDOF 2
ENDMDL
MODEL      187
REMARK 921   NORMALIZED FREE ENERGY PREDICTED BY IDOCK:   -3.80 KCAL/MOL
REMARK 922        TOTAL FREE ENERGY PREDICTED BY IDOCK:   -4.96 KCAL/MOL
REMARK 923 INTER-LIGAND FREE ENERGY PREDICTED BY IDOCK:   -3.95 KCAL/MOL
REMARK 924 INTRA-LIGAND FREE ENERGY PREDICTED BY IDOCK:   -1.02 KCAL/MOL
REMARK 927      BINDING AFFINITY PREDICTED BY RF-SCORE:    0.00 PKD
ROOT
HETATM    1  C   UNL     1      -8.828   4.542  73.826  1.00  0.00    -0.104 C  
HETATM    2  N   UNL     1      -9.419   4.673  72.514  1.00  0.00    -0.134 NA 
HETATM    3  N   UNL     1      -8.897   3.987  71.503  1.00  0.00    -0.105 NA 
HETATM    4  C   UNL     1      -9.448   4.524  70.391  1.00  0.00    -0.182 A  
HETATM    5  C   UNL     1     -10.510   5.415  70.752  1.00  0.00    -0.317 A  
HETATM    6  C   UNL     1     -12.272   7.093  70.860  1.00  0.00    -0.354 A  
HETATM    7  C   UNL     1     -10.426   5.518  72.150  1.00  0.00    -0.220 A  
HETATM    8  C   UNL     1     -12.143   7.176  72.247  1.00  0.00    -0.219 A  
HETATM    9  C   UNL     1     -11.458   6.232  70.101  1.00  0.00    -0.452 A  
HETATM   10  C   UNL     1     -11.210   6.389  72.918  1.00  0.00    -0.219 A  
ENDROOT
BRANCH   4  11
HETATM   11  C   UNL     1      -8.730   4.243  69.146  1.00  0.00    -0.085 C  
HETATM   12  H   UNL     1      -7.696   4.544  67.559  1.00  0.00     0.000 HD 
HETATM   13  O   UNL     1      -8.842   3.127  68.608  1.00  0.00    -0.094 OA 
HETATM   14  N   UNL     1      -7.921   5.048  68.416  1.00  0.00    -0.086 N  
BRANCH  14  15
HETATM   15  C   UNL     1      -7.235   6.342  68.345  1.00  0.00    -0.085 C  
HETATM   16  C   UNL     1      -8.709   8.284  67.287  1.00  0.00    -0.123 C  
HETATM   17  C   UNL     1      -8.031   7.646  68.548  1.00  0.00    -0.123 C  
HETATM   18  C   UNL     1     -10.094   7.678  67.050  1.00  0.00    -0.338 C  
HETATM   19  C   UNL     1     -10.031   6.256  66.515  1.00  0.00    -0.172 C  
HETATM   20  C   UNL     1      -8.824   5.957  65.601  1.00  0.00    -0.126 C  
HETATM   21  C   UNL     1      -7.540   6.794  65.830  1.00  0.00    -0.088 C  
HETATM   22  N   UNL     1      -7.861   8.196  66.083  1.00  0.00    -0.090 NA 
HETATM   23  C   UNL     1      -6.571   6.383  66.958  1.00  0.00    -0.058 C  
HETATM   24  C   UNL     1      -8.410   8.850  64.889  1.00  0.00    -0.172 C  
ENDBRANCH  14  15
ENDBRANCH   4  11
TORSDOF 2
ENDMDL
MODEL      188
REMARK 921   NORMALIZED FREE ENERGY PREDICTED BY IDOCK:   -3.78 KCAL/MOL
REMARK 922        TOTAL FREE ENERGY PREDICTED BY IDOCK:   -4.94 KCAL/MOL
REMARK 923 INTER-LIGAND FREE ENERGY PREDICTED BY IDOCK:   -4.28 KCAL/MOL
REMARK 924 INTRA-LIGAND FREE ENERGY PREDICTED BY IDOCK:   -0.66 KCAL/MOL
REMARK 927      BINDING AFFINITY PREDICTED BY RF-SCORE:    0.00 PKD
ROOT
HETATM    1  C   UNL     1      -8.335  10.389  63.799  1.00  0.00    -0.149 C  
HETATM    2  N   UNL     1      -9.269  10.183  64.883  1.00  0.00    -0.210 NA 
HETATM    3  N   UNL     1     -10.094  11.169  65.218  1.00  0.00    -0.260 NA 
HETATM    4  C   UNL     1     -10.615  10.803  66.410  1.00  0.00    -0.203 A  
HETATM    5  C   UNL     1     -10.266   9.444  66.701  1.00  0.00    -0.319 A  
HETATM    6  C   UNL     1      -9.836   7.259  67.687  1.00  0.00    -0.189 A  
HETATM    7  C   UNL     1      -9.348   9.092  65.698  1.00  0.00    -0.222 A  
HETATM    8  C   UNL     1      -8.918   6.958  66.681  1.00  0.00    -0.157 A  
HETATM    9  C   UNL     1     -10.505   8.497  67.718  1.00  0.00    -0.287 A  
HETATM   10  C   UNL     1      -8.654   7.875  65.667  1.00  0.00    -0.159 A  
ENDROOT
BRANCH   4  11
HETATM   11  C   UNL     1     -11.212  11.892  67.186  1.00  0.00    -0.319 C  
HETATM   12  H   UNL     1     -11.337  13.422  68.336  1.00  0.00     0.000 HD 
HETATM   13  O   UNL     1     -12.443  11.921  67.362  1.00  0.00     0.027 OA 
HETATM   14  N   UNL     1     -10.614  12.938  67.804  1.00  0.00    -0.219 N  
BRANCH  14  15
HETATM   15  C   UNL     1      -9.360  13.665  68.028  1.00  0.00    -0.208 C  
HETATM   16  C   UNL     1      -9.699  16.227  68.646  1.00  0.00    -0.235 C  
HETATM   17  C   UNL     1      -9.297  14.779  69.090  1.00  0.00    -0.102 C  
HETATM   18  C   UNL     1     -11.209  16.434  68.769  1.00  0.00    -0.313 C  
HETATM   19  C   UNL     1     -11.994  15.697  67.695  1.00  0.00     0.330 C  
HETATM   20  C   UNL     1     -11.277  15.577  66.333  1.00  0.00    -0.098 C  
HETATM   21  C   UNL     1      -9.728  15.579  66.347  1.00  0.00    -0.283 C  
HETATM   22  N   UNL     1      -9.210  16.561  67.295  1.00  0.00    -0.214 NA 
HETATM   23  C   UNL     1      -8.981  14.266  66.663  1.00  0.00    -0.212 C  
HETATM   24  C   UNL     1      -9.485  17.935  66.858  1.00  0.00    -0.279 C  
ENDBRANCH  14  15
ENDBRANCH   4  11
TORSDOF 2
ENDMDL
MODEL      189
REMARK 921   NORMALIZED FREE ENERGY PREDICTED BY IDOCK:   -3.76 KCAL/MOL
REMARK 922        TOTAL FREE ENERGY PREDICTED BY IDOCK:   -4.92 KCAL/MOL
REMARK 923 INTER-LIGAND FREE ENERGY PREDICTED BY IDOCK:   -4.34 KCAL/MOL
REMARK 924 INTRA-LIGAND FREE ENERGY PREDICTED BY IDOCK:   -0.58 KCAL/MOL
REMARK 927      BINDING AFFINITY PREDICTED BY RF-SCORE:    0.00 PKD
ROOT
HETATM    1  C   UNL     1      -6.003  18.194  65.629  1.00  0.00    -0.217 C  
HETATM    2  N   UNL     1      -7.003  17.513  66.420  1.00  0.00    -0.251 NA 
HETATM    3  N   UNL     1      -7.092  16.190  66.342  1.00  0.00    -0.044 NA 
HETATM    4  C   UNL     1      -8.267  15.880  66.937  1.00  0.00    -0.248 A  
HETATM    5  C   UNL     1      -8.800  17.035  67.597  1.00  0.00    -0.220 A  
HETATM    6  C   UNL     1     -10.154  18.706  68.738  1.00  0.00    -0.398 A  
HETATM    7  C   UNL     1      -7.966  18.090  67.195  1.00  0.00    -0.212 A  
HETATM    8  C   UNL     1      -9.309  19.726  68.302  1.00  0.00    -0.415 A  
HETATM    9  C   UNL     1      -9.922  17.364  68.385  1.00  0.00    -0.329 A  
HETATM   10  C   UNL     1      -8.197  19.434  67.516  1.00  0.00    -0.321 A  
ENDROOT
BRANCH   4  11
HETATM   11  C   UNL     1      -8.797  14.555  66.609  1.00  0.00    -0.184 C  
HETATM   12  H   UNL     1      -8.846  12.661  66.314  1.00  0.00     0.000 HD 
HETATM   13  O   UNL     1      -9.928  14.452  66.104  1.00  0.00    -0.286 OA 
HETATM   14  N   UNL     1      -8.223  13.337  66.754  1.00  0.00     0.054 N  
BRANCH  14  15
HETATM   15  C   UNL     1      -7.079  12.586  67.280  1.00  0.00    -0.112 C  
HETATM   16  C   UNL     1      -7.333   9.950  67.064  1.00  0.00    -0.091 C  
HETATM   17  C   UNL     1      -6.640  11.276  66.597  1.00  0.00    -0.135 C  
HETATM   18  C   UNL     1      -8.633   9.715  66.292  1.00  0.00    -0.137 C  
HETATM   19  C   UNL     1      -9.749  10.655  66.719  1.00  0.00    -0.222 C  
HETATM   20  C   UNL     1      -9.725  11.059  68.209  1.00  0.00    -0.181 C  
HETATM   21  C   UNL     1      -8.348  11.061  68.919  1.00  0.00    -0.123 C  
HETATM   22  N   UNL     1      -7.548   9.907  68.523  1.00  0.00    -0.079 NA 
HETATM   23  C   UNL     1      -7.422  12.284  68.748  1.00  0.00    -0.065 C  
HETATM   24  C   UNL     1      -8.119   8.652  69.028  1.00  0.00    -0.121 C  
ENDBRANCH  14  15
ENDBRANCH   4  11
TORSDOF 2
ENDMDL
MODEL      190
REMARK 921   NORMALIZED FREE ENERGY PREDICTED BY IDOCK:   -3.74 KCAL/MOL
REMARK 922        TOTAL FREE ENERGY PREDICTED BY IDOCK:   -4.90 KCAL/MOL
REMARK 923 INTER-LIGAND FREE ENERGY PREDICTED BY IDOCK:   -4.28 KCAL/MOL
REMARK 924 INTRA-LIGAND FREE ENERGY PREDICTED BY IDOCK:   -0.62 KCAL/MOL
REMARK 927      BINDING AFFINITY PREDICTED BY RF-SCORE:    0.00 PKD
ROOT
HETATM    1  C   UNL     1      -5.907  10.555  66.847  1.00  0.00    -0.058 C  
HETATM    2  N   UNL     1      -6.798   9.428  67.006  1.00  0.00    -0.083 NA 
HETATM    3  N   UNL     1      -7.230   9.116  68.223  1.00  0.00    -0.077 NA 
HETATM    4  C   UNL     1      -7.780   7.887  68.098  1.00  0.00    -0.125 A  
HETATM    5  C   UNL     1      -7.888   7.538  66.713  1.00  0.00    -0.110 A  
HETATM    6  C   UNL     1      -8.158   6.453  64.549  1.00  0.00    -0.088 A  
HETATM    7  C   UNL     1      -7.193   8.553  66.036  1.00  0.00    -0.077 A  
HETATM    8  C   UNL     1      -7.445   7.475  63.920  1.00  0.00    -0.108 A  
HETATM    9  C   UNL     1      -8.375   6.464  65.939  1.00  0.00    -0.143 A  
HETATM   10  C   UNL     1      -6.945   8.545  64.657  1.00  0.00    -0.073 A  
ENDROOT
BRANCH   4  11
HETATM   11  C   UNL     1      -7.940   7.149  69.353  1.00  0.00    -0.125 C  
HETATM   12  H   UNL     1      -8.272   6.812  71.211  1.00  0.00     0.000 HD 
HETATM   13  O   UNL     1      -7.593   5.956  69.414  1.00  0.00    -0.088 OA 
HETATM   14  N   UNL     1      -8.418   7.572  70.547  1.00  0.00    -0.131 N  
BRANCH  14  15
HETATM   15  C   UNL     1      -9.057   8.667  71.283  1.00  0.00    -0.212 C  
HETATM   16  C   UNL     1     -11.121   7.902  72.771  1.00  0.00    -0.400 C  
HETATM   17  C   UNL     1      -9.642   8.412  72.685  1.00  0.00    -0.337 C  
HETATM   18  C   UNL     1     -11.177   6.377  72.659  1.00  0.00    -0.290 C  
HETATM   19  C   UNL     1     -10.902   5.880  71.248  1.00  0.00    -0.333 C  
HETATM   20  C   UNL     1     -11.386   6.817  70.122  1.00  0.00    -0.404 C  
HETATM   21  C   UNL     1     -11.467   8.330  70.446  1.00  0.00    -0.122 C  
HETATM   22  N   UNL     1     -12.003   8.555  71.785  1.00  0.00    -0.309 NA 
HETATM   23  C   UNL     1     -10.181   9.180  70.367  1.00  0.00    -0.268 C  
HETATM   24  C   UNL     1     -13.419   8.177  71.874  1.00  0.00    -0.324 C  
ENDBRANCH  14  15
ENDBRANCH   4  11
TORSDOF 2
ENDMDL
MODEL      191
REMARK 921   NORMALIZED FREE ENERGY PREDICTED BY IDOCK:   -3.73 KCAL/MOL
REMARK 922        TOTAL FREE ENERGY PREDICTED BY IDOCK:   -4.89 KCAL/MOL
REMARK 923 INTER-LIGAND FREE ENERGY PREDICTED BY IDOCK:   -4.19 KCAL/MOL
REMARK 924 INTRA-LIGAND FREE ENERGY PREDICTED BY IDOCK:   -0.71 KCAL/MOL
REMARK 927      BINDING AFFINITY PREDICTED BY RF-SCORE:    0.00 PKD
ROOT
HETATM    1  C   UNL     1     -11.417   6.470  70.301  1.00  0.00    -0.411 C  
HETATM    2  N   UNL     1     -10.553   7.533  69.840  1.00  0.00    -0.234 NA 
HETATM    3  N   UNL     1     -10.844   8.148  68.699  1.00  0.00    -0.005 NA 
HETATM    4  C   UNL     1      -9.735   8.859  68.389  1.00  0.00    -0.161 A  
HETATM    5  C   UNL     1      -8.826   8.853  69.496  1.00  0.00    -0.144 A  
HETATM    6  C   UNL     1      -6.931   9.025  71.016  1.00  0.00    -0.097 A  
HETATM    7  C   UNL     1      -9.379   7.937  70.406  1.00  0.00    -0.159 A  
HETATM    8  C   UNL     1      -7.510   8.097  71.883  1.00  0.00    -0.105 A  
HETATM    9  C   UNL     1      -7.567   9.401  69.819  1.00  0.00    -0.095 A  
HETATM   10  C   UNL     1      -8.748   7.532  71.589  1.00  0.00    -0.126 A  
ENDROOT
BRANCH   4  11
HETATM   11  C   UNL     1      -9.637   9.275  66.989  1.00  0.00    -0.171 C  
HETATM   12  H   UNL     1      -9.411  10.415  65.464  1.00  0.00     0.000 HD 
HETATM   13  O   UNL     1      -9.965   8.485  66.086  1.00  0.00    -0.239 OA 
HETATM   14  N   UNL     1      -9.239  10.460  66.468  1.00  0.00    -0.158 N  
BRANCH  14  15
HETATM   15  C   UNL     1      -8.666  11.781  66.746  1.00  0.00    -0.192 C  
HETATM   16  C   UNL     1     -10.169  13.295  68.330  1.00  0.00    -0.249 C  
HETATM   17  C   UNL     1      -8.875  12.435  68.125  1.00  0.00    -0.191 C  
HETATM   18  C   UNL     1     -11.343  12.414  68.761  1.00  0.00    -0.339 C  
HETATM   19  C   UNL     1     -11.882  11.554  67.629  1.00  0.00    -0.194 C  
HETATM   20  C   UNL     1     -11.790  12.192  66.227  1.00  0.00    -0.320 C  
HETATM   21  C   UNL     1     -10.659  13.225  65.993  1.00  0.00    -0.286 C  
HETATM   22  N   UNL     1     -10.502  14.107  67.145  1.00  0.00    -0.269 NA 
HETATM   23  C   UNL     1      -9.238  12.716  65.667  1.00  0.00     0.230 C  
HETATM   24  C   UNL     1     -11.659  14.996  67.309  1.00  0.00    -0.273 C  
ENDBRANCH  14  15
ENDBRANCH   4  11
TORSDOF 2
ENDMDL
MODEL      192
REMARK 921   NORMALIZED FREE ENERGY PREDICTED BY IDOCK:   -3.66 KCAL/MOL
REMARK 922        TOTAL FREE ENERGY PREDICTED BY IDOCK:   -4.81 KCAL/MOL
REMARK 923 INTER-LIGAND FREE ENERGY PREDICTED BY IDOCK:   -4.09 KCAL/MOL
REMARK 924 INTRA-LIGAND FREE ENERGY PREDICTED BY IDOCK:   -0.72 KCAL/MOL
REMARK 927      BINDING AFFINITY PREDICTED BY RF-SCORE:    0.00 PKD
ROOT
HETATM    1  C   UNL     1      -9.802  11.252  65.282  1.00  0.00    -0.246 C  
HETATM    2  N   UNL     1      -9.581  10.747  66.618  1.00  0.00    -0.174 NA 
HETATM    3  N   UNL     1      -8.568   9.913  66.831  1.00  0.00    -0.128 NA 
HETATM    4  C   UNL     1      -8.790   9.396  68.060  1.00  0.00    -0.124 A  
HETATM    5  C   UNL     1      -9.851  10.110  68.707  1.00  0.00    -0.180 A  
HETATM    6  C   UNL     1     -11.648  10.909  70.144  1.00  0.00    -0.425 A  
HETATM    7  C   UNL     1     -10.370  10.954  67.712  1.00  0.00    -0.187 A  
HETATM    8  C   UNL     1     -12.140  11.719  69.120  1.00  0.00    -0.290 A  
HETATM    9  C   UNL     1     -10.519  10.093  69.950  1.00  0.00    -0.322 A  
HETATM   10  C   UNL     1     -11.509  11.752  67.880  1.00  0.00    -0.387 A  
ENDROOT
BRANCH   4  11
HETATM   11  C   UNL     1      -8.069   8.155  68.350  1.00  0.00    -0.128 C  
HETATM   12  H   UNL     1      -7.600   6.508  69.212  1.00  0.00     0.000 HD 
HETATM   13  O   UNL     1      -6.981   7.930  67.792  1.00  0.00    -0.070 OA 
HETATM   14  N   UNL     1      -8.395   7.145  69.192  1.00  0.00    -0.128 N  
BRANCH  14  15
HETATM   15  C   UNL     1      -9.414   6.587  70.086  1.00  0.00    -0.157 C  
HETATM   16  C   UNL     1      -8.716   4.281  71.205  1.00  0.00    -0.102 C  
HETATM   17  C   UNL     1      -8.989   5.817  71.351  1.00  0.00    -0.147 C  
HETATM   18  C   UNL     1      -7.272   4.024  70.772  1.00  0.00    -0.037 C  
HETATM   19  C   UNL     1      -7.020   4.385  69.316  1.00  0.00    -0.050 C  
HETATM   20  C   UNL     1      -8.224   4.168  68.375  1.00  0.00    -0.088 C  
HETATM   21  C   UNL     1      -9.638   4.264  69.002  1.00  0.00    -0.170 C  
HETATM   22  N   UNL     1      -9.682   3.617  70.309  1.00  0.00    -0.175 NA 
HETATM   23  C   UNL     1     -10.270   5.657  69.209  1.00  0.00    -0.309 C  
HETATM   24  C   UNL     1      -9.526   2.162  70.200  1.00  0.00    -0.069 C  
ENDBRANCH  14  15
ENDBRANCH   4  11
TORSDOF 2
ENDMDL
MODEL      193
REMARK 921   NORMALIZED FREE ENERGY PREDICTED BY IDOCK:   -3.63 KCAL/MOL
REMARK 922        TOTAL FREE ENERGY PREDICTED BY IDOCK:   -4.78 KCAL/MOL
REMARK 923 INTER-LIGAND FREE ENERGY PREDICTED BY IDOCK:   -4.26 KCAL/MOL
REMARK 924 INTRA-LIGAND FREE ENERGY PREDICTED BY IDOCK:   -0.52 KCAL/MOL
REMARK 927      BINDING AFFINITY PREDICTED BY RF-SCORE:    0.00 PKD
ROOT
HETATM    1  C   UNL     1     -10.310  11.310  63.864  1.00  0.00    -0.381 C  
HETATM    2  N   UNL     1      -9.917  11.793  65.169  1.00  0.00    -0.249 NA 
HETATM    3  N   UNL     1      -9.535  10.915  66.090  1.00  0.00    -0.193 NA 
HETATM    4  C   UNL     1      -9.519  11.609  67.252  1.00  0.00    -0.168 A  
HETATM    5  C   UNL     1      -9.679  13.008  66.988  1.00  0.00    -0.235 A  
HETATM    6  C   UNL     1     -10.045  15.414  67.067  1.00  0.00    -0.249 A  
HETATM    7  C   UNL     1      -9.981  13.079  65.619  1.00  0.00    -0.230 A  
HETATM    8  C   UNL     1     -10.356  15.436  65.707  1.00  0.00    -0.381 A  
HETATM    9  C   UNL     1      -9.719  14.212  67.721  1.00  0.00    -0.223 A  
HETATM   10  C   UNL     1     -10.333  14.263  64.958  1.00  0.00    -0.448 A  
ENDROOT
BRANCH   4  11
HETATM   11  C   UNL     1      -9.549  10.787  68.464  1.00  0.00    -0.183 C  
HETATM   12  H   UNL     1      -9.162   9.348  69.670  1.00  0.00     0.000 HD 
HETATM   13  O   UNL     1     -10.393  11.022  69.347  1.00  0.00    -0.196 OA 
HETATM   14  N   UNL     1      -8.775   9.731  68.808  1.00  0.00    -0.124 N  
BRANCH  14  15
HETATM   15  C   UNL     1      -7.612   8.908  68.459  1.00  0.00    -0.097 C  
HETATM   16  C   UNL     1      -7.603   6.515  69.612  1.00  0.00    -0.098 C  
HETATM   17  C   UNL     1      -7.766   7.382  68.317  1.00  0.00    -0.120 C  
HETATM   18  C   UNL     1      -8.931   6.405  70.363  1.00  0.00    -0.155 C  
HETATM   19  C   UNL     1      -9.319   7.697  71.065  1.00  0.00    -0.156 C  
HETATM   20  C   UNL     1      -8.134   8.535  71.587  1.00  0.00    -0.195 C  
HETATM   21  C   UNL     1      -6.784   8.393  70.840  1.00  0.00    -0.042 C  
HETATM   22  N   UNL     1      -6.519   7.002  70.487  1.00  0.00    -0.046 NA 
HETATM   23  C   UNL     1      -6.560   9.198  69.542  1.00  0.00    -0.043 C  
HETATM   24  C   UNL     1      -6.266   6.179  71.676  1.00  0.00    -0.041 C  
ENDBRANCH  14  15
ENDBRANCH   4  11
TORSDOF 2
ENDMDL
MODEL      194
REMARK 921   NORMALIZED FREE ENERGY PREDICTED BY IDOCK:   -3.62 KCAL/MOL
REMARK 922        TOTAL FREE ENERGY PREDICTED BY IDOCK:   -4.77 KCAL/MOL
REMARK 923 INTER-LIGAND FREE ENERGY PREDICTED BY IDOCK:   -4.24 KCAL/MOL
REMARK 924 INTRA-LIGAND FREE ENERGY PREDICTED BY IDOCK:   -0.53 KCAL/MOL
REMARK 927      BINDING AFFINITY PREDICTED BY RF-SCORE:    0.00 PKD
ROOT
HETATM    1  C   UNL     1     -11.050  11.041  67.121  1.00  0.00    -0.267 C  
HETATM    2  N   UNL     1     -10.417   9.798  66.739  1.00  0.00    -0.215 NA 
HETATM    3  N   UNL     1     -10.355   8.810  67.625  1.00  0.00    -0.241 NA 
HETATM    4  C   UNL     1      -9.476   7.924  67.103  1.00  0.00    -0.159 A  
HETATM    5  C   UNL     1      -9.168   8.280  65.750  1.00  0.00    -0.142 A  
HETATM    6  C   UNL     1      -8.242   8.538  63.512  1.00  0.00    -0.133 A  
HETATM    7  C   UNL     1      -9.768   9.536  65.568  1.00  0.00    -0.273 A  
HETATM    8  C   UNL     1      -8.842   9.791  63.381  1.00  0.00    -0.258 A  
HETATM    9  C   UNL     1      -8.383   7.781  64.689  1.00  0.00    -0.026 A  
HETATM   10  C   UNL     1      -9.616  10.315  64.413  1.00  0.00    -0.378 A  
ENDROOT
BRANCH   4  11
HETATM   11  C   UNL     1      -8.913   6.972  68.062  1.00  0.00    -0.126 C  
HETATM   12  H   UNL     1      -8.099   6.302  69.664  1.00  0.00     0.000 HD 
HETATM   13  O   UNL     1      -8.686   5.802  67.708  1.00  0.00    -0.109 OA 
HETATM   14  N   UNL     1      -8.554   7.161  69.355  1.00  0.00    -0.133 N  
BRANCH  14  15
HETATM   15  C   UNL     1      -8.548   8.084  70.494  1.00  0.00    -0.134 C  
HETATM   16  C   UNL     1      -8.217   6.889  72.844  1.00  0.00    -0.107 C  
HETATM   17  C   UNL     1      -7.641   7.801  71.707  1.00  0.00    -0.088 C  
HETATM   18  C   UNL     1      -7.970   5.412  72.533  1.00  0.00    -0.103 C  
HETATM   19  C   UNL     1      -8.863   4.887  71.420  1.00  0.00    -0.153 C  
HETATM   20  C   UNL     1     -10.264   5.530  71.351  1.00  0.00    -0.275 C  
HETATM   21  C   UNL     1     -10.405   6.976  71.889  1.00  0.00    -0.192 C  
HETATM   22  N   UNL     1      -9.641   7.159  73.119  1.00  0.00    -0.159 NA 
HETATM   23  C   UNL     1     -10.007   8.156  70.976  1.00  0.00    -0.220 C  
HETATM   24  C   UNL     1     -10.213   6.392  74.232  1.00  0.00    -0.344 C  
ENDBRANCH  14  15
ENDBRANCH   4  11
TORSDOF 2
ENDMDL
MODEL      195
REMARK 921   NORMALIZED FREE ENERGY PREDICTED BY IDOCK:   -3.53 KCAL/MOL
REMARK 922        TOTAL FREE ENERGY PREDICTED BY IDOCK:   -4.67 KCAL/MOL
REMARK 923 INTER-LIGAND FREE ENERGY PREDICTED BY IDOCK:   -3.66 KCAL/MOL
REMARK 924 INTRA-LIGAND FREE ENERGY PREDICTED BY IDOCK:   -1.01 KCAL/MOL
REMARK 927      BINDING AFFINITY PREDICTED BY RF-SCORE:    0.00 PKD
ROOT
HETATM    1  C   UNL     1      -7.052   8.161  63.541  1.00  0.00    -0.086 C  
HETATM    2  N   UNL     1      -6.935   8.020  64.974  1.00  0.00    -0.062 NA 
HETATM    3  N   UNL     1      -7.259   6.859  65.534  1.00  0.00    -0.074 NA 
HETATM    4  C   UNL     1      -7.333   7.116  66.860  1.00  0.00    -0.088 A  
HETATM    5  C   UNL     1      -6.816   8.424  67.135  1.00  0.00    -0.070 A  
HETATM    6  C   UNL     1      -6.174  10.576  68.075  1.00  0.00    -0.054 A  
HETATM    7  C   UNL     1      -6.609   8.997  65.869  1.00  0.00    -0.064 A  
HETATM    8  C   UNL     1      -5.998  11.111  66.798  1.00  0.00    -0.116 A  
HETATM    9  C   UNL     1      -6.593   9.246  68.259  1.00  0.00    -0.059 A  
HETATM   10  C   UNL     1      -6.218  10.327  65.669  1.00  0.00    -0.113 A  
ENDROOT
BRANCH   4  11
HETATM   11  C   UNL     1      -8.079   6.128  67.642  1.00  0.00    -0.113 C  
HETATM   12  H   UNL     1      -9.432   5.386  68.781  1.00  0.00     0.000 HD 
HETATM   13  O   UNL     1      -7.585   5.006  67.849  1.00  0.00    -0.081 OA 
HETATM   14  N   UNL     1      -9.292   6.236  68.235  1.00  0.00    -0.114 N  
BRANCH  14  15
HETATM   15  C   UNL     1     -10.487   7.065  68.419  1.00  0.00    -0.201 C  
HETATM   16  C   UNL     1     -10.364   8.674  70.530  1.00  0.00    -0.202 C  
HETATM   17  C   UNL     1     -10.352   8.496  68.973  1.00  0.00    -0.229 C  
HETATM   18  C   UNL     1      -8.958   8.503  71.107  1.00  0.00    -0.232 C  
HETATM   19  C   UNL     1      -8.491   7.056  71.101  1.00  0.00    -0.119 C  
HETATM   20  C   UNL     1      -9.608   6.010  71.303  1.00  0.00    -0.189 C  
HETATM   21  C   UNL     1     -11.036   6.403  70.846  1.00  0.00    -0.280 C  
HETATM   22  N   UNL     1     -11.339   7.788  71.193  1.00  0.00    -0.265 NA 
HETATM   23  C   UNL     1     -11.408   6.261  69.354  1.00  0.00    -0.448 C  
HETATM   24  C   UNL     1     -11.454   7.970  72.646  1.00  0.00    -0.402 C  
ENDBRANCH  14  15
ENDBRANCH   4  11
TORSDOF 2
ENDMDL
MODEL      196
REMARK 921   NORMALIZED FREE ENERGY PREDICTED BY IDOCK:   -3.53 KCAL/MOL
REMARK 922        TOTAL FREE ENERGY PREDICTED BY IDOCK:   -4.67 KCAL/MOL
REMARK 923 INTER-LIGAND FREE ENERGY PREDICTED BY IDOCK:   -3.89 KCAL/MOL
REMARK 924 INTRA-LIGAND FREE ENERGY PREDICTED BY IDOCK:   -0.78 KCAL/MOL
REMARK 927      BINDING AFFINITY PREDICTED BY RF-SCORE:    0.00 PKD
ROOT
HETATM    1  C   UNL     1      -7.738   6.959  73.921  1.00  0.00    -0.101 C  
HETATM    2  N   UNL     1      -8.359   6.884  72.619  1.00  0.00    -0.110 NA 
HETATM    3  N   UNL     1      -7.639   6.455  71.587  1.00  0.00    -0.094 NA 
HETATM    4  C   UNL     1      -8.370   6.769  70.493  1.00  0.00    -0.129 A  
HETATM    5  C   UNL     1      -9.679   7.198  70.886  1.00  0.00    -0.170 A  
HETATM    6  C   UNL     1     -11.934   8.103  71.049  1.00  0.00    -0.257 A  
HETATM    7  C   UNL     1      -9.614   7.302  72.284  1.00  0.00    -0.146 A  
HETATM    8  C   UNL     1     -11.820   8.206  72.436  1.00  0.00    -0.448 A  
HETATM    9  C   UNL     1     -10.874   7.616  70.263  1.00  0.00    -0.253 A  
HETATM   10  C   UNL     1     -10.651   7.809  73.079  1.00  0.00    -0.441 A  
ENDROOT
BRANCH   4  11
HETATM   11  C   UNL     1      -7.621   6.793  69.235  1.00  0.00    -0.096 C  
HETATM   12  H   UNL     1      -7.262   6.687  67.354  1.00  0.00     0.000 HD 
HETATM   13  O   UNL     1      -6.378   6.821  69.257  1.00  0.00    -0.035 OA 
HETATM   14  N   UNL     1      -8.078   6.772  67.960  1.00  0.00    -0.113 N  
BRANCH  14  15
HETATM   15  C   UNL     1      -9.256   6.821  67.088  1.00  0.00    -0.134 C  
HETATM   16  C   UNL     1     -10.121   4.431  66.314  1.00  0.00    -0.225 C  
HETATM   17  C   UNL     1     -10.328   5.719  67.182  1.00  0.00    -0.293 C  
HETATM   18  C   UNL     1      -9.254   3.411  67.055  1.00  0.00    -0.208 C  
HETATM   19  C   UNL     1      -7.790   3.817  67.117  1.00  0.00    -0.084 C  
HETATM   20  C   UNL     1      -7.282   4.612  65.895  1.00  0.00    -0.076 C  
HETATM   21  C   UNL     1      -8.324   5.453  65.117  1.00  0.00    -0.144 C  
HETATM   22  N   UNL     1      -9.585   4.732  64.973  1.00  0.00    -0.100 NA 
HETATM   23  C   UNL     1      -8.706   6.850  65.651  1.00  0.00    -0.086 C  
HETATM   24  C   UNL     1      -9.448   3.571  64.086  1.00  0.00    -0.142 C  
ENDBRANCH  14  15
ENDBRANCH   4  11
TORSDOF 2
ENDMDL
MODEL      197
REMARK 921   NORMALIZED FREE ENERGY PREDICTED BY IDOCK:   -3.52 KCAL/MOL
REMARK 922        TOTAL FREE ENERGY PREDICTED BY IDOCK:   -4.65 KCAL/MOL
REMARK 923 INTER-LIGAND FREE ENERGY PREDICTED BY IDOCK:   -3.92 KCAL/MOL
REMARK 924 INTRA-LIGAND FREE ENERGY PREDICTED BY IDOCK:   -0.73 KCAL/MOL
REMARK 927      BINDING AFFINITY PREDICTED BY RF-SCORE:    0.00 PKD
ROOT
HETATM    1  C   UNL     1      -5.729   9.660  65.063  1.00  0.00    -0.068 C  
HETATM    2  N   UNL     1      -6.660   9.342  66.122  1.00  0.00    -0.069 NA 
HETATM    3  N   UNL     1      -7.962   9.343  65.854  1.00  0.00    -0.105 NA 
HETATM    4  C   UNL     1      -8.569   9.308  67.062  1.00  0.00    -0.124 A  
HETATM    5  C   UNL     1      -7.604   9.048  68.088  1.00  0.00    -0.092 A  
HETATM    6  C   UNL     1      -6.355   8.763  70.159  1.00  0.00    -0.038 A  
HETATM    7  C   UNL     1      -6.363   9.122  67.435  1.00  0.00    -0.059 A  
HETATM    8  C   UNL     1      -5.144   8.861  69.472  1.00  0.00    -0.034 A  
HETATM    9  C   UNL     1      -7.586   8.868  69.487  1.00  0.00    -0.080 A  
HETATM   10  C   UNL     1      -5.128   9.047  68.093  1.00  0.00    -0.034 A  
ENDROOT
BRANCH   4  11
HETATM   11  C   UNL     1      -9.972   9.728  67.063  1.00  0.00    -0.203 C  
HETATM   12  H   UNL     1     -11.566  10.672  67.558  1.00  0.00     0.000 HD 
HETATM   13  O   UNL     1     -10.810   9.080  66.412  1.00  0.00     0.088 OA 
HETATM   14  N   UNL     1     -10.561  10.764  67.707  1.00  0.00    -0.211 N  
BRANCH  14  15
HETATM   15  C   UNL     1     -10.357  11.960  68.530  1.00  0.00    -0.218 C  
HETATM   16  C   UNL     1     -11.764  14.068  67.730  1.00  0.00    -0.368 C  
HETATM   17  C   UNL     1     -11.528  12.929  68.781  1.00  0.00    -0.345 C  
HETATM   18  C   UNL     1     -12.645  13.573  66.581  1.00  0.00    -0.114 C  
HETATM   19  C   UNL     1     -11.915  12.621  65.647  1.00  0.00    -0.507 C  
HETATM   20  C   UNL     1     -10.407  12.902  65.479  1.00  0.00    -0.304 C  
HETATM   21  C   UNL     1      -9.681  13.594  66.660  1.00  0.00    -0.284 C  
HETATM   22  N   UNL     1     -10.502  14.653  67.238  1.00  0.00    -0.264 NA 
HETATM   23  C   UNL     1      -9.213  12.736  67.855  1.00  0.00    -0.205 C  
HETATM   24  C   UNL     1     -10.663  15.781  66.312  1.00  0.00    -0.282 C  
ENDBRANCH  14  15
ENDBRANCH   4  11
TORSDOF 2
ENDMDL
MODEL      198
REMARK 921   NORMALIZED FREE ENERGY PREDICTED BY IDOCK:   -3.51 KCAL/MOL
REMARK 922        TOTAL FREE ENERGY PREDICTED BY IDOCK:   -4.65 KCAL/MOL
REMARK 923 INTER-LIGAND FREE ENERGY PREDICTED BY IDOCK:   -3.98 KCAL/MOL
REMARK 924 INTRA-LIGAND FREE ENERGY PREDICTED BY IDOCK:   -0.67 KCAL/MOL
REMARK 927      BINDING AFFINITY PREDICTED BY RF-SCORE:    0.00 PKD
ROOT
HETATM    1  C   UNL     1      -9.961   4.257  65.853  1.00  0.00    -0.219 C  
HETATM    2  N   UNL     1      -9.852   5.247  66.900  1.00  0.00    -0.154 NA 
HETATM    3  N   UNL     1     -10.139   4.896  68.149  1.00  0.00    -0.113 NA 
HETATM    4  C   UNL     1     -10.236   6.060  68.830  1.00  0.00    -0.188 A  
HETATM    5  C   UNL     1      -9.768   7.143  68.016  1.00  0.00    -0.152 A  
HETATM    6  C   UNL     1      -9.213   9.286  67.001  1.00  0.00    -0.169 A  
HETATM    7  C   UNL     1      -9.570   6.573  66.747  1.00  0.00    -0.161 A  
HETATM    8  C   UNL     1      -9.044   8.681  65.755  1.00  0.00    -0.242 A  
HETATM    9  C   UNL     1      -9.586   8.537  68.132  1.00  0.00    -0.158 A  
HETATM   10  C   UNL     1      -9.225   7.309  65.606  1.00  0.00     0.171 A  
ENDROOT
BRANCH   4  11
HETATM   11  C   UNL     1     -10.953   5.976  70.103  1.00  0.00    -0.359 C  
HETATM   12  H   UNL     1     -11.400   5.416  71.882  1.00  0.00     0.000 HD 
HETATM   13  O   UNL     1     -12.065   6.521  70.221  1.00  0.00    -0.348 OA 
HETATM   14  N   UNL     1     -10.601   5.350  71.252  1.00  0.00    -0.228 N  
BRANCH  14  15
HETATM   15  C   UNL     1      -9.550   4.618  71.966  1.00  0.00    -0.151 C  
HETATM   16  C   UNL     1      -8.941   5.652  74.337  1.00  0.00    -0.122 C  
HETATM   17  C   UNL     1      -9.602   4.502  73.501  1.00  0.00    -0.133 C  
HETATM   18  C   UNL     1      -9.929   6.797  74.562  1.00  0.00    -0.244 C  
HETATM   19  C   UNL     1     -10.179   7.616  73.305  1.00  0.00    -0.398 C  
HETATM   20  C   UNL     1      -8.968   7.734  72.355  1.00  0.00    -0.202 C  
HETATM   21  C   UNL     1      -7.935   6.579  72.378  1.00  0.00    -0.101 C  
HETATM   22  N   UNL     1      -7.678   6.128  73.742  1.00  0.00    -0.095 NA 
HETATM   23  C   UNL     1      -8.229   5.298  71.568  1.00  0.00    -0.117 C  
HETATM   24  C   UNL     1      -6.971   7.149  74.526  1.00  0.00    -0.097 C  
ENDBRANCH  14  15
ENDBRANCH   4  11
TORSDOF 2
ENDMDL
MODEL      199
REMARK 921   NORMALIZED FREE ENERGY PREDICTED BY IDOCK:   -3.51 KCAL/MOL
REMARK 922        TOTAL FREE ENERGY PREDICTED BY IDOCK:   -4.65 KCAL/MOL
REMARK 923 INTER-LIGAND FREE ENERGY PREDICTED BY IDOCK:   -3.96 KCAL/MOL
REMARK 924 INTRA-LIGAND FREE ENERGY PREDICTED BY IDOCK:   -0.69 KCAL/MOL
REMARK 927      BINDING AFFINITY PREDICTED BY RF-SCORE:    0.00 PKD
ROOT
HETATM    1  C   UNL     1      -7.305   7.707  63.687  1.00  0.00    -0.093 C  
HETATM    2  N   UNL     1      -7.898   6.962  64.775  1.00  0.00    -0.115 NA 
HETATM    3  N   UNL     1      -7.847   7.467  66.003  1.00  0.00    -0.097 NA 
HETATM    4  C   UNL     1      -8.201   6.448  66.818  1.00  0.00    -0.110 A  
HETATM    5  C   UNL     1      -8.701   5.352  66.042  1.00  0.00    -0.137 A  
HETATM    6  C   UNL     1      -9.489   3.215  65.179  1.00  0.00    -0.122 A  
HETATM    7  C   UNL     1      -8.442   5.712  64.710  1.00  0.00    -0.102 A  
HETATM    8  C   UNL     1      -9.200   3.608  63.872  1.00  0.00    -0.125 A  
HETATM    9  C   UNL     1      -9.234   4.065  66.270  1.00  0.00    -0.160 A  
HETATM   10  C   UNL     1      -8.665   4.868  63.615  1.00  0.00    -0.107 A  
ENDROOT
BRANCH   4  11
HETATM   11  C   UNL     1      -7.816   6.614  68.221  1.00  0.00    -0.110 C  
HETATM   12  H   UNL     1      -7.706   7.377  69.977  1.00  0.00     0.000 HD 
HETATM   13  O   UNL     1      -6.913   5.906  68.701  1.00  0.00    -0.067 OA 
HETATM   14  N   UNL     1      -8.293   7.477  69.149  1.00  0.00    -0.133 N  
BRANCH  14  15
HETATM   15  C   UNL     1      -9.301   8.496  69.459  1.00  0.00    -0.161 C  
HETATM   16  C   UNL     1     -10.541   8.111  71.778  1.00  0.00    -0.250 C  
HETATM   17  C   UNL     1      -9.523   8.938  70.919  1.00  0.00    -0.295 C  
HETATM   18  C   UNL     1      -9.852   6.910  72.428  1.00  0.00    -0.172 C  
HETATM   19  C   UNL     1      -9.528   5.807  71.432  1.00  0.00    -0.174 C  
HETATM   20  C   UNL     1     -10.533   5.664  70.269  1.00  0.00    -0.363 C  
HETATM   21  C   UNL     1     -11.310   6.936  69.846  1.00  0.00    -0.271 C  
HETATM   22  N   UNL     1     -11.734   7.708  71.010  1.00  0.00    -0.287 NA 
HETATM   23  C   UNL     1     -10.627   7.949  68.904  1.00  0.00    -0.165 C  
HETATM   24  C   UNL     1     -12.760   7.002  71.785  1.00  0.00    -0.340 C  
ENDBRANCH  14  15
ENDBRANCH   4  11
TORSDOF 2
ENDMDL
MODEL      200
REMARK 921   NORMALIZED FREE ENERGY PREDICTED BY IDOCK:   -3.51 KCAL/MOL
REMARK 922        TOTAL FREE ENERGY PREDICTED BY IDOCK:   -4.64 KCAL/MOL
REMARK 923 INTER-LIGAND FREE ENERGY PREDICTED BY IDOCK:   -4.23 KCAL/MOL
REMARK 924 INTRA-LIGAND FREE ENERGY PREDICTED BY IDOCK:   -0.41 KCAL/MOL
REMARK 927      BINDING AFFINITY PREDICTED BY RF-SCORE:    0.00 PKD
ROOT
HETATM    1  C   UNL     1     -10.531   6.858  67.129  1.00  0.00    -0.303 C  
HETATM    2  N   UNL     1      -9.641   7.614  67.981  1.00  0.00    -0.143 NA 
HETATM    3  N   UNL     1      -9.931   8.882  68.250  1.00  0.00    -0.169 NA 
HETATM    4  C   UNL     1      -8.806   9.392  68.800  1.00  0.00    -0.132 A  
HETATM    5  C   UNL     1      -7.878   8.338  69.081  1.00  0.00    -0.106 A  
HETATM    6  C   UNL     1      -5.951   6.947  69.616  1.00  0.00    -0.023 A  
HETATM    7  C   UNL     1      -8.445   7.198  68.489  1.00  0.00    -0.125 A  
HETATM    8  C   UNL     1      -6.544   5.845  69.000  1.00  0.00    -0.051 A  
HETATM    9  C   UNL     1      -6.595   8.197  69.652  1.00  0.00    -0.037 A  
HETATM   10  C   UNL     1      -7.805   5.953  68.420  1.00  0.00    -0.105 A  
ENDROOT
BRANCH   4  11
HETATM   11  C   UNL     1      -8.719  10.854  68.790  1.00  0.00    -0.158 C  
HETATM   12  H   UNL     1      -9.243  12.685  68.563  1.00  0.00     0.000 HD 
HETATM   13  O   UNL     1      -7.614  11.407  68.932  1.00  0.00    -0.124 OA 
HETATM   14  N   UNL     1      -9.699  11.774  68.624  1.00  0.00    -0.168 N  
BRANCH  14  15
HETATM   15  C   UNL     1     -11.141  12.008  68.494  1.00  0.00    -0.244 C  
HETATM   16  C   UNL     1     -11.945  12.407  65.993  1.00  0.00    -0.350 C  
HETATM   17  C   UNL     1     -11.896  11.483  67.258  1.00  0.00    -0.061 C  
HETATM   18  C   UNL     1     -10.710  12.192  65.116  1.00  0.00    -0.333 C  
HETATM   19  C   UNL     1      -9.448  12.788  65.719  1.00  0.00    -0.023 C  
HETATM   20  C   UNL     1      -9.666  14.069  66.551  1.00  0.00    -0.305 C  
HETATM   21  C   UNL     1     -11.049  14.246  67.227  1.00  0.00    -0.306 C  
HETATM   22  N   UNL     1     -12.129  13.829  66.338  1.00  0.00    -0.431 NA 
HETATM   23  C   UNL     1     -11.321  13.533  68.569  1.00  0.00    -0.327 C  
HETATM   24  C   UNL     1     -12.265  14.732  65.189  1.00  0.00    -0.202 C  
ENDBRANCH  14  15
ENDBRANCH   4  11
TORSDOF 2
ENDMDL
MODEL      201
REMARK 921   NORMALIZED FREE ENERGY PREDICTED BY IDOCK:   -3.49 KCAL/MOL
REMARK 922        TOTAL FREE ENERGY PREDICTED BY IDOCK:   -4.62 KCAL/MOL
REMARK 923 INTER-LIGAND FREE ENERGY PREDICTED BY IDOCK:   -3.88 KCAL/MOL
REMARK 924 INTRA-LIGAND FREE ENERGY PREDICTED BY IDOCK:   -0.74 KCAL/MOL
REMARK 927      BINDING AFFINITY PREDICTED BY RF-SCORE:    0.00 PKD
ROOT
HETATM    1  C   UNL     1      -7.867   8.168  73.650  1.00  0.00    -0.185 C  
HETATM    2  N   UNL     1      -8.202   7.705  72.323  1.00  0.00    -0.102 NA 
HETATM    3  N   UNL     1      -7.253   7.680  71.393  1.00  0.00    -0.064 NA 
HETATM    4  C   UNL     1      -7.909   7.497  70.225  1.00  0.00    -0.094 A  
HETATM    5  C   UNL     1      -9.281   7.173  70.480  1.00  0.00    -0.158 A  
HETATM    6  C   UNL     1     -11.675   6.730  70.395  1.00  0.00    -0.418 A  
HETATM    7  C   UNL     1      -9.440   7.365  71.862  1.00  0.00    -0.144 A  
HETATM    8  C   UNL     1     -11.790   6.947  71.768  1.00  0.00    -0.354 A  
HETATM    9  C   UNL     1     -10.437   6.852  69.737  1.00  0.00    -0.240 A  
HETATM   10  C   UNL     1     -10.669   7.274  72.528  1.00  0.00    -0.301 A  
ENDROOT
BRANCH   4  11
HETATM   11  C   UNL     1      -7.151   7.857  69.024  1.00  0.00    -0.070 C  
HETATM   12  H   UNL     1      -6.696   8.028  67.170  1.00  0.00     0.000 HD 
HETATM   13  O   UNL     1      -5.979   8.258  69.133  1.00  0.00    -0.037 OA 
HETATM   14  N   UNL     1      -7.524   7.809  67.723  1.00  0.00    -0.102 N  
BRANCH  14  15
HETATM   15  C   UNL     1      -8.621   7.573  66.779  1.00  0.00    -0.127 C  
HETATM   16  C   UNL     1      -8.208   8.616  64.370  1.00  0.00    -0.162 C  
HETATM   17  C   UNL     1      -8.314   7.349  65.286  1.00  0.00    -0.110 C  
HETATM   18  C   UNL     1      -6.790   9.189  64.398  1.00  0.00    -0.087 C  
HETATM   19  C   UNL     1      -6.464   9.891  65.707  1.00  0.00    -0.092 C  
HETATM   20  C   UNL     1      -7.659  10.593  66.384  1.00  0.00    -0.138 C  
HETATM   21  C   UNL     1      -9.070  10.016  66.104  1.00  0.00    -0.156 C  
HETATM   22  N   UNL     1      -9.217   9.639  64.701  1.00  0.00    -0.249 NA 
HETATM   23  C   UNL     1      -9.550   8.792  66.912  1.00  0.00    -0.249 C  
HETATM   24  C   UNL     1      -9.219  10.815  63.821  1.00  0.00    -0.244 C  
ENDBRANCH  14  15
ENDBRANCH   4  11
TORSDOF 2
ENDMDL
MODEL      202
REMARK 921   NORMALIZED FREE ENERGY PREDICTED BY IDOCK:   -3.49 KCAL/MOL
REMARK 922        TOTAL FREE ENERGY PREDICTED BY IDOCK:   -4.62 KCAL/MOL
REMARK 923 INTER-LIGAND FREE ENERGY PREDICTED BY IDOCK:   -3.80 KCAL/MOL
REMARK 924 INTRA-LIGAND FREE ENERGY PREDICTED BY IDOCK:   -0.82 KCAL/MOL
REMARK 927      BINDING AFFINITY PREDICTED BY RF-SCORE:    0.00 PKD
ROOT
HETATM    1  C   UNL     1     -12.992   7.117  71.457  1.00  0.00    -0.383 C  
HETATM    2  N   UNL     1     -11.582   7.266  71.172  1.00  0.00    -0.281 NA 
HETATM    3  N   UNL     1     -11.145   8.421  70.683  1.00  0.00    -0.255 NA 
HETATM    4  C   UNL     1      -9.889   8.168  70.251  1.00  0.00    -0.184 A  
HETATM    5  C   UNL     1      -9.469   6.873  70.700  1.00  0.00    -0.165 A  
HETATM    6  C   UNL     1      -8.366   4.739  71.102  1.00  0.00    -0.107 A  
HETATM    7  C   UNL     1     -10.623   6.300  71.258  1.00  0.00    -0.236 A  
HETATM    8  C   UNL     1      -9.540   4.205  71.634  1.00  0.00    -0.232 A  
HETATM    9  C   UNL     1      -8.319   6.061  70.621  1.00  0.00    -0.125 A  
HETATM   10  C   UNL     1     -10.695   4.979  71.717  1.00  0.00    -0.150 A  
ENDROOT
BRANCH   4  11
HETATM   11  C   UNL     1      -9.352   9.142  69.298  1.00  0.00    -0.157 C  
HETATM   12  H   UNL     1      -8.187   9.926  67.993  1.00  0.00     0.000 HD 
HETATM   13  O   UNL     1      -9.823  10.292  69.262  1.00  0.00    -0.206 OA 
HETATM   14  N   UNL     1      -8.351   9.004  68.397  1.00  0.00    -0.123 N  
BRANCH  14  15
HETATM   15  C   UNL     1      -7.404   8.084  67.761  1.00  0.00    -0.093 C  
HETATM   16  C   UNL     1      -6.472   8.943  65.426  1.00  0.00    -0.067 C  
HETATM   17  C   UNL     1      -6.222   8.640  66.943  1.00  0.00    -0.059 C  
HETATM   18  C   UNL     1      -7.039  10.352  65.240  1.00  0.00    -0.098 C  
HETATM   19  C   UNL     1      -8.490  10.465  65.681  1.00  0.00    -0.169 C  
HETATM   20  C   UNL     1      -9.335   9.191  65.471  1.00  0.00    -0.287 C  
HETATM   21  C   UNL     1      -8.586   7.834  65.488  1.00  0.00    -0.105 C  
HETATM   22  N   UNL     1      -7.316   7.923  64.776  1.00  0.00    -0.078 NA 
HETATM   23  C   UNL     1      -8.253   7.183  66.848  1.00  0.00    -0.117 C  
HETATM   24  C   UNL     1      -7.515   8.111  63.334  1.00  0.00    -0.124 C  
ENDBRANCH  14  15
ENDBRANCH   4  11
TORSDOF 2
ENDMDL
MODEL      203
REMARK 921   NORMALIZED FREE ENERGY PREDICTED BY IDOCK:   -3.45 KCAL/MOL
REMARK 922        TOTAL FREE ENERGY PREDICTED BY IDOCK:   -4.57 KCAL/MOL
REMARK 923 INTER-LIGAND FREE ENERGY PREDICTED BY IDOCK:   -3.91 KCAL/MOL
REMARK 924 INTRA-LIGAND FREE ENERGY PREDICTED BY IDOCK:   -0.67 KCAL/MOL
REMARK 927      BINDING AFFINITY PREDICTED BY RF-SCORE:    0.00 PKD
ROOT
HETATM    1  C   UNL     1      -6.693   4.388  64.212  1.00  0.00    -0.044 C  
HETATM    2  N   UNL     1      -6.865   5.636  64.920  1.00  0.00    -0.050 NA 
HETATM    3  N   UNL     1      -6.697   5.655  66.238  1.00  0.00    -0.055 NA 
HETATM    4  C   UNL     1      -7.200   6.845  66.640  1.00  0.00    -0.076 A  
HETATM    5  C   UNL     1      -7.476   7.669  65.501  1.00  0.00    -0.077 A  
HETATM    6  C   UNL     1      -8.221   9.362  63.917  1.00  0.00    -0.165 A  
HETATM    7  C   UNL     1      -7.286   6.823  64.396  1.00  0.00    -0.069 A  
HETATM    8  C   UNL     1      -8.035   8.482  62.850  1.00  0.00    -0.159 A  
HETATM    9  C   UNL     1      -7.961   8.968  65.242  1.00  0.00    -0.114 A  
HETATM   10  C   UNL     1      -7.565   7.191  63.074  1.00  0.00    -0.108 A  
ENDROOT
BRANCH   4  11
HETATM   11  C   UNL     1      -7.524   6.931  68.065  1.00  0.00    -0.099 C  
HETATM   12  H   UNL     1      -8.470   7.386  69.670  1.00  0.00     0.000 HD 
HETATM   13  O   UNL     1      -6.680   6.585  68.911  1.00  0.00    -0.052 OA 
HETATM   14  N   UNL     1      -8.655   7.369  68.667  1.00  0.00    -0.129 N  
BRANCH  14  15
HETATM   15  C   UNL     1     -10.034   7.829  68.479  1.00  0.00    -0.182 C  
HETATM   16  C   UNL     1     -11.264   8.494  70.739  1.00  0.00    -0.257 C  
HETATM   17  C   UNL     1     -10.606   8.935  69.386  1.00  0.00    -0.226 C  
HETATM   18  C   UNL     1     -10.211   8.374  71.841  1.00  0.00    -0.340 C  
HETATM   19  C   UNL     1      -9.320   7.153  71.674  1.00  0.00    -0.158 C  
HETATM   20  C   UNL     1     -10.010   5.925  71.043  1.00  0.00    -0.239 C  
HETATM   21  C   UNL     1     -11.201   6.196  70.090  1.00  0.00    -0.382 C  
HETATM   22  N   UNL     1     -12.059   7.259  70.605  1.00  0.00    -0.237 NA 
HETATM   23  C   UNL     1     -10.912   6.574  68.621  1.00  0.00    -0.363 C  
HETATM   24  C   UNL     1     -12.767   6.842  71.821  1.00  0.00    -0.327 C  
ENDBRANCH  14  15
ENDBRANCH   4  11
TORSDOF 2
ENDMDL
MODEL      204
REMARK 921   NORMALIZED FREE ENERGY PREDICTED BY IDOCK:   -3.43 KCAL/MOL
REMARK 922        TOTAL FREE ENERGY PREDICTED BY IDOCK:   -4.55 KCAL/MOL
REMARK 923 INTER-LIGAND FREE ENERGY PREDICTED BY IDOCK:   -4.08 KCAL/MOL
REMARK 924 INTRA-LIGAND FREE ENERGY PREDICTED BY IDOCK:   -0.48 KCAL/MOL
REMARK 927      BINDING AFFINITY PREDICTED BY RF-SCORE:    0.00 PKD
ROOT
HETATM    1  C   UNL     1      -9.807  14.772  67.505  1.00  0.00    -0.218 C  
HETATM    2  N   UNL     1     -10.267  13.670  66.691  1.00  0.00    -0.271 NA 
HETATM    3  N   UNL     1      -9.806  12.450  66.941  1.00  0.00    -0.211 NA 
HETATM    4  C   UNL     1     -10.169  11.709  65.869  1.00  0.00    -0.238 A  
HETATM    5  C   UNL     1     -11.076  12.452  65.046  1.00  0.00    -0.344 A  
HETATM    6  C   UNL     1     -12.510  13.336  63.287  1.00  0.00    -0.208 A  
HETATM    7  C   UNL     1     -11.077  13.744  65.596  1.00  0.00    -0.295 A  
HETATM    8  C   UNL     1     -12.469  14.608  63.858  1.00  0.00     0.104 A  
HETATM    9  C   UNL     1     -11.812  12.256  63.859  1.00  0.00    -0.553 A  
HETATM   10  C   UNL     1     -11.745  14.836  65.025  1.00  0.00    -0.364 A  
ENDROOT
BRANCH   4  11
HETATM   11  C   UNL     1      -9.425  10.460  65.699  1.00  0.00    -0.211 C  
HETATM   12  H   UNL     1      -8.491   8.847  66.152  1.00  0.00     0.000 HD 
HETATM   13  O   UNL     1      -8.969  10.161  64.581  1.00  0.00    -0.174 OA 
HETATM   14  N   UNL     1      -9.110   9.513  66.614  1.00  0.00    -0.145 N  
BRANCH  14  15
HETATM   15  C   UNL     1      -9.287   9.045  67.993  1.00  0.00    -0.141 C  
HETATM   16  C   UNL     1      -7.834  10.378  69.775  1.00  0.00    -0.095 C  
HETATM   17  C   UNL     1      -9.238  10.052  69.158  1.00  0.00    -0.196 C  
HETATM   18  C   UNL     1      -7.148  11.504  68.999  1.00  0.00    -0.115 C  
HETATM   19  C   UNL     1      -6.641  11.057  67.637  1.00  0.00    -0.065 C  
HETATM   20  C   UNL     1      -6.169   9.589  67.567  1.00  0.00    -0.057 C  
HETATM   21  C   UNL     1      -6.818   8.590  68.558  1.00  0.00    -0.064 C  
HETATM   22  N   UNL     1      -6.973   9.185  69.882  1.00  0.00    -0.050 NA 
HETATM   23  C   UNL     1      -8.195   7.985  68.214  1.00  0.00    -0.123 C  
HETATM   24  C   UNL     1      -5.676   9.414  70.530  1.00  0.00    -0.045 C  
ENDBRANCH  14  15
ENDBRANCH   4  11
TORSDOF 2
ENDMDL
MODEL      205
REMARK 921   NORMALIZED FREE ENERGY PREDICTED BY IDOCK:   -3.43 KCAL/MOL
REMARK 922        TOTAL FREE ENERGY PREDICTED BY IDOCK:   -4.55 KCAL/MOL
REMARK 923 INTER-LIGAND FREE ENERGY PREDICTED BY IDOCK:   -3.79 KCAL/MOL
REMARK 924 INTRA-LIGAND FREE ENERGY PREDICTED BY IDOCK:   -0.76 KCAL/MOL
REMARK 927      BINDING AFFINITY PREDICTED BY RF-SCORE:    0.00 PKD
ROOT
HETATM    1  C   UNL     1     -13.154  11.672  70.466  1.00  0.00     0.345 C  
HETATM    2  N   UNL     1     -12.277  10.560  70.757  1.00  0.00    -0.336 NA 
HETATM    3  N   UNL     1     -10.974  10.694  70.534  1.00  0.00    -0.128 NA 
HETATM    4  C   UNL     1     -10.473   9.440  70.612  1.00  0.00    -0.290 A  
HETATM    5  C   UNL     1     -11.469   8.546  71.123  1.00  0.00    -0.322 A  
HETATM    6  C   UNL     1     -12.829   6.648  71.815  1.00  0.00    -0.231 A  
HETATM    7  C   UNL     1     -12.646   9.310  71.161  1.00  0.00    -0.257 A  
HETATM    8  C   UNL     1     -13.977   7.441  71.822  1.00  0.00    -0.469 A  
HETATM    9  C   UNL     1     -11.577   7.179  71.456  1.00  0.00    -0.310 A  
HETATM   10  C   UNL     1     -13.905   8.791  71.490  1.00  0.00    -0.391 A  
ENDROOT
BRANCH   4  11
HETATM   11  C   UNL     1      -9.159   9.258  69.991  1.00  0.00    -0.210 C  
HETATM   12  H   UNL     1      -7.546   8.396  69.417  1.00  0.00     0.000 HD 
HETATM   13  O   UNL     1      -8.517  10.251  69.605  1.00  0.00    -0.169 OA 
HETATM   14  N   UNL     1      -8.464   8.119  69.762  1.00  0.00    -0.124 N  
BRANCH  14  15
HETATM   15  C   UNL     1      -8.482   6.653  69.804  1.00  0.00    -0.132 C  
HETATM   16  C   UNL     1      -6.780   5.508  68.114  1.00  0.00    -0.054 C  
HETATM   17  C   UNL     1      -7.178   5.862  69.588  1.00  0.00    -0.070 C  
HETATM   18  C   UNL     1      -5.990   6.652  67.476  1.00  0.00    -0.020 C  
HETATM   19  C   UNL     1      -6.860   7.853  67.139  1.00  0.00    -0.073 C  
HETATM   20  C   UNL     1      -8.309   7.514  66.733  1.00  0.00    -0.126 C  
HETATM   21  C   UNL     1      -8.917   6.208  67.306  1.00  0.00    -0.112 C  
HETATM   22  N   UNL     1      -7.942   5.122  67.292  1.00  0.00    -0.100 NA 
HETATM   23  C   UNL     1      -9.501   6.221  68.735  1.00  0.00    -0.124 C  
HETATM   24  C   UNL     1      -7.620   4.699  65.924  1.00  0.00    -0.090 C  
ENDBRANCH  14  15
ENDBRANCH   4  11
TORSDOF 2
ENDMDL
MODEL      206
REMARK 921   NORMALIZED FREE ENERGY PREDICTED BY IDOCK:   -3.40 KCAL/MOL
REMARK 922        TOTAL FREE ENERGY PREDICTED BY IDOCK:   -4.52 KCAL/MOL
REMARK 923 INTER-LIGAND FREE ENERGY PREDICTED BY IDOCK:   -3.67 KCAL/MOL
REMARK 924 INTRA-LIGAND FREE ENERGY PREDICTED BY IDOCK:   -0.85 KCAL/MOL
REMARK 927      BINDING AFFINITY PREDICTED BY RF-SCORE:    0.00 PKD
ROOT
HETATM    1  C   UNL     1      -7.293   7.240  64.607  1.00  0.00    -0.079 C  
HETATM    2  N   UNL     1      -7.961   6.274  65.450  1.00  0.00    -0.111 NA 
HETATM    3  N   UNL     1      -9.146   6.582  65.966  1.00  0.00    -0.127 NA 
HETATM    4  C   UNL     1      -9.372   5.644  66.913  1.00  0.00    -0.125 A  
HETATM    5  C   UNL     1      -8.395   4.601  66.812  1.00  0.00    -0.106 A  
HETATM    6  C   UNL     1      -6.917   2.690  67.123  1.00  0.00    -0.048 A  
HETATM    7  C   UNL     1      -7.466   5.075  65.873  1.00  0.00    -0.082 A  
HETATM    8  C   UNL     1      -6.012   3.208  66.196  1.00  0.00    -0.023 A  
HETATM    9  C   UNL     1      -8.100   3.378  67.450  1.00  0.00    -0.082 A  
HETATM   10  C   UNL     1      -6.271   4.417  65.555  1.00  0.00    -0.027 A  
ENDROOT
BRANCH   4  11
HETATM   11  C   UNL     1     -10.389   5.998  67.906  1.00  0.00    -0.206 C  
HETATM   12  H   UNL     1     -11.345   6.029  69.568  1.00  0.00     0.000 HD 
HETATM   13  O   UNL     1     -11.397   6.637  67.555  1.00  0.00    -0.271 OA 
HETATM   14  N   UNL     1     -10.435   5.718  69.230  1.00  0.00    -0.258 N  
BRANCH  14  15
HETATM   15  C   UNL     1      -9.722   5.153  70.380  1.00  0.00    -0.202 C  
HETATM   16  C   UNL     1     -10.303   6.332  72.690  1.00  0.00    -0.199 C  
HETATM   17  C   UNL     1     -10.416   5.079  71.754  1.00  0.00    -0.246 C  
HETATM   18  C   UNL     1     -11.408   7.343  72.379  1.00  0.00    -0.341 C  
HETATM   19  C   UNL     1     -11.178   8.082  71.070  1.00  0.00    -0.287 C  
HETATM   20  C   UNL     1      -9.697   8.329  70.713  1.00  0.00    -0.197 C  
HETATM   21  C   UNL     1      -8.659   7.322  71.268  1.00  0.00    -0.119 C  
HETATM   22  N   UNL     1      -8.966   6.952  72.647  1.00  0.00    -0.128 NA 
HETATM   23  C   UNL     1      -8.438   5.989  70.522  1.00  0.00    -0.132 C  
HETATM   24  C   UNL     1      -8.777   8.081  73.566  1.00  0.00    -0.266 C  
ENDBRANCH  14  15
ENDBRANCH   4  11
TORSDOF 2
ENDMDL
MODEL      207
REMARK 921   NORMALIZED FREE ENERGY PREDICTED BY IDOCK:   -3.39 KCAL/MOL
REMARK 922        TOTAL FREE ENERGY PREDICTED BY IDOCK:   -4.50 KCAL/MOL
REMARK 923 INTER-LIGAND FREE ENERGY PREDICTED BY IDOCK:   -3.62 KCAL/MOL
REMARK 924 INTRA-LIGAND FREE ENERGY PREDICTED BY IDOCK:   -0.88 KCAL/MOL
REMARK 927      BINDING AFFINITY PREDICTED BY RF-SCORE:    0.00 PKD
ROOT
HETATM    1  C   UNL     1     -11.073  11.115  66.913  1.00  0.00    -0.247 C  
HETATM    2  N   UNL     1      -9.797  10.464  66.719  1.00  0.00    -0.187 NA 
HETATM    3  N   UNL     1      -9.737   9.385  65.946  1.00  0.00    -0.272 NA 
HETATM    4  C   UNL     1      -8.521   8.846  66.189  1.00  0.00    -0.125 A  
HETATM    5  C   UNL     1      -7.729   9.753  66.965  1.00  0.00    -0.095 A  
HETATM    6  C   UNL     1      -6.072  10.867  68.359  1.00  0.00    -0.046 A  
HETATM    7  C   UNL     1      -8.617  10.778  67.328  1.00  0.00    -0.130 A  
HETATM    8  C   UNL     1      -6.993  11.855  68.708  1.00  0.00    -0.104 A  
HETATM    9  C   UNL     1      -6.427   9.807  67.504  1.00  0.00    -0.068 A  
HETATM   10  C   UNL     1      -8.288  11.825  68.199  1.00  0.00    -0.156 A  
ENDROOT
BRANCH   4  11
HETATM   11  C   UNL     1      -8.377   7.442  65.796  1.00  0.00    -0.139 C  
HETATM   12  H   UNL     1      -8.666   5.547  65.758  1.00  0.00     0.000 HD 
HETATM   13  O   UNL     1      -7.429   7.100  65.067  1.00  0.00    -0.081 OA 
HETATM   14  N   UNL     1      -9.139   6.373  66.126  1.00  0.00    -0.153 N  
BRANCH  14  15
HETATM   15  C   UNL     1     -10.360   5.907  66.790  1.00  0.00    -0.244 C  
HETATM   16  C   UNL     1     -10.286   6.105  69.439  1.00  0.00    -0.227 C  
HETATM   17  C   UNL     1     -10.856   6.609  68.068  1.00  0.00    -0.345 C  
HETATM   18  C   UNL     1      -8.968   6.807  69.770  1.00  0.00    -0.144 C  
HETATM   19  C   UNL     1      -7.811   6.323  68.911  1.00  0.00    -0.105 C  
HETATM   20  C   UNL     1      -7.883   4.838  68.498  1.00  0.00    -0.081 C  
HETATM   21  C   UNL     1      -9.292   4.201  68.394  1.00  0.00    -0.155 C  
HETATM   22  N   UNL     1     -10.152   4.637  69.489  1.00  0.00    -0.203 NA 
HETATM   23  C   UNL     1     -10.117   4.421  67.108  1.00  0.00    -0.121 C  
HETATM   24  C   UNL     1      -9.700   4.101  70.779  1.00  0.00    -0.196 C  
ENDBRANCH  14  15
ENDBRANCH   4  11
TORSDOF 2
ENDMDL
MODEL      208
REMARK 921   NORMALIZED FREE ENERGY PREDICTED BY IDOCK:   -3.38 KCAL/MOL
REMARK 922        TOTAL FREE ENERGY PREDICTED BY IDOCK:   -4.50 KCAL/MOL
REMARK 923 INTER-LIGAND FREE ENERGY PREDICTED BY IDOCK:   -3.86 KCAL/MOL
REMARK 924 INTRA-LIGAND FREE ENERGY PREDICTED BY IDOCK:   -0.64 KCAL/MOL
REMARK 927      BINDING AFFINITY PREDICTED BY RF-SCORE:    0.00 PKD
ROOT
HETATM    1  C   UNL     1      -6.234   4.599  66.033  1.00  0.00    -0.032 C  
HETATM    2  N   UNL     1      -7.303   5.024  66.907  1.00  0.00    -0.084 NA 
HETATM    3  N   UNL     1      -8.398   5.553  66.372  1.00  0.00    -0.110 NA 
HETATM    4  C   UNL     1      -9.064   6.109  67.409  1.00  0.00    -0.110 A  
HETATM    5  C   UNL     1      -8.465   5.707  68.647  1.00  0.00    -0.105 A  
HETATM    6  C   UNL     1      -7.741   5.420  70.954  1.00  0.00    -0.090 A  
HETATM    7  C   UNL     1      -7.290   5.036  68.271  1.00  0.00    -0.074 A  
HETATM    8  C   UNL     1      -6.577   4.774  70.535  1.00  0.00    -0.035 A  
HETATM    9  C   UNL     1      -8.683   5.901  70.027  1.00  0.00    -0.133 A  
HETATM   10  C   UNL     1      -6.330   4.574  69.180  1.00  0.00    -0.032 A  
ENDROOT
BRANCH   4  11
HETATM   11  C   UNL     1     -10.067   7.109  67.038  1.00  0.00    -0.238 C  
HETATM   12  H   UNL     1     -10.812   8.774  66.445  1.00  0.00     0.000 HD 
HETATM   13  O   UNL     1     -11.267   6.903  67.291  1.00  0.00    -0.317 OA 
HETATM   14  N   UNL     1      -9.903   8.313  66.439  1.00  0.00    -0.239 N  
BRANCH  14  15
HETATM   15  C   UNL     1      -8.962   9.230  65.786  1.00  0.00    -0.192 C  
HETATM   16  C   UNL     1      -8.441  11.420  67.197  1.00  0.00    -0.153 C  
HETATM   17  C   UNL     1      -7.962  10.038  66.635  1.00  0.00    -0.115 C  
HETATM   18  C   UNL     1      -9.166  11.241  68.533  1.00  0.00    -0.181 C  
HETATM   19  C   UNL     1     -10.548  10.628  68.375  1.00  0.00    -0.231 C  
HETATM   20  C   UNL     1     -11.284  11.007  67.072  1.00  0.00    -0.255 C  
HETATM   21  C   UNL     1     -10.408  11.358  65.843  1.00  0.00    -0.250 C  
HETATM   22  N   UNL     1      -9.259  12.172  66.228  1.00  0.00    -0.211 NA 
HETATM   23  C   UNL     1      -9.832  10.212  64.984  1.00  0.00    -0.392 C  
HETATM   24  C   UNL     1      -9.667  13.512  66.669  1.00  0.00    -0.280 C  
ENDBRANCH  14  15
ENDBRANCH   4  11
TORSDOF 2
ENDMDL
MODEL      209
REMARK 921   NORMALIZED FREE ENERGY PREDICTED BY IDOCK:   -3.37 KCAL/MOL
REMARK 922        TOTAL FREE ENERGY PREDICTED BY IDOCK:   -4.49 KCAL/MOL
REMARK 923 INTER-LIGAND FREE ENERGY PREDICTED BY IDOCK:   -4.08 KCAL/MOL
REMARK 924 INTRA-LIGAND FREE ENERGY PREDICTED BY IDOCK:   -0.40 KCAL/MOL
REMARK 927      BINDING AFFINITY PREDICTED BY RF-SCORE:    0.00 PKD
ROOT
HETATM    1  C   UNL     1      -6.933  13.062  67.987  1.00  0.00    -0.112 C  
HETATM    2  N   UNL     1      -8.227  12.523  67.632  1.00  0.00    -0.159 NA 
HETATM    3  N   UNL     1      -9.319  13.094  68.128  1.00  0.00    -0.214 NA 
HETATM    4  C   UNL     1     -10.320  12.221  67.872  1.00  0.00    -0.208 A  
HETATM    5  C   UNL     1      -9.857  11.191  66.991  1.00  0.00    -0.212 A  
HETATM    6  C   UNL     1      -9.519   9.191  65.643  1.00  0.00    -0.309 A  
HETATM    7  C   UNL     1      -8.472  11.401  66.896  1.00  0.00    -0.157 A  
HETATM    8  C   UNL     1      -8.145   9.428  65.589  1.00  0.00    -0.112 A  
HETATM    9  C   UNL     1     -10.381  10.050  66.347  1.00  0.00    -0.249 A  
HETATM   10  C   UNL     1      -7.595  10.541  66.222  1.00  0.00    -0.133 A  
ENDROOT
BRANCH   4  11
HETATM   11  C   UNL     1     -11.527  12.408  68.679  1.00  0.00    -0.303 C  
HETATM   12  H   UNL     1     -12.739  13.180  69.949  1.00  0.00     0.000 HD 
HETATM   13  O   UNL     1     -12.385  11.509  68.724  1.00  0.00    -0.425 OA 
HETATM   14  N   UNL     1     -11.891  13.457  69.455  1.00  0.00    -0.316 N  
BRANCH  14  15
HETATM   15  C   UNL     1     -11.574  14.824  69.881  1.00  0.00    -0.286 C  
HETATM   16  C   UNL     1     -11.970  15.262  72.472  1.00  0.00    -0.424 C  
HETATM   17  C   UNL     1     -10.973  15.074  71.277  1.00  0.00    -0.074 C  
HETATM   18  C   UNL     1     -12.360  13.910  73.071  1.00  0.00     0.319 C  
HETATM   19  C   UNL     1     -13.304  13.120  72.178  1.00  0.00    -0.621 C  
HETATM   20  C   UNL     1     -14.282  13.976  71.347  1.00  0.00    -0.098 C  
HETATM   21  C   UNL     1     -13.828  15.411  70.977  1.00  0.00    -0.276 C  
HETATM   22  N   UNL     1     -13.155  16.058  72.099  1.00  0.00    -0.362 NA 
HETATM   23  C   UNL     1     -12.892  15.609  69.765  1.00  0.00     0.240 C  
HETATM   24  C   UNL     1     -14.084  16.337  73.201  1.00  0.00     0.410 C  
ENDBRANCH  14  15
ENDBRANCH   4  11
TORSDOF 2
ENDMDL
MODEL      210
REMARK 921   NORMALIZED FREE ENERGY PREDICTED BY IDOCK:   -3.34 KCAL/MOL
REMARK 922        TOTAL FREE ENERGY PREDICTED BY IDOCK:   -4.46 KCAL/MOL
REMARK 923 INTER-LIGAND FREE ENERGY PREDICTED BY IDOCK:   -3.81 KCAL/MOL
REMARK 924 INTRA-LIGAND FREE ENERGY PREDICTED BY IDOCK:   -0.65 KCAL/MOL
REMARK 927      BINDING AFFINITY PREDICTED BY RF-SCORE:    0.00 PKD
ROOT
HETATM    1  C   UNL     1     -10.227  13.473  68.344  1.00  0.00    -0.245 C  
HETATM    2  N   UNL     1      -9.406  12.644  67.491  1.00  0.00    -0.182 NA 
HETATM    3  N   UNL     1      -9.998  11.812  66.641  1.00  0.00    -0.198 NA 
HETATM    4  C   UNL     1      -9.016  10.987  66.213  1.00  0.00    -0.185 A  
HETATM    5  C   UNL     1      -7.741  11.478  66.646  1.00  0.00    -0.101 A  
HETATM    6  C   UNL     1      -5.406  11.826  67.242  1.00  0.00    -0.100 A  
HETATM    7  C   UNL     1      -8.046  12.537  67.516  1.00  0.00    -0.176 A  
HETATM    8  C   UNL     1      -5.756  12.861  68.110  1.00  0.00    -0.088 A  
HETATM    9  C   UNL     1      -6.383  11.120  66.517  1.00  0.00    -0.132 A  
HETATM   10  C   UNL     1      -7.088  13.233  68.265  1.00  0.00    -0.109 A  
ENDROOT
BRANCH   4  11
HETATM   11  C   UNL     1      -9.477   9.733  65.613  1.00  0.00    -0.246 C  
HETATM   12  H   UNL     1     -10.062   7.912  65.481  1.00  0.00     0.000 HD 
HETATM   13  O   UNL     1      -9.446   9.593  64.378  1.00  0.00    -0.234 OA 
HETATM   14  N   UNL     1      -9.948   8.613  66.212  1.00  0.00    -0.266 N  
BRANCH  14  15
HETATM   15  C   UNL     1     -10.363   7.989  67.472  1.00  0.00    -0.261 C  
HETATM   16  C   UNL     1      -8.736   6.060  68.303  1.00  0.00    -0.113 C  
HETATM   17  C   UNL     1      -9.300   7.512  68.479  1.00  0.00    -0.142 C  
HETATM   18  C   UNL     1      -7.563   6.049  67.322  1.00  0.00    -0.093 C  
HETATM   19  C   UNL     1      -8.000   6.243  65.878  1.00  0.00    -0.116 C  
HETATM   20  C   UNL     1      -9.382   5.650  65.532  1.00  0.00     0.029 C  
HETATM   21  C   UNL     1     -10.413   5.540  66.683  1.00  0.00    -0.294 C  
HETATM   22  N   UNL     1      -9.779   5.091  67.919  1.00  0.00    -0.146 NA 
HETATM   23  C   UNL     1     -11.235   6.788  67.071  1.00  0.00    -0.222 C  
HETATM   24  C   UNL     1      -9.325   3.698  67.820  1.00  0.00    -0.194 C  
ENDBRANCH  14  15
ENDBRANCH   4  11
TORSDOF 2
ENDMDL
MODEL      211
REMARK 921   NORMALIZED FREE ENERGY PREDICTED BY IDOCK:   -3.33 KCAL/MOL
REMARK 922        TOTAL FREE ENERGY PREDICTED BY IDOCK:   -4.45 KCAL/MOL
REMARK 923 INTER-LIGAND FREE ENERGY PREDICTED BY IDOCK:   -3.66 KCAL/MOL
REMARK 924 INTRA-LIGAND FREE ENERGY PREDICTED BY IDOCK:   -0.79 KCAL/MOL
REMARK 927      BINDING AFFINITY PREDICTED BY RF-SCORE:    0.00 PKD
ROOT
HETATM    1  C   UNL     1     -10.122  11.451  63.825  1.00  0.00    -0.362 C  
HETATM    2  N   UNL     1      -9.529  10.432  64.660  1.00  0.00    -0.253 NA 
HETATM    3  N   UNL     1      -9.637  10.540  65.980  1.00  0.00    -0.184 NA 
HETATM    4  C   UNL     1      -8.760   9.639  66.480  1.00  0.00    -0.134 A  
HETATM    5  C   UNL     1      -8.269   8.799  65.428  1.00  0.00    -0.137 A  
HETATM    6  C   UNL     1      -7.067   7.232  64.003  1.00  0.00    -0.071 A  
HETATM    7  C   UNL     1      -8.762   9.381  64.249  1.00  0.00    -0.197 A  
HETATM    8  C   UNL     1      -7.566   7.853  62.857  1.00  0.00    -0.125 A  
HETATM    9  C   UNL     1      -7.397   7.700  65.289  1.00  0.00    -0.071 A  
HETATM   10  C   UNL     1      -8.423   8.945  62.962  1.00  0.00    -0.170 A  
ENDROOT
BRANCH   4  11
HETATM   11  C   UNL     1      -8.378   9.856  67.877  1.00  0.00    -0.114 C  
HETATM   12  H   UNL     1      -7.917   9.463  69.696  1.00  0.00     0.000 HD 
HETATM   13  O   UNL     1      -8.401  11.005  68.351  1.00  0.00    -0.125 OA 
HETATM   14  N   UNL     1      -7.993   8.958  68.814  1.00  0.00    -0.101 N  
BRANCH  14  15
HETATM   15  C   UNL     1      -7.640   7.561  69.089  1.00  0.00    -0.100 C  
HETATM   16  C   UNL     1      -9.735   5.934  69.246  1.00  0.00    -0.144 C  
HETATM   17  C   UNL     1      -8.467   6.422  68.464  1.00  0.00    -0.119 C  
HETATM   18  C   UNL     1     -10.955   6.784  68.887  1.00  0.00    -0.272 C  
HETATM   19  C   UNL     1     -10.901   8.177  69.494  1.00  0.00    -0.128 C  
HETATM   20  C   UNL     1     -10.199   8.262  70.867  1.00  0.00    -0.224 C  
HETATM   21  C   UNL     1      -9.111   7.203  71.171  1.00  0.00    -0.152 C  
HETATM   22  N   UNL     1      -9.515   5.881  70.703  1.00  0.00    -0.169 NA 
HETATM   23  C   UNL     1      -7.685   7.418  70.620  1.00  0.00    -0.091 C  
HETATM   24  C   UNL     1     -10.641   5.351  71.481  1.00  0.00    -0.216 C  
ENDBRANCH  14  15
ENDBRANCH   4  11
TORSDOF 2
ENDMDL
MODEL      212
REMARK 921   NORMALIZED FREE ENERGY PREDICTED BY IDOCK:   -3.32 KCAL/MOL
REMARK 922        TOTAL FREE ENERGY PREDICTED BY IDOCK:   -4.44 KCAL/MOL
REMARK 923 INTER-LIGAND FREE ENERGY PREDICTED BY IDOCK:   -3.68 KCAL/MOL
REMARK 924 INTRA-LIGAND FREE ENERGY PREDICTED BY IDOCK:   -0.76 KCAL/MOL
REMARK 927      BINDING AFFINITY PREDICTED BY RF-SCORE:    0.00 PKD
ROOT
HETATM    1  C   UNL     1     -10.995  17.378  70.483  1.00  0.00     1.222 C  
HETATM    2  N   UNL     1     -10.685  16.482  69.392  1.00  0.00    -0.318 NA 
HETATM    3  N   UNL     1     -11.272  15.290  69.354  1.00  0.00    -0.265 NA 
HETATM    4  C   UNL     1     -10.584  14.589  68.424  1.00  0.00    -0.244 A  
HETATM    5  C   UNL     1      -9.694  15.459  67.714  1.00  0.00    -0.211 A  
HETATM    6  C   UNL     1      -7.963  16.481  66.339  1.00  0.00    -0.352 A  
HETATM    7  C   UNL     1      -9.759  16.677  68.410  1.00  0.00    -0.243 A  
HETATM    8  C   UNL     1      -8.048  17.667  67.069  1.00  0.00    -0.243 A  
HETATM    9  C   UNL     1      -8.765  15.370  66.657  1.00  0.00    -0.332 A  
HETATM   10  C   UNL     1      -8.949  17.784  68.124  1.00  0.00    -0.271 A  
ENDROOT
BRANCH   4  11
HETATM   11  C   UNL     1     -10.749  13.136  68.496  1.00  0.00    -0.259 C  
HETATM   12  H   UNL     1     -10.318  11.270  68.399  1.00  0.00     0.000 HD 
HETATM   13  O   UNL     1     -11.887  12.651  68.627  1.00  0.00    -0.305 OA 
HETATM   14  N   UNL     1      -9.816  12.157  68.424  1.00  0.00    -0.212 N  
BRANCH  14  15
HETATM   15  C   UNL     1      -8.385  11.842  68.365  1.00  0.00    -0.153 C  
HETATM   16  C   UNL     1      -7.694  10.366  66.266  1.00  0.00    -0.129 C  
HETATM   17  C   UNL     1      -7.674  11.749  67.002  1.00  0.00    -0.158 C  
HETATM   18  C   UNL     1      -8.961  10.219  65.421  1.00  0.00    -0.205 C  
HETATM   19  C   UNL     1     -10.207   9.989  66.262  1.00  0.00    -0.285 C  
HETATM   20  C   UNL     1      -9.976   9.191  67.563  1.00  0.00    -0.258 C  
HETATM   21  C   UNL     1      -8.569   9.279  68.206  1.00  0.00    -0.125 C  
HETATM   22  N   UNL     1      -7.520   9.230  67.192  1.00  0.00    -0.091 NA 
HETATM   23  C   UNL     1      -8.229  10.496  69.093  1.00  0.00    -0.152 C  
HETATM   24  C   UNL     1      -7.449   7.913  66.549  1.00  0.00    -0.088 C  
ENDBRANCH  14  15
ENDBRANCH   4  11
TORSDOF 2
ENDMDL
MODEL      213
REMARK 921   NORMALIZED FREE ENERGY PREDICTED BY IDOCK:   -3.31 KCAL/MOL
REMARK 922        TOTAL FREE ENERGY PREDICTED BY IDOCK:   -4.42 KCAL/MOL
REMARK 923 INTER-LIGAND FREE ENERGY PREDICTED BY IDOCK:   -3.69 KCAL/MOL
REMARK 924 INTRA-LIGAND FREE ENERGY PREDICTED BY IDOCK:   -0.73 KCAL/MOL
REMARK 927      BINDING AFFINITY PREDICTED BY RF-SCORE:    0.00 PKD
ROOT
HETATM    1  C   UNL     1      -5.791   2.341  65.108  1.00  0.00    -0.018 C  
HETATM    2  N   UNL     1      -6.983   3.082  65.454  1.00  0.00    -0.052 NA 
HETATM    3  N   UNL     1      -7.075   3.625  66.663  1.00  0.00    -0.058 NA 
HETATM    4  C   UNL     1      -8.373   3.980  66.792  1.00  0.00    -0.101 A  
HETATM    5  C   UNL     1      -9.042   3.855  65.532  1.00  0.00    -0.143 A  
HETATM    6  C   UNL     1     -10.623   3.685  63.686  1.00  0.00    -0.279 A  
HETATM    7  C   UNL     1      -8.109   3.222  64.696  1.00  0.00    -0.090 A  
HETATM    8  C   UNL     1      -9.669   3.042  62.896  1.00  0.00    -0.093 A  
HETATM    9  C   UNL     1     -10.331   4.083  65.004  1.00  0.00    -0.174 A  
HETATM   10  C   UNL     1      -8.391   2.795  63.392  1.00  0.00    -0.085 A  
ENDROOT
BRANCH   4  11
HETATM   11  C   UNL     1      -8.821   4.202  68.169  1.00  0.00    -0.109 C  
HETATM   12  H   UNL     1      -9.757   4.976  69.653  1.00  0.00     0.000 HD 
HETATM   13  O   UNL     1      -8.240   3.626  69.106  1.00  0.00    -0.060 OA 
HETATM   14  N   UNL     1      -9.816   4.993  68.635  1.00  0.00    -0.161 N  
BRANCH  14  15
HETATM   15  C   UNL     1     -10.943   5.864  68.286  1.00  0.00    -0.170 C  
HETATM   16  C   UNL     1     -10.214   8.232  67.324  1.00  0.00    -0.274 C  
HETATM   17  C   UNL     1     -10.835   6.814  67.078  1.00  0.00    -0.453 C  
HETATM   18  C   UNL     1      -8.690   8.185  67.205  1.00  0.00    -0.130 C  
HETATM   19  C   UNL     1      -8.027   7.496  68.388  1.00  0.00    -0.123 C  
HETATM   20  C   UNL     1      -8.752   7.679  69.738  1.00  0.00    -0.140 C  
HETATM   21  C   UNL     1     -10.283   7.917  69.691  1.00  0.00    -0.207 C  
HETATM   22  N   UNL     1     -10.644   8.823  68.605  1.00  0.00    -0.181 NA 
HETATM   23  C   UNL     1     -11.223   6.702  69.546  1.00  0.00    -0.383 C  
HETATM   24  C   UNL     1     -10.159  10.186  68.852  1.00  0.00    -0.200 C  
ENDBRANCH  14  15
ENDBRANCH   4  11
TORSDOF 2
ENDMDL
MODEL      214
REMARK 921   NORMALIZED FREE ENERGY PREDICTED BY IDOCK:   -3.30 KCAL/MOL
REMARK 922        TOTAL FREE ENERGY PREDICTED BY IDOCK:   -4.41 KCAL/MOL
REMARK 923 INTER-LIGAND FREE ENERGY PREDICTED BY IDOCK:   -3.66 KCAL/MOL
REMARK 924 INTRA-LIGAND FREE ENERGY PREDICTED BY IDOCK:   -0.75 KCAL/MOL
REMARK 927      BINDING AFFINITY PREDICTED BY RF-SCORE:    0.00 PKD
ROOT
HETATM    1  C   UNL     1      -7.163   9.494  64.586  1.00  0.00    -0.113 C  
HETATM    2  N   UNL     1      -8.243  10.237  65.196  1.00  0.00    -0.158 NA 
HETATM    3  N   UNL     1      -8.709  11.317  64.578  1.00  0.00     0.162 NA 
HETATM    4  C   UNL     1      -9.475  11.946  65.498  1.00  0.00    -0.138 A  
HETATM    5  C   UNL     1      -9.662  11.100  66.639  1.00  0.00    -0.224 A  
HETATM    6  C   UNL     1     -10.152  10.113  68.811  1.00  0.00    -0.198 A  
HETATM    7  C   UNL     1      -8.802  10.012  66.420  1.00  0.00    -0.143 A  
HETATM    8  C   UNL     1      -9.274   9.059  68.558  1.00  0.00    -0.136 A  
HETATM    9  C   UNL     1     -10.346  11.143  67.872  1.00  0.00    -0.211 A  
HETATM   10  C   UNL     1      -8.578   8.993  67.354  1.00  0.00    -0.115 A  
ENDROOT
BRANCH   4  11
HETATM   11  C   UNL     1      -9.751  13.356  65.215  1.00  0.00     0.029 C  
HETATM   12  H   UNL     1      -9.789  15.260  65.438  1.00  0.00     0.000 HD 
HETATM   13  O   UNL     1     -10.523  13.660  64.288  1.00  0.00    -0.392 OA 
HETATM   14  N   UNL     1      -9.294  14.466  65.842  1.00  0.00    -0.149 N  
BRANCH  14  15
HETATM   15  C   UNL     1      -8.384  15.002  66.860  1.00  0.00    -0.212 C  
HETATM   16  C   UNL     1      -9.621  16.092  68.943  1.00  0.00    -0.245 C  
HETATM   17  C   UNL     1      -8.764  14.921  68.350  1.00  0.00    -0.172 C  
HETATM   18  C   UNL     1     -11.114  15.837  68.725  1.00  0.00    -0.321 C  
HETATM   19  C   UNL     1     -11.539  16.024  67.277  1.00  0.00     0.304 C  
HETATM   20  C   UNL     1     -10.758  17.108  66.505  1.00  0.00    -0.074 C  
HETATM   21  C   UNL     1      -9.308  17.401  66.969  1.00  0.00    -0.260 C  
HETATM   22  N   UNL     1      -9.212  17.411  68.425  1.00  0.00    -0.270 NA 
HETATM   23  C   UNL     1      -8.169  16.478  66.486  1.00  0.00    -0.335 C  
HETATM   24  C   UNL     1      -9.925  18.554  69.008  1.00  0.00    -0.285 C  
ENDBRANCH  14  15
ENDBRANCH   4  11
TORSDOF 2
ENDMDL
MODEL      215
REMARK 921   NORMALIZED FREE ENERGY PREDICTED BY IDOCK:   -3.28 KCAL/MOL
REMARK 922        TOTAL FREE ENERGY PREDICTED BY IDOCK:   -4.39 KCAL/MOL
REMARK 923 INTER-LIGAND FREE ENERGY PREDICTED BY IDOCK:   -3.84 KCAL/MOL
REMARK 924 INTRA-LIGAND FREE ENERGY PREDICTED BY IDOCK:   -0.55 KCAL/MOL
REMARK 927      BINDING AFFINITY PREDICTED BY RF-SCORE:    0.00 PKD
ROOT
HETATM    1  C   UNL     1     -11.706  12.931  69.190  1.00  0.00    -0.324 C  
HETATM    2  N   UNL     1     -10.842  11.982  68.526  1.00  0.00    -0.223 NA 
HETATM    3  N   UNL     1     -11.255  10.727  68.384  1.00  0.00    -0.263 NA 
HETATM    4  C   UNL     1     -10.154  10.034  68.013  1.00  0.00    -0.167 A  
HETATM    5  C   UNL     1      -9.088  10.939  67.701  1.00  0.00    -0.148 A  
HETATM    6  C   UNL     1      -6.973  12.037  67.198  1.00  0.00    -0.134 A  
HETATM    7  C   UNL     1      -9.566  12.199  68.094  1.00  0.00    -0.208 A  
HETATM    8  C   UNL     1      -7.484  13.267  67.616  1.00  0.00    -0.173 A  
HETATM    9  C   UNL     1      -7.754  10.868  67.247  1.00  0.00    -0.112 A  
HETATM   10  C   UNL     1      -8.794  13.368  68.077  1.00  0.00    -0.183 A  
ENDROOT
BRANCH   4  11
HETATM   11  C   UNL     1     -10.240   8.585  68.206  1.00  0.00    -0.205 C  
HETATM   12  H   UNL     1      -9.708   6.793  68.635  1.00  0.00     0.000 HD 
HETATM   13  O   UNL     1     -11.234   7.965  67.788  1.00  0.00     0.180 OA 
HETATM   14  N   UNL     1      -9.356   7.738  68.786  1.00  0.00    -0.146 N  
BRANCH  14  15
HETATM   15  C   UNL     1      -8.105   7.615  69.540  1.00  0.00    -0.127 C  
HETATM   16  C   UNL     1      -8.417   6.632  71.989  1.00  0.00    -0.116 C  
HETATM   17  C   UNL     1      -7.910   6.441  70.518  1.00  0.00    -0.107 C  
HETATM   18  C   UNL     1      -9.896   6.258  72.106  1.00  0.00    -0.171 C  
HETATM   19  C   UNL     1     -10.816   7.288  71.468  1.00  0.00    -0.248 C  
HETATM   20  C   UNL     1     -10.315   8.746  71.548  1.00  0.00    -0.374 C  
HETATM   21  C   UNL     1      -8.783   8.964  71.624  1.00  0.00    -0.116 C  
HETATM   22  N   UNL     1      -8.153   7.987  72.507  1.00  0.00    -0.123 NA 
HETATM   23  C   UNL     1      -7.959   8.933  70.319  1.00  0.00    -0.116 C  
HETATM   24  C   UNL     1      -8.533   8.199  73.909  1.00  0.00    -0.241 C  
ENDBRANCH  14  15
ENDBRANCH   4  11
TORSDOF 2
ENDMDL
MODEL      216
REMARK 921   NORMALIZED FREE ENERGY PREDICTED BY IDOCK:   -3.25 KCAL/MOL
REMARK 922        TOTAL FREE ENERGY PREDICTED BY IDOCK:   -4.35 KCAL/MOL
REMARK 923 INTER-LIGAND FREE ENERGY PREDICTED BY IDOCK:   -3.69 KCAL/MOL
REMARK 924 INTRA-LIGAND FREE ENERGY PREDICTED BY IDOCK:   -0.66 KCAL/MOL
REMARK 927      BINDING AFFINITY PREDICTED BY RF-SCORE:    0.00 PKD
ROOT
HETATM    1  C   UNL     1     -11.693  12.856  69.110  1.00  0.00    -0.324 C  
HETATM    2  N   UNL     1     -10.564  12.341  68.369  1.00  0.00    -0.229 NA 
HETATM    3  N   UNL     1     -10.629  11.110  67.873  1.00  0.00    -0.187 NA 
HETATM    4  C   UNL     1      -9.361  10.811  67.508  1.00  0.00    -0.147 A  
HETATM    5  C   UNL     1      -8.542  11.984  67.577  1.00  0.00    -0.167 A  
HETATM    6  C   UNL     1      -6.747  13.628  67.658  1.00  0.00    -0.185 A  
HETATM    7  C   UNL     1      -9.357  12.951  68.188  1.00  0.00    -0.214 A  
HETATM    8  C   UNL     1      -7.587  14.552  68.281  1.00  0.00    -0.121 A  
HETATM    9  C   UNL     1      -7.203  12.342  67.315  1.00  0.00    -0.125 A  
HETATM   10  C   UNL     1      -8.911  14.225  68.561  1.00  0.00    -0.185 A  
ENDROOT
BRANCH   4  11
HETATM   11  C   UNL     1      -9.088   9.383  67.335  1.00  0.00    -0.126 C  
HETATM   12  H   UNL     1      -8.360   7.639  67.661  1.00  0.00     0.000 HD 
HETATM   13  O   UNL     1      -9.435   8.811  66.286  1.00  0.00    -0.197 OA 
HETATM   14  N   UNL     1      -8.463   8.517  68.169  1.00  0.00    -0.133 N  
BRANCH  14  15
HETATM   15  C   UNL     1      -7.873   8.317  69.496  1.00  0.00    -0.103 C  
HETATM   16  C   UNL     1      -7.755   5.771  70.247  1.00  0.00    -0.095 C  
HETATM   17  C   UNL     1      -7.014   7.069  69.775  1.00  0.00    -0.059 C  
HETATM   18  C   UNL     1      -8.241   4.956  69.047  1.00  0.00    -0.082 C  
HETATM   19  C   UNL     1      -9.432   5.592  68.347  1.00  0.00    -0.142 C  
HETATM   20  C   UNL     1     -10.393   6.368  69.273  1.00  0.00    -0.248 C  
HETATM   21  C   UNL     1      -9.793   6.977  70.565  1.00  0.00    -0.179 C  
HETATM   22  N   UNL     1      -8.849   6.057  71.194  1.00  0.00    -0.139 NA 
HETATM   23  C   UNL     1      -9.055   8.330  70.480  1.00  0.00    -0.154 C  
HETATM   24  C   UNL     1      -9.526   4.872  71.734  1.00  0.00    -0.151 C  
ENDBRANCH  14  15
ENDBRANCH   4  11
TORSDOF 2
ENDMDL
MODEL      217
REMARK 921   NORMALIZED FREE ENERGY PREDICTED BY IDOCK:   -3.23 KCAL/MOL
REMARK 922        TOTAL FREE ENERGY PREDICTED BY IDOCK:   -4.34 KCAL/MOL
REMARK 923 INTER-LIGAND FREE ENERGY PREDICTED BY IDOCK:   -3.37 KCAL/MOL
REMARK 924 INTRA-LIGAND FREE ENERGY PREDICTED BY IDOCK:   -0.97 KCAL/MOL
REMARK 927      BINDING AFFINITY PREDICTED BY RF-SCORE:    0.00 PKD
ROOT
HETATM    1  C   UNL     1      -8.277   2.804  70.059  1.00  0.00    -0.041 C  
HETATM    2  N   UNL     1      -8.025   3.994  69.279  1.00  0.00    -0.056 NA 
HETATM    3  N   UNL     1      -7.731   5.126  69.910  1.00  0.00    -0.067 NA 
HETATM    4  C   UNL     1      -7.842   6.092  68.970  1.00  0.00    -0.096 A  
HETATM    5  C   UNL     1      -7.988   5.499  67.674  1.00  0.00    -0.101 A  
HETATM    6  C   UNL     1      -8.385   4.985  65.327  1.00  0.00    -0.135 A  
HETATM    7  C   UNL     1      -8.149   4.128  67.927  1.00  0.00    -0.090 A  
HETATM    8  C   UNL     1      -8.556   3.632  65.626  1.00  0.00    -0.113 A  
HETATM    9  C   UNL     1      -8.116   5.927  66.336  1.00  0.00    -0.103 A  
HETATM   10  C   UNL     1      -8.444   3.180  66.938  1.00  0.00    -0.105 A  
ENDROOT
BRANCH   4  11
HETATM   11  C   UNL     1      -7.987   7.452  69.493  1.00  0.00    -0.127 C  
HETATM   12  H   UNL     1      -8.699   9.214  69.746  1.00  0.00     0.000 HD 
HETATM   13  O   UNL     1      -7.080   7.946  70.186  1.00  0.00    -0.049 OA 
HETATM   14  N   UNL     1      -9.001   8.334  69.330  1.00  0.00    -0.146 N  
BRANCH  14  15
HETATM   15  C   UNL     1     -10.352   8.552  68.803  1.00  0.00    -0.213 C  
HETATM   16  C   UNL     1     -10.399   9.623  66.372  1.00  0.00    -0.176 C  
HETATM   17  C   UNL     1     -10.627   8.379  67.297  1.00  0.00    -0.328 C  
HETATM   18  C   UNL     1      -8.940   9.704  65.920  1.00  0.00    -0.203 C  
HETATM   19  C   UNL     1      -8.002  10.140  67.035  1.00  0.00    -0.110 C  
HETATM   20  C   UNL     1      -8.615  11.125  68.053  1.00  0.00    -0.140 C  
HETATM   21  C   UNL     1     -10.148  11.060  68.264  1.00  0.00    -0.177 C  
HETATM   22  N   UNL     1     -10.849  10.882  66.996  1.00  0.00    -0.272 NA 
HETATM   23  C   UNL     1     -10.728   9.987  69.210  1.00  0.00    -0.249 C  
HETATM   24  C   UNL     1     -10.736  12.071  66.142  1.00  0.00    -0.275 C  
ENDBRANCH  14  15
ENDBRANCH   4  11
TORSDOF 2
ENDMDL
MODEL      218
REMARK 921   NORMALIZED FREE ENERGY PREDICTED BY IDOCK:   -3.22 KCAL/MOL
REMARK 922        TOTAL FREE ENERGY PREDICTED BY IDOCK:   -4.32 KCAL/MOL
REMARK 923 INTER-LIGAND FREE ENERGY PREDICTED BY IDOCK:   -3.72 KCAL/MOL
REMARK 924 INTRA-LIGAND FREE ENERGY PREDICTED BY IDOCK:   -0.60 KCAL/MOL
REMARK 927      BINDING AFFINITY PREDICTED BY RF-SCORE:    0.00 PKD
ROOT
HETATM    1  C   UNL     1      -6.509  15.338  67.599  1.00  0.00    -0.163 C  
HETATM    2  N   UNL     1      -7.440  14.302  67.984  1.00  0.00    -0.125 NA 
HETATM    3  N   UNL     1      -6.981  13.075  68.207  1.00  0.00    -0.089 NA 
HETATM    4  C   UNL     1      -8.081  12.290  68.252  1.00  0.00    -0.166 A  
HETATM    5  C   UNL     1      -9.261  13.102  68.283  1.00  0.00    -0.194 A  
HETATM    6  C   UNL     1     -11.514  14.024  68.220  1.00  0.00    -0.337 A  
HETATM    7  C   UNL     1      -8.798  14.409  68.061  1.00  0.00    -0.178 A  
HETATM    8  C   UNL     1     -11.011  15.303  67.981  1.00  0.00    -0.299 A  
HETATM    9  C   UNL     1     -10.657  12.917  68.359  1.00  0.00    -0.267 A  
HETATM   10  C   UNL     1      -9.638  15.517  67.893  1.00  0.00    -0.206 A  
ENDROOT
BRANCH   4  11
HETATM   11  C   UNL     1      -7.830  10.860  68.059  1.00  0.00    -0.107 C  
HETATM   12  H   UNL     1      -7.828   8.973  68.400  1.00  0.00     0.000 HD 
HETATM   13  O   UNL     1      -7.061  10.486  67.157  1.00  0.00    -0.086 OA 
HETATM   14  N   UNL     1      -8.310   9.800  68.752  1.00  0.00    -0.109 N  
BRANCH  14  15
HETATM   15  C   UNL     1      -9.234   9.345  69.796  1.00  0.00    -0.196 C  
HETATM   16  C   UNL     1      -8.218   7.478  71.391  1.00  0.00    -0.106 C  
HETATM   17  C   UNL     1      -8.693   8.958  71.185  1.00  0.00    -0.280 C  
HETATM   18  C   UNL     1      -6.758   7.313  70.967  1.00  0.00    -0.048 C  
HETATM   19  C   UNL     1      -6.576   7.346  69.457  1.00  0.00    -0.037 C  
HETATM   20  C   UNL     1      -7.751   6.760  68.647  1.00  0.00    -0.113 C  
HETATM   21  C   UNL     1      -9.157   6.821  69.295  1.00  0.00    -0.139 C  
HETATM   22  N   UNL     1      -9.097   6.504  70.719  1.00  0.00    -0.154 NA 
HETATM   23  C   UNL     1      -9.968   8.132  69.199  1.00  0.00    -0.192 C  
HETATM   24  C   UNL     1      -8.749   5.096  70.946  1.00  0.00    -0.130 C  
ENDBRANCH  14  15
ENDBRANCH   4  11
TORSDOF 2
ENDMDL
MODEL      219
REMARK 921   NORMALIZED FREE ENERGY PREDICTED BY IDOCK:   -3.18 KCAL/MOL
REMARK 922        TOTAL FREE ENERGY PREDICTED BY IDOCK:   -4.28 KCAL/MOL
REMARK 923 INTER-LIGAND FREE ENERGY PREDICTED BY IDOCK:   -3.61 KCAL/MOL
REMARK 924 INTRA-LIGAND FREE ENERGY PREDICTED BY IDOCK:   -0.66 KCAL/MOL
REMARK 927      BINDING AFFINITY PREDICTED BY RF-SCORE:    0.00 PKD
ROOT
HETATM    1  C   UNL     1      -8.522   3.422  69.547  1.00  0.00    -0.061 C  
HETATM    2  N   UNL     1      -9.142   4.421  70.387  1.00  0.00    -0.098 NA 
HETATM    3  N   UNL     1      -9.821   5.410  69.815  1.00  0.00    -0.182 NA 
HETATM    4  C   UNL     1     -10.021   6.316  70.799  1.00  0.00    -0.187 A  
HETATM    5  C   UNL     1      -9.648   5.754  72.063  1.00  0.00    -0.170 A  
HETATM    6  C   UNL     1      -9.038   5.308  74.378  1.00  0.00    -0.117 A  
HETATM    7  C   UNL     1      -9.036   4.532  71.742  1.00  0.00    -0.127 A  
HETATM    8  C   UNL     1      -8.425   4.109  74.012  1.00  0.00    -0.094 A  
HETATM    9  C   UNL     1      -9.638   6.144  73.419  1.00  0.00    -0.151 A  
HETATM   10  C   UNL     1      -8.411   3.701  72.681  1.00  0.00    -0.086 A  
ENDROOT
BRANCH   4  11
HETATM   11  C   UNL     1     -10.360   7.664  70.340  1.00  0.00    -0.214 C  
HETATM   12  H   UNL     1     -10.129   9.463  69.717  1.00  0.00     0.000 HD 
HETATM   13  O   UNL     1     -11.532   8.071  70.435  1.00  0.00    -0.241 OA 
HETATM   14  N   UNL     1      -9.562   8.620  69.808  1.00  0.00    -0.169 N  
BRANCH  14  15
HETATM   15  C   UNL     1      -8.223   8.949  69.310  1.00  0.00    -0.114 C  
HETATM   16  C   UNL     1      -8.223  10.641  67.261  1.00  0.00    -0.116 C  
HETATM   17  C   UNL     1      -7.928  10.363  68.775  1.00  0.00    -0.122 C  
HETATM   18  C   UNL     1      -9.682  11.056  67.060  1.00  0.00    -0.208 C  
HETATM   19  C   UNL     1     -10.652   9.896  67.218  1.00  0.00    -0.316 C  
HETATM   20  C   UNL     1     -10.106   8.525  66.766  1.00  0.00    -0.369 C  
HETATM   21  C   UNL     1      -8.572   8.315  66.840  1.00  0.00    -0.119 C  
HETATM   22  N   UNL     1      -7.854   9.505  66.395  1.00  0.00    -0.097 NA 
HETATM   23  C   UNL     1      -7.936   7.931  68.193  1.00  0.00    -0.125 C  
HETATM   24  C   UNL     1      -8.032   9.740  64.957  1.00  0.00    -0.131 C  
ENDBRANCH  14  15
ENDBRANCH   4  11
TORSDOF 2
ENDMDL
MODEL      220
REMARK 921   NORMALIZED FREE ENERGY PREDICTED BY IDOCK:   -3.12 KCAL/MOL
REMARK 922        TOTAL FREE ENERGY PREDICTED BY IDOCK:   -4.20 KCAL/MOL
REMARK 923 INTER-LIGAND FREE ENERGY PREDICTED BY IDOCK:   -3.31 KCAL/MOL
REMARK 924 INTRA-LIGAND FREE ENERGY PREDICTED BY IDOCK:   -0.89 KCAL/MOL
REMARK 927      BINDING AFFINITY PREDICTED BY RF-SCORE:    0.00 PKD
ROOT
HETATM    1  C   UNL     1      -6.772   3.699  69.463  1.00  0.00    -0.037 C  
HETATM    2  N   UNL     1      -7.784   4.424  70.198  1.00  0.00    -0.049 NA 
HETATM    3  N   UNL     1      -8.972   4.618  69.635  1.00  0.00    -0.090 NA 
HETATM    4  C   UNL     1      -9.579   5.548  70.406  1.00  0.00    -0.172 A  
HETATM    5  C   UNL     1      -8.824   5.759  71.605  1.00  0.00    -0.138 A  
HETATM    6  C   UNL     1      -7.849   6.551  73.691  1.00  0.00    -0.090 A  
HETATM    7  C   UNL     1      -7.636   5.038  71.407  1.00  0.00    -0.088 A  
HETATM    8  C   UNL     1      -6.678   5.833  73.446  1.00  0.00    -0.079 A  
HETATM    9  C   UNL     1      -8.920   6.535  72.779  1.00  0.00    -0.127 A  
HETATM   10  C   UNL     1      -6.550   5.064  72.292  1.00  0.00    -0.044 A  
ENDROOT
BRANCH   4  11
HETATM   11  C   UNL     1     -10.703   6.241  69.772  1.00  0.00    -0.297 C  
HETATM   12  H   UNL     1     -11.669   7.347  68.538  1.00  0.00     0.000 HD 
HETATM   13  O   UNL     1     -11.804   6.286  70.349  1.00  0.00    -0.329 OA 
HETATM   14  N   UNL     1     -10.753   6.901  68.591  1.00  0.00    -0.223 N  
BRANCH  14  15
HETATM   15  C   UNL     1     -10.039   7.243  67.357  1.00  0.00    -0.204 C  
HETATM   16  C   UNL     1      -7.944   8.835  67.732  1.00  0.00    -0.106 C  
HETATM   17  C   UNL     1      -8.508   7.416  67.377  1.00  0.00    -0.119 C  
HETATM   18  C   UNL     1      -7.810   9.002  69.246  1.00  0.00    -0.095 C  
HETATM   19  C   UNL     1      -9.153   9.169  69.941  1.00  0.00    -0.188 C  
HETATM   20  C   UNL     1     -10.228   9.904  69.113  1.00  0.00    -0.218 C  
HETATM   21  C   UNL     1     -10.120   9.807  67.570  1.00  0.00    -0.197 C  
HETATM   22  N   UNL     1      -8.734   9.924  67.129  1.00  0.00    -0.131 NA 
HETATM   23  C   UNL     1     -10.675   8.553  66.860  1.00  0.00    -0.156 C  
HETATM   24  C   UNL     1      -8.204  11.274  67.359  1.00  0.00    -0.135 C  
ENDBRANCH  14  15
ENDBRANCH   4  11
TORSDOF 2
ENDMDL
MODEL      221
REMARK 921   NORMALIZED FREE ENERGY PREDICTED BY IDOCK:   -3.07 KCAL/MOL
REMARK 922        TOTAL FREE ENERGY PREDICTED BY IDOCK:   -4.16 KCAL/MOL
REMARK 923 INTER-LIGAND FREE ENERGY PREDICTED BY IDOCK:   -3.17 KCAL/MOL
REMARK 924 INTRA-LIGAND FREE ENERGY PREDICTED BY IDOCK:   -0.99 KCAL/MOL
REMARK 927      BINDING AFFINITY PREDICTED BY RF-SCORE:    0.00 PKD
ROOT
HETATM    1  C   UNL     1      -5.497   2.882  65.351  1.00  0.00    -0.009 C  
HETATM    2  N   UNL     1      -6.598   3.004  66.280  1.00  0.00    -0.035 NA 
HETATM    3  N   UNL     1      -7.700   3.637  65.890  1.00  0.00    -0.088 NA 
HETATM    4  C   UNL     1      -8.405   3.847  67.025  1.00  0.00    -0.100 A  
HETATM    5  C   UNL     1      -7.817   3.117  68.108  1.00  0.00    -0.059 A  
HETATM    6  C   UNL     1      -7.130   2.189  70.253  1.00  0.00    -0.033 A  
HETATM    7  C   UNL     1      -6.613   2.617  67.588  1.00  0.00    -0.036 A  
HETATM    8  C   UNL     1      -5.937   1.725  69.698  1.00  0.00    -0.023 A  
HETATM    9  C   UNL     1      -8.069   2.895  69.479  1.00  0.00    -0.062 A  
HETATM   10  C   UNL     1      -5.655   1.937  68.351  1.00  0.00    -0.018 A  
ENDROOT
BRANCH   4  11
HETATM   11  C   UNL     1      -9.434   4.885  66.931  1.00  0.00    -0.148 C  
HETATM   12  H   UNL     1     -10.379   6.516  67.281  1.00  0.00     0.000 HD 
HETATM   13  O   UNL     1     -10.480   4.660  66.297  1.00  0.00    -0.284 OA 
HETATM   14  N   UNL     1      -9.454   6.129  67.466  1.00  0.00    -0.112 N  
BRANCH  14  15
HETATM   15  C   UNL     1      -8.701   7.151  68.200  1.00  0.00    -0.127 C  
HETATM   16  C   UNL     1      -8.812   6.878  70.841  1.00  0.00    -0.149 C  
HETATM   17  C   UNL     1      -7.984   6.782  69.513  1.00  0.00    -0.125 C  
HETATM   18  C   UNL     1      -9.580   5.580  71.097  1.00  0.00    -0.207 C  
HETATM   19  C   UNL     1     -10.767   5.405  70.164  1.00  0.00    -0.295 C  
HETATM   20  C   UNL     1     -11.463   6.716  69.742  1.00  0.00    -0.388 C  
HETATM   21  C   UNL     1     -10.597   8.000  69.719  1.00  0.00    -0.238 C  
HETATM   22  N   UNL     1      -9.701   8.054  70.869  1.00  0.00    -0.164 NA 
HETATM   23  C   UNL     1      -9.707   8.278  68.489  1.00  0.00    -0.165 C  
HETATM   24  C   UNL     1     -10.440   8.242  72.124  1.00  0.00    -0.301 C  
ENDBRANCH  14  15
ENDBRANCH   4  11
TORSDOF 2
ENDMDL
MODEL      222
REMARK 921   NORMALIZED FREE ENERGY PREDICTED BY IDOCK:   -3.06 KCAL/MOL
REMARK 922        TOTAL FREE ENERGY PREDICTED BY IDOCK:   -4.14 KCAL/MOL
REMARK 923 INTER-LIGAND FREE ENERGY PREDICTED BY IDOCK:   -3.13 KCAL/MOL
REMARK 924 INTRA-LIGAND FREE ENERGY PREDICTED BY IDOCK:   -1.02 KCAL/MOL
REMARK 927      BINDING AFFINITY PREDICTED BY RF-SCORE:    0.00 PKD
ROOT
HETATM    1  C   UNL     1     -10.731   4.090  73.688  1.00  0.00    -0.233 C  
HETATM    2  N   UNL     1      -9.998   5.033  72.874  1.00  0.00    -0.156 NA 
HETATM    3  N   UNL     1     -10.650   6.056  72.332  1.00  0.00    -0.208 NA 
HETATM    4  C   UNL     1      -9.797   6.573  71.418  1.00  0.00    -0.176 A  
HETATM    5  C   UNL     1      -8.501   5.983  71.571  1.00  0.00    -0.128 A  
HETATM    6  C   UNL     1      -6.206   5.198  71.352  1.00  0.00    -0.030 A  
HETATM    7  C   UNL     1      -8.688   4.950  72.503  1.00  0.00    -0.119 A  
HETATM    8  C   UNL     1      -6.441   4.174  72.269  1.00  0.00    -0.022 A  
HETATM    9  C   UNL     1      -7.223   6.098  70.984  1.00  0.00    -0.075 A  
HETATM   10  C   UNL     1      -7.694   4.030  72.860  1.00  0.00    -0.076 A  
ENDROOT
BRANCH   4  11
HETATM   11  C   UNL     1     -10.420   7.422  70.400  1.00  0.00    -0.221 C  
HETATM   12  H   UNL     1     -10.981   8.043  68.675  1.00  0.00     0.000 HD 
HETATM   13  O   UNL     1     -10.831   8.554  70.709  1.00  0.00    -0.220 OA 
HETATM   14  N   UNL     1     -10.625   7.179  69.084  1.00  0.00    -0.214 N  
BRANCH  14  15
HETATM   15  C   UNL     1     -10.549   6.193  68.001  1.00  0.00    -0.268 C  
HETATM   16  C   UNL     1      -8.190   6.115  66.781  1.00  0.00    -0.109 C  
HETATM   17  C   UNL     1      -9.231   5.440  67.739  1.00  0.00    -0.115 C  
HETATM   18  C   UNL     1      -7.286   7.077  67.553  1.00  0.00    -0.092 C  
HETATM   19  C   UNL     1      -8.001   8.355  67.964  1.00  0.00    -0.119 C  
HETATM   20  C   UNL     1      -9.085   8.840  66.978  1.00  0.00    -0.160 C  
HETATM   21  C   UNL     1      -9.785   7.763  66.111  1.00  0.00     0.014 C  
HETATM   22  N   UNL     1      -8.829   6.773  65.625  1.00  0.00    -0.082 NA 
HETATM   23  C   UNL     1     -10.946   6.950  66.723  1.00  0.00    -0.195 C  
HETATM   24  C   UNL     1      -7.897   7.352  64.650  1.00  0.00    -0.123 C  
ENDBRANCH  14  15
ENDBRANCH   4  11
TORSDOF 2
ENDMDL
MODEL      223
REMARK 921   NORMALIZED FREE ENERGY PREDICTED BY IDOCK:   -3.05 KCAL/MOL
REMARK 922        TOTAL FREE ENERGY PREDICTED BY IDOCK:   -4.13 KCAL/MOL
REMARK 923 INTER-LIGAND FREE ENERGY PREDICTED BY IDOCK:   -3.33 KCAL/MOL
REMARK 924 INTRA-LIGAND FREE ENERGY PREDICTED BY IDOCK:   -0.81 KCAL/MOL
REMARK 927      BINDING AFFINITY PREDICTED BY RF-SCORE:    0.00 PKD
ROOT
HETATM    1  C   UNL     1      -7.938   7.689  62.780  1.00  0.00    -0.121 C  
HETATM    2  N   UNL     1      -8.222   7.641  64.196  1.00  0.00    -0.052 NA 
HETATM    3  N   UNL     1      -8.303   6.458  64.796  1.00  0.00    -0.085 NA 
HETATM    4  C   UNL     1      -8.855   6.712  66.004  1.00  0.00    -0.139 A  
HETATM    5  C   UNL     1      -8.901   8.125  66.233  1.00  0.00    -0.193 A  
HETATM    6  C   UNL     1      -9.312  10.394  67.018  1.00  0.00    -0.176 A  
HETATM    7  C   UNL     1      -8.519   8.696  65.008  1.00  0.00    -0.173 A  
HETATM    8  C   UNL     1      -8.942  10.917  65.778  1.00  0.00    -0.208 A  
HETATM    9  C   UNL     1      -9.310   9.007  67.255  1.00  0.00    -0.172 A  
HETATM   10  C   UNL     1      -8.542  10.072  64.746  1.00  0.00    -0.188 A  
ENDROOT
BRANCH   4  11
HETATM   11  C   UNL     1      -9.438   5.549  66.676  1.00  0.00    -0.146 C  
HETATM   12  H   UNL     1      -9.560   3.979  67.770  1.00  0.00     0.000 HD 
HETATM   13  O   UNL     1     -10.582   5.170  66.370  1.00  0.00    -0.293 OA 
HETATM   14  N   UNL     1      -8.905   4.747  67.628  1.00  0.00    -0.104 N  
BRANCH  14  15
HETATM   15  C   UNL     1      -7.778   4.522  68.540  1.00  0.00    -0.075 C  
HETATM   16  C   UNL     1      -8.501   4.136  71.067  1.00  0.00    -0.083 C  
HETATM   17  C   UNL     1      -7.933   3.554  69.728  1.00  0.00    -0.056 C  
HETATM   18  C   UNL     1     -10.031   4.105  71.067  1.00  0.00    -0.206 C  
HETATM   19  C   UNL     1     -10.640   5.153  70.148  1.00  0.00    -0.225 C  
HETATM   20  C   UNL     1      -9.832   6.462  70.028  1.00  0.00    -0.193 C  
HETATM   21  C   UNL     1      -8.302   6.372  70.251  1.00  0.00    -0.126 C  
HETATM   22  N   UNL     1      -7.981   5.484  71.364  1.00  0.00    -0.110 NA 
HETATM   23  C   UNL     1      -7.403   5.911  69.083  1.00  0.00    -0.083 C  
HETATM   24  C   UNL     1      -8.415   6.046  72.649  1.00  0.00    -0.118 C  
ENDBRANCH  14  15
ENDBRANCH   4  11
TORSDOF 2
ENDMDL
MODEL      224
REMARK 921   NORMALIZED FREE ENERGY PREDICTED BY IDOCK:   -3.05 KCAL/MOL
REMARK 922        TOTAL FREE ENERGY PREDICTED BY IDOCK:   -4.13 KCAL/MOL
REMARK 923 INTER-LIGAND FREE ENERGY PREDICTED BY IDOCK:   -3.36 KCAL/MOL
REMARK 924 INTRA-LIGAND FREE ENERGY PREDICTED BY IDOCK:   -0.77 KCAL/MOL
REMARK 927      BINDING AFFINITY PREDICTED BY RF-SCORE:    0.00 PKD
ROOT
HETATM    1  C   UNL     1     -13.670  10.255  72.081  1.00  0.00    -0.025 C  
HETATM    2  N   UNL     1     -12.840   9.379  71.286  1.00  0.00    -0.324 NA 
HETATM    3  N   UNL     1     -12.798   8.086  71.586  1.00  0.00    -0.325 NA 
HETATM    4  C   UNL     1     -11.748   7.596  70.889  1.00  0.00    -0.271 A  
HETATM    5  C   UNL     1     -11.277   8.579  69.959  1.00  0.00    -0.086 A  
HETATM    6  C   UNL     1     -10.051   9.928  68.344  1.00  0.00    -0.189 A  
HETATM    7  C   UNL     1     -11.989   9.744  70.283  1.00  0.00    -0.090 A  
HETATM    8  C   UNL     1     -10.771  11.066  68.711  1.00  0.00    -0.240 A  
HETATM    9  C   UNL     1     -10.282   8.687  68.964  1.00  0.00    -0.218 A  
HETATM   10  C   UNL     1     -11.753  10.993  69.694  1.00  0.00    -0.401 A  
ENDROOT
BRANCH   4  11
HETATM   11  C   UNL     1     -11.231   6.312  71.367  1.00  0.00    -0.293 C  
HETATM   12  H   UNL     1     -10.180   5.057  72.366  1.00  0.00     0.000 HD 
HETATM   13  O   UNL     1     -11.532   5.264  70.769  1.00  0.00     0.374 OA 
HETATM   14  N   UNL     1     -10.409   6.049  72.411  1.00  0.00    -0.190 N  
BRANCH  14  15
HETATM   15  C   UNL     1      -9.712   6.597  73.579  1.00  0.00    -0.191 C  
HETATM   16  C   UNL     1      -7.178   7.247  73.112  1.00  0.00    -0.072 C  
HETATM   17  C   UNL     1      -8.652   7.699  73.395  1.00  0.00    -0.238 C  
HETATM   18  C   UNL     1      -6.956   7.023  71.615  1.00  0.00    -0.069 C  
HETATM   19  C   UNL     1      -7.629   5.759  71.103  1.00  0.00    -0.099 C  
HETATM   20  C   UNL     1      -7.694   4.599  72.119  1.00  0.00    -0.091 C  
HETATM   21  C   UNL     1      -7.714   4.975  73.622  1.00  0.00    -0.096 C  
HETATM   22  N   UNL     1      -6.787   6.067  73.905  1.00  0.00    -0.080 NA 
HETATM   23  C   UNL     1      -9.052   5.391  74.270  1.00  0.00    -0.118 C  
HETATM   24  C   UNL     1      -5.389   5.647  73.744  1.00  0.00    -0.024 C  
ENDBRANCH  14  15
ENDBRANCH   4  11
TORSDOF 2
ENDMDL
MODEL      225
REMARK 921   NORMALIZED FREE ENERGY PREDICTED BY IDOCK:   -3.05 KCAL/MOL
REMARK 922        TOTAL FREE ENERGY PREDICTED BY IDOCK:   -4.12 KCAL/MOL
REMARK 923 INTER-LIGAND FREE ENERGY PREDICTED BY IDOCK:   -3.33 KCAL/MOL
REMARK 924 INTRA-LIGAND FREE ENERGY PREDICTED BY IDOCK:   -0.79 KCAL/MOL
REMARK 927      BINDING AFFINITY PREDICTED BY RF-SCORE:    0.00 PKD
ROOT
HETATM    1  C   UNL     1      -9.481   8.529  66.236  1.00  0.00    -0.231 C  
HETATM    2  N   UNL     1      -9.695   7.180  66.708  1.00  0.00    -0.187 NA 
HETATM    3  N   UNL     1     -10.385   6.992  67.828  1.00  0.00    -0.185 NA 
HETATM    4  C   UNL     1     -10.168   5.699  68.162  1.00  0.00    -0.186 A  
HETATM    5  C   UNL     1      -9.509   5.020  67.087  1.00  0.00    -0.146 A  
HETATM    6  C   UNL     1      -8.299   3.489  65.630  1.00  0.00    -0.106 A  
HETATM    7  C   UNL     1      -9.178   6.035  66.176  1.00  0.00    -0.138 A  
HETATM    8  C   UNL     1      -7.977   4.532  64.760  1.00  0.00    -0.095 A  
HETATM    9  C   UNL     1      -9.048   3.718  66.798  1.00  0.00    -0.171 A  
HETATM   10  C   UNL     1      -8.410   5.829  65.022  1.00  0.00    -0.138 A  
ENDROOT
BRANCH   4  11
HETATM   11  C   UNL     1     -10.459   5.364  69.558  1.00  0.00    -0.273 C  
HETATM   12  H   UNL     1     -10.561   4.342  71.177  1.00  0.00     0.000 HD 
HETATM   13  O   UNL     1     -11.169   6.124  70.240  1.00  0.00    -0.343 OA 
HETATM   14  N   UNL     1     -10.076   4.285  70.282  1.00  0.00    -0.131 N  
BRANCH  14  15
HETATM   15  C   UNL     1      -9.255   3.071  70.316  1.00  0.00    -0.143 C  
HETATM   16  C   UNL     1      -8.887   2.090  72.758  1.00  0.00    -0.063 C  
HETATM   17  C   UNL     1      -9.559   1.967  71.347  1.00  0.00    -0.213 C  
HETATM   18  C   UNL     1      -9.737   2.955  73.691  1.00  0.00    -0.140 C  
HETATM   19  C   UNL     1      -9.678   4.433  73.339  1.00  0.00    -0.150 C  
HETATM   20  C   UNL     1      -8.331   4.910  72.758  1.00  0.00    -0.112 C  
HETATM   21  C   UNL     1      -7.477   3.862  72.000  1.00  0.00    -0.061 C  
HETATM   22  N   UNL     1      -7.496   2.572  72.682  1.00  0.00    -0.046 NA 
HETATM   23  C   UNL     1      -7.810   3.554  70.524  1.00  0.00    -0.046 C  
HETATM   24  C   UNL     1      -6.789   2.628  73.967  1.00  0.00    -0.031 C  
ENDBRANCH  14  15
ENDBRANCH   4  11
TORSDOF 2
ENDMDL
MODEL      226
REMARK 921   NORMALIZED FREE ENERGY PREDICTED BY IDOCK:   -3.04 KCAL/MOL
REMARK 922        TOTAL FREE ENERGY PREDICTED BY IDOCK:   -4.12 KCAL/MOL
REMARK 923 INTER-LIGAND FREE ENERGY PREDICTED BY IDOCK:   -3.42 KCAL/MOL
REMARK 924 INTRA-LIGAND FREE ENERGY PREDICTED BY IDOCK:   -0.69 KCAL/MOL
REMARK 927      BINDING AFFINITY PREDICTED BY RF-SCORE:    0.00 PKD
ROOT
HETATM    1  C   UNL     1      -8.261   2.691  67.668  1.00  0.00    -0.076 C  
HETATM    2  N   UNL     1      -8.058   3.750  66.706  1.00  0.00    -0.095 NA 
HETATM    3  N   UNL     1      -7.433   4.857  67.091  1.00  0.00    -0.085 NA 
HETATM    4  C   UNL     1      -7.651   5.749  66.098  1.00  0.00    -0.090 A  
HETATM    5  C   UNL     1      -8.237   5.090  64.969  1.00  0.00    -0.133 A  
HETATM    6  C   UNL     1      -9.340   4.468  62.888  1.00  0.00    -0.083 A  
HETATM    7  C   UNL     1      -8.528   3.794  65.426  1.00  0.00    -0.109 A  
HETATM    8  C   UNL     1      -9.624   3.197  63.389  1.00  0.00    -0.098 A  
HETATM    9  C   UNL     1      -8.663   5.425  63.667  1.00  0.00     0.071 A  
HETATM   10  C   UNL     1      -9.224   2.839  64.674  1.00  0.00    -0.135 A  
ENDROOT
BRANCH   4  11
HETATM   11  C   UNL     1      -7.439   7.150  66.466  1.00  0.00    -0.088 C  
HETATM   12  H   UNL     1      -7.754   9.035  66.624  1.00  0.00     0.000 HD 
HETATM   13  O   UNL     1      -6.335   7.510  66.912  1.00  0.00    -0.046 OA 
HETATM   14  N   UNL     1      -8.289   8.201  66.384  1.00  0.00    -0.111 N  
BRANCH  14  15
HETATM   15  C   UNL     1      -9.658   8.640  66.094  1.00  0.00    -0.235 C  
HETATM   16  C   UNL     1     -10.207  11.092  66.958  1.00  0.00    -0.211 C  
HETATM   17  C   UNL     1      -9.937  10.118  65.760  1.00  0.00    -0.339 C  
HETATM   18  C   UNL     1      -8.895  11.644  67.515  1.00  0.00    -0.158 C  
HETATM   19  C   UNL     1      -8.108  10.610  68.305  1.00  0.00    -0.118 C  
HETATM   20  C   UNL     1      -8.970   9.580  69.067  1.00  0.00    -0.144 C  
HETATM   21  C   UNL     1     -10.371   9.263  68.487  1.00  0.00    -0.209 C  
HETATM   22  N   UNL     1     -11.033  10.475  68.013  1.00  0.00    -0.269 NA 
HETATM   23  C   UNL     1     -10.488   8.250  67.328  1.00  0.00    -0.373 C  
HETATM   24  C   UNL     1     -11.388  11.368  69.122  1.00  0.00    -0.288 C  
ENDBRANCH  14  15
ENDBRANCH   4  11
TORSDOF 2
ENDMDL
MODEL      227
REMARK 921   NORMALIZED FREE ENERGY PREDICTED BY IDOCK:   -2.99 KCAL/MOL
REMARK 922        TOTAL FREE ENERGY PREDICTED BY IDOCK:   -4.07 KCAL/MOL
REMARK 923 INTER-LIGAND FREE ENERGY PREDICTED BY IDOCK:   -3.21 KCAL/MOL
REMARK 924 INTRA-LIGAND FREE ENERGY PREDICTED BY IDOCK:   -0.86 KCAL/MOL
REMARK 927      BINDING AFFINITY PREDICTED BY RF-SCORE:    0.00 PKD
ROOT
HETATM    1  C   UNL     1      -5.855   3.137  67.594  1.00  0.00    -0.023 C  
HETATM    2  N   UNL     1      -6.642   4.212  68.155  1.00  0.00    -0.041 NA 
HETATM    3  N   UNL     1      -6.993   5.227  67.372  1.00  0.00    -0.064 NA 
HETATM    4  C   UNL     1      -7.444   6.183  68.217  1.00  0.00    -0.087 A  
HETATM    5  C   UNL     1      -7.583   5.643  69.536  1.00  0.00    -0.072 A  
HETATM    6  C   UNL     1      -7.856   5.240  71.923  1.00  0.00    -0.111 A  
HETATM    7  C   UNL     1      -7.005   4.366  69.461  1.00  0.00    -0.049 A  
HETATM    8  C   UNL     1      -7.259   3.985  71.805  1.00  0.00    -0.057 A  
HETATM    9  C   UNL     1      -8.012   6.082  70.807  1.00  0.00    -0.114 A  
HETATM   10  C   UNL     1      -6.818   3.526  70.566  1.00  0.00    -0.033 A  
ENDROOT
BRANCH   4  11
HETATM   11  C   UNL     1      -7.487   7.535  67.656  1.00  0.00    -0.104 C  
HETATM   12  H   UNL     1      -8.190   9.121  66.839  1.00  0.00     0.000 HD 
HETATM   13  O   UNL     1      -6.426   8.147  67.441  1.00  0.00    -0.055 OA 
HETATM   14  N   UNL     1      -8.555   8.282  67.288  1.00  0.00    -0.123 N  
BRANCH  14  15
HETATM   15  C   UNL     1     -10.018   8.388  67.267  1.00  0.00    -0.227 C  
HETATM   16  C   UNL     1     -10.941  10.714  68.161  1.00  0.00    -0.269 C  
HETATM   17  C   UNL     1     -10.686   9.741  66.959  1.00  0.00    -0.236 C  
HETATM   18  C   UNL     1      -9.708  11.579  68.430  1.00  0.00    -0.202 C  
HETATM   19  C   UNL     1      -8.571  10.801  69.072  1.00  0.00    -0.143 C  
HETATM   20  C   UNL     1      -9.013   9.664  70.017  1.00  0.00    -0.266 C  
HETATM   21  C   UNL     1     -10.388   9.006  69.738  1.00  0.00    -0.211 C  
HETATM   22  N   UNL     1     -11.388  10.006  69.376  1.00  0.00    -0.185 NA 
HETATM   23  C   UNL     1     -10.487   7.913  68.653  1.00  0.00    -0.196 C  
HETATM   24  C   UNL     1     -11.721  10.876  70.511  1.00  0.00    -0.342 C  
ENDBRANCH  14  15
ENDBRANCH   4  11
TORSDOF 2
ENDMDL
MODEL      228
REMARK 921   NORMALIZED FREE ENERGY PREDICTED BY IDOCK:   -2.98 KCAL/MOL
REMARK 922        TOTAL FREE ENERGY PREDICTED BY IDOCK:   -4.05 KCAL/MOL
REMARK 923 INTER-LIGAND FREE ENERGY PREDICTED BY IDOCK:   -3.30 KCAL/MOL
REMARK 924 INTRA-LIGAND FREE ENERGY PREDICTED BY IDOCK:   -0.76 KCAL/MOL
REMARK 927      BINDING AFFINITY PREDICTED BY RF-SCORE:    0.00 PKD
ROOT
HETATM    1  C   UNL     1      -5.513   2.482  64.638  1.00  0.00    -0.009 C  
HETATM    2  N   UNL     1      -6.527   3.479  64.901  1.00  0.00    -0.031 NA 
HETATM    3  N   UNL     1      -6.221   4.520  65.667  1.00  0.00    -0.030 NA 
HETATM    4  C   UNL     1      -7.407   5.097  65.967  1.00  0.00    -0.081 A  
HETATM    5  C   UNL     1      -8.448   4.518  65.170  1.00  0.00    -0.126 A  
HETATM    6  C   UNL     1     -10.540   3.779  64.166  1.00  0.00    -0.263 A  
HETATM    7  C   UNL     1      -7.837   3.434  64.521  1.00  0.00    -0.082 A  
HETATM    8  C   UNL     1      -9.895   2.704  63.554  1.00  0.00    -0.124 A  
HETATM    9  C   UNL     1      -9.837   4.682  64.983  1.00  0.00    -0.067 A  
HETATM   10  C   UNL     1      -8.527   2.510  63.725  1.00  0.00    -0.086 A  
ENDROOT
BRANCH   4  11
HETATM   11  C   UNL     1      -7.386   5.991  67.126  1.00  0.00    -0.076 C  
HETATM   12  H   UNL     1      -7.975   7.296  68.401  1.00  0.00     0.000 HD 
HETATM   13  O   UNL     1      -6.319   6.184  67.736  1.00  0.00    -0.037 OA 
HETATM   14  N   UNL     1      -8.392   6.708  67.681  1.00  0.00    -0.122 N  
BRANCH  14  15
HETATM   15  C   UNL     1      -9.831   6.991  67.676  1.00  0.00    -0.147 C  
HETATM   16  C   UNL     1     -10.633   8.514  69.701  1.00  0.00    -0.220 C  
HETATM   17  C   UNL     1     -10.347   8.357  68.168  1.00  0.00    -0.255 C  
HETATM   18  C   UNL     1      -9.363   8.918  70.452  1.00  0.00    -0.223 C  
HETATM   19  C   UNL     1      -8.365   7.777  70.576  1.00  0.00    -0.125 C  
HETATM   20  C   UNL     1      -8.994   6.372  70.696  1.00  0.00    -0.144 C  
HETATM   21  C   UNL     1     -10.386   6.164  70.049  1.00  0.00    -0.209 C  
HETATM   22  N   UNL     1     -11.256   7.312  70.286  1.00  0.00    -0.273 NA 
HETATM   23  C   UNL     1     -10.472   5.886  68.533  1.00  0.00    -0.297 C  
HETATM   24  C   UNL     1     -11.623   7.432  71.702  1.00  0.00    -0.270 C  
ENDBRANCH  14  15
ENDBRANCH   4  11
TORSDOF 2
ENDMDL
MODEL      229
REMARK 921   NORMALIZED FREE ENERGY PREDICTED BY IDOCK:   -2.98 KCAL/MOL
REMARK 922        TOTAL FREE ENERGY PREDICTED BY IDOCK:   -4.05 KCAL/MOL
REMARK 923 INTER-LIGAND FREE ENERGY PREDICTED BY IDOCK:   -3.21 KCAL/MOL
REMARK 924 INTRA-LIGAND FREE ENERGY PREDICTED BY IDOCK:   -0.84 KCAL/MOL
REMARK 927      BINDING AFFINITY PREDICTED BY RF-SCORE:    0.00 PKD
ROOT
HETATM    1  C   UNL     1      -9.832   9.982  67.844  1.00  0.00    -0.145 C  
HETATM    2  N   UNL     1      -9.273   8.913  68.640  1.00  0.00    -0.137 NA 
HETATM    3  N   UNL     1      -8.064   8.452  68.337  1.00  0.00    -0.122 NA 
HETATM    4  C   UNL     1      -7.941   7.300  69.036  1.00  0.00    -0.119 A  
HETATM    5  C   UNL     1      -9.022   7.176  69.968  1.00  0.00    -0.142 A  
HETATM    6  C   UNL     1     -10.694   6.457  71.586  1.00  0.00    -0.274 A  
HETATM    7  C   UNL     1      -9.893   8.228  69.644  1.00  0.00    -0.184 A  
HETATM    8  C   UNL     1     -11.537   7.507  71.220  1.00  0.00    -0.305 A  
HETATM    9  C   UNL     1      -9.447   6.271  70.963  1.00  0.00    -0.187 A  
HETATM   10  C   UNL     1     -11.150   8.412  70.235  1.00  0.00    -0.216 A  
ENDROOT
BRANCH   4  11
HETATM   11  C   UNL     1      -6.897   6.393  68.556  1.00  0.00    -0.071 C  
HETATM   12  H   UNL     1      -5.924   5.234  67.378  1.00  0.00     0.000 HD 
HETATM   13  O   UNL     1      -6.072   5.923  69.359  1.00  0.00    -0.026 OA 
HETATM   14  N   UNL     1      -6.666   5.929  67.305  1.00  0.00    -0.059 N  
BRANCH  14  15
HETATM   15  C   UNL     1      -7.038   6.010  65.889  1.00  0.00    -0.074 C  
HETATM   16  C   UNL     1      -9.401   4.929  65.334  1.00  0.00    -0.140 C  
HETATM   17  C   UNL     1      -8.513   6.211  65.492  1.00  0.00    -0.149 C  
HETATM   18  C   UNL     1      -9.998   4.513  66.680  1.00  0.00    -0.253 C  
HETATM   19  C   UNL     1      -8.970   3.899  67.617  1.00  0.00    -0.156 C  
HETATM   20  C   UNL     1      -7.850   3.099  66.919  1.00  0.00    -0.079 C  
HETATM   21  C   UNL     1      -7.484   3.510  65.471  1.00  0.00    -0.077 C  
HETATM   22  N   UNL     1      -8.678   3.816  64.690  1.00  0.00    -0.112 NA 
HETATM   23  C   UNL     1      -6.531   4.705  65.252  1.00  0.00    -0.036 C  
HETATM   24  C   UNL     1      -9.485   2.615  64.441  1.00  0.00    -0.145 C  
ENDBRANCH  14  15
ENDBRANCH   4  11
TORSDOF 2
ENDMDL
MODEL      230
REMARK 921   NORMALIZED FREE ENERGY PREDICTED BY IDOCK:   -2.98 KCAL/MOL
REMARK 922        TOTAL FREE ENERGY PREDICTED BY IDOCK:   -4.05 KCAL/MOL
REMARK 923 INTER-LIGAND FREE ENERGY PREDICTED BY IDOCK:   -3.24 KCAL/MOL
REMARK 924 INTRA-LIGAND FREE ENERGY PREDICTED BY IDOCK:   -0.80 KCAL/MOL
REMARK 927      BINDING AFFINITY PREDICTED BY RF-SCORE:    0.00 PKD
ROOT
HETATM    1  C   UNL     1      -9.051   8.992  65.111  1.00  0.00    -0.143 C  
HETATM    2  N   UNL     1      -8.571   8.258  66.260  1.00  0.00    -0.130 NA 
HETATM    3  N   UNL     1      -8.987   8.616  67.470  1.00  0.00    -0.134 NA 
HETATM    4  C   UNL     1      -8.168   7.968  68.330  1.00  0.00    -0.123 A  
HETATM    5  C   UNL     1      -7.374   7.009  67.621  1.00  0.00    -0.096 A  
HETATM    6  C   UNL     1      -5.738   5.370  66.866  1.00  0.00    -0.017 A  
HETATM    7  C   UNL     1      -7.637   7.263  66.265  1.00  0.00    -0.092 A  
HETATM    8  C   UNL     1      -6.018   5.668  65.532  1.00  0.00    -0.025 A  
HETATM    9  C   UNL     1      -6.394   6.038  67.916  1.00  0.00    -0.037 A  
HETATM   10  C   UNL     1      -6.974   6.627  65.208  1.00  0.00    -0.052 A  
ENDROOT
BRANCH   4  11
HETATM   11  C   UNL     1      -8.136   8.516  69.687  1.00  0.00    -0.113 C  
HETATM   12  H   UNL     1      -8.160   8.574  71.604  1.00  0.00     0.000 HD 
HETATM   13  O   UNL     1      -8.228   9.745  69.858  1.00  0.00    -0.152 OA 
HETATM   14  N   UNL     1      -8.035   7.873  70.875  1.00  0.00    -0.091 N  
BRANCH  14  15
HETATM   15  C   UNL     1      -7.821   6.588  71.548  1.00  0.00    -0.100 C  
HETATM   16  C   UNL     1      -9.876   4.915  71.351  1.00  0.00    -0.186 C  
HETATM   17  C   UNL     1      -8.411   5.298  70.947  1.00  0.00    -0.116 C  
HETATM   18  C   UNL     1     -10.889   5.601  70.431  1.00  0.00    -0.326 C  
HETATM   19  C   UNL     1     -11.016   7.091  70.704  1.00  0.00    -0.292 C  
HETATM   20  C   UNL     1     -10.815   7.503  72.177  1.00  0.00    -0.282 C  
HETATM   21  C   UNL     1      -9.912   6.595  73.049  1.00  0.00    -0.174 C  
HETATM   22  N   UNL     1     -10.160   5.183  72.773  1.00  0.00    -0.165 NA 
HETATM   23  C   UNL     1      -8.380   6.768  72.970  1.00  0.00    -0.124 C  
HETATM   24  C   UNL     1     -11.492   4.767  73.228  1.00  0.00    -0.273 C  
ENDBRANCH  14  15
ENDBRANCH   4  11
TORSDOF 2
ENDMDL
MODEL      231
REMARK 921   NORMALIZED FREE ENERGY PREDICTED BY IDOCK:   -2.95 KCAL/MOL
REMARK 922        TOTAL FREE ENERGY PREDICTED BY IDOCK:   -4.02 KCAL/MOL
REMARK 923 INTER-LIGAND FREE ENERGY PREDICTED BY IDOCK:   -3.35 KCAL/MOL
REMARK 924 INTRA-LIGAND FREE ENERGY PREDICTED BY IDOCK:   -0.67 KCAL/MOL
REMARK 927      BINDING AFFINITY PREDICTED BY RF-SCORE:    0.00 PKD
ROOT
HETATM    1  C   UNL     1      -8.457   9.108  62.539  1.00  0.00    -0.209 C  
HETATM    2  N   UNL     1      -8.375   8.364  63.775  1.00  0.00    -0.108 NA 
HETATM    3  N   UNL     1      -9.048   8.801  64.834  1.00  0.00    -0.024 NA 
HETATM    4  C   UNL     1      -8.554   8.098  65.879  1.00  0.00    -0.151 A  
HETATM    5  C   UNL     1      -7.715   7.039  65.404  1.00  0.00    -0.111 A  
HETATM    6  C   UNL     1      -6.129   5.215  65.105  1.00  0.00    -0.030 A  
HETATM    7  C   UNL     1      -7.588   7.278  64.026  1.00  0.00    -0.110 A  
HETATM    8  C   UNL     1      -6.020   5.499  63.744  1.00  0.00    -0.021 A  
HETATM    9  C   UNL     1      -6.957   5.980  65.947  1.00  0.00    -0.062 A  
HETATM   10  C   UNL     1      -6.748   6.543  63.179  1.00  0.00    -0.042 A  
ENDROOT
BRANCH   4  11
HETATM   11  C   UNL     1      -8.815   8.681  67.197  1.00  0.00    -0.129 C  
HETATM   12  H   UNL     1      -9.387   8.816  69.022  1.00  0.00     0.000 HD 
HETATM   13  O   UNL     1      -8.712   9.910  67.358  1.00  0.00    -0.128 OA 
HETATM   14  N   UNL     1      -9.193   8.076  68.348  1.00  0.00    -0.135 N  
BRANCH  14  15
HETATM   15  C   UNL     1      -9.440   6.801  69.028  1.00  0.00    -0.133 C  
HETATM   16  C   UNL     1     -10.668   7.052  71.371  1.00  0.00    -0.219 C  
HETATM   17  C   UNL     1     -10.718   6.613  69.868  1.00  0.00    -0.297 C  
HETATM   18  C   UNL     1     -11.001   8.539  71.514  1.00  0.00    -0.337 C  
HETATM   19  C   UNL     1      -9.877   9.442  71.029  1.00  0.00    -0.317 C  
HETATM   20  C   UNL     1      -8.455   8.882  71.241  1.00  0.00    -0.239 C  
HETATM   21  C   UNL     1      -8.299   7.341  71.271  1.00  0.00    -0.111 C  
HETATM   22  N   UNL     1      -9.386   6.715  72.017  1.00  0.00    -0.144 NA 
HETATM   23  C   UNL     1      -8.219   6.572  69.935  1.00  0.00    -0.126 C  
HETATM   24  C   UNL     1      -9.312   7.029  73.449  1.00  0.00    -0.167 C  
ENDBRANCH  14  15
ENDBRANCH   4  11
TORSDOF 2
ENDMDL
MODEL      232
REMARK 921   NORMALIZED FREE ENERGY PREDICTED BY IDOCK:   -2.89 KCAL/MOL
REMARK 922        TOTAL FREE ENERGY PREDICTED BY IDOCK:   -3.95 KCAL/MOL
REMARK 923 INTER-LIGAND FREE ENERGY PREDICTED BY IDOCK:   -3.96 KCAL/MOL
REMARK 924 INTRA-LIGAND FREE ENERGY PREDICTED BY IDOCK:    0.01 KCAL/MOL
REMARK 927      BINDING AFFINITY PREDICTED BY RF-SCORE:    0.00 PKD
ROOT
HETATM    1  C   UNL     1      -6.364   9.047  65.448  1.00  0.00    -0.064 C  
HETATM    2  N   UNL     1      -7.040   9.755  66.511  1.00  0.00    -0.088 NA 
HETATM    3  N   UNL     1      -6.544   9.693  67.742  1.00  0.00    -0.065 NA 
HETATM    4  C   UNL     1      -7.520  10.184  68.540  1.00  0.00    -0.086 A  
HETATM    5  C   UNL     1      -8.553  10.774  67.742  1.00  0.00    -0.127 A  
HETATM    6  C   UNL     1     -10.590  11.760  66.842  1.00  0.00    -0.270 A  
HETATM    7  C   UNL     1      -8.222  10.431  66.422  1.00  0.00    -0.141 A  
HETATM    8  C   UNL     1     -10.230  11.384  65.547  1.00  0.00    -0.312 A  
HETATM    9  C   UNL     1      -9.774  11.452  67.946  1.00  0.00    -0.186 A  
HETATM   10  C   UNL     1      -9.036  10.706  65.315  1.00  0.00    -0.209 A  
ENDROOT
BRANCH   4  11
HETATM   11  C   UNL     1      -7.398   9.832  69.956  1.00  0.00    -0.144 C  
HETATM   12  H   UNL     1      -7.628   8.862  71.594  1.00  0.00     0.000 HD 
HETATM   13  O   UNL     1      -6.908  10.650  70.754  1.00  0.00    -0.267 OA 
HETATM   14  N   UNL     1      -7.766   8.698  70.597  1.00  0.00    -0.076 N  
BRANCH  14  15
HETATM   15  C   UNL     1      -8.282   7.332  70.456  1.00  0.00    -0.124 C  
HETATM   16  C   UNL     1     -10.731   7.208  69.433  1.00  0.00    -0.231 C  
HETATM   17  C   UNL     1      -9.191   6.974  69.265  1.00  0.00    -0.139 C  
HETATM   18  C   UNL     1     -11.105   8.645  69.063  1.00  0.00     0.191 C  
HETATM   19  C   UNL     1     -10.659   9.657  70.107  1.00  0.00    -0.320 C  
HETATM   20  C   UNL     1     -10.671   9.140  71.561  1.00  0.00    -0.437 C  
HETATM   21  C   UNL     1     -10.475   7.618  71.773  1.00  0.00    -0.205 C  
HETATM   22  N   UNL     1     -11.215   6.847  70.778  1.00  0.00    -0.277 NA 
HETATM   23  C   UNL     1      -9.043   7.041  71.760  1.00  0.00    -0.140 C  
HETATM   24  C   UNL     1     -12.666   6.968  70.968  1.00  0.00    -0.246 C  
ENDBRANCH  14  15
ENDBRANCH   4  11
TORSDOF 2
ENDMDL
MODEL      233
REMARK 921   NORMALIZED FREE ENERGY PREDICTED BY IDOCK:   -2.87 KCAL/MOL
REMARK 922        TOTAL FREE ENERGY PREDICTED BY IDOCK:   -3.93 KCAL/MOL
REMARK 923 INTER-LIGAND FREE ENERGY PREDICTED BY IDOCK:   -3.40 KCAL/MOL
REMARK 924 INTRA-LIGAND FREE ENERGY PREDICTED BY IDOCK:   -0.53 KCAL/MOL
REMARK 927      BINDING AFFINITY PREDICTED BY RF-SCORE:    0.00 PKD
ROOT
HETATM    1  C   UNL     1     -10.579   4.040  73.649  1.00  0.00    -0.210 C  
HETATM    2  N   UNL     1      -9.488   4.639  72.914  1.00  0.00    -0.130 NA 
HETATM    3  N   UNL     1      -9.749   5.637  72.076  1.00  0.00    -0.154 NA 
HETATM    4  C   UNL     1      -8.624   5.782  71.339  1.00  0.00    -0.129 A  
HETATM    5  C   UNL     1      -7.566   4.997  71.902  1.00  0.00    -0.102 A  
HETATM    6  C   UNL     1      -5.529   3.755  72.390  1.00  0.00     0.000 A  
HETATM    7  C   UNL     1      -8.186   4.231  72.902  1.00  0.00    -0.094 A  
HETATM    8  C   UNL     1      -6.189   3.004  73.363  1.00  0.00    -0.012 A  
HETATM    9  C   UNL     1      -6.203   4.740  71.645  1.00  0.00    -0.021 A  
HETATM   10  C   UNL     1      -7.537   3.228  73.634  1.00  0.00    -0.061 A  
ENDROOT
BRANCH   4  11
HETATM   11  C   UNL     1      -8.797   6.510  70.081  1.00  0.00    -0.144 C  
HETATM   12  H   UNL     1      -9.252   7.927  68.871  1.00  0.00     0.000 HD 
HETATM   13  O   UNL     1      -8.673   5.909  68.999  1.00  0.00    -0.113 OA 
HETATM   14  N   UNL     1      -9.108   7.812  69.874  1.00  0.00    -0.147 N  
BRANCH  14  15
HETATM   15  C   UNL     1      -9.324   9.125  70.491  1.00  0.00    -0.240 C  
HETATM   16  C   UNL     1     -10.442  10.905  68.866  1.00  0.00    -0.203 C  
HETATM   17  C   UNL     1     -10.562   9.959  70.110  1.00  0.00    -0.350 C  
HETATM   18  C   UNL     1     -10.768  10.150  67.576  1.00  0.00    -0.347 C  
HETATM   19  C   UNL     1      -9.668   9.183  67.166  1.00  0.00    -0.236 C  
HETATM   20  C   UNL     1      -8.237   9.633  67.531  1.00  0.00    -0.114 C  
HETATM   21  C   UNL     1      -8.080  10.566  68.758  1.00  0.00    -0.131 C  
HETATM   22  N   UNL     1      -9.132  11.577  68.790  1.00  0.00    -0.112 NA 
HETATM   23  C   UNL     1      -8.062   9.944  70.171  1.00  0.00    -0.169 C  
HETATM   24  C   UNL     1      -8.992  12.540  67.691  1.00  0.00    -0.185 C  
ENDBRANCH  14  15
ENDBRANCH   4  11
TORSDOF 2
ENDMDL
MODEL      234
REMARK 921   NORMALIZED FREE ENERGY PREDICTED BY IDOCK:   -2.82 KCAL/MOL
REMARK 922        TOTAL FREE ENERGY PREDICTED BY IDOCK:   -3.88 KCAL/MOL
REMARK 923 INTER-LIGAND FREE ENERGY PREDICTED BY IDOCK:   -3.30 KCAL/MOL
REMARK 924 INTRA-LIGAND FREE ENERGY PREDICTED BY IDOCK:   -0.58 KCAL/MOL
REMARK 927      BINDING AFFINITY PREDICTED BY RF-SCORE:    0.00 PKD
ROOT
HETATM    1  C   UNL     1      -7.395  14.694  67.517  1.00  0.00    -0.197 C  
HETATM    2  N   UNL     1      -8.417  13.743  67.145  1.00  0.00    -0.198 NA 
HETATM    3  N   UNL     1      -8.050  12.545  66.700  1.00  0.00     0.055 NA 
HETATM    4  C   UNL     1      -9.172  12.008  66.168  1.00  0.00    -0.179 A  
HETATM    5  C   UNL     1     -10.307  12.815  66.505  1.00  0.00    -0.262 A  
HETATM    6  C   UNL     1     -12.480  13.899  66.695  1.00  0.00    -0.313 A  
HETATM    7  C   UNL     1      -9.763  13.962  67.104  1.00  0.00    -0.244 A  
HETATM    8  C   UNL     1     -11.895  15.027  67.272  1.00  0.00    -0.163 A  
HETATM    9  C   UNL     1     -11.703  12.796  66.296  1.00  0.00    -0.460 A  
HETATM   10  C   UNL     1     -10.519  15.079  67.483  1.00  0.00    -0.256 A  
ENDROOT
BRANCH   4  11
HETATM   11  C   UNL     1      -8.948  10.895  65.244  1.00  0.00    -0.186 C  
HETATM   12  H   UNL     1      -8.524   9.131  64.624  1.00  0.00     0.000 HD 
HETATM   13  O   UNL     1      -8.893  11.111  64.021  1.00  0.00    -0.049 OA 
HETATM   14  N   UNL     1      -8.759   9.580  65.508  1.00  0.00    -0.145 N  
BRANCH  14  15
HETATM   15  C   UNL     1      -8.752   8.534  66.535  1.00  0.00    -0.132 C  
HETATM   16  C   UNL     1      -6.318   7.718  67.222  1.00  0.00    -0.055 C  
HETATM   17  C   UNL     1      -7.627   8.498  67.588  1.00  0.00    -0.098 C  
HETATM   18  C   UNL     1      -5.343   8.620  66.463  1.00  0.00    -0.035 C  
HETATM   19  C   UNL     1      -5.787   8.896  65.035  1.00  0.00    -0.059 C  
HETATM   20  C   UNL     1      -6.555   7.742  64.357  1.00  0.00    -0.056 C  
HETATM   21  C   UNL     1      -7.346   6.781  65.280  1.00  0.00    -0.084 C  
HETATM   22  N   UNL     1      -6.590   6.468  66.489  1.00  0.00    -0.047 NA 
HETATM   23  C   UNL     1      -8.749   7.201  65.768  1.00  0.00    -0.125 C  
HETATM   24  C   UNL     1      -5.405   5.653  66.192  1.00  0.00    -0.012 C  
ENDBRANCH  14  15
ENDBRANCH   4  11
TORSDOF 2
ENDMDL
MODEL      235
REMARK 921   NORMALIZED FREE ENERGY PREDICTED BY IDOCK:   -2.82 KCAL/MOL
REMARK 922        TOTAL FREE ENERGY PREDICTED BY IDOCK:   -3.87 KCAL/MOL
REMARK 923 INTER-LIGAND FREE ENERGY PREDICTED BY IDOCK:   -3.26 KCAL/MOL
REMARK 924 INTRA-LIGAND FREE ENERGY PREDICTED BY IDOCK:   -0.61 KCAL/MOL
REMARK 927      BINDING AFFINITY PREDICTED BY RF-SCORE:    0.00 PKD
ROOT
HETATM    1  C   UNL     1     -10.907   6.620  66.978  1.00  0.00    -0.397 C  
HETATM    2  N   UNL     1     -10.426   5.304  67.333  1.00  0.00    -0.182 NA 
HETATM    3  N   UNL     1     -10.395   4.955  68.615  1.00  0.00    -0.042 NA 
HETATM    4  C   UNL     1      -9.645   3.830  68.656  1.00  0.00    -0.103 A  
HETATM    5  C   UNL     1      -9.403   3.355  67.327  1.00  0.00    -0.237 A  
HETATM    6  C   UNL     1      -8.620   2.244  65.306  1.00  0.00    -0.112 A  
HETATM    7  C   UNL     1      -9.891   4.373  66.492  1.00  0.00    -0.229 A  
HETATM    8  C   UNL     1      -9.105   3.287  64.515  1.00  0.00    -0.132 A  
HETATM    9  C   UNL     1      -8.748   2.270  66.706  1.00  0.00    -0.130 A  
HETATM   10  C   UNL     1      -9.748   4.375  65.098  1.00  0.00    -0.186 A  
ENDROOT
BRANCH   4  11
HETATM   11  C   UNL     1      -9.109   3.491  69.976  1.00  0.00    -0.126 C  
HETATM   12  H   UNL     1      -7.988   3.552  71.531  1.00  0.00     0.000 HD 
HETATM   13  O   UNL     1      -9.492   2.457  70.550  1.00  0.00    -0.136 OA 
HETATM   14  N   UNL     1      -8.191   4.145  70.727  1.00  0.00    -0.069 N  
BRANCH  14  15
HETATM   15  C   UNL     1      -7.367   5.350  70.866  1.00  0.00    -0.078 C  
HETATM   16  C   UNL     1      -7.048   6.151  73.380  1.00  0.00    -0.084 C  
HETATM   17  C   UNL     1      -6.439   5.511  72.085  1.00  0.00    -0.056 C  
HETATM   18  C   UNL     1      -7.720   5.086  74.248  1.00  0.00    -0.093 C  
HETATM   19  C   UNL     1      -9.034   4.592  73.662  1.00  0.00    -0.103 C  
HETATM   20  C   UNL     1      -9.834   5.649  72.873  1.00  0.00    -0.183 C  
HETATM   21  C   UNL     1      -9.027   6.791  72.204  1.00  0.00    -0.133 C  
HETATM   22  N   UNL     1      -7.962   7.270  73.081  1.00  0.00    -0.099 NA 
HETATM   23  C   UNL     1      -8.353   6.531  70.840  1.00  0.00    -0.126 C  
HETATM   24  C   UNL     1      -8.500   7.962  74.259  1.00  0.00    -0.223 C  
ENDBRANCH  14  15
ENDBRANCH   4  11
TORSDOF 2
ENDMDL
MODEL      236
REMARK 921   NORMALIZED FREE ENERGY PREDICTED BY IDOCK:   -2.80 KCAL/MOL
REMARK 922        TOTAL FREE ENERGY PREDICTED BY IDOCK:   -3.85 KCAL/MOL
REMARK 923 INTER-LIGAND FREE ENERGY PREDICTED BY IDOCK:   -3.44 KCAL/MOL
REMARK 924 INTRA-LIGAND FREE ENERGY PREDICTED BY IDOCK:   -0.41 KCAL/MOL
REMARK 927      BINDING AFFINITY PREDICTED BY RF-SCORE:    0.00 PKD
ROOT
HETATM    1  C   UNL     1      -6.137  11.256  66.990  1.00  0.00    -0.108 C  
HETATM    2  N   UNL     1      -6.912  10.157  66.459  1.00  0.00    -0.097 NA 
HETATM    3  N   UNL     1      -7.576   9.373  67.301  1.00  0.00    -0.091 NA 
HETATM    4  C   UNL     1      -7.945   8.299  66.566  1.00  0.00    -0.100 A  
HETATM    5  C   UNL     1      -7.690   8.546  65.178  1.00  0.00    -0.102 A  
HETATM    6  C   UNL     1      -7.332   8.437  62.771  1.00  0.00    -0.099 A  
HETATM    7  C   UNL     1      -6.973   9.753  65.157  1.00  0.00    -0.117 A  
HETATM    8  C   UNL     1      -6.610   9.631  62.800  1.00  0.00    -0.103 A  
HETATM    9  C   UNL     1      -7.864   7.878  63.948  1.00  0.00    -0.141 A  
HETATM   10  C   UNL     1      -6.414  10.309  63.999  1.00  0.00    -0.084 A  
ENDROOT
BRANCH   4  11
HETATM   11  C   UNL     1      -8.308   7.112  67.343  1.00  0.00    -0.119 C  
HETATM   12  H   UNL     1      -8.606   5.979  68.861  1.00  0.00     0.000 HD 
HETATM   13  O   UNL     1      -8.506   6.031  66.761  1.00  0.00    -0.109 OA 
HETATM   14  N   UNL     1      -8.461   6.972  68.681  1.00  0.00    -0.121 N  
BRANCH  14  15
HETATM   15  C   UNL     1      -8.506   7.652  69.979  1.00  0.00    -0.136 C  
HETATM   16  C   UNL     1      -8.955   6.025  72.032  1.00  0.00    -0.140 C  
HETATM   17  C   UNL     1      -7.966   6.945  71.237  1.00  0.00    -0.108 C  
HETATM   18  C   UNL     1      -8.967   4.610  71.451  1.00  0.00    -0.163 C  
HETATM   19  C   UNL     1      -9.687   4.528  70.114  1.00  0.00    -0.287 C  
HETATM   20  C   UNL     1     -10.870   5.506  69.951  1.00  0.00    -0.298 C  
HETATM   21  C   UNL     1     -10.814   6.825  70.762  1.00  0.00    -0.249 C  
HETATM   22  N   UNL     1     -10.314   6.594  72.113  1.00  0.00    -0.199 NA 
HETATM   23  C   UNL     1      -9.985   8.005  70.211  1.00  0.00    -0.189 C  
HETATM   24  C   UNL     1     -11.264   5.815  72.917  1.00  0.00    -0.276 C  
ENDBRANCH  14  15
ENDBRANCH   4  11
TORSDOF 2
ENDMDL
MODEL      237
REMARK 921   NORMALIZED FREE ENERGY PREDICTED BY IDOCK:   -2.78 KCAL/MOL
REMARK 922        TOTAL FREE ENERGY PREDICTED BY IDOCK:   -3.83 KCAL/MOL
REMARK 923 INTER-LIGAND FREE ENERGY PREDICTED BY IDOCK:   -3.01 KCAL/MOL
REMARK 924 INTRA-LIGAND FREE ENERGY PREDICTED BY IDOCK:   -0.82 KCAL/MOL
REMARK 927      BINDING AFFINITY PREDICTED BY RF-SCORE:    0.00 PKD
ROOT
HETATM    1  C   UNL     1      -6.770   4.807  66.277  1.00  0.00    -0.050 C  
HETATM    2  N   UNL     1      -7.599   4.572  67.437  1.00  0.00    -0.081 NA 
HETATM    3  N   UNL     1      -8.742   5.239  67.556  1.00  0.00    -0.107 NA 
HETATM    4  C   UNL     1      -9.134   5.041  68.835  1.00  0.00    -0.109 A  
HETATM    5  C   UNL     1      -8.319   4.034  69.446  1.00  0.00    -0.078 A  
HETATM    6  C   UNL     1      -7.148   2.505  70.938  1.00  0.00    -0.033 A  
HETATM    7  C   UNL     1      -7.300   3.787  68.512  1.00  0.00    -0.054 A  
HETATM    8  C   UNL     1      -6.148   2.303  69.987  1.00  0.00    -0.024 A  
HETATM    9  C   UNL     1      -8.227   3.373  70.689  1.00  0.00    -0.075 A  
HETATM   10  C   UNL     1      -6.205   2.947  68.754  1.00  0.00    -0.029 A  
ENDROOT
BRANCH   4  11
HETATM   11  C   UNL     1     -10.119   6.001  69.338  1.00  0.00    -0.192 C  
HETATM   12  H   UNL     1     -10.837   7.543  70.225  1.00  0.00     0.000 HD 
HETATM   13  O   UNL     1     -11.330   5.723  69.293  1.00  0.00    -0.225 OA 
HETATM   14  N   UNL     1      -9.926   7.219  69.898  1.00  0.00    -0.182 N  
BRANCH  14  15
HETATM   15  C   UNL     1      -8.955   8.266  70.232  1.00  0.00    -0.142 C  
HETATM   16  C   UNL     1      -7.378   7.656  72.281  1.00  0.00    -0.077 C  
HETATM   17  C   UNL     1      -7.553   7.880  70.740  1.00  0.00    -0.078 C  
HETATM   18  C   UNL     1      -7.724   6.216  72.663  1.00  0.00    -0.102 C  
HETATM   19  C   UNL     1      -9.218   5.937  72.615  1.00  0.00    -0.137 C  
HETATM   20  C   UNL     1     -10.117   7.136  72.984  1.00  0.00    -0.267 C  
HETATM   21  C   UNL     1      -9.548   8.553  72.720  1.00  0.00    -0.173 C  
HETATM   22  N   UNL     1      -8.137   8.633  73.085  1.00  0.00    -0.415 NA 
HETATM   23  C   UNL     1      -9.640   9.141  71.295  1.00  0.00    -0.331 C  
HETATM   24  C   UNL     1      -7.945   8.523  74.536  1.00  0.00    -0.052 C  
ENDBRANCH  14  15
ENDBRANCH   4  11
TORSDOF 2
ENDMDL
MODEL      238
REMARK 921   NORMALIZED FREE ENERGY PREDICTED BY IDOCK:   -2.77 KCAL/MOL
REMARK 922        TOTAL FREE ENERGY PREDICTED BY IDOCK:   -3.82 KCAL/MOL
REMARK 923 INTER-LIGAND FREE ENERGY PREDICTED BY IDOCK:   -3.26 KCAL/MOL
REMARK 924 INTRA-LIGAND FREE ENERGY PREDICTED BY IDOCK:   -0.56 KCAL/MOL
REMARK 927      BINDING AFFINITY PREDICTED BY RF-SCORE:    0.00 PKD
ROOT
HETATM    1  C   UNL     1      -5.303   4.314  64.681  1.00  0.00    -0.013 C  
HETATM    2  N   UNL     1      -6.362   4.937  65.442  1.00  0.00    -0.034 NA 
HETATM    3  N   UNL     1      -6.042   5.790  66.409  1.00  0.00    -0.028 NA 
HETATM    4  C   UNL     1      -7.183   5.970  67.112  1.00  0.00    -0.075 A  
HETATM    5  C   UNL     1      -8.287   5.383  66.412  1.00  0.00    -0.110 A  
HETATM    6  C   UNL     1     -10.416   4.447  65.689  1.00  0.00    -0.224 A  
HETATM    7  C   UNL     1      -7.699   4.679  65.349  1.00  0.00    -0.089 A  
HETATM    8  C   UNL     1      -9.787   3.750  64.656  1.00  0.00    -0.190 A  
HETATM    9  C   UNL     1      -9.681   5.252  66.579  1.00  0.00    -0.180 A  
HETATM   10  C   UNL     1      -8.411   3.852  64.470  1.00  0.00    -0.102 A  
ENDROOT
BRANCH   4  11
HETATM   11  C   UNL     1      -7.002   6.515  68.459  1.00  0.00    -0.080 C  
HETATM   12  H   UNL     1      -7.348   6.895  70.307  1.00  0.00     0.000 HD 
HETATM   13  O   UNL     1      -6.124   7.372  68.664  1.00  0.00    -0.026 OA 
HETATM   14  N   UNL     1      -7.682   6.243  69.598  1.00  0.00    -0.097 N  
BRANCH  14  15
HETATM   15  C   UNL     1      -8.699   5.401  70.237  1.00  0.00    -0.127 C  
HETATM   16  C   UNL     1     -11.178   6.318  69.967  1.00  0.00    -0.412 C  
HETATM   17  C   UNL     1     -10.090   5.254  69.593  1.00  0.00    -0.327 C  
HETATM   18  C   UNL     1     -11.076   7.543  69.057  1.00  0.00     0.106 C  
HETATM   19  C   UNL     1      -9.867   8.411  69.370  1.00  0.00    -0.185 C  
HETATM   20  C   UNL     1      -9.455   8.441  70.857  1.00  0.00    -0.205 C  
HETATM   21  C   UNL     1      -9.804   7.197  71.713  1.00  0.00    -0.161 C  
HETATM   22  N   UNL     1     -11.136   6.692  71.393  1.00  0.00    -0.252 NA 
HETATM   23  C   UNL     1      -8.872   5.968  71.657  1.00  0.00    -0.139 C  
HETATM   24  C   UNL     1     -12.186   7.625  71.821  1.00  0.00    -0.311 C  
ENDBRANCH  14  15
ENDBRANCH   4  11
TORSDOF 2
ENDMDL
MODEL      239
REMARK 921   NORMALIZED FREE ENERGY PREDICTED BY IDOCK:   -2.76 KCAL/MOL
REMARK 922        TOTAL FREE ENERGY PREDICTED BY IDOCK:   -3.81 KCAL/MOL
REMARK 923 INTER-LIGAND FREE ENERGY PREDICTED BY IDOCK:   -3.08 KCAL/MOL
REMARK 924 INTRA-LIGAND FREE ENERGY PREDICTED BY IDOCK:   -0.72 KCAL/MOL
REMARK 927      BINDING AFFINITY PREDICTED BY RF-SCORE:    0.00 PKD
ROOT
HETATM    1  C   UNL     1     -11.393  16.531  71.068  1.00  0.00    -0.022 C  
HETATM    2  N   UNL     1     -10.943  15.877  69.861  1.00  0.00    -0.313 NA 
HETATM    3  N   UNL     1     -11.726  14.966  69.292  1.00  0.00    -0.299 NA 
HETATM    4  C   UNL     1     -10.938  14.338  68.390  1.00  0.00    -0.253 A  
HETATM    5  C   UNL     1      -9.699  15.043  68.247  1.00  0.00    -0.215 A  
HETATM    6  C   UNL     1      -7.435  15.795  67.758  1.00  0.00    -0.162 A  
HETATM    7  C   UNL     1      -9.726  16.016  69.260  1.00  0.00    -0.257 A  
HETATM    8  C   UNL     1      -7.498  16.736  68.786  1.00  0.00    -0.231 A  
HETATM    9  C   UNL     1      -8.516  14.937  67.486  1.00  0.00    -0.198 A  
HETATM   10  C   UNL     1      -8.649  16.859  69.561  1.00  0.00     0.472 A  
ENDROOT
BRANCH   4  11
HETATM   11  C   UNL     1     -11.427  13.032  67.943  1.00  0.00    -0.311 C  
HETATM   12  H   UNL     1     -12.203  11.694  66.809  1.00  0.00     0.000 HD 
HETATM   13  O   UNL     1     -11.540  12.103  68.762  1.00  0.00    -0.277 OA 
HETATM   14  N   UNL     1     -11.823  12.635  66.710  1.00  0.00    -0.397 N  
BRANCH  14  15
HETATM   15  C   UNL     1     -11.934  12.995  65.293  1.00  0.00    -0.407 C  
HETATM   16  C   UNL     1     -10.864  11.208  63.643  1.00  0.00    -0.242 C  
HETATM   17  C   UNL     1     -12.142  11.895  64.235  1.00  0.00    -0.344 C  
HETATM   18  C   UNL     1     -10.421  10.037  64.523  1.00  0.00     0.736 C  
HETATM   19  C   UNL     1      -9.787  10.489  65.829  1.00  0.00    -0.295 C  
HETATM   20  C   UNL     1      -9.001  11.815  65.747  1.00  0.00    -0.011 C  
HETATM   21  C   UNL     1      -9.443  12.833  64.666  1.00  0.00     0.447 C  
HETATM   22  N   UNL     1      -9.765  12.163  63.410  1.00  0.00    -0.317 NA 
HETATM   23  C   UNL     1     -10.642  13.760  64.958  1.00  0.00    -0.402 C  
HETATM   24  C   UNL     1      -8.570  11.590  62.779  1.00  0.00     0.211 C  
ENDBRANCH  14  15
ENDBRANCH   4  11
TORSDOF 2
ENDMDL
MODEL      240
REMARK 921   NORMALIZED FREE ENERGY PREDICTED BY IDOCK:   -2.75 KCAL/MOL
REMARK 922        TOTAL FREE ENERGY PREDICTED BY IDOCK:   -3.79 KCAL/MOL
REMARK 923 INTER-LIGAND FREE ENERGY PREDICTED BY IDOCK:   -3.36 KCAL/MOL
REMARK 924 INTRA-LIGAND FREE ENERGY PREDICTED BY IDOCK:   -0.43 KCAL/MOL
REMARK 927      BINDING AFFINITY PREDICTED BY RF-SCORE:    0.00 PKD
ROOT
HETATM    1  C   UNL     1      -6.842   4.700  66.228  1.00  0.00    -0.058 C  
HETATM    2  N   UNL     1      -7.854   4.615  67.256  1.00  0.00    -0.090 NA 
HETATM    3  N   UNL     1      -8.993   5.278  67.092  1.00  0.00    -0.112 NA 
HETATM    4  C   UNL     1      -9.593   5.252  68.304  1.00  0.00    -0.130 A  
HETATM    5  C   UNL     1      -8.900   4.349  69.174  1.00  0.00    -0.132 A  
HETATM    6  C   UNL     1      -8.009   3.054  71.034  1.00  0.00    -0.056 A  
HETATM    7  C   UNL     1      -7.744   3.989  68.463  1.00  0.00    -0.065 A  
HETATM    8  C   UNL     1      -6.867   2.736  70.298  1.00  0.00    -0.033 A  
HETATM    9  C   UNL     1      -9.023   3.866  70.494  1.00  0.00    -0.160 A  
HETATM   10  C   UNL     1      -6.713   3.204  68.996  1.00  0.00    -0.037 A  
ENDROOT
BRANCH   4  11
HETATM   11  C   UNL     1     -10.637   6.260  68.500  1.00  0.00    -0.262 C  
HETATM   12  H   UNL     1     -11.571   7.930  68.372  1.00  0.00     0.000 HD 
HETATM   13  O   UNL     1     -11.535   6.063  69.338  1.00  0.00    -0.372 OA 
HETATM   14  N   UNL     1     -10.798   7.463  67.898  1.00  0.00    -0.132 N  
BRANCH  14  15
HETATM   15  C   UNL     1     -10.325   8.372  66.851  1.00  0.00    -0.307 C  
HETATM   16  C   UNL     1      -7.899   9.360  67.300  1.00  0.00    -0.099 C  
HETATM   17  C   UNL     1      -8.830   8.404  66.478  1.00  0.00    -0.172 C  
HETATM   18  C   UNL     1      -7.392   8.668  68.566  1.00  0.00    -0.085 C  
HETATM   19  C   UNL     1      -8.470   8.519  69.628  1.00  0.00    -0.130 C  
HETATM   20  C   UNL     1      -9.513   9.655  69.660  1.00  0.00    -0.226 C  
HETATM   21  C   UNL     1      -9.783  10.406  68.332  1.00  0.00    -0.158 C  
HETATM   22  N   UNL     1      -8.542  10.652  67.603  1.00  0.00    -0.118 NA 
HETATM   23  C   UNL     1     -10.748   9.780  67.303  1.00  0.00    -0.296 C  
HETATM   24  C   UNL     1      -7.687  11.621  68.300  1.00  0.00    -0.128 C  
ENDBRANCH  14  15
ENDBRANCH   4  11
TORSDOF 2
ENDMDL
MODEL      241
REMARK 921   NORMALIZED FREE ENERGY PREDICTED BY IDOCK:   -2.69 KCAL/MOL
REMARK 922        TOTAL FREE ENERGY PREDICTED BY IDOCK:   -3.73 KCAL/MOL
REMARK 923 INTER-LIGAND FREE ENERGY PREDICTED BY IDOCK:   -3.10 KCAL/MOL
REMARK 924 INTRA-LIGAND FREE ENERGY PREDICTED BY IDOCK:   -0.63 KCAL/MOL
REMARK 927      BINDING AFFINITY PREDICTED BY RF-SCORE:    0.00 PKD
ROOT
HETATM    1  C   UNL     1      -8.766   7.069  65.775  1.00  0.00    -0.100 C  
HETATM    2  N   UNL     1      -9.035   5.724  66.231  1.00  0.00    -0.142 NA 
HETATM    3  N   UNL     1      -9.157   5.501  67.535  1.00  0.00    -0.108 NA 
HETATM    4  C   UNL     1      -9.107   4.156  67.669  1.00  0.00    -0.140 A  
HETATM    5  C   UNL     1      -9.185   3.534  66.380  1.00  0.00    -0.179 A  
HETATM    6  C   UNL     1      -9.154   2.041  64.456  1.00  0.00    -0.123 A  
HETATM    7  C   UNL     1      -9.091   4.596  65.467  1.00  0.00    -0.146 A  
HETATM    8  C   UNL     1      -9.043   3.125  63.585  1.00  0.00    -0.096 A  
HETATM    9  C   UNL     1      -9.212   2.227  65.850  1.00  0.00    -0.007 A  
HETATM   10  C   UNL     1      -9.005   4.427  64.079  1.00  0.00    -0.143 A  
ENDROOT
BRANCH   4  11
HETATM   11  C   UNL     1      -8.792   3.678  69.016  1.00  0.00    -0.103 C  
HETATM   12  H   UNL     1      -8.811   3.553  70.930  1.00  0.00     0.000 HD 
HETATM   13  O   UNL     1      -7.857   2.875  69.183  1.00  0.00    -0.047 OA 
HETATM   14  N   UNL     1      -9.370   3.993  70.200  1.00  0.00    -0.151 N  
BRANCH  14  15
HETATM   15  C   UNL     1     -10.465   4.703  70.869  1.00  0.00     0.042 C  
HETATM   16  C   UNL     1      -9.966   7.275  71.312  1.00  0.00    -0.188 C  
HETATM   17  C   UNL     1     -10.753   6.176  70.519  1.00  0.00    -0.340 C  
HETATM   18  C   UNL     1      -8.617   7.561  70.650  1.00  0.00    -0.137 C  
HETATM   19  C   UNL     1      -7.609   6.441  70.858  1.00  0.00    -0.093 C  
HETATM   20  C   UNL     1      -7.737   5.692  72.202  1.00  0.00    -0.102 C  
HETATM   21  C   UNL     1      -9.139   5.653  72.859  1.00  0.00    -0.125 C  
HETATM   22  N   UNL     1      -9.814   6.942  72.741  1.00  0.00    -0.164 NA 
HETATM   23  C   UNL     1     -10.163   4.605  72.374  1.00  0.00    -0.249 C  
HETATM   24  C   UNL     1      -9.157   7.975  73.551  1.00  0.00    -0.259 C  
ENDBRANCH  14  15
ENDBRANCH   4  11
TORSDOF 2
ENDMDL
MODEL      242
REMARK 921   NORMALIZED FREE ENERGY PREDICTED BY IDOCK:   -2.62 KCAL/MOL
REMARK 922        TOTAL FREE ENERGY PREDICTED BY IDOCK:   -3.65 KCAL/MOL
REMARK 923 INTER-LIGAND FREE ENERGY PREDICTED BY IDOCK:   -3.12 KCAL/MOL
REMARK 924 INTRA-LIGAND FREE ENERGY PREDICTED BY IDOCK:   -0.53 KCAL/MOL
REMARK 927      BINDING AFFINITY PREDICTED BY RF-SCORE:    0.00 PKD
ROOT
HETATM    1  C   UNL     1      -5.685   8.908  64.761  1.00  0.00    -0.062 C  
HETATM    2  N   UNL     1      -6.632   8.061  65.450  1.00  0.00    -0.048 NA 
HETATM    3  N   UNL     1      -7.902   8.444  65.522  1.00  0.00    -0.103 NA 
HETATM    4  C   UNL     1      -8.463   7.633  66.448  1.00  0.00    -0.137 A  
HETATM    5  C   UNL     1      -7.557   6.575  66.784  1.00  0.00    -0.091 A  
HETATM    6  C   UNL     1      -6.349   4.703  67.768  1.00  0.00    -0.037 A  
HETATM    7  C   UNL     1      -6.356   6.919  66.144  1.00  0.00    -0.050 A  
HETATM    8  C   UNL     1      -5.173   5.092  67.126  1.00  0.00    -0.008 A  
HETATM    9  C   UNL     1      -7.539   5.438  67.619  1.00  0.00    -0.088 A  
HETATM   10  C   UNL     1      -5.155   6.214  66.303  1.00  0.00    -0.012 A  
ENDROOT
BRANCH   4  11
HETATM   11  C   UNL     1      -9.722   8.119  67.016  1.00  0.00    -0.212 C  
HETATM   12  H   UNL     1     -10.930   9.022  68.200  1.00  0.00     0.000 HD 
HETATM   13  O   UNL     1     -10.802   7.667  66.596  1.00  0.00    -0.162 OA 
HETATM   14  N   UNL     1      -9.930   9.025  68.000  1.00  0.00    -0.168 N  
BRANCH  14  15
HETATM   15  C   UNL     1      -9.318  10.010  68.898  1.00  0.00    -0.172 C  
HETATM   16  C   UNL     1     -10.353  12.448  68.687  1.00  0.00    -0.182 C  
HETATM   17  C   UNL     1     -10.180  11.128  69.515  1.00  0.00     0.045 C  
HETATM   18  C   UNL     1     -11.522  12.325  67.708  1.00  0.00    -0.392 C  
HETATM   19  C   UNL     1     -11.207  11.419  66.527  1.00  0.00    -0.276 C  
HETATM   20  C   UNL     1      -9.734  11.434  66.070  1.00  0.00    -0.253 C  
HETATM   21  C   UNL     1      -8.665  11.772  67.139  1.00  0.00    -0.169 C  
HETATM   22  N   UNL     1      -9.110  12.857  68.007  1.00  0.00    -0.205 NA 
HETATM   23  C   UNL     1      -8.180  10.656  68.089  1.00  0.00    -0.116 C  
HETATM   24  C   UNL     1      -9.191  14.132  67.284  1.00  0.00    -0.219 C  
ENDBRANCH  14  15
ENDBRANCH   4  11
TORSDOF 2
ENDMDL
MODEL      243
REMARK 921   NORMALIZED FREE ENERGY PREDICTED BY IDOCK:   -2.53 KCAL/MOL
REMARK 922        TOTAL FREE ENERGY PREDICTED BY IDOCK:   -3.55 KCAL/MOL
REMARK 923 INTER-LIGAND FREE ENERGY PREDICTED BY IDOCK:   -2.86 KCAL/MOL
REMARK 924 INTRA-LIGAND FREE ENERGY PREDICTED BY IDOCK:   -0.69 KCAL/MOL
REMARK 927      BINDING AFFINITY PREDICTED BY RF-SCORE:    0.00 PKD
ROOT
HETATM    1  C   UNL     1      -8.087   5.308  64.039  1.00  0.00    -0.121 C  
HETATM    2  N   UNL     1      -8.091   5.653  65.443  1.00  0.00    -0.119 NA 
HETATM    3  N   UNL     1      -7.816   4.709  66.337  1.00  0.00    -0.098 NA 
HETATM    4  C   UNL     1      -8.178   5.236  67.528  1.00  0.00    -0.100 A  
HETATM    5  C   UNL     1      -8.471   6.631  67.377  1.00  0.00    -0.120 A  
HETATM    6  C   UNL     1      -9.190   8.946  67.605  1.00  0.00    -0.151 A  
HETATM    7  C   UNL     1      -8.446   6.851  65.991  1.00  0.00    -0.139 A  
HETATM    8  C   UNL     1      -9.169   9.115  66.220  1.00  0.00    -0.246 A  
HETATM    9  C   UNL     1      -8.859   7.713  68.195  1.00  0.00    -0.125 A  
HETATM   10  C   UNL     1      -8.799   8.064  65.386  1.00  0.00    -0.056 A  
ENDROOT
BRANCH   4  11
HETATM   11  C   UNL     1      -8.376   4.261  68.603  1.00  0.00    -0.083 C  
HETATM   12  H   UNL     1      -8.195   3.404  70.309  1.00  0.00     0.000 HD 
HETATM   13  O   UNL     1      -8.979   3.199  68.368  1.00  0.00    -0.108 OA 
HETATM   14  N   UNL     1      -7.974   4.310  69.895  1.00  0.00    -0.056 N  
BRANCH  14  15
HETATM   15  C   UNL     1      -7.354   5.121  70.948  1.00  0.00    -0.073 C  
HETATM   16  C   UNL     1      -8.093   4.438  73.407  1.00  0.00    -0.095 C  
HETATM   17  C   UNL     1      -6.986   4.477  72.298  1.00  0.00    -0.060 C  
HETATM   18  C   UNL     1      -8.974   3.197  73.252  1.00  0.00    -0.093 C  
HETATM   19  C   UNL     1      -9.920   3.292  72.065  1.00  0.00    -0.222 C  
HETATM   20  C   UNL     1     -10.421   4.715  71.743  1.00  0.00    -0.149 C  
HETATM   21  C   UNL     1      -9.499   5.896  72.141  1.00  0.00    -0.148 C  
HETATM   22  N   UNL     1      -8.894   5.675  73.451  1.00  0.00    -0.124 NA 
HETATM   23  C   UNL     1      -8.332   6.280  71.207  1.00  0.00    -0.123 C  
HETATM   24  C   UNL     1      -9.892   5.729  74.526  1.00  0.00    -0.248 C  
ENDBRANCH  14  15
ENDBRANCH   4  11
TORSDOF 2
ENDMDL
MODEL      244
REMARK 921   NORMALIZED FREE ENERGY PREDICTED BY IDOCK:   -2.47 KCAL/MOL
REMARK 922        TOTAL FREE ENERGY PREDICTED BY IDOCK:   -3.49 KCAL/MOL
REMARK 923 INTER-LIGAND FREE ENERGY PREDICTED BY IDOCK:   -2.90 KCAL/MOL
REMARK 924 INTRA-LIGAND FREE ENERGY PREDICTED BY IDOCK:   -0.59 KCAL/MOL
REMARK 927      BINDING AFFINITY PREDICTED BY RF-SCORE:    0.00 PKD
ROOT
HETATM    1  C   UNL     1     -10.326  10.162  70.504  1.00  0.00    -0.040 C  
HETATM    2  N   UNL     1     -10.149   9.097  69.543  1.00  0.00    -0.190 NA 
HETATM    3  N   UNL     1      -9.976   7.855  69.983  1.00  0.00    -0.189 NA 
HETATM    4  C   UNL     1      -9.553   7.155  68.906  1.00  0.00    -0.142 A  
HETATM    5  C   UNL     1      -9.691   7.949  67.722  1.00  0.00    -0.189 A  
HETATM    6  C   UNL     1      -9.610   8.924  65.492  1.00  0.00    -0.088 A  
HETATM    7  C   UNL     1     -10.041   9.226  68.189  1.00  0.00    -0.187 A  
HETATM    8  C   UNL     1      -9.942  10.180  66.001  1.00  0.00    -0.322 A  
HETATM    9  C   UNL     1      -9.468   7.808  66.336  1.00  0.00    -0.245 A  
HETATM   10  C   UNL     1     -10.160  10.353  67.366  1.00  0.00    -0.237 A  
ENDROOT
BRANCH   4  11
HETATM   11  C   UNL     1      -8.891   5.886  69.214  1.00  0.00    -0.118 C  
HETATM   12  H   UNL     1      -7.776   4.340  68.997  1.00  0.00     0.000 HD 
HETATM   13  O   UNL     1      -9.248   5.229  70.208  1.00  0.00    -0.136 OA 
HETATM   14  N   UNL     1      -7.898   5.248  68.549  1.00  0.00    -0.083 N  
BRANCH  14  15
HETATM   15  C   UNL     1      -6.926   5.318  67.453  1.00  0.00    -0.065 C  
HETATM   16  C   UNL     1      -7.712   4.081  65.237  1.00  0.00    -0.085 C  
HETATM   17  C   UNL     1      -7.416   5.420  65.996  1.00  0.00    -0.082 C  
HETATM   18  C   UNL     1      -9.143   3.610  65.504  1.00  0.00    -0.148 C  
HETATM   19  C   UNL     1      -9.329   3.059  66.909  1.00  0.00    -0.137 C  
HETATM   20  C   UNL     1      -8.093   2.346  67.498  1.00  0.00    -0.068 C  
HETATM   21  C   UNL     1      -6.704   2.798  66.982  1.00  0.00    -0.041 C  
HETATM   22  N   UNL     1      -6.724   3.028  65.541  1.00  0.00    -0.039 NA 
HETATM   23  C   UNL     1      -6.054   4.059  67.592  1.00  0.00    -0.032 C  
HETATM   24  C   UNL     1      -6.904   1.777  64.794  1.00  0.00    -0.038 C  
ENDBRANCH  14  15
ENDBRANCH   4  11
TORSDOF 2
ENDMDL
MODEL      245
REMARK 921   NORMALIZED FREE ENERGY PREDICTED BY IDOCK:   -2.41 KCAL/MOL
REMARK 922        TOTAL FREE ENERGY PREDICTED BY IDOCK:   -3.42 KCAL/MOL
REMARK 923 INTER-LIGAND FREE ENERGY PREDICTED BY IDOCK:   -2.80 KCAL/MOL
REMARK 924 INTRA-LIGAND FREE ENERGY PREDICTED BY IDOCK:   -0.62 KCAL/MOL
REMARK 927      BINDING AFFINITY PREDICTED BY RF-SCORE:    0.00 PKD
ROOT
HETATM    1  C   UNL     1      -9.744  11.353  64.735  1.00  0.00    -0.244 C  
HETATM    2  N   UNL     1      -9.792  11.237  66.174  1.00  0.00    -0.217 NA 
HETATM    3  N   UNL     1     -10.976  11.193  66.776  1.00  0.00    -0.271 NA 
HETATM    4  C   UNL     1     -10.711  11.381  68.089  1.00  0.00    -0.202 A  
HETATM    5  C   UNL     1      -9.298  11.310  68.318  1.00  0.00    -0.180 A  
HETATM    6  C   UNL     1      -7.022  11.404  69.179  1.00  0.00    -0.118 A  
HETATM    7  C   UNL     1      -8.733  11.260  67.034  1.00  0.00    -0.152 A  
HETATM    8  C   UNL     1      -6.504  11.370  67.884  1.00  0.00    -0.058 A  
HETATM    9  C   UNL     1      -8.410  11.388  69.411  1.00  0.00     0.402 A  
HETATM   10  C   UNL     1      -7.355  11.302  66.785  1.00  0.00    -0.146 A  
ENDROOT
BRANCH   4  11
HETATM   11  C   UNL     1     -11.857  11.799  68.899  1.00  0.00    -0.320 C  
HETATM   12  H   UNL     1     -12.936  12.865  70.073  1.00  0.00     0.000 HD 
HETATM   13  O   UNL     1     -12.783  10.998  69.117  1.00  0.00    -0.277 OA 
HETATM   14  N   UNL     1     -12.093  12.984  69.511  1.00  0.00    -0.270 N  
BRANCH  14  15
HETATM   15  C   UNL     1     -11.644  14.367  69.702  1.00  0.00    -0.292 C  
HETATM   16  C   UNL     1     -11.794  15.209  72.217  1.00  0.00    -0.401 C  
HETATM   17  C   UNL     1     -10.914  14.765  70.998  1.00  0.00     0.085 C  
HETATM   18  C   UNL     1     -12.232  13.996  73.041  1.00  0.00     0.307 C  
HETATM   19  C   UNL     1     -13.301  13.167  72.345  1.00  0.00    -0.591 C  
HETATM   20  C   UNL     1     -14.278  13.973  71.464  1.00  0.00    -0.209 C  
HETATM   21  C   UNL     1     -13.751  15.295  70.851  1.00  0.00    -0.293 C  
HETATM   22  N   UNL     1     -12.944  16.039  71.813  1.00  0.00    -0.331 NA 
HETATM   23  C   UNL     1     -12.905  15.235  69.561  1.00  0.00     0.250 C  
HETATM   24  C   UNL     1     -13.757  16.552  72.921  1.00  0.00     0.730 C  
ENDBRANCH  14  15
ENDBRANCH   4  11
TORSDOF 2
ENDMDL
MODEL      246
REMARK 921   NORMALIZED FREE ENERGY PREDICTED BY IDOCK:   -2.40 KCAL/MOL
REMARK 922        TOTAL FREE ENERGY PREDICTED BY IDOCK:   -3.40 KCAL/MOL
REMARK 923 INTER-LIGAND FREE ENERGY PREDICTED BY IDOCK:   -2.88 KCAL/MOL
REMARK 924 INTRA-LIGAND FREE ENERGY PREDICTED BY IDOCK:   -0.53 KCAL/MOL
REMARK 927      BINDING AFFINITY PREDICTED BY RF-SCORE:    0.00 PKD
ROOT
HETATM    1  C   UNL     1      -8.565   9.029  62.358  1.00  0.00    -0.218 C  
HETATM    2  N   UNL     1      -8.552   8.606  63.740  1.00  0.00    -0.067 NA 
HETATM    3  N   UNL     1      -9.300   9.263  64.621  1.00  0.00    -0.068 NA 
HETATM    4  C   UNL     1      -8.865   8.847  65.832  1.00  0.00    -0.179 A  
HETATM    5  C   UNL     1      -7.978   7.732  65.677  1.00  0.00    -0.118 A  
HETATM    6  C   UNL     1      -6.347   5.940  65.923  1.00  0.00    -0.042 A  
HETATM    7  C   UNL     1      -7.766   7.637  64.292  1.00  0.00    -0.131 A  
HETATM    8  C   UNL     1      -6.153   5.893  64.542  1.00  0.00    -0.025 A  
HETATM    9  C   UNL     1      -7.240   6.859  66.504  1.00  0.00    -0.072 A  
HETATM   10  C   UNL     1      -6.860   6.747  63.700  1.00  0.00    -0.054 A  
ENDROOT
BRANCH   4  11
HETATM   11  C   UNL     1      -9.221   9.720  66.952  1.00  0.00    -0.147 C  
HETATM   12  H   UNL     1      -9.536  11.328  67.948  1.00  0.00     0.000 HD 
HETATM   13  O   UNL     1      -9.371   9.237  68.088  1.00  0.00    -0.134 OA 
HETATM   14  N   UNL     1      -9.412  11.061  66.972  1.00  0.00    -0.171 N  
BRANCH  14  15
HETATM   15  C   UNL     1      -9.516  12.288  66.175  1.00  0.00    -0.217 C  
HETATM   16  C   UNL     1     -10.055  14.459  67.610  1.00  0.00    -0.222 C  
HETATM   17  C   UNL     1      -9.032  13.628  66.762  1.00  0.00    -0.196 C  
HETATM   18  C   UNL     1     -10.039  14.010  69.072  1.00  0.00    -0.066 C  
HETATM   19  C   UNL     1     -10.698  12.656  69.280  1.00  0.00     0.031 C  
HETATM   20  C   UNL     1     -11.874  12.351  68.328  1.00  0.00    -0.364 C  
HETATM   21  C   UNL     1     -11.856  13.039  66.940  1.00  0.00    -0.380 C  
HETATM   22  N   UNL     1     -11.417  14.427  67.043  1.00  0.00    -0.346 NA 
HETATM   23  C   UNL     1     -11.004  12.420  65.811  1.00  0.00    -0.333 C  
HETATM   24  C   UNL     1     -12.401  15.256  67.750  1.00  0.00     0.640 C  
ENDBRANCH  14  15
ENDBRANCH   4  11
TORSDOF 2
ENDMDL
MODEL      247
REMARK 921   NORMALIZED FREE ENERGY PREDICTED BY IDOCK:   -2.40 KCAL/MOL
REMARK 922        TOTAL FREE ENERGY PREDICTED BY IDOCK:   -3.40 KCAL/MOL
REMARK 923 INTER-LIGAND FREE ENERGY PREDICTED BY IDOCK:   -2.75 KCAL/MOL
REMARK 924 INTRA-LIGAND FREE ENERGY PREDICTED BY IDOCK:   -0.65 KCAL/MOL
REMARK 927      BINDING AFFINITY PREDICTED BY RF-SCORE:    0.00 PKD
ROOT
HETATM    1  C   UNL     1      -8.139  17.009  67.076  1.00  0.00    -0.205 C  
HETATM    2  N   UNL     1      -8.678  15.673  67.195  1.00  0.00    -0.196 NA 
HETATM    3  N   UNL     1      -9.979  15.485  66.999  1.00  0.00    -0.236 NA 
HETATM    4  C   UNL     1     -10.228  14.237  67.457  1.00  0.00    -0.240 A  
HETATM    5  C   UNL     1      -8.994  13.562  67.732  1.00  0.00    -0.201 A  
HETATM    6  C   UNL     1      -7.213  12.070  68.460  1.00  0.00    -0.101 A  
HETATM    7  C   UNL     1      -8.009  14.552  67.591  1.00  0.00    -0.177 A  
HETATM    8  C   UNL     1      -6.269  13.088  68.323  1.00  0.00    -0.085 A  
HETATM    9  C   UNL     1      -8.574  12.293  68.183  1.00  0.00    -0.181 A  
HETATM   10  C   UNL     1      -6.654  14.354  67.888  1.00  0.00    -0.179 A  
ENDROOT
BRANCH   4  11
HETATM   11  C   UNL     1     -11.635  13.953  67.747  1.00  0.00    -0.347 C  
HETATM   12  H   UNL     1     -13.179  13.227  68.621  1.00  0.00     0.000 HD 
HETATM   13  O   UNL     1     -12.510  14.269  66.922  1.00  0.00    -0.338 OA 
HETATM   14  N   UNL     1     -12.187  13.347  68.825  1.00  0.00    -0.224 N  
BRANCH  14  15
HETATM   15  C   UNL     1     -11.954  12.793  70.162  1.00  0.00    -0.296 C  
HETATM   16  C   UNL     1     -13.379  13.964  72.075  1.00  0.00    -0.435 C  
HETATM   17  C   UNL     1     -13.114  12.710  71.173  1.00  0.00    -0.144 C  
HETATM   18  C   UNL     1     -14.297  14.960  71.365  1.00  0.00    -0.560 C  
HETATM   19  C   UNL     1     -13.600  15.702  70.235  1.00  0.00     0.721 C  
HETATM   20  C   UNL     1     -12.097  15.969  70.462  1.00  0.00    -0.231 C  
HETATM   21  C   UNL     1     -11.332  14.977  71.374  1.00  0.00    -0.273 C  
HETATM   22  N   UNL     1     -12.132  14.603  72.536  1.00  0.00    -0.210 NA 
HETATM   23  C   UNL     1     -10.829  13.646  70.773  1.00  0.00     1.916 C  
HETATM   24  C   UNL     1     -12.318  15.734  73.453  1.00  0.00    -0.528 C  
ENDBRANCH  14  15
ENDBRANCH   4  11
TORSDOF 2
ENDMDL
MODEL      248
REMARK 921   NORMALIZED FREE ENERGY PREDICTED BY IDOCK:   -2.29 KCAL/MOL
REMARK 922        TOTAL FREE ENERGY PREDICTED BY IDOCK:   -3.28 KCAL/MOL
REMARK 923 INTER-LIGAND FREE ENERGY PREDICTED BY IDOCK:   -2.68 KCAL/MOL
REMARK 924 INTRA-LIGAND FREE ENERGY PREDICTED BY IDOCK:   -0.60 KCAL/MOL
REMARK 927      BINDING AFFINITY PREDICTED BY RF-SCORE:    0.00 PKD
ROOT
HETATM    1  C   UNL     1     -10.120  11.523  63.639  1.00  0.00    -0.388 C  
HETATM    2  N   UNL     1      -9.141  10.870  64.479  1.00  0.00    -0.190 NA 
HETATM    3  N   UNL     1      -9.067  11.209  65.762  1.00  0.00    -0.205 NA 
HETATM    4  C   UNL     1      -7.906  10.672  66.201  1.00  0.00    -0.152 A  
HETATM    5  C   UNL     1      -7.370   9.788  65.209  1.00  0.00    -0.120 A  
HETATM    6  C   UNL     1      -6.014   8.317  63.819  1.00  0.00    -0.067 A  
HETATM    7  C   UNL     1      -8.184   9.982  64.082  1.00  0.00    -0.159 A  
HETATM    8  C   UNL     1      -6.840   8.553  62.720  1.00  0.00    -0.090 A  
HETATM    9  C   UNL     1      -6.256   8.934  65.060  1.00  0.00    -0.064 A  
HETATM   10  C   UNL     1      -7.942   9.397  62.833  1.00  0.00    -0.135 A  
ENDROOT
BRANCH   4  11
HETATM   11  C   UNL     1      -7.386  11.251  67.442  1.00  0.00    -0.115 C  
HETATM   12  H   UNL     1      -6.487  11.370  69.131  1.00  0.00     0.000 HD 
HETATM   13  O   UNL     1      -7.756  12.384  67.796  1.00  0.00    -0.116 OA 
HETATM   14  N   UNL     1      -6.525  10.723  68.344  1.00  0.00    -0.054 N  
BRANCH  14  15
HETATM   15  C   UNL     1      -5.626   9.609  68.662  1.00  0.00    -0.036 C  
HETATM   16  C   UNL     1      -6.883   7.328  69.188  1.00  0.00    -0.061 C  
HETATM   17  C   UNL     1      -5.989   8.178  68.221  1.00  0.00    -0.041 C  
HETATM   18  C   UNL     1      -8.367   7.598  68.934  1.00  0.00    -0.129 C  
HETATM   19  C   UNL     1      -8.812   8.962  69.438  1.00  0.00    -0.143 C  
HETATM   20  C   UNL     1      -8.079   9.460  70.702  1.00  0.00    -0.197 C  
HETATM   21  C   UNL     1      -6.637   8.942  70.933  1.00  0.00    -0.061 C  
HETATM   22  N   UNL     1      -6.527   7.523  70.606  1.00  0.00    -0.038 NA 
HETATM   23  C   UNL     1      -5.469   9.627  70.192  1.00  0.00    -0.040 C  
HETATM   24  C   UNL     1      -7.276   6.689  71.553  1.00  0.00    -0.082 C  
ENDBRANCH  14  15
ENDBRANCH   4  11
TORSDOF 2
ENDMDL
MODEL      249
REMARK 921   NORMALIZED FREE ENERGY PREDICTED BY IDOCK:   -2.23 KCAL/MOL
REMARK 922        TOTAL FREE ENERGY PREDICTED BY IDOCK:   -3.21 KCAL/MOL
REMARK 923 INTER-LIGAND FREE ENERGY PREDICTED BY IDOCK:   -2.37 KCAL/MOL
REMARK 924 INTRA-LIGAND FREE ENERGY PREDICTED BY IDOCK:   -0.84 KCAL/MOL
REMARK 927      BINDING AFFINITY PREDICTED BY RF-SCORE:    0.00 PKD
ROOT
HETATM    1  C   UNL     1     -10.948   7.467  67.471  1.00  0.00    -0.106 C  
HETATM    2  N   UNL     1      -9.841   7.787  68.343  1.00  0.00    -0.164 NA 
HETATM    3  N   UNL     1      -8.602   7.579  67.911  1.00  0.00    -0.122 NA 
HETATM    4  C   UNL     1      -7.823   7.684  69.012  1.00  0.00    -0.119 A  
HETATM    5  C   UNL     1      -8.591   8.197  70.107  1.00  0.00    -0.129 A  
HETATM    6  C   UNL     1      -9.481   8.903  72.262  1.00  0.00    -0.083 A  
HETATM    7  C   UNL     1      -9.915   8.207  69.639  1.00  0.00    -0.193 A  
HETATM    8  C   UNL     1     -10.782   8.882  71.759  1.00  0.00    -0.432 A  
HETATM    9  C   UNL     1      -8.382   8.551  71.457  1.00  0.00    -0.210 A  
HETATM   10  C   UNL     1     -11.022   8.528  70.434  1.00  0.00    -0.254 A  
ENDROOT
BRANCH   4  11
HETATM   11  C   UNL     1      -6.493   7.083  68.890  1.00  0.00    -0.029 C  
HETATM   12  H   UNL     1      -5.139   5.746  68.654  1.00  0.00     0.000 HD 
HETATM   13  O   UNL     1      -5.485   7.753  69.176  1.00  0.00    -0.022 OA 
HETATM   14  N   UNL     1      -6.145   5.831  68.509  1.00  0.00    -0.023 N  
BRANCH  14  15
HETATM   15  C   UNL     1      -6.611   4.547  67.976  1.00  0.00    -0.043 C  
HETATM   16  C   UNL     1      -8.308   3.271  69.573  1.00  0.00    -0.059 C  
HETATM   17  C   UNL     1      -8.051   4.076  68.253  1.00  0.00    -0.081 C  
HETATM   18  C   UNL     1      -8.576   4.218  70.744  1.00  0.00    -0.112 C  
HETATM   19  C   UNL     1      -7.322   4.937  71.219  1.00  0.00    -0.069 C  
HETATM   20  C   UNL     1      -6.017   4.124  71.085  1.00  0.00    -0.014 C  
HETATM   21  C   UNL     1      -5.962   3.052  69.968  1.00  0.00    -0.023 C  
HETATM   22  N   UNL     1      -7.222   2.320  69.876  1.00  0.00    -0.033 NA 
HETATM   23  C   UNL     1      -5.635   3.492  68.525  1.00  0.00    -0.018 C  
HETATM   24  C   UNL     1      -7.448   1.478  71.057  1.00  0.00    -0.033 C  
ENDBRANCH  14  15
ENDBRANCH   4  11
TORSDOF 2
ENDMDL
MODEL      250
REMARK 921   NORMALIZED FREE ENERGY PREDICTED BY IDOCK:   -1.79 KCAL/MOL
REMARK 922        TOTAL FREE ENERGY PREDICTED BY IDOCK:   -2.73 KCAL/MOL
REMARK 923 INTER-LIGAND FREE ENERGY PREDICTED BY IDOCK:   -2.33 KCAL/MOL
REMARK 924 INTRA-LIGAND FREE ENERGY PREDICTED BY IDOCK:   -0.39 KCAL/MOL
REMARK 927      BINDING AFFINITY PREDICTED BY RF-SCORE:    0.00 PKD
ROOT
HETATM    1  C   UNL     1     -12.398  12.119  63.364  1.00  0.00    -0.538 C  
HETATM    2  N   UNL     1     -11.458  11.550  64.304  1.00  0.00    -0.252 NA 
HETATM    3  N   UNL     1     -11.612  11.803  65.599  1.00  0.00    -0.291 NA 
HETATM    4  C   UNL     1     -10.456  11.403  66.176  1.00  0.00    -0.255 A  
HETATM    5  C   UNL     1      -9.663  10.677  65.230  1.00  0.00    -0.315 A  
HETATM    6  C   UNL     1      -7.925   9.514  63.981  1.00  0.00    -0.141 A  
HETATM    7  C   UNL     1     -10.334  10.836  64.007  1.00  0.00    -0.286 A  
HETATM    8  C   UNL     1      -8.617   9.711  62.786  1.00  0.00    -0.204 A  
HETATM    9  C   UNL     1      -8.425  10.000  65.203  1.00  0.00    -0.160 A  
HETATM   10  C   UNL     1      -9.837  10.382  62.779  1.00  0.00    -0.115 A  
ENDROOT
BRANCH   4  11
HETATM   11  C   UNL     1     -10.204  11.958  67.508  1.00  0.00    -0.196 C  
HETATM   12  H   UNL     1      -9.242  12.529  69.066  1.00  0.00     0.000 HD 
HETATM   13  O   UNL     1     -11.159  12.180  68.274  1.00  0.00    -0.212 OA 
HETATM   14  N   UNL     1      -9.029  12.278  68.101  1.00  0.00    -0.189 N  
BRANCH  14  15
HETATM   15  C   UNL     1      -7.579  12.415  67.933  1.00  0.00    -0.130 C  
HETATM   16  C   UNL     1      -6.243  10.137  68.231  1.00  0.00    -0.049 C  
HETATM   17  C   UNL     1      -6.769  11.274  67.288  1.00  0.00    -0.104 C  
HETATM   18  C   UNL     1      -7.303   9.050  68.413  1.00  0.00    -0.078 C  
HETATM   19  C   UNL     1      -8.455   9.494  69.301  1.00  0.00    -0.139 C  
HETATM   20  C   UNL     1      -8.069  10.479  70.425  1.00  0.00     0.975 C  
HETATM   21  C   UNL     1      -6.841  11.390  70.175  1.00  0.00     0.307 C  
HETATM   22  N   UNL     1      -5.761  10.654  69.525  1.00  0.00    -0.038 NA 
HETATM   23  C   UNL     1      -7.023  12.677  69.343  1.00  0.00     0.108 C  
HETATM   24  C   UNL     1      -5.179   9.643  70.417  1.00  0.00    -0.032 C  
ENDBRANCH  14  15
ENDBRANCH   4  11
TORSDOF 2
ENDMDL
MODEL      251
REMARK 921   NORMALIZED FREE ENERGY PREDICTED BY IDOCK:   -1.76 KCAL/MOL
REMARK 922        TOTAL FREE ENERGY PREDICTED BY IDOCK:   -2.69 KCAL/MOL
REMARK 923 INTER-LIGAND FREE ENERGY PREDICTED BY IDOCK:   -2.36 KCAL/MOL
REMARK 924 INTRA-LIGAND FREE ENERGY PREDICTED BY IDOCK:   -0.32 KCAL/MOL
REMARK 927      BINDING AFFINITY PREDICTED BY RF-SCORE:    0.00 PKD
ROOT
HETATM    1  C   UNL     1     -10.416   6.346  66.639  1.00  0.00    -0.170 C  
HETATM    2  N   UNL     1      -9.540   5.198  66.694  1.00  0.00    -0.142 NA 
HETATM    3  N   UNL     1      -9.294   4.632  67.871  1.00  0.00    -0.127 NA 
HETATM    4  C   UNL     1      -8.246   3.805  67.653  1.00  0.00    -0.089 A  
HETATM    5  C   UNL     1      -7.993   3.697  66.247  1.00  0.00    -0.089 A  
HETATM    6  C   UNL     1      -7.101   3.296  64.016  1.00  0.00    -0.049 A  
HETATM    7  C   UNL     1      -8.832   4.658  65.660  1.00  0.00    -0.131 A  
HETATM    8  C   UNL     1      -7.939   4.273  63.478  1.00  0.00    -0.085 A  
HETATM    9  C   UNL     1      -7.106   3.007  65.393  1.00  0.00    -0.061 A  
HETATM   10  C   UNL     1      -8.820   4.977  64.296  1.00  0.00    -0.066 A  
ENDROOT
BRANCH   4  11
HETATM   11  C   UNL     1      -7.519   3.396  68.856  1.00  0.00    -0.049 C  
HETATM   12  H   UNL     1      -6.766   3.480  70.617  1.00  0.00     0.000 HD 
HETATM   13  O   UNL     1      -6.819   2.368  68.833  1.00  0.00    -0.036 OA 
HETATM   14  N   UNL     1      -7.458   3.992  70.070  1.00  0.00    -0.045 N  
BRANCH  14  15
HETATM   15  C   UNL     1      -7.971   5.067  70.926  1.00  0.00    -0.092 C  
HETATM   16  C   UNL     1      -7.980   4.468  73.515  1.00  0.00    -0.095 C  
HETATM   17  C   UNL     1      -7.368   5.287  72.327  1.00  0.00    -0.093 C  
HETATM   18  C   UNL     1      -7.310   3.098  73.631  1.00  0.00    -0.054 C  
HETATM   19  C   UNL     1      -7.728   2.141  72.525  1.00  0.00    -0.052 C  
HETATM   20  C   UNL     1      -9.177   2.321  72.024  1.00  0.00    -0.148 C  
HETATM   21  C   UNL     1      -9.799   3.734  72.152  1.00  0.00    -0.168 C  
HETATM   22  N   UNL     1      -9.448   4.352  73.426  1.00  0.00    -0.117 NA 
HETATM   23  C   UNL     1      -9.477   4.793  71.076  1.00  0.00    -0.227 C  
HETATM   24  C   UNL     1     -10.084   3.665  74.557  1.00  0.00    -0.175 C  
ENDBRANCH  14  15
ENDBRANCH   4  11
TORSDOF 2
ENDMDL
MODEL      252
REMARK 921   NORMALIZED FREE ENERGY PREDICTED BY IDOCK:    2.05 KCAL/MOL
REMARK 922        TOTAL FREE ENERGY PREDICTED BY IDOCK:    1.57 KCAL/MOL
REMARK 923 INTER-LIGAND FREE ENERGY PREDICTED BY IDOCK:    1.27 KCAL/MOL
REMARK 924 INTRA-LIGAND FREE ENERGY PREDICTED BY IDOCK:    0.30 KCAL/MOL
REMARK 927      BINDING AFFINITY PREDICTED BY RF-SCORE:    0.00 PKD
ROOT
HETATM    1  C   UNL     1     -12.139   6.965  66.858  1.00  0.00     3.613 C  
HETATM    2  N   UNL     1     -10.802   6.696  67.338  1.00  0.00    -0.330 NA 
HETATM    3  N   UNL     1     -10.127   5.675  66.820  1.00  0.00    -0.176 NA 
HETATM    4  C   UNL     1      -9.071   5.497  67.646  1.00  0.00    -0.107 A  
HETATM    5  C   UNL     1      -8.980   6.590  68.567  1.00  0.00    -0.126 A  
HETATM    6  C   UNL     1      -8.488   8.124  70.394  1.00  0.00    -0.129 A  
HETATM    7  C   UNL     1     -10.157   7.327  68.361  1.00  0.00    -0.171 A  
HETATM    8  C   UNL     1      -9.678   8.817  70.165  1.00  0.00    -0.188 A  
HETATM    9  C   UNL     1      -8.134   7.006  69.617  1.00  0.00    -0.130 A  
HETATM   10  C   UNL     1     -10.538   8.425  69.143  1.00  0.00    -0.177 A  
ENDROOT
BRANCH   4  11
HETATM   11  C   UNL     1      -8.420   4.188  67.545  1.00  0.00    -0.099 C  
HETATM   12  H   UNL     1      -7.750   2.469  68.066  1.00  0.00     0.000 HD 
HETATM   13  O   UNL     1      -7.764   3.903  66.528  1.00  0.00    -0.087 OA 
HETATM   14  N   UNL     1      -8.393   3.169  68.436  1.00  0.00    -0.072 N  
BRANCH  14  15
HETATM   15  C   UNL     1      -8.901   2.652  69.711  1.00  0.00    -0.083 C  
HETATM   16  C   UNL     1      -7.933   3.908  71.843  1.00  0.00    -0.075 C  
HETATM   17  C   UNL     1      -9.141   3.615  70.889  1.00  0.00    -0.180 C  
HETATM   18  C   UNL     1      -7.081   5.058  71.302  1.00  0.00    -0.056 C  
HETATM   19  C   UNL     1      -6.254   4.658  70.090  1.00  0.00    -0.026 C  
HETATM   20  C   UNL     1      -5.775   3.191  70.083  1.00  0.00    -0.017 C  
HETATM   21  C   UNL     1      -6.644   2.160  70.846  1.00  0.00    -0.024 C  
HETATM   22  N   UNL     1      -7.121   2.706  72.113  1.00  0.00    -0.033 NA 
HETATM   23  C   UNL     1      -7.894   1.577  70.152  1.00  0.00    -0.046 C  
HETATM   24  C   UNL     1      -6.023   2.903  73.067  1.00  0.00    -0.008 C  
ENDBRANCH  14  15
ENDBRANCH   4  11
TORSDOF 2
ENDMDL
MODEL      253
REMARK 921   NORMALIZED FREE ENERGY PREDICTED BY IDOCK:    2.75 KCAL/MOL
REMARK 922        TOTAL FREE ENERGY PREDICTED BY IDOCK:    2.35 KCAL/MOL
REMARK 923 INTER-LIGAND FREE ENERGY PREDICTED BY IDOCK:    2.38 KCAL/MOL
REMARK 924 INTRA-LIGAND FREE ENERGY PREDICTED BY IDOCK:   -0.03 KCAL/MOL
REMARK 927      BINDING AFFINITY PREDICTED BY RF-SCORE:    0.00 PKD
ROOT
HETATM    1  C   UNL     1     -12.286   6.732  66.629  1.00  0.00     4.659 C  
HETATM    2  N   UNL     1     -10.921   6.488  67.036  1.00  0.00    -0.403 NA 
HETATM    3  N   UNL     1     -10.260   5.471  66.493  1.00  0.00    -0.214 NA 
HETATM    4  C   UNL     1      -9.157   5.318  67.261  1.00  0.00    -0.112 A  
HETATM    5  C   UNL     1      -9.032   6.423  68.164  1.00  0.00    -0.116 A  
HETATM    6  C   UNL     1      -8.463   7.986  69.943  1.00  0.00    -0.126 A  
HETATM    7  C   UNL     1     -10.229   7.141  68.015  1.00  0.00    -0.185 A  
HETATM    8  C   UNL     1      -9.674   8.659  69.773  1.00  0.00    -0.176 A  
HETATM    9  C   UNL     1      -8.135   6.864  69.160  1.00  0.00    -0.121 A  
HETATM   10  C   UNL     1     -10.583   8.243  68.804  1.00  0.00    -0.152 A  
ENDROOT
BRANCH   4  11
HETATM   11  C   UNL     1      -8.494   4.018  67.139  1.00  0.00    -0.100 C  
HETATM   12  H   UNL     1      -7.146   2.719  66.722  1.00  0.00     0.000 HD 
HETATM   13  O   UNL     1      -9.143   2.974  67.328  1.00  0.00    -0.148 OA 
HETATM   14  N   UNL     1      -7.209   3.732  66.818  1.00  0.00    -0.067 N  
BRANCH  14  15
HETATM   15  C   UNL     1      -5.873   4.273  66.550  1.00  0.00    -0.023 C  
HETATM   16  C   UNL     1      -5.836   6.185  64.706  1.00  0.00    -0.025 C  
HETATM   17  C   UNL     1      -5.701   5.765  66.210  1.00  0.00    -0.017 C  
HETATM   18  C   UNL     1      -7.298   6.448  64.344  1.00  0.00    -0.075 C  
HETATM   19  C   UNL     1      -8.119   5.172  64.244  1.00  0.00    -0.125 C  
HETATM   20  C   UNL     1      -7.343   3.938  63.735  1.00  0.00    -0.051 C  
HETATM   21  C   UNL     1      -5.818   3.902  64.004  1.00  0.00    -0.014 C  
HETATM   22  N   UNL     1      -5.212   5.212  63.789  1.00  0.00    -0.009 NA 
HETATM   23  C   UNL     1      -5.314   3.436  65.387  1.00  0.00    -0.009 C  
HETATM   24  C   UNL     1      -5.235   5.595  62.372  1.00  0.00    -0.013 C  
ENDBRANCH  14  15
ENDBRANCH   4  11
TORSDOF 2
ENDMDL
MODEL      254
REMARK 921   NORMALIZED FREE ENERGY PREDICTED BY IDOCK:    5.22 KCAL/MOL
REMARK 922        TOTAL FREE ENERGY PREDICTED BY IDOCK:    5.11 KCAL/MOL
REMARK 923 INTER-LIGAND FREE ENERGY PREDICTED BY IDOCK:    4.20 KCAL/MOL
REMARK 924 INTRA-LIGAND FREE ENERGY PREDICTED BY IDOCK:    0.90 KCAL/MOL
REMARK 927      BINDING AFFINITY PREDICTED BY RF-SCORE:    0.00 PKD
ROOT
HETATM    1  C   UNL     1     -12.461   5.796  65.752  1.00  0.00     5.030 C  
HETATM    2  N   UNL     1     -11.272   5.638  66.558  1.00  0.00     0.062 NA 
HETATM    3  N   UNL     1     -10.435   4.644  66.281  1.00  0.00    -0.267 NA 
HETATM    4  C   UNL     1      -9.609   4.572  67.349  1.00  0.00    -0.176 A  
HETATM    5  C   UNL     1      -9.809   5.706  68.201  1.00  0.00    -0.170 A  
HETATM    6  C   UNL     1      -9.871   7.346  70.001  1.00  0.00    -0.179 A  
HETATM    7  C   UNL     1     -10.937   6.354  67.670  1.00  0.00    -0.349 A  
HETATM    8  C   UNL     1     -11.002   7.947  69.448  1.00  0.00    -0.031 A  
HETATM    9  C   UNL     1      -9.274   6.223  69.400  1.00  0.00    -0.139 A  
HETATM   10  C   UNL     1     -11.559   7.456  68.270  1.00  0.00     0.994 A  
ENDROOT
BRANCH   4  11
HETATM   11  C   UNL     1      -8.883   3.307  67.486  1.00  0.00    -0.133 C  
HETATM   12  H   UNL     1      -7.413   2.085  67.633  1.00  0.00     0.000 HD 
HETATM   13  O   UNL     1      -9.495   2.230  67.376  1.00  0.00    -0.118 OA 
HETATM   14  N   UNL     1      -7.565   3.090  67.712  1.00  0.00    -0.057 N  
BRANCH  14  15
HETATM   15  C   UNL     1      -6.267   3.697  68.021  1.00  0.00    -0.032 C  
HETATM   16  C   UNL     1      -5.261   2.948  70.364  1.00  0.00    -0.004 C  
HETATM   17  C   UNL     1      -5.208   2.892  68.798  1.00  0.00    -0.012 C  
HETATM   18  C   UNL     1      -6.219   1.889  70.913  1.00  0.00    -0.019 C  
HETATM   19  C   UNL     1      -7.680   2.238  70.676  1.00  0.00    -0.039 C  
HETATM   20  C   UNL     1      -8.002   3.747  70.702  1.00  0.00    -0.055 C  
HETATM   21  C   UNL     1      -6.862   4.720  70.307  1.00  0.00    -0.037 C  
HETATM   22  N   UNL     1      -5.585   4.295  70.871  1.00  0.00    -0.011 NA 
HETATM   23  C   UNL     1      -6.587   4.978  68.810  1.00  0.00    -0.048 C  
HETATM   24  C   UNL     1      -5.567   4.427  72.333  1.00  0.00    -0.004 C  
ENDBRANCH  14  15
ENDBRANCH   4  11
TORSDOF 2
ENDMDL
MODEL      255
REMARK 921   NORMALIZED FREE ENERGY PREDICTED BY IDOCK:    6.77 KCAL/MOL
REMARK 922        TOTAL FREE ENERGY PREDICTED BY IDOCK:    6.84 KCAL/MOL
REMARK 923 INTER-LIGAND FREE ENERGY PREDICTED BY IDOCK:    2.69 KCAL/MOL
REMARK 924 INTRA-LIGAND FREE ENERGY PREDICTED BY IDOCK:    4.15 KCAL/MOL
REMARK 927      BINDING AFFINITY PREDICTED BY RF-SCORE:    0.00 PKD
ROOT
HETATM    1  C   UNL     1      -5.764  17.628  67.727  1.00  0.00    -0.137 C  
HETATM    2  N   UNL     1      -6.596  16.445  67.744  1.00  0.00    -0.128 NA 
HETATM    3  N   UNL     1      -7.820  16.513  67.232  1.00  0.00    -0.146 NA 
HETATM    4  C   UNL     1      -8.439  15.385  67.647  1.00  0.00    -0.162 A  
HETATM    5  C   UNL     1      -7.486  14.495  68.242  1.00  0.00    -0.120 A  
HETATM    6  C   UNL     1      -6.302  12.732  69.435  1.00  0.00    -0.110 A  
HETATM    7  C   UNL     1      -6.303  15.247  68.326  1.00  0.00    -0.114 A  
HETATM    8  C   UNL     1      -5.153  13.521  69.511  1.00  0.00    -0.083 A  
HETATM    9  C   UNL     1      -7.474  13.208  68.819  1.00  0.00    -0.050 A  
HETATM   10  C   UNL     1      -5.136  14.799  68.959  1.00  0.00    -0.090 A  
ENDROOT
BRANCH   4  11
HETATM   11  C   UNL     1      -9.901  15.420  67.583  1.00  0.00    -0.220 C  
HETATM   12  H   UNL     1     -11.700  16.018  67.873  1.00  0.00     0.000 HD 
HETATM   13  O   UNL     1     -10.522  14.440  67.135  1.00  0.00    -0.261 OA 
HETATM   14  N   UNL     1     -10.758  16.396  67.968  1.00  0.00    -0.324 N  
BRANCH  14  15
HETATM   15  C   UNL     1     -10.895  17.769  68.463  1.00  0.00    -0.007 C  
HETATM   16  C   UNL     1     -11.230  19.576  66.545  1.00  0.00     0.165 C  
HETATM   17  C   UNL     1     -11.829  18.758  67.739  1.00  0.00     2.134 C  
HETATM   18  C   UNL     1     -11.336  18.787  65.238  1.00  0.00     1.548 C  
HETATM   19  C   UNL     1     -10.352  17.630  65.168  1.00  0.00     0.606 C  
HETATM   20  C   UNL     1      -9.009  17.873  65.888  1.00  0.00     0.145 C  
HETATM   21  C   UNL     1      -9.016  18.859  67.083  1.00  0.00    -0.284 C  
HETATM   22  N   UNL     1      -9.849  20.025  66.802  1.00  0.00    -0.415 NA 
HETATM   23  C   UNL     1      -9.471  18.351  68.468  1.00  0.00    -0.355 C  
HETATM   24  C   UNL     1      -9.265  20.867  65.751  1.00  0.00     1.098 C  
ENDBRANCH  14  15
ENDBRANCH   4  11
TORSDOF 2
ENDMDL
