MODEL        1
REMARK 921   NORMALIZED FREE ENERGY PREDICTED BY IDOCK:   -7.49 KCAL/MOL
REMARK 922        TOTAL FREE ENERGY PREDICTED BY IDOCK:  -14.52 KCAL/MOL
REMARK 923 INTER-LIGAND FREE ENERGY PREDICTED BY IDOCK:  -11.87 KCAL/MOL
REMARK 924 INTRA-LIGAND FREE ENERGY PREDICTED BY IDOCK:   -2.65 KCAL/MOL
REMARK 927      BINDING AFFINITY PREDICTED BY RF-SCORE:    0.00 PKD
ROOT
HETATM    1  C   UNL     1      -7.646   7.858  66.136  1.00  0.00    -0.083 C  
HETATM    2  C   UNL     1      -6.317   8.486  66.386  1.00  0.00    -0.058 C  
HETATM    3  C   UNL     1      -7.121   8.047  67.624  1.00  0.00    -0.083 C  
HETATM    4  O   UNL     1      -7.307   9.154  68.567  1.00  0.00    -0.075 OA 
HETATM    5  C   UNL     1      -7.775   9.022  69.865  1.00  0.00    -0.076 C  
HETATM    6  N   UNL     1      -8.253   8.000  70.490  1.00  0.00    -0.115 NA 
HETATM    7  O   UNL     1      -7.836  10.231  70.468  1.00  0.00    -0.427 OA 
HETATM    8  H   UNL     1      -7.663   7.288  70.921  1.00  0.00     0.000 HD 
HETATM    9  H   UNL     1      -8.157  10.141  71.357  1.00  0.00     0.000 HD 
HETATM   10  C   UNL     1      -9.771   7.948  70.529  1.00  0.00    -0.174 C  
HETATM   11  C   UNL     1     -10.320   8.548  69.218  1.00  0.00    -0.221 C  
HETATM   12  N   UNL     1     -11.439  14.762  68.064  1.00  0.00    -0.318 NA 
HETATM   13  C   UNL     1     -11.071  15.907  67.487  1.00  0.00    -0.235 A  
HETATM   14  N   UNL     1     -10.357   9.954  69.100  1.00  0.00    -0.197 N  
HETATM   15  O   UNL     1     -10.594   7.819  68.255  1.00  0.00    -0.190 OA 
HETATM   16  C   UNL     1     -10.854  17.039  68.270  1.00  0.00    -0.341 A  
HETATM   17  C   UNL     1      -8.680   8.407  65.116  1.00  0.00    -0.118 C  
HETATM   18  C   UNL     1     -11.767  10.362  68.986  1.00  0.00    -0.096 C  
HETATM   19  C   UNL     1     -11.905  11.288  67.784  1.00  0.00    -0.084 C  
HETATM   20  O   UNL     1     -11.859  12.637  68.160  1.00  0.00    -0.329 OA 
HETATM   21  C   UNL     1     -10.716  10.870  66.988  1.00  0.00    -0.323 C  
HETATM   22  C   UNL     1      -9.617  10.451  67.901  1.00  0.00    -0.142 C  
HETATM   23  C   UNL     1     -11.613  13.651  67.308  1.00  0.00    -0.356 A  
HETATM   24  C   UNL     1     -10.447  18.237  67.693  1.00  0.00    -0.411 A  
HETATM   25  C   UNL     1     -11.436  13.694  65.887  1.00  0.00    -0.316 A  
HETATM   26  C   UNL     1     -10.250  18.282  66.320  1.00  0.00    -0.414 A  
HETATM   27  C   UNL     1     -11.570  12.563  64.847  1.00  0.00    -0.386 C  
HETATM   28  C   UNL     1      -8.659   9.830  64.492  1.00  0.00    -0.199 C  
HETATM   29  N   UNL     1     -11.056  14.869  65.313  1.00  0.00    -0.358 NA 
HETATM   30  C   UNL     1     -10.035  10.460  64.004  1.00  0.00    -0.305 C  
HETATM   31  C   UNL     1     -10.194  12.014  64.256  1.00  0.00    -0.347 C  
HETATM   32  C   UNL     1     -10.872  15.963  66.088  1.00  0.00    -0.208 A  
HETATM   33  C   UNL     1     -10.464  17.154  65.524  1.00  0.00    -0.158 A  
ENDROOT
BRANCH  10  34
HETATM   34  C   UNL     1     -10.628   7.929  71.890  1.00  0.00    -0.285 C  
HETATM   35  C   UNL     1      -9.657   8.177  73.077  1.00  0.00    -0.336 C  
HETATM   36  C   UNL     1     -11.221   6.495  72.092  1.00  0.00    -0.308 C  
HETATM   37  C   UNL     1     -11.832   8.865  72.157  1.00  0.00    -0.417 C  
ENDBRANCH  10  34
BRANCH  22  38
HETATM   38  C   UNL     1      -8.458  11.575  67.790  1.00  0.00    -0.137 C  
HETATM   39  H   UNL     1      -7.166  12.295  66.528  1.00  0.00     0.000 HD 
HETATM   40  O   UNL     1      -7.846  11.635  66.593  1.00  0.00    -0.149 OA 
BRANCH  38  41
HETATM   41  N   UNL     1      -8.032  12.273  68.800  1.00  0.00    -0.325 NA 
HETATM   42  H   UNL     1      -8.645  12.289  69.615  1.00  0.00     0.000 HD 
BRANCH  41  43
HETATM   43  C   UNL     1      -6.791  13.041  68.927  1.00  0.00    -0.099 C  
HETATM   44  C   UNL     1      -6.073  12.910  70.322  1.00  0.00    -0.068 C  
HETATM   45  C   UNL     1      -5.549  12.170  69.109  1.00  0.00    -0.066 C  
BRANCH  43  46
HETATM   46  C   UNL     1      -6.649  14.348  68.213  1.00  0.00    -0.116 C  
HETATM   47  H   UNL     1      -5.631  15.101  66.768  1.00  0.00     0.000 HD 
HETATM   48  O   UNL     1      -5.721  14.271  67.221  1.00  0.00    -0.292 OA 
BRANCH  46  49
HETATM   49  N   UNL     1      -7.304  15.384  68.569  1.00  0.00    -0.112 N  
HETATM   50  H   UNL     1      -8.257  15.272  68.915  1.00  0.00     0.000 HD 
BRANCH  49  51
HETATM   51  S   UNL     1      -6.671  16.859  68.487  1.00  0.00    -0.177 S  
HETATM   52  O   UNL     1      -7.451  17.757  69.312  1.00  0.00    -0.141 OA 
HETATM   53  O   UNL     1      -5.231  16.759  68.674  1.00  0.00    -0.119 OA 
BRANCH  51  54
HETATM   54  C   UNL     1      -6.843  17.419  66.754  1.00  0.00    -0.212 C  
HETATM   55  C   UNL     1      -6.563  18.829  66.512  1.00  0.00    -0.218 C  
HETATM   56  C   UNL     1      -5.524  17.803  66.055  1.00  0.00    -0.242 C  
ENDBRANCH  51  54
ENDBRANCH  49  51
ENDBRANCH  46  49
ENDBRANCH  43  46
BRANCH  44  57
HETATM   57  C   UNL     1      -5.179  13.942  70.882  1.00  0.00    -0.130 C  
HETATM   58  C   UNL     1      -5.492  14.860  71.825  1.00  0.00     0.043 C  
ENDBRANCH  44  57
ENDBRANCH  41  43
ENDBRANCH  38  41
ENDBRANCH  22  38
BRANCH  24  59
HETATM   59  O   UNL     1     -10.208  19.411  68.349  1.00  0.00    -0.405 OA 
HETATM   60  C   UNL     1      -9.752  20.516  67.574  1.00  0.00    -0.414 C  
ENDBRANCH  24  59
TORSDOF 10
ENDMDL
MODEL        2
REMARK 921   NORMALIZED FREE ENERGY PREDICTED BY IDOCK:   -7.12 KCAL/MOL
REMARK 922        TOTAL FREE ENERGY PREDICTED BY IDOCK:  -13.94 KCAL/MOL
REMARK 923 INTER-LIGAND FREE ENERGY PREDICTED BY IDOCK:  -10.92 KCAL/MOL
REMARK 924 INTRA-LIGAND FREE ENERGY PREDICTED BY IDOCK:   -3.02 KCAL/MOL
REMARK 927      BINDING AFFINITY PREDICTED BY RF-SCORE:    0.00 PKD
ROOT
HETATM    1  C   UNL     1     -11.308  12.713  64.056  1.00  0.00    -0.466 C  
HETATM    2  C   UNL     1     -12.459  11.971  64.645  1.00  0.00    -0.193 C  
HETATM    3  C   UNL     1     -12.149  13.357  65.241  1.00  0.00    -0.413 C  
HETATM    4  O   UNL     1     -11.957  13.290  66.693  1.00  0.00    -0.381 OA 
HETATM    5  C   UNL     1     -11.901  14.386  67.538  1.00  0.00    -0.386 C  
HETATM    6  N   UNL     1     -11.873  15.650  67.281  1.00  0.00     0.089 NA 
HETATM    7  O   UNL     1     -11.710  13.984  68.816  1.00  0.00    -0.308 OA 
HETATM    8  H   UNL     1     -12.713  16.193  67.080  1.00  0.00     0.000 HD 
HETATM    9  H   UNL     1     -11.671  14.736  69.396  1.00  0.00     0.000 HD 
HETATM   10  C   UNL     1     -10.482  16.260  67.306  1.00  0.00    -0.300 C  
HETATM   11  C   UNL     1      -9.472  15.209  66.800  1.00  0.00    -0.242 C  
HETATM   12  N   UNL     1      -6.599  10.692  70.341  1.00  0.00    -0.292 NA 
HETATM   13  C   UNL     1      -6.507   9.417  70.721  1.00  0.00    -0.086 A  
HETATM   14  N   UNL     1      -9.062  14.201  67.699  1.00  0.00    -0.186 N  
HETATM   15  O   UNL     1      -9.138  15.176  65.608  1.00  0.00    -0.099 OA 
HETATM   16  C   UNL     1      -6.641   9.083  72.067  1.00  0.00     0.041 A  
HETATM   17  C   UNL     1      -9.937  12.061  63.733  1.00  0.00    -0.368 C  
HETATM   18  C   UNL     1      -7.617  14.363  67.934  1.00  0.00    -0.151 C  
HETATM   19  C   UNL     1      -6.940  13.015  67.724  1.00  0.00    -0.143 C  
HETATM   20  O   UNL     1      -6.753  12.334  68.934  1.00  0.00    -0.084 OA 
HETATM   21  C   UNL     1      -7.938  12.352  66.837  1.00  0.00    -0.041 C  
HETATM   22  C   UNL     1      -9.309  12.824  67.173  1.00  0.00    -0.216 C  
HETATM   23  C   UNL     1      -6.506  11.013  69.028  1.00  0.00    -0.056 A  
HETATM   24  C   UNL     1      -6.572   7.757  72.483  1.00  0.00    -0.065 A  
HETATM   25  C   UNL     1      -6.280  10.003  68.039  1.00  0.00    -0.053 A  
HETATM   26  C   UNL     1      -6.378   6.769  71.528  1.00  0.00    -0.042 A  
HETATM   27  C   UNL     1      -6.154  10.140  66.507  1.00  0.00    -0.067 C  
HETATM   28  C   UNL     1      -9.440  10.693  64.280  1.00  0.00    -0.321 C  
HETATM   29  N   UNL     1      -6.193   8.705  68.441  1.00  0.00    -0.053 NA 
HETATM   30  C   UNL     1      -7.874  10.453  64.402  1.00  0.00    -0.064 C  
HETATM   31  C   UNL     1      -7.412   9.629  65.671  1.00  0.00    -0.101 C  
HETATM   32  C   UNL     1      -6.304   8.404  69.755  1.00  0.00    -0.035 A  
HETATM   33  C   UNL     1      -6.241   7.091  70.175  1.00  0.00    -0.027 A  
ENDROOT
BRANCH  10  34
HETATM   34  C   UNL     1     -10.053  17.461  68.285  1.00  0.00    -0.339 C  
HETATM   35  C   UNL     1     -10.659  17.184  69.689  1.00  0.00     0.008 C  
HETATM   36  C   UNL     1     -10.707  18.787  67.772  1.00  0.00    -0.406 C  
HETATM   37  C   UNL     1      -8.581  17.861  68.558  1.00  0.00    -0.298 C  
ENDBRANCH  10  34
BRANCH  22  38
HETATM   38  C   UNL     1     -10.084  11.578  67.854  1.00  0.00    -0.189 C  
HETATM   39  H   UNL     1     -10.988   9.922  67.385  1.00  0.00     0.000 HD 
HETATM   40  O   UNL     1     -10.534  10.653  66.985  1.00  0.00    -0.220 OA 
BRANCH  38  41
HETATM   41  N   UNL     1     -10.390  11.521  69.115  1.00  0.00    -0.405 NA 
HETATM   42  H   UNL     1      -9.928  12.207  69.712  1.00  0.00     0.000 HD 
BRANCH  41  43
HETATM   43  C   UNL     1     -11.308  10.606  69.797  1.00  0.00    -0.301 C  
HETATM   44  C   UNL     1     -12.322  11.300  70.782  1.00  0.00    -0.495 C  
HETATM   45  C   UNL     1     -12.773  10.816  69.420  1.00  0.00     0.368 C  
BRANCH  43  46
HETATM   46  C   UNL     1     -10.853   9.226  70.155  1.00  0.00    -0.242 C  
HETATM   47  H   UNL     1      -9.577   8.383  71.317  1.00  0.00     0.000 HD 
HETATM   48  O   UNL     1      -9.865   9.259  71.089  1.00  0.00    -0.285 OA 
BRANCH  46  49
HETATM   49  N   UNL     1     -11.332   8.190  69.583  1.00  0.00    -0.438 N  
HETATM   50  H   UNL     1     -12.321   7.970  69.704  1.00  0.00     0.000 HD 
BRANCH  49  51
HETATM   51  S   UNL     1     -10.422   7.222  68.679  1.00  0.00    -0.174 S  
HETATM   52  O   UNL     1     -11.278   6.434  67.818  1.00  0.00    -0.323 OA 
HETATM   53  O   UNL     1      -9.332   8.002  68.112  1.00  0.00    -0.140 OA 
BRANCH  51  54
HETATM   54  C   UNL     1      -9.577   6.066  69.817  1.00  0.00    -0.150 C  
HETATM   55  C   UNL     1     -10.447   5.241  70.646  1.00  0.00    -0.306 C  
HETATM   56  C   UNL     1      -9.731   4.572  69.470  1.00  0.00    -0.282 C  
ENDBRANCH  51  54
ENDBRANCH  49  51
ENDBRANCH  46  49
ENDBRANCH  43  46
BRANCH  44  57
HETATM   57  C   UNL     1     -12.932  10.619  71.941  1.00  0.00    -0.542 C  
HETATM   58  C   UNL     1     -13.659   9.477  71.920  1.00  0.00    -0.468 C  
ENDBRANCH  44  57
ENDBRANCH  41  43
ENDBRANCH  38  41
ENDBRANCH  22  38
BRANCH  24  59
HETATM   59  O   UNL     1      -6.683   7.305  73.767  1.00  0.00    -0.072 OA 
HETATM   60  C   UNL     1      -7.944   6.784  74.173  1.00  0.00    -0.112 C  
ENDBRANCH  24  59
TORSDOF 10
ENDMDL
MODEL        3
REMARK 921   NORMALIZED FREE ENERGY PREDICTED BY IDOCK:   -6.50 KCAL/MOL
REMARK 922        TOTAL FREE ENERGY PREDICTED BY IDOCK:  -12.95 KCAL/MOL
REMARK 923 INTER-LIGAND FREE ENERGY PREDICTED BY IDOCK:  -10.46 KCAL/MOL
REMARK 924 INTRA-LIGAND FREE ENERGY PREDICTED BY IDOCK:   -2.49 KCAL/MOL
REMARK 927      BINDING AFFINITY PREDICTED BY RF-SCORE:    0.00 PKD
ROOT
HETATM    1  C   UNL     1     -10.688   5.826  70.544  1.00  0.00    -0.361 C  
HETATM    2  C   UNL     1     -11.822   6.782  70.402  1.00  0.00    -0.395 C  
HETATM    3  C   UNL     1     -11.246   6.193  69.102  1.00  0.00    -0.339 C  
HETATM    4  O   UNL     1     -10.845   7.246  68.163  1.00  0.00    -0.161 OA 
HETATM    5  C   UNL     1     -10.517   7.041  66.833  1.00  0.00    -0.286 C  
HETATM    6  N   UNL     1     -10.363   5.952  66.159  1.00  0.00    -0.435 NA 
HETATM    7  O   UNL     1     -10.186   8.214  66.245  1.00  0.00    -0.475 OA 
HETATM    8  H   UNL     1     -11.145   5.431  65.763  1.00  0.00     0.000 HD 
HETATM    9  H   UNL     1      -9.961   8.074  65.333  1.00  0.00     0.000 HD 
HETATM   10  C   UNL     1      -8.916   5.513  66.007  1.00  0.00    -0.152 C  
HETATM   11  C   UNL     1      -8.143   5.908  67.281  1.00  0.00    -0.102 C  
HETATM   12  N   UNL     1      -5.379  11.583  68.440  1.00  0.00    -0.042 NA 
HETATM   13  C   UNL     1      -5.397  12.764  69.059  1.00  0.00    -0.068 A  
HETATM   14  N   UNL     1      -7.735   7.252  67.417  1.00  0.00    -0.108 N  
HETATM   15  O   UNL     1      -8.002   5.102  68.211  1.00  0.00    -0.087 OA 
HETATM   16  C   UNL     1      -5.367  13.940  68.312  1.00  0.00    -0.111 A  
HETATM   17  C   UNL     1      -9.480   6.056  71.491  1.00  0.00    -0.164 C  
HETATM   18  C   UNL     1      -6.263   7.281  67.432  1.00  0.00    -0.050 C  
HETATM   19  C   UNL     1      -5.809   8.099  68.634  1.00  0.00    -0.040 C  
HETATM   20  O   UNL     1      -5.530   9.426  68.282  1.00  0.00    -0.037 OA 
HETATM   21  C   UNL     1      -7.008   7.974  69.509  1.00  0.00    -0.050 C  
HETATM   22  C   UNL     1      -8.238   7.883  68.675  1.00  0.00    -0.127 C  
HETATM   23  C   UNL     1      -5.447  10.441  69.165  1.00  0.00    -0.038 A  
HETATM   24  C   UNL     1      -5.410  15.183  68.935  1.00  0.00    -0.095 A  
HETATM   25  C   UNL     1      -5.509  10.480  70.595  1.00  0.00    -0.085 A  
HETATM   26  C   UNL     1      -5.495  15.231  70.320  1.00  0.00    -0.129 A  
HETATM   27  C   UNL     1      -5.602   9.318  71.606  1.00  0.00    -0.072 C  
HETATM   28  C   UNL     1      -9.089   7.415  72.136  1.00  0.00    -0.156 C  
HETATM   29  N   UNL     1      -5.533  11.693  71.213  1.00  0.00    -0.355 NA 
HETATM   30  C   UNL     1      -7.568   7.654  72.530  1.00  0.00    -0.102 C  
HETATM   31  C   UNL     1      -7.030   9.122  72.290  1.00  0.00     0.310 C  
HETATM   32  C   UNL     1      -5.479  12.823  70.470  1.00  0.00    -0.159 A  
HETATM   33  C   UNL     1      -5.525  14.059  71.080  1.00  0.00    -0.181 A  
ENDROOT
BRANCH  10  34
HETATM   34  C   UNL     1      -8.189   5.320  64.585  1.00  0.00    -0.134 C  
HETATM   35  C   UNL     1      -6.833   4.602  64.828  1.00  0.00    -0.045 C  
HETATM   36  C   UNL     1      -7.846   6.731  64.000  1.00  0.00    -0.106 C  
HETATM   37  C   UNL     1      -8.829   4.573  63.389  1.00  0.00    -0.132 C  
ENDBRANCH  10  34
BRANCH  22  38
HETATM   38  C   UNL     1      -9.057   9.262  68.888  1.00  0.00    -0.139 C  
HETATM   39  H   UNL     1     -10.186  10.165  70.188  1.00  0.00     0.000 HD 
HETATM   40  O   UNL     1      -9.706   9.355  70.063  1.00  0.00    -0.193 OA 
BRANCH  38  41
HETATM   41  N   UNL     1      -9.213  10.159  67.961  1.00  0.00    -0.137 NA 
HETATM   42  H   UNL     1      -8.606  10.061  67.146  1.00  0.00     0.000 HD 
BRANCH  41  43
HETATM   43  C   UNL     1     -10.141  11.290  67.925  1.00  0.00    -0.178 C  
HETATM   44  C   UNL     1     -11.224  11.221  66.783  1.00  0.00    -0.265 C  
HETATM   45  C   UNL     1     -11.589  10.903  68.218  1.00  0.00    -0.335 C  
BRANCH  43  46
HETATM   46  C   UNL     1      -9.670  12.652  68.329  1.00  0.00    -0.216 C  
HETATM   47  H   UNL     1      -8.227  13.856  67.933  1.00  0.00     0.000 HD 
HETATM   48  O   UNL     1      -8.526  12.992  67.677  1.00  0.00    -0.161 OA 
BRANCH  46  49
HETATM   49  N   UNL     1     -10.278  13.338  69.217  1.00  0.00    -0.358 N  
HETATM   50  H   UNL     1     -10.646  12.866  70.043  1.00  0.00     0.000 HD 
BRANCH  49  51
HETATM   51  S   UNL     1     -10.481  14.926  69.072  1.00  0.00    -0.251 S  
HETATM   52  O   UNL     1      -9.350  15.606  69.668  1.00  0.00    -0.280 OA 
HETATM   53  O   UNL     1     -10.873  15.223  67.702  1.00  0.00    -0.279 OA 
BRANCH  51  54
HETATM   54  C   UNL     1     -11.963  15.367  70.049  1.00  0.00    -0.356 C  
HETATM   55  C   UNL     1     -12.268  14.489  71.171  1.00  0.00    -0.411 C  
HETATM   56  C   UNL     1     -11.681  15.869  71.479  1.00  0.00    -0.545 C  
ENDBRANCH  51  54
ENDBRANCH  49  51
ENDBRANCH  46  49
ENDBRANCH  43  46
BRANCH  44  57
HETATM   57  C   UNL     1     -11.876  12.410  66.202  1.00  0.00    -0.442 C  
HETATM   58  C   UNL     1     -12.327  12.549  64.933  1.00  0.00    -0.539 C  
ENDBRANCH  44  57
ENDBRANCH  41  43
ENDBRANCH  38  41
ENDBRANCH  22  38
BRANCH  24  59
HETATM   59  O   UNL     1      -5.381  16.400  68.316  1.00  0.00    -0.099 OA 
HETATM   60  C   UNL     1      -6.051  17.480  68.958  1.00  0.00    -0.204 C  
ENDBRANCH  24  59
TORSDOF 10
ENDMDL
MODEL        4
REMARK 921   NORMALIZED FREE ENERGY PREDICTED BY IDOCK:   -6.48 KCAL/MOL
REMARK 922        TOTAL FREE ENERGY PREDICTED BY IDOCK:  -12.92 KCAL/MOL
REMARK 923 INTER-LIGAND FREE ENERGY PREDICTED BY IDOCK:   -9.81 KCAL/MOL
REMARK 924 INTRA-LIGAND FREE ENERGY PREDICTED BY IDOCK:   -3.11 KCAL/MOL
REMARK 927      BINDING AFFINITY PREDICTED BY RF-SCORE:    0.00 PKD
ROOT
HETATM    1  C   UNL     1      -6.226   8.698  65.179  1.00  0.00    -0.060 C  
HETATM    2  C   UNL     1      -5.168   9.558  65.781  1.00  0.00    -0.039 C  
HETATM    3  C   UNL     1      -5.615   8.333  66.600  1.00  0.00    -0.032 C  
HETATM    4  O   UNL     1      -6.046   8.713  67.949  1.00  0.00    -0.049 OA 
HETATM    5  C   UNL     1      -6.276   7.827  68.989  1.00  0.00    -0.036 C  
HETATM    6  N   UNL     1      -6.299   6.538  69.009  1.00  0.00    -0.034 NA 
HETATM    7  O   UNL     1      -6.668   8.496  70.098  1.00  0.00    -0.038 OA 
HETATM    8  H   UNL     1      -5.454   5.970  69.076  1.00  0.00     0.000 HD 
HETATM    9  H   UNL     1      -6.826   7.888  70.811  1.00  0.00     0.000 HD 
HETATM   10  C   UNL     1      -7.692   5.938  68.927  1.00  0.00    -0.091 C  
HETATM   11  C   UNL     1      -8.570   6.846  68.043  1.00  0.00    -0.123 C  
HETATM   12  N   UNL     1     -11.860  12.003  69.983  1.00  0.00    -0.331 NA 
HETATM   13  C   UNL     1     -11.977  13.330  70.058  1.00  0.00    -0.329 A  
HETATM   14  N   UNL     1      -9.095   8.022  68.619  1.00  0.00    -0.140 N  
HETATM   15  O   UNL     1      -8.699   6.616  66.832  1.00  0.00    -0.113 OA 
HETATM   16  C   UNL     1     -12.060  13.950  71.303  1.00  0.00    -0.254 A  
HETATM   17  C   UNL     1      -7.503   9.255  64.494  1.00  0.00    -0.102 C  
HETATM   18  C   UNL     1     -10.563   7.904  68.633  1.00  0.00    -0.111 C  
HETATM   19  C   UNL     1     -11.154   9.170  68.026  1.00  0.00     0.175 C  
HETATM   20  O   UNL     1     -11.522  10.096  69.011  1.00  0.00    -0.183 OA 
HETATM   21  C   UNL     1     -10.003   9.631  67.200  1.00  0.00    -0.249 C  
HETATM   22  C   UNL     1      -8.722   9.253  67.859  1.00  0.00    -0.124 C  
HETATM   23  C   UNL     1     -11.741  11.404  68.774  1.00  0.00    -0.339 A  
HETATM   24  C   UNL     1     -12.158  15.334  71.405  1.00  0.00    -0.354 A  
HETATM   25  C   UNL     1     -11.767  12.173  67.567  1.00  0.00    -0.315 A  
HETATM   26  C   UNL     1     -12.160  16.089  70.241  1.00  0.00    -0.180 A  
HETATM   27  C   UNL     1     -11.639  11.705  66.102  1.00  0.00    -0.105 C  
HETATM   28  C   UNL     1      -8.043  10.705  64.641  1.00  0.00     0.015 C  
HETATM   29  N   UNL     1     -11.881  13.527  67.659  1.00  0.00    -0.359 NA 
HETATM   30  C   UNL     1      -9.599  10.954  64.439  1.00  0.00    -0.312 C  
HETATM   31  C   UNL     1     -10.242  12.031  65.402  1.00  0.00    -0.295 C  
HETATM   32  C   UNL     1     -11.984  14.107  68.877  1.00  0.00    -0.341 A  
HETATM   33  C   UNL     1     -12.077  15.479  68.987  1.00  0.00    -0.246 A  
ENDROOT
BRANCH  10  34
HETATM   34  C   UNL     1      -8.316   4.974  70.054  1.00  0.00    -0.084 C  
HETATM   35  C   UNL     1      -7.456   3.682  70.118  1.00  0.00    -0.041 C  
HETATM   36  C   UNL     1      -9.748   4.534  69.604  1.00  0.00    -0.288 C  
HETATM   37  C   UNL     1      -8.509   5.398  71.532  1.00  0.00    -0.127 C  
ENDBRANCH  10  34
BRANCH  22  38
HETATM   38  C   UNL     1      -8.035  10.624  68.377  1.00  0.00    -0.120 C  
HETATM   39  H   UNL     1      -7.785  11.671  69.996  1.00  0.00     0.000 HD 
HETATM   40  O   UNL     1      -8.188  10.867  69.692  1.00  0.00     0.030 OA 
BRANCH  38  41
HETATM   41  N   UNL     1      -7.503  11.507  67.587  1.00  0.00    -0.103 NA 
HETATM   42  H   UNL     1      -7.460  11.247  66.601  1.00  0.00     0.000 HD 
BRANCH  41  43
HETATM   43  C   UNL     1      -6.958  12.825  67.918  1.00  0.00    -0.116 C  
HETATM   44  C   UNL     1      -5.873  12.823  69.060  1.00  0.00    -0.076 C  
HETATM   45  C   UNL     1      -5.469  12.967  67.608  1.00  0.00    -0.109 C  
BRANCH  43  46
HETATM   46  C   UNL     1      -7.828  14.037  67.814  1.00  0.00    -0.171 C  
HETATM   47  H   UNL     1      -9.257  14.877  68.786  1.00  0.00     0.000 HD 
HETATM   48  O   UNL     1      -8.704  14.107  68.852  1.00  0.00    -0.106 OA 
BRANCH  46  49
HETATM   49  N   UNL     1      -7.748  14.840  66.825  1.00  0.00    -0.234 N  
HETATM   50  H   UNL     1      -7.398  14.493  65.932  1.00  0.00     0.000 HD 
BRANCH  49  51
HETATM   51  S   UNL     1      -8.183  16.383  66.946  1.00  0.00    -0.247 S  
HETATM   52  O   UNL     1      -7.878  16.859  68.278  1.00  0.00    -0.191 OA 
HETATM   53  O   UNL     1      -7.687  17.100  65.781  1.00  0.00    -0.421 OA 
BRANCH  51  54
HETATM   54  C   UNL     1     -10.001  16.443  66.745  1.00  0.00    -0.272 C  
HETATM   55  C   UNL     1     -10.501  17.413  65.780  1.00  0.00    -0.221 C  
HETATM   56  C   UNL     1     -10.529  15.934  65.390  1.00  0.00    -0.429 C  
ENDBRANCH  51  54
ENDBRANCH  49  51
ENDBRANCH  46  49
ENDBRANCH  43  46
BRANCH  44  57
HETATM   57  C   UNL     1      -5.593  13.986  69.924  1.00  0.00    -0.106 C  
HETATM   58  C   UNL     1      -5.782  14.066  71.262  1.00  0.00    -0.232 C  
ENDBRANCH  44  57
ENDBRANCH  41  43
ENDBRANCH  38  41
ENDBRANCH  22  38
BRANCH  24  59
HETATM   59  O   UNL     1     -12.251  16.055  72.561  1.00  0.00    -0.437 OA 
HETATM   60  C   UNL     1     -12.573  15.347  73.754  1.00  0.00    -0.611 C  
ENDBRANCH  24  59
TORSDOF 10
ENDMDL
MODEL        5
REMARK 921   NORMALIZED FREE ENERGY PREDICTED BY IDOCK:   -6.23 KCAL/MOL
REMARK 922        TOTAL FREE ENERGY PREDICTED BY IDOCK:  -12.53 KCAL/MOL
REMARK 923 INTER-LIGAND FREE ENERGY PREDICTED BY IDOCK:   -9.54 KCAL/MOL
REMARK 924 INTRA-LIGAND FREE ENERGY PREDICTED BY IDOCK:   -2.98 KCAL/MOL
REMARK 927      BINDING AFFINITY PREDICTED BY RF-SCORE:    0.00 PKD
ROOT
HETATM    1  C   UNL     1      -7.695   5.807  71.346  1.00  0.00    -0.107 C  
HETATM    2  C   UNL     1      -9.080   5.928  71.883  1.00  0.00    -0.142 C  
HETATM    3  C   UNL     1      -8.898   5.065  70.620  1.00  0.00    -0.126 C  
HETATM    4  O   UNL     1      -9.774   5.509  69.531  1.00  0.00    -0.141 OA 
HETATM    5  C   UNL     1     -10.013   4.801  68.365  1.00  0.00    -0.086 C  
HETATM    6  N   UNL     1      -9.475   3.722  67.907  1.00  0.00    -0.182 NA 
HETATM    7  O   UNL     1     -10.861   5.487  67.564  1.00  0.00    -0.223 OA 
HETATM    8  H   UNL     1      -9.761   2.790  68.208  1.00  0.00     0.000 HD 
HETATM    9  H   UNL     1     -11.025   5.001  66.764  1.00  0.00     0.000 HD 
HETATM   10  C   UNL     1      -8.379   3.958  66.882  1.00  0.00    -0.100 C  
HETATM   11  C   UNL     1      -7.634   5.260  67.245  1.00  0.00    -0.092 C  
HETATM   12  N   UNL     1      -9.320  11.207  65.519  1.00  0.00    -0.219 NA 
HETATM   13  C   UNL     1      -9.863  12.384  65.834  1.00  0.00    -0.252 A  
HETATM   14  N   UNL     1      -8.241   6.486  66.900  1.00  0.00    -0.112 N  
HETATM   15  O   UNL     1      -6.605   5.228  67.932  1.00  0.00    -0.046 OA 
HETATM   16  C   UNL     1     -10.961  12.855  65.118  1.00  0.00    -0.316 A  
HETATM   17  C   UNL     1      -6.720   7.007  71.200  1.00  0.00    -0.056 C  
HETATM   18  C   UNL     1      -7.374   7.162  65.920  1.00  0.00    -0.075 C  
HETATM   19  C   UNL     1      -7.138   8.591  66.391  1.00  0.00    -0.079 C  
HETATM   20  O   UNL     1      -8.020   9.491  65.778  1.00  0.00    -0.108 OA 
HETATM   21  C   UNL     1      -7.394   8.437  67.851  1.00  0.00    -0.096 C  
HETATM   22  C   UNL     1      -8.426   7.388  68.077  1.00  0.00    -0.123 C  
HETATM   23  C   UNL     1      -8.276  10.731  66.239  1.00  0.00    -0.162 A  
HETATM   24  C   UNL     1     -11.559  14.068  65.445  1.00  0.00    -0.328 A  
HETATM   25  C   UNL     1      -7.724  11.489  67.322  1.00  0.00    -0.150 A  
HETATM   26  C   UNL     1     -11.045  14.798  66.508  1.00  0.00    -0.334 A  
HETATM   27  C   UNL     1      -6.558  11.140  68.270  1.00  0.00    -0.058 C  
HETATM   28  C   UNL     1      -7.127   8.506  71.238  1.00  0.00    -0.078 C  
HETATM   29  N   UNL     1      -8.292  12.686  67.635  1.00  0.00    -0.161 NA 
HETATM   30  C   UNL     1      -6.210   9.556  70.475  1.00  0.00    -0.071 C  
HETATM   31  C   UNL     1      -6.984  10.731  69.752  1.00  0.00    -0.141 C  
HETATM   32  C   UNL     1      -9.344  13.136  66.913  1.00  0.00    -0.246 A  
HETATM   33  C   UNL     1      -9.944  14.336  67.233  1.00  0.00    -0.252 A  
ENDROOT
BRANCH  10  34
HETATM   34  C   UNL     1      -8.426   3.386  65.379  1.00  0.00    -0.104 C  
HETATM   35  C   UNL     1      -9.685   3.967  64.678  1.00  0.00    -0.186 C  
HETATM   36  C   UNL     1      -8.624   1.835  65.437  1.00  0.00    -0.107 C  
HETATM   37  C   UNL     1      -7.278   3.572  64.355  1.00  0.00    -0.059 C  
ENDBRANCH  10  34
BRANCH  22  38
HETATM   38  C   UNL     1      -9.756   8.142  68.607  1.00  0.00    -0.153 C  
HETATM   39  H   UNL     1     -11.532   8.670  68.015  1.00  0.00     0.000 HD 
HETATM   40  O   UNL     1     -10.751   8.228  67.704  1.00  0.00    -0.219 OA 
BRANCH  38  41
HETATM   41  N   UNL     1      -9.831   8.754  69.751  1.00  0.00    -0.183 NA 
HETATM   42  H   UNL     1      -8.969   8.777  70.296  1.00  0.00     0.000 HD 
BRANCH  41  43
HETATM   43  C   UNL     1     -10.985   9.414  70.364  1.00  0.00    -0.266 C  
HETATM   44  C   UNL     1     -12.049   8.438  70.993  1.00  0.00    -0.218 C  
HETATM   45  C   UNL     1     -11.082   9.201  71.873  1.00  0.00    -0.385 C  
BRANCH  43  46
HETATM   46  C   UNL     1     -11.501  10.696  69.789  1.00  0.00    -0.302 C  
HETATM   47  H   UNL     1     -12.581  11.285  68.314  1.00  0.00     0.000 HD 
HETATM   48  O   UNL     1     -12.253  10.472  68.679  1.00  0.00    -0.282 OA 
BRANCH  46  49
HETATM   49  N   UNL     1     -11.195  11.829  70.291  1.00  0.00    -0.387 N  
HETATM   50  H   UNL     1     -10.242  11.986  70.617  1.00  0.00     0.000 HD 
BRANCH  49  51
HETATM   51  S   UNL     1     -12.270  13.017  70.422  1.00  0.00    -0.236 S  
HETATM   52  O   UNL     1     -12.774  13.349  69.106  1.00  0.00     0.243 OA 
HETATM   53  O   UNL     1     -13.194  12.694  71.499  1.00  0.00    -0.345 OA 
BRANCH  51  54
HETATM   54  C   UNL     1     -11.373  14.483  71.050  1.00  0.00     0.020 C  
HETATM   55  C   UNL     1     -11.906  15.776  70.643  1.00  0.00    -0.415 C  
HETATM   56  C   UNL     1     -12.140  15.327  72.087  1.00  0.00    -0.477 C  
ENDBRANCH  51  54
ENDBRANCH  49  51
ENDBRANCH  46  49
ENDBRANCH  43  46
BRANCH  44  57
HETATM   57  C   UNL     1     -13.475   8.778  71.158  1.00  0.00    -0.081 C  
HETATM   58  C   UNL     1     -14.111   9.064  72.318  1.00  0.00    -0.485 C  
ENDBRANCH  44  57
ENDBRANCH  41  43
ENDBRANCH  38  41
ENDBRANCH  22  38
BRANCH  24  59
HETATM   59  O   UNL     1     -12.631  14.636  64.819  1.00  0.00    -0.514 OA 
HETATM   60  C   UNL     1     -12.406  15.842  64.095  1.00  0.00     0.257 C  
ENDBRANCH  24  59
TORSDOF 10
ENDMDL
MODEL        6
REMARK 921   NORMALIZED FREE ENERGY PREDICTED BY IDOCK:   -6.13 KCAL/MOL
REMARK 922        TOTAL FREE ENERGY PREDICTED BY IDOCK:  -12.36 KCAL/MOL
REMARK 923 INTER-LIGAND FREE ENERGY PREDICTED BY IDOCK:  -11.00 KCAL/MOL
REMARK 924 INTRA-LIGAND FREE ENERGY PREDICTED BY IDOCK:   -1.36 KCAL/MOL
REMARK 927      BINDING AFFINITY PREDICTED BY RF-SCORE:    0.00 PKD
ROOT
HETATM    1  C   UNL     1      -7.505   8.147  66.097  1.00  0.00    -0.078 C  
HETATM    2  C   UNL     1      -6.218   8.827  66.417  1.00  0.00    -0.061 C  
HETATM    3  C   UNL     1      -7.094   8.402  67.611  1.00  0.00    -0.083 C  
HETATM    4  O   UNL     1      -7.381   9.533  68.498  1.00  0.00    -0.077 OA 
HETATM    5  C   UNL     1      -7.936   9.429  69.764  1.00  0.00    -0.119 C  
HETATM    6  N   UNL     1      -8.426   8.413  70.390  1.00  0.00    -0.125 NA 
HETATM    7  O   UNL     1      -8.078  10.656  70.317  1.00  0.00    -0.323 OA 
HETATM    8  H   UNL     1      -7.846   7.737  70.887  1.00  0.00     0.000 HD 
HETATM    9  H   UNL     1      -8.459  10.584  71.185  1.00  0.00     0.000 HD 
HETATM   10  C   UNL     1      -9.941   8.312  70.323  1.00  0.00    -0.186 C  
HETATM   11  C   UNL     1     -10.413   8.849  68.957  1.00  0.00    -0.214 C  
HETATM   12  N   UNL     1     -11.639  14.979  67.505  1.00  0.00    -0.333 NA 
HETATM   13  C   UNL     1     -11.267  16.116  66.915  1.00  0.00     0.128 A  
HETATM   14  N   UNL     1     -10.485  10.248  68.786  1.00  0.00    -0.191 N  
HETATM   15  O   UNL     1     -10.594   8.080  68.003  1.00  0.00    -0.200 OA 
HETATM   16  C   UNL     1     -11.141  17.280  67.670  1.00  0.00    -0.002 A  
HETATM   17  C   UNL     1      -8.480   8.626  64.988  1.00  0.00    -0.192 C  
HETATM   18  C   UNL     1     -11.896  10.605  68.558  1.00  0.00    -0.013 C  
HETATM   19  C   UNL     1     -11.975  11.485  67.317  1.00  0.00     0.236 C  
HETATM   20  O   UNL     1     -11.999  12.846  67.647  1.00  0.00    -0.352 OA 
HETATM   21  C   UNL     1     -10.720  11.080  66.623  1.00  0.00    -0.305 C  
HETATM   22  C   UNL     1      -9.676  10.729  67.625  1.00  0.00    -0.166 C  
HETATM   23  C   UNL     1     -11.724  13.839  66.778  1.00  0.00    -0.391 A  
HETATM   24  C   UNL     1     -10.732  18.472  67.080  1.00  0.00    -0.351 A  
HETATM   25  C   UNL     1     -11.447  13.840  65.374  1.00  0.00    -0.311 A  
HETATM   26  C   UNL     1     -10.438  18.477  65.723  1.00  0.00    -0.277 A  
HETATM   27  C   UNL     1     -11.471  12.671  64.367  1.00  0.00    -0.402 C  
HETATM   28  C   UNL     1      -8.459  10.027  64.316  1.00  0.00    -0.179 C  
HETATM   29  N   UNL     1     -11.063  15.007  64.786  1.00  0.00    -0.390 NA 
HETATM   30  C   UNL     1      -9.815  10.594  63.710  1.00  0.00    -0.394 C  
HETATM   31  C   UNL     1     -10.040  12.149  63.895  1.00  0.00    -0.387 C  
HETATM   32  C   UNL     1     -10.970  16.132  65.532  1.00  0.00    -0.177 A  
HETATM   33  C   UNL     1     -10.560  17.316  64.956  1.00  0.00     0.270 A  
ENDROOT
BRANCH  10  34
HETATM   34  C   UNL     1     -10.891   8.310  71.621  1.00  0.00    -0.320 C  
HETATM   35  C   UNL     1      -9.991   8.188  72.882  1.00  0.00    -0.336 C  
HETATM   36  C   UNL     1     -11.786   7.027  71.587  1.00  0.00    -0.348 C  
HETATM   37  C   UNL     1     -11.891   9.446  71.952  1.00  0.00    -0.402 C  
ENDBRANCH  10  34
BRANCH  22  38
HETATM   38  C   UNL     1      -8.548  11.887  67.556  1.00  0.00    -0.160 C  
HETATM   39  H   UNL     1      -7.116  12.536  66.412  1.00  0.00     0.000 HD 
HETATM   40  O   UNL     1      -7.778  11.856  66.453  1.00  0.00     0.020 OA 
BRANCH  38  41
HETATM   41  N   UNL     1      -8.288  12.700  68.536  1.00  0.00    -0.311 NA 
HETATM   42  H   UNL     1      -7.995  12.259  69.408  1.00  0.00     0.000 HD 
BRANCH  41  43
HETATM   43  C   UNL     1      -8.359  14.162  68.558  1.00  0.00    -0.155 C  
HETATM   44  C   UNL     1      -6.990  14.894  68.292  1.00  0.00    -0.118 C  
HETATM   45  C   UNL     1      -8.047  14.811  67.211  1.00  0.00    -0.232 C  
BRANCH  43  46
HETATM   46  C   UNL     1      -9.324  14.847  69.474  1.00  0.00     0.023 C  
HETATM   47  H   UNL     1      -9.571  16.570  70.285  1.00  0.00     0.000 HD 
HETATM   48  O   UNL     1      -8.958  16.136  69.703  1.00  0.00    -0.105 OA 
BRANCH  46  49
HETATM   49  N   UNL     1     -10.318  14.230  69.986  1.00  0.00    -0.176 N  
HETATM   50  H   UNL     1     -10.472  13.251  69.745  1.00  0.00     0.000 HD 
BRANCH  49  51
HETATM   51  S   UNL     1     -11.333  14.953  71.001  1.00  0.00    -0.151 S  
HETATM   52  O   UNL     1     -10.740  14.989  72.321  1.00  0.00     0.370 OA 
HETATM   53  O   UNL     1     -11.818  16.178  70.383  1.00  0.00    -0.307 OA 
BRANCH  51  54
HETATM   54  C   UNL     1     -12.827  13.902  71.101  1.00  0.00    -0.351 C  
HETATM   55  C   UNL     1     -13.390  13.723  72.434  1.00  0.00    -0.635 C  
HETATM   56  C   UNL     1     -14.129  14.644  71.461  1.00  0.00    -0.527 C  
ENDBRANCH  51  54
ENDBRANCH  49  51
ENDBRANCH  46  49
ENDBRANCH  43  46
BRANCH  44  57
HETATM   57  C   UNL     1      -6.678  16.250  68.783  1.00  0.00    -0.144 C  
HETATM   58  C   UNL     1      -6.075  17.245  68.090  1.00  0.00    -0.139 C  
ENDBRANCH  44  57
ENDBRANCH  41  43
ENDBRANCH  38  41
ENDBRANCH  22  38
BRANCH  24  59
HETATM   59  O   UNL     1     -10.577  19.675  67.709  1.00  0.00    -0.435 OA 
HETATM   60  C   UNL     1      -9.826  19.692  68.918  1.00  0.00    -0.415 C  
ENDBRANCH  24  59
TORSDOF 10
ENDMDL
MODEL        7
REMARK 921   NORMALIZED FREE ENERGY PREDICTED BY IDOCK:   -5.97 KCAL/MOL
REMARK 922        TOTAL FREE ENERGY PREDICTED BY IDOCK:  -12.12 KCAL/MOL
REMARK 923 INTER-LIGAND FREE ENERGY PREDICTED BY IDOCK:  -10.33 KCAL/MOL
REMARK 924 INTRA-LIGAND FREE ENERGY PREDICTED BY IDOCK:   -1.79 KCAL/MOL
REMARK 927      BINDING AFFINITY PREDICTED BY RF-SCORE:    0.00 PKD
ROOT
HETATM    1  C   UNL     1     -10.003   5.166  70.397  1.00  0.00    -0.316 C  
HETATM    2  C   UNL     1     -11.269   5.952  70.439  1.00  0.00    -0.307 C  
HETATM    3  C   UNL     1     -10.776   5.504  69.050  1.00  0.00    -0.161 C  
HETATM    4  O   UNL     1     -10.641   6.640  68.133  1.00  0.00    -0.195 OA 
HETATM    5  C   UNL     1     -10.449   6.537  66.764  1.00  0.00    -0.230 C  
HETATM    6  N   UNL     1     -10.226   5.509  66.018  1.00  0.00    -0.412 NA 
HETATM    7  O   UNL     1     -10.358   7.767  66.209  1.00  0.00    -0.462 OA 
HETATM    8  H   UNL     1     -10.970   4.895  65.684  1.00  0.00     0.000 HD 
HETATM    9  H   UNL     1     -10.226   7.697  65.271  1.00  0.00     0.000 HD 
HETATM   10  C   UNL     1      -8.761   5.291  65.679  1.00  0.00    -0.146 C  
HETATM   11  C   UNL     1      -7.904   5.744  66.878  1.00  0.00    -0.101 C  
HETATM   12  N   UNL     1      -5.840  11.711  68.032  1.00  0.00    -0.043 NA 
HETATM   13  C   UNL     1      -5.949  12.851  68.714  1.00  0.00    -0.072 A  
HETATM   14  N   UNL     1      -7.675   7.126  67.042  1.00  0.00    -0.105 N  
HETATM   15  O   UNL     1      -7.541   4.931  67.740  1.00  0.00    -0.081 OA 
HETATM   16  C   UNL     1      -6.173  14.047  68.034  1.00  0.00    -0.145 A  
HETATM   17  C   UNL     1      -8.735   5.532  71.214  1.00  0.00    -0.135 C  
HETATM   18  C   UNL     1      -6.229   7.368  66.892  1.00  0.00    -0.047 C  
HETATM   19  C   UNL     1      -5.754   8.196  68.079  1.00  0.00    -0.035 C  
HETATM   20  O   UNL     1      -5.706   9.562  67.772  1.00  0.00    -0.041 OA 
HETATM   21  C   UNL     1      -6.811   7.865  69.075  1.00  0.00    -0.057 C  
HETATM   22  C   UNL     1      -8.107   7.628  68.381  1.00  0.00    -0.124 C  
HETATM   23  C   UNL     1      -5.661  10.543  68.695  1.00  0.00    -0.041 A  
HETATM   24  C   UNL     1      -6.314  15.245  68.727  1.00  0.00    -0.094 A  
HETATM   25  C   UNL     1      -5.557  10.518  70.123  1.00  0.00    -0.063 A  
HETATM   26  C   UNL     1      -6.239  15.227  70.113  1.00  0.00    -0.131 A  
HETATM   27  C   UNL     1      -5.365   9.316  71.072  1.00  0.00    -0.036 C  
HETATM   28  C   UNL     1      -8.464   6.907  71.886  1.00  0.00    -0.114 C  
HETATM   29  N   UNL     1      -5.675  11.689  70.806  1.00  0.00    -0.312 NA 
HETATM   30  C   UNL     1      -6.954   7.349  72.117  1.00  0.00    -0.063 C  
HETATM   31  C   UNL     1      -6.659   8.888  71.900  1.00  0.00    -0.036 C  
HETATM   32  C   UNL     1      -5.869  12.843  70.125  1.00  0.00    -0.155 A  
HETATM   33  C   UNL     1      -6.014  14.034  70.805  1.00  0.00    -0.188 A  
ENDROOT
BRANCH  10  34
HETATM   34  C   UNL     1      -8.189   5.261  64.176  1.00  0.00    -0.132 C  
HETATM   35  C   UNL     1      -9.144   4.393  63.311  1.00  0.00    -0.137 C  
HETATM   36  C   UNL     1      -6.805   4.532  64.179  1.00  0.00    -0.045 C  
HETATM   37  C   UNL     1      -7.932   6.534  63.332  1.00  0.00    -0.077 C  
ENDBRANCH  10  34
BRANCH  22  38
HETATM   38  C   UNL     1      -9.078   8.865  68.762  1.00  0.00    -0.134 C  
HETATM   39  H   UNL     1      -9.035  10.787  69.051  1.00  0.00     0.000 HD 
HETATM   40  O   UNL     1      -8.465  10.061  68.828  1.00  0.00    -0.114 OA 
BRANCH  38  41
HETATM   41  N   UNL     1     -10.318   8.723  69.123  1.00  0.00    -0.215 NA 
HETATM   42  H   UNL     1     -10.786   7.887  68.773  1.00  0.00     0.000 HD 
BRANCH  41  43
HETATM   43  C   UNL     1     -11.135   9.600  69.965  1.00  0.00    -0.255 C  
HETATM   44  C   UNL     1     -12.020   8.855  71.033  1.00  0.00    -0.307 C  
HETATM   45  C   UNL     1     -10.747   9.566  71.442  1.00  0.00    -0.348 C  
BRANCH  43  46
HETATM   46  C   UNL     1     -11.685  10.872  69.400  1.00  0.00    -0.325 C  
HETATM   47  H   UNL     1     -12.029  12.674  69.968  1.00  0.00     0.000 HD 
HETATM   48  O   UNL     1     -11.680  11.867  70.327  1.00  0.00    -0.303 OA 
BRANCH  46  49
HETATM   49  N   UNL     1     -12.135  10.939  68.207  1.00  0.00    -0.270 N  
HETATM   50  H   UNL     1     -13.056  10.551  68.003  1.00  0.00     0.000 HD 
BRANCH  49  51
HETATM   51  S   UNL     1     -11.293  11.617  67.018  1.00  0.00    -0.261 S  
HETATM   52  O   UNL     1     -10.472  10.608  66.383  1.00  0.00    -0.242 OA 
HETATM   53  O   UNL     1     -12.190  12.438  66.220  1.00  0.00    -0.620 OA 
BRANCH  51  54
HETATM   54  C   UNL     1     -10.166  12.835  67.789  1.00  0.00    -0.223 C  
HETATM   55  C   UNL     1      -9.566  13.806  66.883  1.00  0.00    -0.263 C  
HETATM   56  C   UNL     1     -10.684  14.286  67.810  1.00  0.00    -0.253 C  
ENDBRANCH  51  54
ENDBRANCH  49  51
ENDBRANCH  46  49
ENDBRANCH  43  46
BRANCH  44  57
HETATM   57  C   UNL     1     -13.271   9.407  71.587  1.00  0.00    -0.470 C  
HETATM   58  C   UNL     1     -14.349   8.705  72.009  1.00  0.00    -0.512 C  
ENDBRANCH  44  57
ENDBRANCH  41  43
ENDBRANCH  38  41
ENDBRANCH  22  38
BRANCH  24  59
HETATM   59  O   UNL     1      -6.530  16.477  68.177  1.00  0.00    -0.128 OA 
HETATM   60  C   UNL     1      -6.681  17.577  69.068  1.00  0.00    -0.247 C  
ENDBRANCH  24  59
TORSDOF 10
ENDMDL
MODEL        8
REMARK 921   NORMALIZED FREE ENERGY PREDICTED BY IDOCK:   -5.91 KCAL/MOL
REMARK 922        TOTAL FREE ENERGY PREDICTED BY IDOCK:  -12.02 KCAL/MOL
REMARK 923 INTER-LIGAND FREE ENERGY PREDICTED BY IDOCK:   -9.48 KCAL/MOL
REMARK 924 INTRA-LIGAND FREE ENERGY PREDICTED BY IDOCK:   -2.54 KCAL/MOL
REMARK 927      BINDING AFFINITY PREDICTED BY RF-SCORE:    0.00 PKD
ROOT
HETATM    1  C   UNL     1     -10.973  12.180  64.033  1.00  0.00    -0.438 C  
HETATM    2  C   UNL     1     -12.083  11.343  64.571  1.00  0.00     0.334 C  
HETATM    3  C   UNL     1     -11.917  12.749  65.178  1.00  0.00    -0.424 C  
HETATM    4  O   UNL     1     -11.785  12.695  66.637  1.00  0.00    -0.366 OA 
HETATM    5  C   UNL     1     -11.859  13.791  67.482  1.00  0.00    -0.387 C  
HETATM    6  N   UNL     1     -11.925  15.053  67.224  1.00  0.00    -0.343 NA 
HETATM    7  O   UNL     1     -11.692  13.404  68.768  1.00  0.00    -0.296 OA 
HETATM    8  H   UNL     1     -12.798  15.524  66.984  1.00  0.00     0.000 HD 
HETATM    9  H   UNL     1     -11.742  14.156  69.347  1.00  0.00     0.000 HD 
HETATM   10  C   UNL     1     -10.592  15.777  67.310  1.00  0.00    -0.313 C  
HETATM   11  C   UNL     1      -9.477  14.815  66.852  1.00  0.00    -0.240 C  
HETATM   12  N   UNL     1      -6.398  10.548  70.527  1.00  0.00    -0.251 NA 
HETATM   13  C   UNL     1      -6.216   9.284  70.913  1.00  0.00    -0.068 A  
HETATM   14  N   UNL     1      -9.024  13.843  67.770  1.00  0.00    -0.179 N  
HETATM   15  O   UNL     1      -9.087  14.812  65.676  1.00  0.00     0.029 OA 
HETATM   16  C   UNL     1      -6.383   8.937  72.252  1.00  0.00    -0.012 A  
HETATM   17  C   UNL     1      -9.539  11.645  63.773  1.00  0.00    -0.210 C  
HETATM   18  C   UNL     1      -7.610  14.126  68.069  1.00  0.00    -0.141 C  
HETATM   19  C   UNL     1      -6.814  12.838  67.892  1.00  0.00    -0.114 C  
HETATM   20  O   UNL     1      -6.625  12.174  69.111  1.00  0.00    -0.094 OA 
HETATM   21  C   UNL     1      -7.712  12.096  66.963  1.00  0.00    -0.112 C  
HETATM   22  C   UNL     1      -9.132  12.452  67.236  1.00  0.00    -0.187 C  
HETATM   23  C   UNL     1      -6.274  10.878  69.219  1.00  0.00    -0.055 A  
HETATM   24  C   UNL     1      -6.222   7.621  72.673  1.00  0.00    -0.055 A  
HETATM   25  C   UNL     1      -5.920   9.892  68.243  1.00  0.00    -0.042 A  
HETATM   26  C   UNL     1      -5.903   6.654  71.730  1.00  0.00    -0.037 A  
HETATM   27  C   UNL     1      -5.737  10.042  66.718  1.00  0.00    -0.050 C  
HETATM   28  C   UNL     1      -8.955  10.322  64.345  1.00  0.00    -0.255 C  
HETATM   29  N   UNL     1      -5.743   8.605  68.651  1.00  0.00    -0.040 NA 
HETATM   30  C   UNL     1      -7.381  10.213  64.537  1.00  0.00    -0.121 C  
HETATM   31  C   UNL     1      -6.910   9.429  65.827  1.00  0.00    -0.085 C  
HETATM   32  C   UNL     1      -5.887   8.293  69.960  1.00  0.00    -0.022 A  
HETATM   33  C   UNL     1      -5.733   6.990  70.385  1.00  0.00    -0.024 A  
ENDROOT
BRANCH  10  34
HETATM   34  C   UNL     1     -10.309  17.009  68.305  1.00  0.00    -0.347 C  
HETATM   35  C   UNL     1     -11.070  16.744  69.633  1.00  0.00    -0.036 C  
HETATM   36  C   UNL     1     -10.929  18.306  67.688  1.00  0.00    -0.134 C  
HETATM   37  C   UNL     1      -8.890  17.451  68.739  1.00  0.00    -0.220 C  
ENDBRANCH  10  34
BRANCH  22  38
HETATM   38  C   UNL     1      -9.830  11.143  67.884  1.00  0.00    -0.174 C  
HETATM   39  H   UNL     1     -10.406  10.430  69.599  1.00  0.00     0.000 HD 
HETATM   40  O   UNL     1      -9.996  11.198  69.219  1.00  0.00    -0.139 OA 
BRANCH  38  41
HETATM   41  N   UNL     1     -10.083  10.057  67.218  1.00  0.00    -0.197 NA 
HETATM   42  H   UNL     1     -10.387  10.192  66.254  1.00  0.00     0.000 HD 
BRANCH  41  43
HETATM   43  C   UNL     1      -9.992   8.665  67.664  1.00  0.00    -0.194 C  
HETATM   44  C   UNL     1     -10.580   7.608  66.655  1.00  0.00    -0.092 C  
HETATM   45  C   UNL     1      -9.085   7.801  66.791  1.00  0.00    -0.185 C  
BRANCH  43  46
HETATM   46  C   UNL     1     -10.101   8.342  69.121  1.00  0.00    -0.203 C  
HETATM   47  H   UNL     1      -9.049   7.514  70.498  1.00  0.00     0.000 HD 
HETATM   48  O   UNL     1      -8.980   7.719  69.573  1.00  0.00    -0.142 OA 
BRANCH  46  49
HETATM   49  N   UNL     1     -11.158   8.597  69.790  1.00  0.00    -0.425 N  
HETATM   50  H   UNL     1     -11.686   9.443  69.578  1.00  0.00     0.000 HD 
BRANCH  49  51
HETATM   51  S   UNL     1     -11.680   7.622  70.956  1.00  0.00    -0.271 S  
HETATM   52  O   UNL     1     -12.869   8.192  71.554  1.00  0.00    -0.313 OA 
HETATM   53  O   UNL     1     -11.698   6.257  70.451  1.00  0.00    -0.367 OA 
BRANCH  51  54
HETATM   54  C   UNL     1     -10.382   7.587  72.244  1.00  0.00    -0.218 C  
HETATM   55  C   UNL     1     -10.765   6.987  73.516  1.00  0.00    -0.368 C  
HETATM   56  C   UNL     1      -9.842   6.186  72.595  1.00  0.00    -0.178 C  
ENDBRANCH  51  54
ENDBRANCH  49  51
ENDBRANCH  46  49
ENDBRANCH  43  46
BRANCH  44  57
HETATM   57  C   UNL     1     -11.098   6.288  67.063  1.00  0.00    -0.379 C  
HETATM   58  C   UNL     1     -10.689   5.081  66.608  1.00  0.00    -0.162 C  
ENDBRANCH  44  57
ENDBRANCH  41  43
ENDBRANCH  38  41
ENDBRANCH  22  38
BRANCH  24  59
HETATM   59  O   UNL     1      -6.352   7.159  73.952  1.00  0.00    -0.065 OA 
HETATM   60  C   UNL     1      -6.470   5.752  74.133  1.00  0.00    -0.074 C  
ENDBRANCH  24  59
TORSDOF 10
ENDMDL
MODEL        9
REMARK 921   NORMALIZED FREE ENERGY PREDICTED BY IDOCK:   -5.91 KCAL/MOL
REMARK 922        TOTAL FREE ENERGY PREDICTED BY IDOCK:  -12.02 KCAL/MOL
REMARK 923 INTER-LIGAND FREE ENERGY PREDICTED BY IDOCK:   -9.83 KCAL/MOL
REMARK 924 INTRA-LIGAND FREE ENERGY PREDICTED BY IDOCK:   -2.19 KCAL/MOL
REMARK 927      BINDING AFFINITY PREDICTED BY RF-SCORE:    0.00 PKD
ROOT
HETATM    1  C   UNL     1     -11.464  12.695  63.846  1.00  0.00    -0.509 C  
HETATM    2  C   UNL     1     -12.626  11.962  64.425  1.00  0.00    -0.153 C  
HETATM    3  C   UNL     1     -12.252  13.302  65.085  1.00  0.00    -0.443 C  
HETATM    4  O   UNL     1     -12.026  13.150  66.526  1.00  0.00    -0.390 OA 
HETATM    5  C   UNL     1     -11.910  14.196  67.427  1.00  0.00    -0.413 C  
HETATM    6  N   UNL     1     -11.844  15.470  67.237  1.00  0.00    -0.011 NA 
HETATM    7  O   UNL     1     -11.701  13.720  68.676  1.00  0.00    -0.311 OA 
HETATM    8  H   UNL     1     -12.669  16.052  67.087  1.00  0.00     0.000 HD 
HETATM    9  H   UNL     1     -11.621  14.437  69.294  1.00  0.00     0.000 HD 
HETATM   10  C   UNL     1     -10.432  16.030  67.256  1.00  0.00    -0.308 C  
HETATM   11  C   UNL     1      -9.473  14.975  66.668  1.00  0.00    -0.266 C  
HETATM   12  N   UNL     1      -6.673  10.179  69.885  1.00  0.00    -0.093 NA 
HETATM   13  C   UNL     1      -6.616   8.882  70.193  1.00  0.00    -0.040 A  
HETATM   14  N   UNL     1      -9.076  13.907  67.500  1.00  0.00    -0.191 N  
HETATM   15  O   UNL     1      -9.170  14.995  65.468  1.00  0.00    -0.070 OA 
HETATM   16  C   UNL     1      -6.728   8.480  71.523  1.00  0.00    -0.073 A  
HETATM   17  C   UNL     1     -10.126  12.015  63.452  1.00  0.00    -0.437 C  
HETATM   18  C   UNL     1      -7.621  14.007  67.704  1.00  0.00    -0.179 C  
HETATM   19  C   UNL     1      -6.998  12.650  67.405  1.00  0.00    -0.142 C  
HETATM   20  O   UNL     1      -6.804  11.899  68.572  1.00  0.00    -0.065 OA 
HETATM   21  C   UNL     1      -8.040  12.070  66.512  1.00  0.00     0.054 C  
HETATM   22  C   UNL     1      -9.385  12.570  66.909  1.00  0.00    -0.219 C  
HETATM   23  C   UNL     1      -6.602  10.567  68.589  1.00  0.00    -0.052 A  
HETATM   24  C   UNL     1      -6.696   7.133  71.866  1.00  0.00    -0.056 A  
HETATM   25  C   UNL     1      -6.437   9.604  67.541  1.00  0.00    -0.069 A  
HETATM   26  C   UNL     1      -6.560   6.192  70.855  1.00  0.00    -0.053 A  
HETATM   27  C   UNL     1      -6.344   9.820  66.016  1.00  0.00    -0.076 C  
HETATM   28  C   UNL     1      -9.664  10.604  63.912  1.00  0.00    -0.378 C  
HETATM   29  N   UNL     1      -6.385   8.284  67.871  1.00  0.00    -0.052 NA 
HETATM   30  C   UNL     1      -8.104  10.304  63.978  1.00  0.00    -0.137 C  
HETATM   31  C   UNL     1      -7.641   9.398  65.188  1.00  0.00    -0.108 C  
HETATM   32  C   UNL     1      -6.473   7.917  69.171  1.00  0.00    -0.036 A  
HETATM   33  C   UNL     1      -6.446   6.582  69.518  1.00  0.00    -0.043 A  
ENDROOT
BRANCH  10  34
HETATM   34  C   UNL     1      -9.936  17.162  68.286  1.00  0.00    -0.300 C  
HETATM   35  C   UNL     1     -10.656  16.932  69.643  1.00  0.00    -0.172 C  
HETATM   36  C   UNL     1     -10.408  18.560  67.763  1.00  0.00    -0.435 C  
HETATM   37  C   UNL     1      -8.449  17.392  68.656  1.00  0.00    -0.257 C  
ENDBRANCH  10  34
BRANCH  22  38
HETATM   38  C   UNL     1     -10.186  11.315  67.543  1.00  0.00    -0.189 C  
HETATM   39  H   UNL     1     -11.336   9.836  67.023  1.00  0.00     0.000 HD 
HETATM   40  O   UNL     1     -10.866  10.573  66.650  1.00  0.00    -0.194 OA 
BRANCH  38  41
HETATM   41  N   UNL     1     -10.301  11.104  68.820  1.00  0.00    -0.199 NA 
HETATM   42  H   UNL     1      -9.750  11.719  69.420  1.00  0.00     0.000 HD 
BRANCH  41  43
HETATM   43  C   UNL     1     -11.113  10.104  69.516  1.00  0.00    -0.250 C  
HETATM   44  C   UNL     1     -11.672  10.563  70.915  1.00  0.00    -0.431 C  
HETATM   45  C   UNL     1     -12.572  10.519  69.698  1.00  0.00     0.060 C  
BRANCH  43  46
HETATM   46  C   UNL     1     -10.799   8.650  69.357  1.00  0.00    -0.095 C  
HETATM   47  H   UNL     1     -11.041   7.253  68.061  1.00  0.00     0.000 HD 
HETATM   48  O   UNL     1     -11.241   8.176  68.161  1.00  0.00     0.284 OA 
BRANCH  46  49
HETATM   49  N   UNL     1     -10.233   7.979  70.284  1.00  0.00    -0.197 N  
HETATM   50  H   UNL     1      -9.512   8.426  70.850  1.00  0.00     0.000 HD 
BRANCH  49  51
HETATM   51  S   UNL     1     -10.625   6.449  70.585  1.00  0.00    -0.251 S  
HETATM   52  O   UNL     1     -12.066   6.313  70.555  1.00  0.00    -0.186 OA 
HETATM   53  O   UNL     1      -9.791   5.584  69.765  1.00  0.00    -0.165 OA 
BRANCH  51  54
HETATM   54  C   UNL     1     -10.077   6.083  72.292  1.00  0.00    -0.180 C  
HETATM   55  C   UNL     1     -11.123   6.071  73.306  1.00  0.00    -0.188 C  
HETATM   56  C   UNL     1     -10.546   4.727  72.855  1.00  0.00    -0.278 C  
ENDBRANCH  51  54
ENDBRANCH  49  51
ENDBRANCH  46  49
ENDBRANCH  43  46
BRANCH  44  57
HETATM   57  C   UNL     1     -12.018   9.629  72.004  1.00  0.00    -0.202 C  
HETATM   58  C   UNL     1     -13.260   9.233  72.368  1.00  0.00    -0.501 C  
ENDBRANCH  44  57
ENDBRANCH  41  43
ENDBRANCH  38  41
ENDBRANCH  22  38
BRANCH  24  59
HETATM   59  O   UNL     1      -6.790   6.616  73.126  1.00  0.00    -0.075 OA 
HETATM   60  C   UNL     1      -7.369   7.440  74.133  1.00  0.00    -0.109 C  
ENDBRANCH  24  59
TORSDOF 10
ENDMDL
MODEL       10
REMARK 921   NORMALIZED FREE ENERGY PREDICTED BY IDOCK:   -5.77 KCAL/MOL
REMARK 922        TOTAL FREE ENERGY PREDICTED BY IDOCK:  -11.79 KCAL/MOL
REMARK 923 INTER-LIGAND FREE ENERGY PREDICTED BY IDOCK:   -9.34 KCAL/MOL
REMARK 924 INTRA-LIGAND FREE ENERGY PREDICTED BY IDOCK:   -2.46 KCAL/MOL
REMARK 927      BINDING AFFINITY PREDICTED BY RF-SCORE:    0.00 PKD
ROOT
HETATM    1  C   UNL     1     -10.683   5.681  70.517  1.00  0.00    -0.344 C  
HETATM    2  C   UNL     1     -11.849   6.593  70.338  1.00  0.00    -0.407 C  
HETATM    3  C   UNL     1     -11.250   5.973  69.061  1.00  0.00    -0.228 C  
HETATM    4  O   UNL     1     -10.881   7.001  68.084  1.00  0.00    -0.205 OA 
HETATM    5  C   UNL     1     -10.543   6.756  66.762  1.00  0.00    -0.241 C  
HETATM    6  N   UNL     1     -10.352   5.648  66.132  1.00  0.00    -0.439 NA 
HETATM    7  O   UNL     1     -10.249   7.916  66.130  1.00  0.00    -0.451 OA 
HETATM    8  H   UNL     1     -11.116   5.086  65.755  1.00  0.00     0.000 HD 
HETATM    9  H   UNL     1     -10.017   7.748  65.224  1.00  0.00     0.000 HD 
HETATM   10  C   UNL     1      -8.891   5.251  65.998  1.00  0.00    -0.141 C  
HETATM   11  C   UNL     1      -8.134   5.720  67.257  1.00  0.00    -0.102 C  
HETATM   12  N   UNL     1      -5.560  11.523  68.199  1.00  0.00    -0.042 NA 
HETATM   13  C   UNL     1      -5.619  12.726  68.772  1.00  0.00    -0.066 A  
HETATM   14  N   UNL     1      -7.772   7.081  67.341  1.00  0.00    -0.108 N  
HETATM   15  O   UNL     1      -7.969   4.955  68.218  1.00  0.00    -0.085 OA 
HETATM   16  C   UNL     1      -5.626  13.872  67.979  1.00  0.00    -0.125 A  
HETATM   17  C   UNL     1      -9.486   5.987  71.457  1.00  0.00    -0.164 C  
HETATM   18  C   UNL     1      -6.301   7.158  67.357  1.00  0.00    -0.050 C  
HETATM   19  C   UNL     1      -5.877   8.037  68.527  1.00  0.00    -0.039 C  
HETATM   20  O   UNL     1      -5.640   9.358  68.124  1.00  0.00    -0.037 OA 
HETATM   21  C   UNL     1      -7.074   7.907  69.405  1.00  0.00    -0.064 C  
HETATM   22  C   UNL     1      -8.298   7.743  68.573  1.00  0.00    -0.129 C  
HETATM   23  C   UNL     1      -5.593  10.408  68.967  1.00  0.00    -0.041 A  
HETATM   24  C   UNL     1      -5.710  15.136  68.554  1.00  0.00    -0.096 A  
HETATM   25  C   UNL     1      -5.660  10.501  70.395  1.00  0.00    -0.078 A  
HETATM   26  C   UNL     1      -5.801  15.235  69.935  1.00  0.00    -0.132 A  
HETATM   27  C   UNL     1      -5.717   9.376  71.450  1.00  0.00    -0.073 C  
HETATM   28  C   UNL     1      -9.142   7.382  72.049  1.00  0.00    -0.149 C  
HETATM   29  N   UNL     1      -5.725  11.736  70.965  1.00  0.00    -0.371 NA 
HETATM   30  C   UNL     1      -7.630   7.686  72.435  1.00  0.00    -0.095 C  
HETATM   31  C   UNL     1      -7.140   9.160  72.139  1.00  0.00     0.290 C  
HETATM   32  C   UNL     1      -5.706  12.837  70.179  1.00  0.00    -0.151 A  
HETATM   33  C   UNL     1      -5.795  14.093  70.740  1.00  0.00    -0.203 A  
ENDROOT
BRANCH  10  34
HETATM   34  C   UNL     1      -8.154   5.027  64.586  1.00  0.00    -0.118 C  
HETATM   35  C   UNL     1      -7.819   6.421  63.988  1.00  0.00    -0.111 C  
HETATM   36  C   UNL     1      -9.158   4.347  63.597  1.00  0.00    -0.136 C  
HETATM   37  C   UNL     1      -6.856   4.199  64.419  1.00  0.00    -0.045 C  
ENDBRANCH  10  34
BRANCH  22  38
HETATM   38  C   UNL     1      -9.162   9.102  68.732  1.00  0.00    -0.136 C  
HETATM   39  H   UNL     1     -10.571   9.879  69.823  1.00  0.00     0.000 HD 
HETATM   40  O   UNL     1     -10.064   9.081  69.730  1.00  0.00    -0.187 OA 
BRANCH  38  41
HETATM   41  N   UNL     1      -9.113  10.090  67.889  1.00  0.00    -0.131 NA 
HETATM   42  H   UNL     1      -8.418  10.002  67.147  1.00  0.00     0.000 HD 
BRANCH  41  43
HETATM   43  C   UNL     1      -9.918  11.312  67.860  1.00  0.00    -0.175 C  
HETATM   44  C   UNL     1     -10.588  11.695  69.233  1.00  0.00    -0.088 C  
HETATM   45  C   UNL     1      -9.363  12.433  68.736  1.00  0.00     0.109 C  
BRANCH  43  46
HETATM   46  C   UNL     1     -10.666  11.680  66.617  1.00  0.00    -0.270 C  
HETATM   47  H   UNL     1     -12.196  11.082  65.622  1.00  0.00     0.000 HD 
HETATM   48  O   UNL     1     -11.722  10.848  66.411  1.00  0.00     0.053 OA 
BRANCH  46  49
HETATM   49  N   UNL     1     -10.281  12.632  65.858  1.00  0.00    -0.269 N  
HETATM   50  H   UNL     1      -9.313  12.651  65.538  1.00  0.00     0.000 HD 
BRANCH  49  51
HETATM   51  S   UNL     1     -11.280  13.802  65.391  1.00  0.00    -0.310 S  
HETATM   52  O   UNL     1     -11.650  13.587  64.008  1.00  0.00    -0.388 OA 
HETATM   53  O   UNL     1     -12.310  13.969  66.406  1.00  0.00    -0.460 OA 
BRANCH  51  54
HETATM   54  C   UNL     1     -10.340  15.369  65.469  1.00  0.00    -0.387 C  
HETATM   55  C   UNL     1     -10.399  16.082  66.740  1.00  0.00    -0.300 C  
HETATM   56  C   UNL     1      -9.103  15.348  66.388  1.00  0.00    -0.350 C  
ENDBRANCH  51  54
ENDBRANCH  49  51
ENDBRANCH  46  49
ENDBRANCH  43  46
BRANCH  44  57
HETATM   57  C   UNL     1     -11.821  12.498  69.346  1.00  0.00    -0.368 C  
HETATM   58  C   UNL     1     -11.930  13.748  69.855  1.00  0.00    -0.412 C  
ENDBRANCH  44  57
ENDBRANCH  41  43
ENDBRANCH  38  41
ENDBRANCH  22  38
BRANCH  24  59
HETATM   59  O   UNL     1      -5.720  16.329  67.888  1.00  0.00    -0.110 OA 
HETATM   60  C   UNL     1      -6.429  17.409  68.486  1.00  0.00    -0.180 C  
ENDBRANCH  24  59
TORSDOF 10
ENDMDL
MODEL       11
REMARK 921   NORMALIZED FREE ENERGY PREDICTED BY IDOCK:   -5.70 KCAL/MOL
REMARK 922        TOTAL FREE ENERGY PREDICTED BY IDOCK:  -11.68 KCAL/MOL
REMARK 923 INTER-LIGAND FREE ENERGY PREDICTED BY IDOCK:  -10.33 KCAL/MOL
REMARK 924 INTRA-LIGAND FREE ENERGY PREDICTED BY IDOCK:   -1.36 KCAL/MOL
REMARK 927      BINDING AFFINITY PREDICTED BY RF-SCORE:    0.00 PKD
ROOT
HETATM    1  C   UNL     1     -11.599  12.514  63.774  1.00  0.00    -0.552 C  
HETATM    2  C   UNL     1     -12.747  11.738  64.325  1.00  0.00    -0.034 C  
HETATM    3  C   UNL     1     -12.413  13.072  65.020  1.00  0.00    -0.477 C  
HETATM    4  O   UNL     1     -12.196  12.891  66.459  1.00  0.00    -0.441 OA 
HETATM    5  C   UNL     1     -12.114  13.919  67.385  1.00  0.00    -0.345 C  
HETATM    6  N   UNL     1     -12.079  15.198  67.225  1.00  0.00    -0.239 NA 
HETATM    7  O   UNL     1     -11.904  13.418  68.624  1.00  0.00    -0.329 OA 
HETATM    8  H   UNL     1     -12.917  15.762  67.081  1.00  0.00     0.000 HD 
HETATM    9  H   UNL     1     -11.848  14.123  69.259  1.00  0.00     0.000 HD 
HETATM   10  C   UNL     1     -10.681  15.793  67.271  1.00  0.00    -0.313 C  
HETATM   11  C   UNL     1      -9.691  14.775  66.668  1.00  0.00    -0.267 C  
HETATM   12  N   UNL     1      -6.799   9.977  69.797  1.00  0.00    -0.079 NA 
HETATM   13  C   UNL     1      -6.712   8.675  70.076  1.00  0.00    -0.039 A  
HETATM   14  N   UNL     1      -9.275  13.698  67.478  1.00  0.00    -0.208 N  
HETATM   15  O   UNL     1      -9.378  14.832  65.471  1.00  0.00    -0.124 OA 
HETATM   16  C   UNL     1      -6.826   8.240  71.395  1.00  0.00    -0.062 A  
HETATM   17  C   UNL     1     -10.240  11.877  63.377  1.00  0.00    -0.478 C  
HETATM   18  C   UNL     1      -7.824  13.830  67.698  1.00  0.00    -0.178 C  
HETATM   19  C   UNL     1      -7.164  12.496  67.373  1.00  0.00    -0.146 C  
HETATM   20  O   UNL     1      -6.962  11.724  68.524  1.00  0.00    -0.071 OA 
HETATM   21  C   UNL     1      -8.183  11.912  66.457  1.00  0.00    -0.026 C  
HETATM   22  C   UNL     1      -9.544  12.368  66.853  1.00  0.00    -0.219 C  
HETATM   23  C   UNL     1      -6.726  10.397  68.512  1.00  0.00    -0.056 A  
HETATM   24  C   UNL     1      -6.762   6.885  71.707  1.00  0.00    -0.053 A  
HETATM   25  C   UNL     1      -6.528   9.464  67.444  1.00  0.00    -0.063 A  
HETATM   26  C   UNL     1      -6.594   5.972  70.675  1.00  0.00    -0.048 A  
HETATM   27  C   UNL     1      -6.427   9.718  65.925  1.00  0.00    -0.082 C  
HETATM   28  C   UNL     1      -9.747  10.467  63.808  1.00  0.00    -0.385 C  
HETATM   29  N   UNL     1      -6.446   8.138  67.743  1.00  0.00    -0.052 NA 
HETATM   30  C   UNL     1      -8.181  10.205  63.882  1.00  0.00    -0.164 C  
HETATM   31  C   UNL     1      -7.705   9.282  65.075  1.00  0.00    -0.109 C  
HETATM   32  C   UNL     1      -6.536   7.738  69.033  1.00  0.00    -0.037 A  
HETATM   33  C   UNL     1      -6.478   6.397  69.349  1.00  0.00    -0.040 A  
ENDROOT
BRANCH  10  34
HETATM   34  C   UNL     1     -10.223  16.912  68.331  1.00  0.00    -0.322 C  
HETATM   35  C   UNL     1     -10.997  16.671  69.657  1.00  0.00    -0.222 C  
HETATM   36  C   UNL     1     -10.670  18.316  67.805  1.00  0.00    -0.358 C  
HETATM   37  C   UNL     1      -8.752  17.133  68.763  1.00  0.00    -0.235 C  
ENDBRANCH  10  34
BRANCH  22  38
HETATM   38  C   UNL     1     -10.319  11.079  67.450  1.00  0.00    -0.207 C  
HETATM   39  H   UNL     1     -12.040  10.178  67.370  1.00  0.00     0.000 HD 
HETATM   40  O   UNL     1     -11.586  10.935  67.019  1.00  0.00    -0.383 OA 
BRANCH  38  41
HETATM   41  N   UNL     1      -9.834  10.315  68.382  1.00  0.00    -0.152 NA 
HETATM   42  H   UNL     1      -8.848  10.460  68.603  1.00  0.00     0.000 HD 
BRANCH  41  43
HETATM   43  C   UNL     1     -10.509   9.273  69.158  1.00  0.00    -0.217 C  
HETATM   44  C   UNL     1     -10.451   9.470  70.720  1.00  0.00    -0.384 C  
HETATM   45  C   UNL     1     -11.715   9.781  69.946  1.00  0.00    -0.073 C  
BRANCH  43  46
HETATM   46  C   UNL     1     -10.527   7.864  68.655  1.00  0.00    -0.167 C  
HETATM   47  H   UNL     1     -11.463   6.222  68.994  1.00  0.00     0.000 HD 
HETATM   48  O   UNL     1     -11.452   7.116  69.314  1.00  0.00     0.008 OA 
BRANCH  46  49
HETATM   49  N   UNL     1      -9.717   7.461  67.754  1.00  0.00    -0.140 N  
HETATM   50  H   UNL     1      -9.005   8.103  67.405  1.00  0.00     0.000 HD 
BRANCH  49  51
HETATM   51  S   UNL     1      -9.786   5.971  67.155  1.00  0.00    -0.141 S  
HETATM   52  O   UNL     1      -9.309   5.036  68.152  1.00  0.00    -0.116 OA 
HETATM   53  O   UNL     1     -11.088   5.777  66.535  1.00  0.00    -0.200 OA 
BRANCH  51  54
HETATM   54  C   UNL     1      -8.624   5.908  65.744  1.00  0.00    -0.154 C  
HETATM   55  C   UNL     1      -7.383   5.178  65.976  1.00  0.00    -0.081 C  
HETATM   56  C   UNL     1      -8.450   4.519  65.098  1.00  0.00    -0.126 C  
ENDBRANCH  51  54
ENDBRANCH  49  51
ENDBRANCH  46  49
ENDBRANCH  43  46
BRANCH  44  57
HETATM   57  C   UNL     1     -10.547   8.360  71.688  1.00  0.00    -0.327 C  
HETATM   58  C   UNL     1     -11.532   8.158  72.594  1.00  0.00    -0.454 C  
ENDBRANCH  44  57
ENDBRANCH  41  43
ENDBRANCH  38  41
ENDBRANCH  22  38
BRANCH  24  59
HETATM   59  O   UNL     1      -6.854   6.337  72.954  1.00  0.00    -0.075 OA 
HETATM   60  C   UNL     1      -7.346   5.004  73.051  1.00  0.00    -0.087 C  
ENDBRANCH  24  59
TORSDOF 10
ENDMDL
MODEL       12
REMARK 921   NORMALIZED FREE ENERGY PREDICTED BY IDOCK:   -5.22 KCAL/MOL
REMARK 922        TOTAL FREE ENERGY PREDICTED BY IDOCK:  -10.92 KCAL/MOL
REMARK 923 INTER-LIGAND FREE ENERGY PREDICTED BY IDOCK:   -8.04 KCAL/MOL
REMARK 924 INTRA-LIGAND FREE ENERGY PREDICTED BY IDOCK:   -2.88 KCAL/MOL
REMARK 927      BINDING AFFINITY PREDICTED BY RF-SCORE:    0.00 PKD
ROOT
HETATM    1  C   UNL     1      -9.828   5.199  69.816  1.00  0.00    -0.283 C  
HETATM    2  C   UNL     1     -11.086   5.976  69.629  1.00  0.00    -0.474 C  
HETATM    3  C   UNL     1     -10.358   5.516  68.352  1.00  0.00    -0.176 C  
HETATM    4  O   UNL     1     -10.074   6.643  67.458  1.00  0.00    -0.138 OA 
HETATM    5  C   UNL     1      -9.648   6.527  66.145  1.00  0.00     0.024 C  
HETATM    6  N   UNL     1      -9.294   5.493  65.460  1.00  0.00    -0.341 NA 
HETATM    7  O   UNL     1      -9.470   7.752  65.598  1.00  0.00    -0.400 OA 
HETATM    8  H   UNL     1      -9.965   4.870  65.011  1.00  0.00     0.000 HD 
HETATM    9  H   UNL     1      -9.178   7.672  64.698  1.00  0.00     0.000 HD 
HETATM   10  C   UNL     1      -7.791   5.282  65.382  1.00  0.00    -0.094 C  
HETATM   11  C   UNL     1      -7.156   5.755  66.705  1.00  0.00    -0.070 C  
HETATM   12  N   UNL     1      -5.358  11.750  68.125  1.00  0.00    -0.043 NA 
HETATM   13  C   UNL     1      -5.589  12.897  68.764  1.00  0.00    -0.071 A  
HETATM   14  N   UNL     1      -6.967   7.141  66.889  1.00  0.00    -0.074 N  
HETATM   15  O   UNL     1      -6.943   4.954  67.626  1.00  0.00    -0.059 OA 
HETATM   16  C   UNL     1      -5.700  14.084  68.042  1.00  0.00    -0.132 A  
HETATM   17  C   UNL     1      -8.721   5.584  70.835  1.00  0.00    -0.140 C  
HETATM   18  C   UNL     1      -5.519   7.392  66.988  1.00  0.00    -0.026 C  
HETATM   19  C   UNL     1      -5.260   8.237  68.228  1.00  0.00    -0.033 C  
HETATM   20  O   UNL     1      -5.168   9.600  67.918  1.00  0.00    -0.036 OA 
HETATM   21  C   UNL     1      -6.471   7.908  69.032  1.00  0.00    -0.037 C  
HETATM   22  C   UNL     1      -7.626   7.654  68.128  1.00  0.00    -0.114 C  
HETATM   23  C   UNL     1      -5.288  10.591  68.823  1.00  0.00    -0.041 A  
HETATM   24  C   UNL     1      -5.965  15.288  68.685  1.00  0.00    -0.091 A  
HETATM   25  C   UNL     1      -5.432  10.582  70.248  1.00  0.00    -0.063 A  
HETATM   26  C   UNL     1      -6.129  15.285  70.063  1.00  0.00    -0.150 A  
HETATM   27  C   UNL     1      -5.399   9.392  71.230  1.00  0.00    -0.055 C  
HETATM   28  C   UNL     1      -8.578   6.969  71.527  1.00  0.00    -0.117 C  
HETATM   29  N   UNL     1      -5.673  11.760  70.886  1.00  0.00    -0.348 NA 
HETATM   30  C   UNL     1      -7.134   7.425  72.010  1.00  0.00    -0.063 C  
HETATM   31  C   UNL     1      -6.814   8.963  71.828  1.00  0.00    -0.042 C  
HETATM   32  C   UNL     1      -5.754  12.905  70.169  1.00  0.00    -0.148 A  
HETATM   33  C   UNL     1      -6.021  14.102  70.798  1.00  0.00    -0.198 A  
ENDROOT
BRANCH  10  34
HETATM   34  C   UNL     1      -6.968   5.241  64.000  1.00  0.00    -0.048 C  
HETATM   35  C   UNL     1      -7.709   4.287  63.023  1.00  0.00    -0.065 C  
HETATM   36  C   UNL     1      -5.566   4.602  64.269  1.00  0.00    -0.014 C  
HETATM   37  C   UNL     1      -6.643   6.500  63.159  1.00  0.00    -0.038 C  
ENDBRANCH  10  34
BRANCH  22  38
HETATM   38  C   UNL     1      -8.656   8.887  68.321  1.00  0.00    -0.134 C  
HETATM   39  H   UNL     1      -9.719   9.770  69.689  1.00  0.00     0.000 HD 
HETATM   40  O   UNL     1      -9.115   9.045  69.576  1.00  0.00    -0.144 OA 
BRANCH  38  41
HETATM   41  N   UNL     1      -9.132   9.590  67.336  1.00  0.00    -0.130 NA 
HETATM   42  H   UNL     1      -8.898   9.254  66.402  1.00  0.00     0.000 HD 
BRANCH  41  43
HETATM   43  C   UNL     1      -9.958  10.797  67.387  1.00  0.00    -0.184 C  
HETATM   44  C   UNL     1      -9.183  12.112  67.777  1.00  0.00    -0.189 C  
HETATM   45  C   UNL     1      -9.577  11.843  66.340  1.00  0.00    -0.239 C  
BRANCH  43  46
HETATM   46  C   UNL     1     -11.388  10.703  67.815  1.00  0.00    -0.244 C  
HETATM   47  H   UNL     1     -13.064  11.569  67.453  1.00  0.00     0.000 HD 
HETATM   48  O   UNL     1     -12.156  11.629  67.181  1.00  0.00    -0.575 OA 
BRANCH  46  49
HETATM   49  N   UNL     1     -11.770   9.872  68.706  1.00  0.00    -0.379 N  
HETATM   50  H   UNL     1     -11.760   8.875  68.491  1.00  0.00     0.000 HD 
BRANCH  49  51
HETATM   51  S   UNL     1     -12.268  10.352  70.156  1.00  0.00    -0.188 S  
HETATM   52  O   UNL     1     -11.427  11.440  70.611  1.00  0.00    -0.113 OA 
HETATM   53  O   UNL     1     -13.714  10.510  70.125  1.00  0.00     0.401 OA 
BRANCH  51  54
HETATM   54  C   UNL     1     -12.013   8.948  71.301  1.00  0.00    -0.307 C  
HETATM   55  C   UNL     1     -12.812   8.969  72.520  1.00  0.00    -0.408 C  
HETATM   56  C   UNL     1     -13.203   7.976  71.423  1.00  0.00    -0.260 C  
ENDBRANCH  51  54
ENDBRANCH  49  51
ENDBRANCH  46  49
ENDBRANCH  43  46
BRANCH  44  57
HETATM   57  C   UNL     1      -9.824  13.281  68.412  1.00  0.00    -0.218 C  
HETATM   58  C   UNL     1      -9.606  14.583  68.117  1.00  0.00    -0.212 C  
ENDBRANCH  44  57
ENDBRANCH  41  43
ENDBRANCH  38  41
ENDBRANCH  22  38
BRANCH  24  59
HETATM   59  O   UNL     1      -6.090  16.512  68.092  1.00  0.00    -0.114 OA 
HETATM   60  C   UNL     1      -6.344  17.629  68.937  1.00  0.00    -0.213 C  
ENDBRANCH  24  59
TORSDOF 10
ENDMDL
MODEL       13
REMARK 921   NORMALIZED FREE ENERGY PREDICTED BY IDOCK:   -5.14 KCAL/MOL
REMARK 922        TOTAL FREE ENERGY PREDICTED BY IDOCK:  -10.80 KCAL/MOL
REMARK 923 INTER-LIGAND FREE ENERGY PREDICTED BY IDOCK:   -8.45 KCAL/MOL
REMARK 924 INTRA-LIGAND FREE ENERGY PREDICTED BY IDOCK:   -2.35 KCAL/MOL
REMARK 927      BINDING AFFINITY PREDICTED BY RF-SCORE:    0.00 PKD
ROOT
HETATM    1  C   UNL     1     -11.701  13.658  64.677  1.00  0.00    -0.414 C  
HETATM    2  C   UNL     1     -12.785  13.155  65.568  1.00  0.00    -0.367 C  
HETATM    3  C   UNL     1     -12.177  14.525  65.921  1.00  0.00    -0.259 C  
HETATM    4  O   UNL     1     -11.687  14.559  67.302  1.00  0.00    -0.380 OA 
HETATM    5  C   UNL     1     -11.309  15.705  67.983  1.00  0.00    -0.324 C  
HETATM    6  N   UNL     1     -11.173  16.922  67.577  1.00  0.00    -0.006 NA 
HETATM    7  O   UNL     1     -10.900  15.395  69.235  1.00  0.00    -0.227 OA 
HETATM    8  H   UNL     1     -11.959  17.566  67.484  1.00  0.00     0.000 HD 
HETATM    9  H   UNL     1     -10.640  16.181  69.701  1.00  0.00     0.000 HD 
HETATM   10  C   UNL     1      -9.742  17.314  67.249  1.00  0.00    -0.262 C  
HETATM   11  C   UNL     1      -9.010  16.081  66.680  1.00  0.00    -0.260 C  
HETATM   12  N   UNL     1      -6.052  11.515  70.085  1.00  0.00    -0.153 NA 
HETATM   13  C   UNL     1      -6.046  10.279  70.587  1.00  0.00    -0.103 A  
HETATM   14  N   UNL     1      -8.550  15.107  67.592  1.00  0.00    -0.165 N  
HETATM   15  O   UNL     1      -8.947  15.891  65.458  1.00  0.00    -0.222 OA 
HETATM   16  C   UNL     1      -5.930  10.091  71.963  1.00  0.00     0.426 A  
HETATM   17  C   UNL     1     -10.529  12.779  64.166  1.00  0.00    -0.437 C  
HETATM   18  C   UNL     1      -7.080  15.068  67.511  1.00  0.00    -0.197 C  
HETATM   19  C   UNL     1      -6.645  13.619  67.332  1.00  0.00     0.030 C  
HETATM   20  O   UNL     1      -6.291  13.029  68.552  1.00  0.00    -0.070 OA 
HETATM   21  C   UNL     1      -7.887  13.039  66.748  1.00  0.00     0.300 C  
HETATM   22  C   UNL     1      -9.081  13.742  67.294  1.00  0.00    -0.232 C  
HETATM   23  C   UNL     1      -6.204  11.699  68.752  1.00  0.00    -0.052 A  
HETATM   24  C   UNL     1      -5.946   8.812  72.512  1.00  0.00    -0.075 A  
HETATM   25  C   UNL     1      -6.329  10.582  67.865  1.00  0.00    -0.059 A  
HETATM   26  C   UNL     1      -6.091   7.725  71.662  1.00  0.00    -0.035 A  
HETATM   27  C   UNL     1      -6.519  10.561  66.333  1.00  0.00    -0.105 C  
HETATM   28  C   UNL     1     -10.108  11.406  64.761  1.00  0.00    -0.326 C  
HETATM   29  N   UNL     1      -6.326   9.327  68.392  1.00  0.00    -0.053 NA 
HETATM   30  C   UNL     1      -8.596  10.942  64.594  1.00  0.00     0.014 C  
HETATM   31  C   UNL     1      -7.983  10.175  65.833  1.00  0.00    -0.134 C  
HETATM   32  C   UNL     1      -6.189   9.165  69.729  1.00  0.00    -0.039 A  
HETATM   33  C   UNL     1      -6.208   7.901  70.281  1.00  0.00    -0.033 A  
ENDROOT
BRANCH  10  34
HETATM   34  C   UNL     1      -8.960  18.519  67.972  1.00  0.00    -0.319 C  
HETATM   35  C   UNL     1      -9.956  19.246  68.917  1.00  0.00    -0.495 C  
HETATM   36  C   UNL     1      -8.532  19.563  66.888  1.00  0.00    -0.327 C  
HETATM   37  C   UNL     1      -7.678  18.322  68.819  1.00  0.00    -0.286 C  
ENDBRANCH  10  34
BRANCH  22  38
HETATM   38  C   UNL     1      -9.846  12.693  68.260  1.00  0.00    -0.227 C  
HETATM   39  H   UNL     1     -10.175  12.334  70.142  1.00  0.00     0.000 HD 
HETATM   40  O   UNL     1      -9.726  12.950  69.575  1.00  0.00     0.826 OA 
BRANCH  38  41
HETATM   41  N   UNL     1     -10.412  11.603  67.836  1.00  0.00    -0.187 NA 
HETATM   42  H   UNL     1     -10.443  11.488  66.822  1.00  0.00     0.000 HD 
BRANCH  41  43
HETATM   43  C   UNL     1     -11.011  10.517  68.614  1.00  0.00    -0.248 C  
HETATM   44  C   UNL     1     -11.441  10.913  70.077  1.00  0.00    -0.411 C  
HETATM   45  C   UNL     1     -12.474  10.761  68.980  1.00  0.00     0.339 C  
BRANCH  43  46
HETATM   46  C   UNL     1     -10.553   9.109  68.402  1.00  0.00    -0.172 C  
HETATM   47  H   UNL     1     -10.525   7.796  67.000  1.00  0.00     0.000 HD 
HETATM   48  O   UNL     1     -10.816   8.690  67.135  1.00  0.00    -0.212 OA 
BRANCH  46  49
HETATM   49  N   UNL     1     -10.035   8.420  69.344  1.00  0.00    -0.186 N  
HETATM   50  H   UNL     1      -9.424   8.882  70.017  1.00  0.00     0.000 HD 
BRANCH  49  51
HETATM   51  S   UNL     1     -10.319   6.846  69.499  1.00  0.00    -0.216 S  
HETATM   52  O   UNL     1     -11.738   6.636  69.688  1.00  0.00    -0.298 OA 
HETATM   53  O   UNL     1      -9.608   6.138  68.445  1.00  0.00    -0.118 OA 
BRANCH  51  54
HETATM   54  C   UNL     1      -9.476   6.299  71.028  1.00  0.00    -0.175 C  
HETATM   55  C   UNL     1      -9.637   7.168  72.187  1.00  0.00    -0.160 C  
HETATM   56  C   UNL     1     -10.411   5.848  72.167  1.00  0.00    -0.241 C  
ENDBRANCH  51  54
ENDBRANCH  49  51
ENDBRANCH  46  49
ENDBRANCH  43  46
BRANCH  44  57
HETATM   57  C   UNL     1     -11.539   9.948  71.190  1.00  0.00    -0.468 C  
HETATM   58  C   UNL     1     -12.674   9.435  71.720  1.00  0.00    -0.476 C  
ENDBRANCH  44  57
ENDBRANCH  41  43
ENDBRANCH  38  41
ENDBRANCH  22  38
BRANCH  24  59
HETATM   59  O   UNL     1      -5.835   8.499  73.836  1.00  0.00    -0.099 OA 
HETATM   60  C   UNL     1      -6.386   7.258  74.267  1.00  0.00    -0.078 C  
ENDBRANCH  24  59
TORSDOF 10
ENDMDL
MODEL       14
REMARK 921   NORMALIZED FREE ENERGY PREDICTED BY IDOCK:   -4.71 KCAL/MOL
REMARK 922        TOTAL FREE ENERGY PREDICTED BY IDOCK:  -10.12 KCAL/MOL
REMARK 923 INTER-LIGAND FREE ENERGY PREDICTED BY IDOCK:   -9.20 KCAL/MOL
REMARK 924 INTRA-LIGAND FREE ENERGY PREDICTED BY IDOCK:   -0.91 KCAL/MOL
REMARK 927      BINDING AFFINITY PREDICTED BY RF-SCORE:    0.00 PKD
ROOT
HETATM    1  C   UNL     1     -11.502  12.543  63.652  1.00  0.00    -0.568 C  
HETATM    2  C   UNL     1     -12.516  11.487  63.934  1.00  0.00    -0.007 C  
HETATM    3  C   UNL     1     -12.319  12.566  65.015  1.00  0.00    -0.453 C  
HETATM    4  O   UNL     1     -12.012  11.973  66.320  1.00  0.00    -0.596 OA 
HETATM    5  C   UNL     1     -12.016  12.658  67.525  1.00  0.00    -0.250 C  
HETATM    6  N   UNL     1     -12.149  13.915  67.781  1.00  0.00    -0.467 NA 
HETATM    7  O   UNL     1     -11.685  11.826  68.539  1.00  0.00    -0.295 OA 
HETATM    8  H   UNL     1     -13.057  14.377  67.828  1.00  0.00     0.000 HD 
HETATM    9  H   UNL     1     -11.687  12.295  69.365  1.00  0.00     0.000 HD 
HETATM   10  C   UNL     1     -10.837  14.647  68.005  1.00  0.00    -0.257 C  
HETATM   11  C   UNL     1      -9.757  14.014  67.104  1.00  0.00    -0.242 C  
HETATM   12  N   UNL     1      -6.138   8.909  68.527  1.00  0.00    -0.045 NA 
HETATM   13  C   UNL     1      -5.874   7.610  68.377  1.00  0.00    -0.031 A  
HETATM   14  N   UNL     1      -9.170  12.803  67.527  1.00  0.00    -0.183 N  
HETATM   15  O   UNL     1      -9.511  14.486  65.985  1.00  0.00    -0.292 OA 
HETATM   16  C   UNL     1      -5.869   6.770  69.489  1.00  0.00    -0.015 A  
HETATM   17  C   UNL     1     -10.095  12.252  63.065  1.00  0.00     0.259 C  
HETATM   18  C   UNL     1      -7.738  13.053  67.769  1.00  0.00    -0.151 C  
HETATM   19  C   UNL     1      -6.933  11.990  67.033  1.00  0.00    -0.095 C  
HETATM   20  O   UNL     1      -6.580  10.929  67.877  1.00  0.00    -0.062 OA 
HETATM   21  C   UNL     1      -7.913  11.592  65.984  1.00  0.00     0.270 C  
HETATM   22  C   UNL     1      -9.300  11.714  66.513  1.00  0.00    -0.206 C  
HETATM   23  C   UNL     1      -6.180   9.718  67.442  1.00  0.00    -0.060 A  
HETATM   24  C   UNL     1      -5.621   5.408  69.353  1.00  0.00    -0.011 A  
HETATM   25  C   UNL     1      -5.918   9.204  66.131  1.00  0.00    -0.059 A  
HETATM   26  C   UNL     1      -5.389   4.897  68.083  1.00  0.00    -0.011 A  
HETATM   27  C   UNL     1      -5.923   9.934  64.771  1.00  0.00    -0.099 C  
HETATM   28  C   UNL     1      -9.409  10.858  63.022  1.00  0.00    -0.349 C  
HETATM   29  N   UNL     1      -5.656   7.875  65.993  1.00  0.00    -0.032 NA 
HETATM   30  C   UNL     1      -7.821  10.799  63.000  1.00  0.00     0.044 C  
HETATM   31  C   UNL     1      -7.176   9.621  63.835  1.00  0.00    -0.115 C  
HETATM   32  C   UNL     1      -5.632   7.081  67.088  1.00  0.00    -0.018 A  
HETATM   33  C   UNL     1      -5.392   5.729  66.961  1.00  0.00    -0.005 A  
ENDROOT
BRANCH  10  34
HETATM   34  C   UNL     1     -10.473  15.427  69.364  1.00  0.00    -0.257 C  
HETATM   35  C   UNL     1     -11.508  15.021  70.449  1.00  0.00    -0.321 C  
HETATM   36  C   UNL     1     -10.655  16.963  69.127  1.00  0.00    -0.330 C  
HETATM   37  C   UNL     1      -9.096  15.325  70.068  1.00  0.00     0.264 C  
ENDBRANCH  10  34
BRANCH  22  38
HETATM   38  C   UNL     1      -9.877  10.210  66.673  1.00  0.00    -0.200 C  
HETATM   39  H   UNL     1     -10.483   8.702  65.607  1.00  0.00     0.000 HD 
HETATM   40  O   UNL     1     -10.145   9.585  65.512  1.00  0.00    -0.260 OA 
BRANCH  38  41
HETATM   41  N   UNL     1     -10.203   9.681  67.814  1.00  0.00    -0.191 NA 
HETATM   42  H   UNL     1     -10.370  10.341  68.574  1.00  0.00     0.000 HD 
BRANCH  41  43
HETATM   43  C   UNL     1     -10.363   8.267  68.157  1.00  0.00    -0.202 C  
HETATM   44  C   UNL     1     -10.287   7.277  66.934  1.00  0.00    -0.358 C  
HETATM   45  C   UNL     1      -9.118   7.426  67.884  1.00  0.00    -0.129 C  
BRANCH  43  46
HETATM   46  C   UNL     1     -11.257   7.873  69.291  1.00  0.00     0.261 C  
HETATM   47  H   UNL     1     -11.943   6.271  70.099  1.00  0.00     0.000 HD 
HETATM   48  O   UNL     1     -11.375   6.521  69.379  1.00  0.00    -0.354 OA 
BRANCH  46  49
HETATM   49  N   UNL     1     -11.847   8.743  70.016  1.00  0.00    -0.341 N  
HETATM   50  H   UNL     1     -12.284   9.547  69.567  1.00  0.00     0.000 HD 
BRANCH  49  51
HETATM   51  S   UNL     1     -11.920   8.606  71.615  1.00  0.00    -0.350 S  
HETATM   52  O   UNL     1     -12.258   9.892  72.187  1.00  0.00    -0.243 OA 
HETATM   53  O   UNL     1     -12.708   7.428  71.947  1.00  0.00    -0.313 OA 
BRANCH  51  54
HETATM   54  C   UNL     1     -10.239   8.174  72.193  1.00  0.00    -0.262 C  
HETATM   55  C   UNL     1     -10.152   7.624  73.540  1.00  0.00    -0.345 C  
HETATM   56  C   UNL     1      -9.969   6.666  72.361  1.00  0.00    -0.180 C  
ENDBRANCH  51  54
ENDBRANCH  49  51
ENDBRANCH  46  49
ENDBRANCH  43  46
BRANCH  44  57
HETATM   57  C   UNL     1     -10.935   5.951  66.913  1.00  0.00    -0.304 C  
HETATM   58  C   UNL     1     -10.504   4.850  66.255  1.00  0.00    -0.349 C  
ENDBRANCH  44  57
ENDBRANCH  41  43
ENDBRANCH  38  41
ENDBRANCH  22  38
BRANCH  24  59
HETATM   59  O   UNL     1      -5.584   4.488  70.361  1.00  0.00    -0.011 OA 
HETATM   60  C   UNL     1      -6.390   3.323  70.218  1.00  0.00    -0.028 C  
ENDBRANCH  24  59
TORSDOF 10
ENDMDL
MODEL       15
REMARK 921   NORMALIZED FREE ENERGY PREDICTED BY IDOCK:   -4.69 KCAL/MOL
REMARK 922        TOTAL FREE ENERGY PREDICTED BY IDOCK:  -10.09 KCAL/MOL
REMARK 923 INTER-LIGAND FREE ENERGY PREDICTED BY IDOCK:   -7.18 KCAL/MOL
REMARK 924 INTRA-LIGAND FREE ENERGY PREDICTED BY IDOCK:   -2.91 KCAL/MOL
REMARK 927      BINDING AFFINITY PREDICTED BY RF-SCORE:    0.00 PKD
ROOT
HETATM    1  C   UNL     1      -6.127   7.786  72.580  1.00  0.00    -0.045 C  
HETATM    2  C   UNL     1      -7.450   7.919  73.253  1.00  0.00    -0.157 C  
HETATM    3  C   UNL     1      -7.321   6.811  72.192  1.00  0.00    -0.088 C  
HETATM    4  O   UNL     1      -8.352   6.933  71.156  1.00  0.00    -0.118 OA 
HETATM    5  C   UNL     1      -8.645   5.965  70.209  1.00  0.00    -0.134 C  
HETATM    6  N   UNL     1      -8.054   4.854  69.927  1.00  0.00    -0.072 NA 
HETATM    7  O   UNL     1      -9.642   6.388  69.398  1.00  0.00    -0.142 OA 
HETATM    8  H   UNL     1      -8.209   3.994  70.455  1.00  0.00     0.000 HD 
HETATM    9  H   UNL     1      -9.843   5.724  68.748  1.00  0.00     0.000 HD 
HETATM   10  C   UNL     1      -7.107   4.935  68.742  1.00  0.00    -0.053 C  
HETATM   11  C   UNL     1      -6.463   6.337  68.718  1.00  0.00    -0.046 C  
HETATM   12  N   UNL     1      -8.924  11.601  65.994  1.00  0.00    -0.185 NA 
HETATM   13  C   UNL     1      -9.545  12.775  66.118  1.00  0.00    -0.212 A  
HETATM   14  N   UNL     1      -7.226   7.405  68.201  1.00  0.00    -0.088 N  
HETATM   15  O   UNL     1      -5.366   6.537  69.257  1.00  0.00    -0.012 OA 
HETATM   16  C   UNL     1     -10.758  12.989  65.467  1.00  0.00    -0.299 A  
HETATM   17  C   UNL     1      -5.302   8.991  72.056  1.00  0.00    -0.058 C  
HETATM   18  C   UNL     1      -6.545   7.907  66.995  1.00  0.00    -0.060 C  
HETATM   19  C   UNL     1      -6.405   9.419  67.115  1.00  0.00    -0.066 C  
HETATM   20  O   UNL     1      -7.436  10.090  66.443  1.00  0.00    -0.098 OA 
HETATM   21  C   UNL     1      -6.481   9.578  68.594  1.00  0.00    -0.052 C  
HETATM   22  C   UNL     1      -7.371   8.532  69.172  1.00  0.00    -0.079 C  
HETATM   23  C   UNL     1      -7.764  11.379  66.658  1.00  0.00    -0.129 A  
HETATM   24  C   UNL     1     -11.436  14.197  65.601  1.00  0.00    -0.325 A  
HETATM   25  C   UNL     1      -7.176  12.400  67.472  1.00  0.00    -0.145 A  
HETATM   26  C   UNL     1     -10.885  15.183  66.408  1.00  0.00    -0.326 A  
HETATM   27  C   UNL     1      -5.883  12.360  68.314  1.00  0.00    -0.059 C  
HETATM   28  C   UNL     1      -5.852  10.426  71.824  1.00  0.00     0.400 C  
HETATM   29  N   UNL     1      -7.824  13.591  67.593  1.00  0.00    -0.161 NA 
HETATM   30  C   UNL     1      -5.136  11.343  70.742  1.00  0.00    -0.113 C  
HETATM   31  C   UNL     1      -6.100  12.265  69.891  1.00  0.00    -0.140 C  
HETATM   32  C   UNL     1      -8.990  13.787  66.934  1.00  0.00    -0.221 A  
HETATM   33  C   UNL     1      -9.670  14.980  67.066  1.00  0.00    -0.241 A  
ENDROOT
BRANCH  10  34
HETATM   34  C   UNL     1      -7.261   4.039  67.415  1.00  0.00    -0.067 C  
HETATM   35  C   UNL     1      -5.984   4.227  66.551  1.00  0.00    -0.027 C  
HETATM   36  C   UNL     1      -8.456   4.591  66.570  1.00  0.00    -0.109 C  
HETATM   37  C   UNL     1      -7.505   2.509  67.438  1.00  0.00    -0.061 C  
ENDBRANCH  10  34
BRANCH  22  38
HETATM   38  C   UNL     1      -8.704   9.285  69.696  1.00  0.00    -0.153 C  
HETATM   39  H   UNL     1      -9.361  10.324  71.202  1.00  0.00     0.000 HD 
HETATM   40  O   UNL     1      -8.578   9.882  70.895  1.00  0.00    -0.036 OA 
BRANCH  38  41
HETATM   41  N   UNL     1      -9.856   9.210  69.099  1.00  0.00    -0.167 NA 
HETATM   42  H   UNL     1      -9.913   8.539  68.333  1.00  0.00     0.000 HD 
BRANCH  41  43
HETATM   43  C   UNL     1     -11.084   9.958  69.376  1.00  0.00    -0.199 C  
HETATM   44  C   UNL     1     -11.002  11.500  69.066  1.00  0.00    -0.285 C  
HETATM   45  C   UNL     1     -11.730  10.559  68.129  1.00  0.00     0.001 C  
BRANCH  43  46
HETATM   46  C   UNL     1     -11.968   9.542  70.510  1.00  0.00    -0.134 C  
HETATM   47  H   UNL     1     -13.533  10.174  71.426  1.00  0.00     0.000 HD 
HETATM   48  O   UNL     1     -12.972  10.439  70.707  1.00  0.00    -0.375 OA 
BRANCH  46  49
HETATM   49  N   UNL     1     -11.729   8.496  71.200  1.00  0.00    -0.279 N  
HETATM   50  H   UNL     1     -10.912   8.481  71.811  1.00  0.00     0.000 HD 
BRANCH  49  51
HETATM   51  S   UNL     1     -12.678   7.200  71.135  1.00  0.00    -0.239 S  
HETATM   52  O   UNL     1     -14.058   7.615  71.267  1.00  0.00    -0.361 OA 
HETATM   53  O   UNL     1     -12.266   6.377  70.007  1.00  0.00    -0.087 OA 
BRANCH  51  54
HETATM   54  C   UNL     1     -12.274   6.168  72.591  1.00  0.00     0.121 C  
HETATM   55  C   UNL     1     -11.115   5.297  72.450  1.00  0.00    -0.260 C  
HETATM   56  C   UNL     1     -10.971   6.545  73.322  1.00  0.00    -0.224 C  
ENDBRANCH  51  54
ENDBRANCH  49  51
ENDBRANCH  46  49
ENDBRANCH  43  46
BRANCH  44  57
HETATM   57  C   UNL     1     -11.839  12.515  69.736  1.00  0.00    -0.380 C  
HETATM   58  C   UNL     1     -11.631  13.852  69.755  1.00  0.00    -0.335 C  
ENDBRANCH  44  57
ENDBRANCH  41  43
ENDBRANCH  38  41
ENDBRANCH  22  38
BRANCH  24  59
HETATM   59  O   UNL     1     -12.623  14.528  65.012  1.00  0.00    -0.476 OA 
HETATM   60  C   UNL     1     -12.598  15.531  64.002  1.00  0.00     0.476 C  
ENDBRANCH  24  59
TORSDOF 10
ENDMDL
MODEL       16
REMARK 921   NORMALIZED FREE ENERGY PREDICTED BY IDOCK:   -4.59 KCAL/MOL
REMARK 922        TOTAL FREE ENERGY PREDICTED BY IDOCK:   -9.92 KCAL/MOL
REMARK 923 INTER-LIGAND FREE ENERGY PREDICTED BY IDOCK:   -7.84 KCAL/MOL
REMARK 924 INTRA-LIGAND FREE ENERGY PREDICTED BY IDOCK:   -2.08 KCAL/MOL
REMARK 927      BINDING AFFINITY PREDICTED BY RF-SCORE:    0.00 PKD
ROOT
HETATM    1  C   UNL     1      -6.181   8.327  65.880  1.00  0.00    -0.048 C  
HETATM    2  C   UNL     1      -5.172   9.369  66.224  1.00  0.00    -0.040 C  
HETATM    3  C   UNL     1      -5.425   8.275  67.277  1.00  0.00    -0.038 C  
HETATM    4  O   UNL     1      -5.784   8.850  68.578  1.00  0.00    -0.040 OA 
HETATM    5  C   UNL     1      -5.838   8.145  69.770  1.00  0.00    -0.026 C  
HETATM    6  N   UNL     1      -5.727   6.883  70.010  1.00  0.00    -0.022 NA 
HETATM    7  O   UNL     1      -6.206   8.964  70.782  1.00  0.00    -0.035 OA 
HETATM    8  H   UNL     1      -4.826   6.412  70.090  1.00  0.00     0.000 HD 
HETATM    9  H   UNL     1      -6.244   8.481  71.600  1.00  0.00     0.000 HD 
HETATM   10  C   UNL     1      -7.054   6.159  70.165  1.00  0.00    -0.074 C  
HETATM   11  C   UNL     1      -8.088   6.816  69.228  1.00  0.00    -0.120 C  
HETATM   12  N   UNL     1     -11.723  11.931  70.576  1.00  0.00    -0.157 NA 
HETATM   13  C   UNL     1     -11.969  13.234  70.436  1.00  0.00    -0.275 A  
HETATM   14  N   UNL     1      -8.683   8.026  69.645  1.00  0.00    -0.132 N  
HETATM   15  O   UNL     1      -8.288   6.365  68.092  1.00  0.00    -0.115 OA 
HETATM   16  C   UNL     1     -12.016  14.056  71.560  1.00  0.00    -0.038 A  
HETATM   17  C   UNL     1      -7.558   8.640  65.237  1.00  0.00    -0.088 C  
HETATM   18  C   UNL     1     -10.125   7.785  69.821  1.00  0.00    -0.194 C  
HETATM   19  C   UNL     1     -10.889   8.867  69.067  1.00  0.00    -0.046 C  
HETATM   20  O   UNL     1     -11.270   9.917  69.912  1.00  0.00    -0.242 OA 
HETATM   21  C   UNL     1      -9.860   9.273  68.069  1.00  0.00    -0.191 C  
HETATM   22  C   UNL     1      -8.499   9.130  68.656  1.00  0.00    -0.127 C  
HETATM   23  C   UNL     1     -11.640  11.139  69.480  1.00  0.00    -0.321 A  
HETATM   24  C   UNL     1     -12.246  15.422  71.436  1.00  0.00    -0.371 A  
HETATM   25  C   UNL     1     -11.841  11.676  68.168  1.00  0.00    -0.244 A  
HETATM   26  C   UNL     1     -12.418  15.956  70.166  1.00  0.00    -0.104 A  
HETATM   27  C   UNL     1     -11.782  10.968  66.798  1.00  0.00     0.552 C  
HETATM   28  C   UNL     1      -8.230  10.041  65.188  1.00  0.00    -0.146 C  
HETATM   29  N   UNL     1     -12.085  13.009  68.040  1.00  0.00    -0.265 NA 
HETATM   30  C   UNL     1      -9.816  10.114  65.097  1.00  0.00    -0.394 C  
HETATM   31  C   UNL     1     -10.487  11.285  65.922  1.00  0.00    -0.314 C  
HETATM   32  C   UNL     1     -12.150  13.786  69.147  1.00  0.00    -0.333 A  
HETATM   33  C   UNL     1     -12.373  15.142  69.032  1.00  0.00    -0.050 A  
ENDROOT
BRANCH  10  34
HETATM   34  C   UNL     1      -7.484   5.361  71.494  1.00  0.00    -0.101 C  
HETATM   35  C   UNL     1      -8.901   4.768  71.266  1.00  0.00    -0.153 C  
HETATM   36  C   UNL     1      -7.612   6.381  72.674  1.00  0.00    -0.103 C  
HETATM   37  C   UNL     1      -6.658   4.200  72.101  1.00  0.00    -0.022 C  
ENDBRANCH  10  34
BRANCH  22  38
HETATM   38  C   UNL     1      -7.917  10.625  68.866  1.00  0.00    -0.132 C  
HETATM   39  H   UNL     1      -7.593  11.939  70.262  1.00  0.00     0.000 HD 
HETATM   40  O   UNL     1      -7.935  11.061  70.139  1.00  0.00     0.468 OA 
BRANCH  38  41
HETATM   41  N   UNL     1      -7.592  11.416  67.888  1.00  0.00    -0.103 NA 
HETATM   42  H   UNL     1      -7.256  10.956  67.042  1.00  0.00     0.000 HD 
BRANCH  41  43
HETATM   43  C   UNL     1      -7.641  12.879  67.835  1.00  0.00    -0.138 C  
HETATM   44  C   UNL     1      -8.842  13.470  67.004  1.00  0.00    -0.219 C  
HETATM   45  C   UNL     1      -8.871  13.474  68.518  1.00  0.00    -0.086 C  
BRANCH  43  46
HETATM   46  C   UNL     1      -6.369  13.667  67.840  1.00  0.00    -0.156 C  
HETATM   47  H   UNL     1      -4.687  13.697  66.913  1.00  0.00     0.000 HD 
HETATM   48  O   UNL     1      -5.494  13.197  66.910  1.00  0.00    -0.130 OA 
BRANCH  46  49
HETATM   49  N   UNL     1      -6.168  14.614  68.671  1.00  0.00    -0.083 N  
HETATM   50  H   UNL     1      -6.010  14.388  69.652  1.00  0.00     0.000 HD 
BRANCH  49  51
HETATM   51  S   UNL     1      -6.157  16.156  68.214  1.00  0.00    -0.115 S  
HETATM   52  O   UNL     1      -5.178  16.877  69.000  1.00  0.00    -0.130 OA 
HETATM   53  O   UNL     1      -6.112  16.211  66.761  1.00  0.00    -0.301 OA 
BRANCH  51  54
HETATM   54  C   UNL     1      -7.802  16.845  68.621  1.00  0.00    -0.244 C  
HETATM   55  C   UNL     1      -7.836  18.271  68.922  1.00  0.00    -0.213 C  
HETATM   56  C   UNL     1      -8.387  17.811  67.571  1.00  0.00    -0.227 C  
ENDBRANCH  51  54
ENDBRANCH  49  51
ENDBRANCH  46  49
ENDBRANCH  43  46
BRANCH  44  57
HETATM   57  C   UNL     1      -8.814  14.796  66.357  1.00  0.00    -0.152 C  
HETATM   58  C   UNL     1      -9.820  15.382  65.668  1.00  0.00    -0.387 C  
ENDBRANCH  44  57
ENDBRANCH  41  43
ENDBRANCH  38  41
ENDBRANCH  22  38
BRANCH  24  59
HETATM   59  O   UNL     1     -12.320  16.326  72.457  1.00  0.00    -0.465 OA 
HETATM   60  C   UNL     1     -12.484  15.816  73.776  1.00  0.00    -0.608 C  
ENDBRANCH  24  59
TORSDOF 10
ENDMDL
MODEL       17
REMARK 921   NORMALIZED FREE ENERGY PREDICTED BY IDOCK:   -4.45 KCAL/MOL
REMARK 922        TOTAL FREE ENERGY PREDICTED BY IDOCK:   -9.70 KCAL/MOL
REMARK 923 INTER-LIGAND FREE ENERGY PREDICTED BY IDOCK:   -7.05 KCAL/MOL
REMARK 924 INTRA-LIGAND FREE ENERGY PREDICTED BY IDOCK:   -2.65 KCAL/MOL
REMARK 927      BINDING AFFINITY PREDICTED BY RF-SCORE:    0.00 PKD
ROOT
HETATM    1  C   UNL     1     -11.222  14.090  65.681  1.00  0.00    -0.310 C  
HETATM    2  C   UNL     1     -12.195  13.761  66.761  1.00  0.00    -0.440 C  
HETATM    3  C   UNL     1     -11.159  14.857  67.071  1.00  0.00    -0.338 C  
HETATM    4  O   UNL     1     -10.405  14.557  68.292  1.00  0.00    -0.227 OA 
HETATM    5  C   UNL     1      -9.580  15.450  68.956  1.00  0.00    -0.236 C  
HETATM    6  N   UNL     1      -9.187  16.636  68.634  1.00  0.00    -0.240 NA 
HETATM    7  O   UNL     1      -9.028  14.862  70.043  1.00  0.00    -0.404 OA 
HETATM    8  H   UNL     1      -9.756  17.469  68.788  1.00  0.00     0.000 HD 
HETATM    9  H   UNL     1      -8.462  15.474  70.498  1.00  0.00     0.000 HD 
HETATM   10  C   UNL     1      -7.805  16.685  68.007  1.00  0.00    -0.170 C  
HETATM   11  C   UNL     1      -7.593  15.402  67.176  1.00  0.00    -0.203 C  
HETATM   12  N   UNL     1      -5.436   9.770  69.370  1.00  0.00    -0.035 NA 
HETATM   13  C   UNL     1      -5.682   8.515  69.750  1.00  0.00    -0.029 A  
HETATM   14  N   UNL     1      -7.255  14.218  67.864  1.00  0.00    -0.139 N  
HETATM   15  O   UNL     1      -7.842  15.386  65.963  1.00  0.00     0.650 OA 
HETATM   16  C   UNL     1      -5.343   8.101  71.037  1.00  0.00    -0.029 A  
HETATM   17  C   UNL     1     -10.485  13.021  64.830  1.00  0.00    -0.358 C  
HETATM   18  C   UNL     1      -5.908  13.810  67.429  1.00  0.00     0.238 C  
HETATM   19  C   UNL     1      -5.955  12.341  67.029  1.00  0.00    -0.041 C  
HETATM   20  O   UNL     1      -5.542  11.504  68.074  1.00  0.00    -0.043 OA 
HETATM   21  C   UNL     1      -7.405  12.197  66.714  1.00  0.00     0.079 C  
HETATM   22  C   UNL     1      -8.206  13.099  67.588  1.00  0.00    -0.175 C  
HETATM   23  C   UNL     1      -5.801  10.183  68.133  1.00  0.00    -0.041 A  
HETATM   24  C   UNL     1      -5.611   6.804  71.463  1.00  0.00    -0.032 A  
HETATM   25  C   UNL     1      -6.424   9.282  67.211  1.00  0.00    -0.060 A  
HETATM   26  C   UNL     1      -6.237   5.931  70.584  1.00  0.00    -0.031 A  
HETATM   27  C   UNL     1      -6.924   9.539  65.774  1.00  0.00    -0.095 C  
HETATM   28  C   UNL     1     -10.363  11.514  65.188  1.00  0.00    -0.329 C  
HETATM   29  N   UNL     1      -6.673   8.006  67.615  1.00  0.00    -0.067 NA 
HETATM   30  C   UNL     1      -9.118  10.702  64.624  1.00  0.00    -0.238 C  
HETATM   31  C   UNL     1      -8.509   9.626  65.610  1.00  0.00    -0.141 C  
HETATM   32  C   UNL     1      -6.314   7.617  68.860  1.00  0.00    -0.036 A  
HETATM   33  C   UNL     1      -6.582   6.334  69.292  1.00  0.00    -0.044 A  
ENDROOT
BRANCH  10  34
HETATM   34  C   UNL     1      -6.577  17.523  68.619  1.00  0.00    -0.206 C  
HETATM   35  C   UNL     1      -6.168  16.870  69.969  1.00  0.00    -0.056 C  
HETATM   36  C   UNL     1      -7.073  18.968  68.957  1.00  0.00    -0.361 C  
HETATM   37  C   UNL     1      -5.241  17.759  67.870  1.00  0.00    -0.137 C  
ENDBRANCH  10  34
BRANCH  22  38
HETATM   38  C   UNL     1      -9.022  12.154  68.618  1.00  0.00    -0.000 C  
HETATM   39  H   UNL     1      -8.890  11.394  70.402  1.00  0.00     0.000 HD 
HETATM   40  O   UNL     1      -8.410  11.948  69.798  1.00  0.00     1.153 OA 
BRANCH  38  41
HETATM   41  N   UNL     1     -10.110  11.516  68.303  1.00  0.00    -0.193 NA 
HETATM   42  H   UNL     1     -10.300  11.436  67.303  1.00  0.00     0.000 HD 
BRANCH  41  43
HETATM   43  C   UNL     1     -11.098  10.896  69.187  1.00  0.00    -0.245 C  
HETATM   44  C   UNL     1     -11.877  11.901  70.116  1.00  0.00    -0.390 C  
HETATM   45  C   UNL     1     -12.536  11.314  68.886  1.00  0.00     0.589 C  
BRANCH  43  46
HETATM   46  C   UNL     1     -10.852   9.524  69.731  1.00  0.00    -0.243 C  
HETATM   47  H   UNL     1      -9.392   8.293  69.936  1.00  0.00     0.000 HD 
HETATM   48  O   UNL     1      -9.548   9.163  69.590  1.00  0.00    -0.165 OA 
BRANCH  46  49
HETATM   49  N   UNL     1     -11.796   8.810  70.208  1.00  0.00    -0.466 N  
HETATM   50  H   UNL     1     -12.633   8.656  69.646  1.00  0.00     0.000 HD 
BRANCH  49  51
HETATM   51  S   UNL     1     -11.704   8.146  71.669  1.00  0.00    -0.305 S  
HETATM   52  O   UNL     1     -10.515   8.630  72.337  1.00  0.00    -0.320 OA 
HETATM   53  O   UNL     1     -13.003   8.260  72.316  1.00  0.00    -0.316 OA 
BRANCH  51  54
HETATM   54  C   UNL     1     -11.501   6.344  71.426  1.00  0.00    -0.308 C  
HETATM   55  C   UNL     1     -10.820   5.942  70.202  1.00  0.00    -0.402 C  
HETATM   56  C   UNL     1     -10.052   5.829  71.521  1.00  0.00    -0.246 C  
ENDBRANCH  51  54
ENDBRANCH  49  51
ENDBRANCH  46  49
ENDBRANCH  43  46
BRANCH  44  57
HETATM   57  C   UNL     1     -12.477  11.522  71.410  1.00  0.00    -0.338 C  
HETATM   58  C   UNL     1     -13.387  12.230  72.119  1.00  0.00    -0.473 C  
ENDBRANCH  44  57
ENDBRANCH  41  43
ENDBRANCH  38  41
ENDBRANCH  22  38
BRANCH  24  59
HETATM   59  O   UNL     1      -5.324   6.280  72.690  1.00  0.00    -0.030 OA 
HETATM   60  C   UNL     1      -6.066   5.139  73.108  1.00  0.00    -0.038 C  
ENDBRANCH  24  59
TORSDOF 10
ENDMDL
MODEL       18
REMARK 921   NORMALIZED FREE ENERGY PREDICTED BY IDOCK:   -4.27 KCAL/MOL
REMARK 922        TOTAL FREE ENERGY PREDICTED BY IDOCK:   -9.43 KCAL/MOL
REMARK 923 INTER-LIGAND FREE ENERGY PREDICTED BY IDOCK:   -8.58 KCAL/MOL
REMARK 924 INTRA-LIGAND FREE ENERGY PREDICTED BY IDOCK:   -0.85 KCAL/MOL
REMARK 927      BINDING AFFINITY PREDICTED BY RF-SCORE:    0.00 PKD
ROOT
HETATM    1  C   UNL     1      -6.341   7.718  64.122  1.00  0.00    -0.057 C  
HETATM    2  C   UNL     1      -5.126   8.562  64.308  1.00  0.00    -0.043 C  
HETATM    3  C   UNL     1      -5.676   7.852  65.559  1.00  0.00    -0.037 C  
HETATM    4  O   UNL     1      -5.939   8.801  66.646  1.00  0.00    -0.051 OA 
HETATM    5  C   UNL     1      -6.209   8.449  67.959  1.00  0.00    -0.052 C  
HETATM    6  N   UNL     1      -6.413   7.296  68.499  1.00  0.00    -0.039 NA 
HETATM    7  O   UNL     1      -6.411   9.557  68.710  1.00  0.00    -0.047 OA 
HETATM    8  H   UNL     1      -5.655   6.672  68.776  1.00  0.00     0.000 HD 
HETATM    9  H   UNL     1      -6.597   9.316  69.610  1.00  0.00     0.000 HD 
HETATM   10  C   UNL     1      -7.880   6.948  68.689  1.00  0.00    -0.118 C  
HETATM   11  C   UNL     1      -8.688   7.561  67.526  1.00  0.00    -0.125 C  
HETATM   12  N   UNL     1     -11.043  13.526  67.270  1.00  0.00    -0.280 NA 
HETATM   13  C   UNL     1     -10.963  14.773  66.804  1.00  0.00    -0.327 A  
HETATM   14  N   UNL     1      -8.992   8.938  67.587  1.00  0.00    -0.134 N  
HETATM   15  O   UNL     1      -8.944   6.895  66.514  1.00  0.00    -0.139 OA 
HETATM   16  C   UNL     1     -10.857  15.840  67.694  1.00  0.00    -0.310 A  
HETATM   17  C   UNL     1      -7.576   8.158  63.291  1.00  0.00    -0.132 C  
HETATM   18  C   UNL     1     -10.456   9.076  67.671  1.00  0.00    -0.260 C  
HETATM   19  C   UNL     1     -10.907  10.075  66.613  1.00  0.00     0.012 C  
HETATM   20  O   UNL     1     -11.059  11.361  67.146  1.00  0.00    -0.276 OA 
HETATM   21  C   UNL     1      -9.772   9.977  65.654  1.00  0.00    -0.336 C  
HETATM   22  C   UNL     1      -8.509   9.688  66.388  1.00  0.00    -0.123 C  
HETATM   23  C   UNL     1     -11.108  12.486  66.405  1.00  0.00    -0.290 A  
HETATM   24  C   UNL     1     -10.748  17.147  67.230  1.00  0.00    -0.208 A  
HETATM   25  C   UNL     1     -11.121  12.706  64.990  1.00  0.00    -0.291 A  
HETATM   26  C   UNL     1     -10.736  17.368  65.860  1.00  0.00    -0.123 A  
HETATM   27  C   UNL     1     -11.178  11.682  63.837  1.00  0.00    -0.479 C  
HETATM   28  C   UNL     1      -7.890   9.614  62.848  1.00  0.00    -0.125 C  
HETATM   29  N   UNL     1     -11.033  13.984  64.529  1.00  0.00    -0.380 NA 
HETATM   30  C   UNL     1      -9.406  10.013  62.587  1.00  0.00    -0.296 C  
HETATM   31  C   UNL     1      -9.810  11.472  63.043  1.00  0.00    -0.367 C  
HETATM   32  C   UNL     1     -10.954  15.008  65.410  1.00  0.00    -0.373 A  
HETATM   33  C   UNL     1     -10.841  16.307  64.958  1.00  0.00    -0.337 A  
ENDROOT
BRANCH  10  34
HETATM   34  C   UNL     1      -8.542   6.626  70.118  1.00  0.00    -0.140 C  
HETATM   35  C   UNL     1      -8.149   7.763  71.102  1.00  0.00    -0.095 C  
HETATM   36  C   UNL     1      -7.908   5.311  70.682  1.00  0.00    -0.089 C  
HETATM   37  C   UNL     1     -10.063   6.421  70.332  1.00  0.00    -0.221 C  
ENDBRANCH  10  34
BRANCH  22  38
HETATM   38  C   UNL     1      -7.595  11.020  66.298  1.00  0.00    -0.111 C  
HETATM   39  H   UNL     1      -5.801  11.592  65.813  1.00  0.00     0.000 HD 
HETATM   40  O   UNL     1      -6.337  10.810  65.867  1.00  0.00    -0.127 OA 
BRANCH  38  41
HETATM   41  N   UNL     1      -7.971  12.184  66.737  1.00  0.00    -0.360 NA 
HETATM   42  H   UNL     1      -8.833  12.550  66.334  1.00  0.00     0.000 HD 
BRANCH  41  43
HETATM   43  C   UNL     1      -7.324  13.041  67.732  1.00  0.00    -0.139 C  
HETATM   44  C   UNL     1      -8.155  13.264  69.052  1.00  0.00     0.300 C  
HETATM   45  C   UNL     1      -6.975  12.316  69.030  1.00  0.00    -0.078 C  
BRANCH  43  46
HETATM   46  C   UNL     1      -6.448  14.169  67.286  1.00  0.00     0.360 C  
HETATM   47  H   UNL     1      -4.592  14.494  66.912  1.00  0.00     0.000 HD 
HETATM   48  O   UNL     1      -5.148  13.779  67.196  1.00  0.00    -0.190 OA 
BRANCH  46  49
HETATM   49  N   UNL     1      -6.911  15.341  67.082  1.00  0.00    -0.108 N  
HETATM   50  H   UNL     1      -7.822  15.442  66.633  1.00  0.00     0.000 HD 
BRANCH  49  51
HETATM   51  S   UNL     1      -6.101  16.661  67.511  1.00  0.00    -0.169 S  
HETATM   52  O   UNL     1      -5.524  16.458  68.823  1.00  0.00    -0.114 OA 
HETATM   53  O   UNL     1      -5.260  17.074  66.398  1.00  0.00    -0.320 OA 
BRANCH  51  54
HETATM   54  C   UNL     1      -7.323  18.015  67.653  1.00  0.00    -0.208 C  
HETATM   55  C   UNL     1      -6.874  19.201  68.371  1.00  0.00    -0.296 C  
HETATM   56  C   UNL     1      -6.990  19.286  66.848  1.00  0.00    -0.208 C  
ENDBRANCH  51  54
ENDBRANCH  49  51
ENDBRANCH  46  49
ENDBRANCH  43  46
BRANCH  44  57
HETATM   57  C   UNL     1      -8.011  14.450  69.918  1.00  0.00     0.571 C  
HETATM   58  C   UNL     1      -8.812  15.541  69.938  1.00  0.00     0.150 C  
ENDBRANCH  44  57
ENDBRANCH  41  43
ENDBRANCH  38  41
ENDBRANCH  22  38
BRANCH  24  59
HETATM   59  O   UNL     1     -10.645  18.272  67.997  1.00  0.00    -0.383 OA 
HETATM   60  C   UNL     1     -10.750  19.530  67.338  1.00  0.00    -0.467 C  
ENDBRANCH  24  59
TORSDOF 10
ENDMDL
MODEL       19
REMARK 921   NORMALIZED FREE ENERGY PREDICTED BY IDOCK:   -3.94 KCAL/MOL
REMARK 922        TOTAL FREE ENERGY PREDICTED BY IDOCK:   -8.90 KCAL/MOL
REMARK 923 INTER-LIGAND FREE ENERGY PREDICTED BY IDOCK:   -7.74 KCAL/MOL
REMARK 924 INTRA-LIGAND FREE ENERGY PREDICTED BY IDOCK:   -1.16 KCAL/MOL
REMARK 927      BINDING AFFINITY PREDICTED BY RF-SCORE:    0.00 PKD
ROOT
HETATM    1  C   UNL     1      -6.148   8.301  65.828  1.00  0.00    -0.045 C  
HETATM    2  C   UNL     1      -5.137   9.298  66.282  1.00  0.00    -0.039 C  
HETATM    3  C   UNL     1      -5.488   8.168  67.267  1.00  0.00    -0.037 C  
HETATM    4  O   UNL     1      -5.918   8.697  68.566  1.00  0.00    -0.044 OA 
HETATM    5  C   UNL     1      -6.070   7.945  69.719  1.00  0.00    -0.026 C  
HETATM    6  N   UNL     1      -6.008   6.671  69.910  1.00  0.00    -0.022 NA 
HETATM    7  O   UNL     1      -6.483   8.730  70.741  1.00  0.00    -0.038 OA 
HETATM    8  H   UNL     1      -5.127   6.170  70.028  1.00  0.00     0.000 HD 
HETATM    9  H   UNL     1      -6.588   8.214  71.532  1.00  0.00     0.000 HD 
HETATM   10  C   UNL     1      -7.361   5.980  69.946  1.00  0.00    -0.075 C  
HETATM   11  C   UNL     1      -8.313   6.706  68.973  1.00  0.00    -0.120 C  
HETATM   12  N   UNL     1     -11.894  11.863  70.306  1.00  0.00    -0.318 NA 
HETATM   13  C   UNL     1     -12.095  13.178  70.208  1.00  0.00    -0.328 A  
HETATM   14  N   UNL     1      -8.902   7.914  69.404  1.00  0.00    -0.144 N  
HETATM   15  O   UNL     1      -8.449   6.310  67.808  1.00  0.00    -0.116 OA 
HETATM   16  C   UNL     1     -12.195  13.952  71.362  1.00  0.00    -0.296 A  
HETATM   17  C   UNL     1      -7.471   8.682  65.111  1.00  0.00    -0.090 C  
HETATM   18  C   UNL     1     -10.359   7.708  69.474  1.00  0.00    -0.217 C  
HETATM   19  C   UNL     1     -11.042   8.843  68.721  1.00  0.00     0.223 C  
HETATM   20  O   UNL     1     -11.450   9.867  69.585  1.00  0.00    -0.205 OA 
HETATM   21  C   UNL     1      -9.939   9.260  67.810  1.00  0.00    -0.235 C  
HETATM   22  C   UNL     1      -8.624   9.053  68.478  1.00  0.00    -0.129 C  
HETATM   23  C   UNL     1     -11.758  11.116  69.184  1.00  0.00    -0.338 A  
HETATM   24  C   UNL     1     -12.380  15.328  71.284  1.00  0.00    -0.361 A  
HETATM   25  C   UNL     1     -11.857  11.714  67.887  1.00  0.00    -0.203 A  
HETATM   26  C   UNL     1     -12.453  15.920  70.030  1.00  0.00    -0.056 A  
HETATM   27  C   UNL     1     -11.726  11.064  66.493  1.00  0.00     0.714 C  
HETATM   28  C   UNL     1      -8.101  10.102  65.079  1.00  0.00    -0.149 C  
HETATM   29  N   UNL     1     -12.057  13.059  67.802  1.00  0.00    -0.274 NA 
HETATM   30  C   UNL     1      -9.674  10.226  64.888  1.00  0.00    -0.385 C  
HETATM   31  C   UNL     1     -10.368  11.380  65.719  1.00  0.00    -0.304 C  
HETATM   32  C   UNL     1     -12.175  13.789  68.935  1.00  0.00    -0.200 A  
HETATM   33  C   UNL     1     -12.354  15.155  68.866  1.00  0.00    -0.021 A  
ENDROOT
BRANCH  10  34
HETATM   34  C   UNL     1      -7.900   5.139  71.207  1.00  0.00    -0.106 C  
HETATM   35  C   UNL     1      -8.437   6.142  72.265  1.00  0.00    -0.116 C  
HETATM   36  C   UNL     1      -6.692   4.398  71.870  1.00  0.00    -0.027 C  
HETATM   37  C   UNL     1      -8.991   4.044  71.104  1.00  0.00    -0.161 C  
ENDBRANCH  10  34
BRANCH  22  38
HETATM   38  C   UNL     1      -8.018  10.520  68.792  1.00  0.00    -0.127 C  
HETATM   39  H   UNL     1      -7.761  11.767  70.262  1.00  0.00     0.000 HD 
HETATM   40  O   UNL     1      -8.117  10.906  70.078  1.00  0.00     0.309 OA 
BRANCH  38  41
HETATM   41  N   UNL     1      -7.600  11.339  67.874  1.00  0.00    -0.097 NA 
HETATM   42  H   UNL     1      -7.479  10.935  66.945  1.00  0.00     0.000 HD 
BRANCH  41  43
HETATM   43  C   UNL     1      -7.279  12.763  67.991  1.00  0.00    -0.115 C  
HETATM   44  C   UNL     1      -6.322  13.128  69.188  1.00  0.00    -0.104 C  
HETATM   45  C   UNL     1      -5.802  13.078  67.767  1.00  0.00    -0.141 C  
BRANCH  43  46
HETATM   46  C   UNL     1      -8.296  13.789  67.601  1.00  0.00    -0.182 C  
HETATM   47  H   UNL     1     -10.113  14.251  68.018  1.00  0.00     0.000 HD 
HETATM   48  O   UNL     1      -9.468  13.600  68.265  1.00  0.00    -0.208 OA 
BRANCH  46  49
HETATM   49  N   UNL     1      -8.054  14.673  66.713  1.00  0.00    -0.358 N  
HETATM   50  H   UNL     1      -8.065  14.403  65.729  1.00  0.00     0.000 HD 
BRANCH  49  51
HETATM   51  S   UNL     1      -7.731  16.199  67.099  1.00  0.00    -0.217 S  
HETATM   52  O   UNL     1      -8.375  17.077  66.146  1.00  0.00    -0.391 OA 
HETATM   53  O   UNL     1      -7.957  16.377  68.526  1.00  0.00    -0.182 OA 
BRANCH  51  54
HETATM   54  C   UNL     1      -5.924  16.426  66.918  1.00  0.00     0.018 C  
HETATM   55  C   UNL     1      -5.488  17.758  66.520  1.00  0.00    -0.213 C  
HETATM   56  C   UNL     1      -5.268  17.337  67.974  1.00  0.00    -0.121 C  
ENDBRANCH  51  54
ENDBRANCH  49  51
ENDBRANCH  46  49
ENDBRANCH  43  46
BRANCH  44  57
HETATM   57  C   UNL     1      -6.293  14.454  69.837  1.00  0.00    -0.155 C  
HETATM   58  C   UNL     1      -5.467  14.850  70.832  1.00  0.00    -0.134 C  
ENDBRANCH  44  57
ENDBRANCH  41  43
ENDBRANCH  38  41
ENDBRANCH  22  38
BRANCH  24  59
HETATM   59  O   UNL     1     -12.498  16.190  72.337  1.00  0.00    -0.454 OA 
HETATM   60  C   UNL     1     -12.433  15.639  73.648  1.00  0.00    -0.579 C  
ENDBRANCH  24  59
TORSDOF 10
ENDMDL
MODEL       20
REMARK 921   NORMALIZED FREE ENERGY PREDICTED BY IDOCK:   -3.81 KCAL/MOL
REMARK 922        TOTAL FREE ENERGY PREDICTED BY IDOCK:   -8.70 KCAL/MOL
REMARK 923 INTER-LIGAND FREE ENERGY PREDICTED BY IDOCK:   -6.87 KCAL/MOL
REMARK 924 INTRA-LIGAND FREE ENERGY PREDICTED BY IDOCK:   -1.83 KCAL/MOL
REMARK 927      BINDING AFFINITY PREDICTED BY RF-SCORE:    0.00 PKD
ROOT
HETATM    1  C   UNL     1      -9.530   6.386  69.355  1.00  0.00    -0.146 C  
HETATM    2  C   UNL     1     -10.829   7.104  69.208  1.00  0.00    -0.204 C  
HETATM    3  C   UNL     1     -10.119   6.681  67.908  1.00  0.00    -0.150 C  
HETATM    4  O   UNL     1      -9.913   7.821  67.009  1.00  0.00    -0.196 OA 
HETATM    5  C   UNL     1      -9.523   7.727  65.683  1.00  0.00     0.364 C  
HETATM    6  N   UNL     1      -9.143   6.711  64.986  1.00  0.00    -0.156 NA 
HETATM    7  O   UNL     1      -9.418   8.960  65.136  1.00  0.00    -0.448 OA 
HETATM    8  H   UNL     1      -9.798   6.059  64.554  1.00  0.00     0.000 HD 
HETATM    9  H   UNL     1      -9.150   8.895  64.227  1.00  0.00     0.000 HD 
HETATM   10  C   UNL     1      -7.635   6.570  64.861  1.00  0.00    -0.097 C  
HETATM   11  C   UNL     1      -6.982   7.070  66.166  1.00  0.00    -0.065 C  
HETATM   12  N   UNL     1      -5.419  13.138  67.551  1.00  0.00    -0.315 NA 
HETATM   13  C   UNL     1      -5.684  14.273  68.200  1.00  0.00    -0.129 A  
HETATM   14  N   UNL     1      -6.851   8.462  66.349  1.00  0.00    -0.069 N  
HETATM   15  O   UNL     1      -6.705   6.278  67.077  1.00  0.00    -0.056 OA 
HETATM   16  C   UNL     1      -5.871  15.454  67.485  1.00  0.00    -0.048 A  
HETATM   17  C   UNL     1      -8.413   6.819  70.340  1.00  0.00    -0.135 C  
HETATM   18  C   UNL     1      -5.414   8.780  66.405  1.00  0.00    -0.035 C  
HETATM   19  C   UNL     1      -5.157   9.634  67.640  1.00  0.00    -0.036 C  
HETATM   20  O   UNL     1      -5.138  11.000  67.331  1.00  0.00    -0.037 OA 
HETATM   21  C   UNL     1      -6.327   9.248  68.478  1.00  0.00    -0.053 C  
HETATM   22  C   UNL     1      -7.496   8.942  67.609  1.00  0.00    -0.092 C  
HETATM   23  C   UNL     1      -5.276  11.983  68.243  1.00  0.00    -0.048 A  
HETATM   24  C   UNL     1      -6.171  16.644  68.140  1.00  0.00    -0.131 A  
HETATM   25  C   UNL     1      -5.376  11.964  69.671  1.00  0.00    -0.071 A  
HETATM   26  C   UNL     1      -6.294  16.631  69.523  1.00  0.00    -0.227 A  
HETATM   27  C   UNL     1      -5.259  10.775  70.648  1.00  0.00    -0.086 C  
HETATM   28  C   UNL     1      -8.312   8.207  71.032  1.00  0.00    -0.129 C  
HETATM   29  N   UNL     1      -5.652  13.129  70.320  1.00  0.00    -0.127 NA 
HETATM   30  C   UNL     1      -6.877   8.729  71.473  1.00  0.00    -0.087 C  
HETATM   31  C   UNL     1      -6.634  10.281  71.287  1.00  0.00     0.552 C  
HETATM   32  C   UNL     1      -5.806  14.270  69.609  1.00  0.00    -0.106 A  
HETATM   33  C   UNL     1      -6.109  15.453  70.250  1.00  0.00    -0.098 A  
ENDROOT
BRANCH  10  34
HETATM   34  C   UNL     1      -6.853   6.569  63.456  1.00  0.00    -0.049 C  
HETATM   35  C   UNL     1      -7.047   7.961  62.792  1.00  0.00    -0.087 C  
HETATM   36  C   UNL     1      -7.527   5.525  62.505  1.00  0.00    -0.050 C  
HETATM   37  C   UNL     1      -5.340   6.268  63.317  1.00  0.00    -0.018 C  
ENDBRANCH  10  34
BRANCH  22  38
HETATM   38  C   UNL     1      -8.575  10.126  67.836  1.00  0.00    -0.118 C  
HETATM   39  H   UNL     1      -9.978  10.678  69.064  1.00  0.00     0.000 HD 
HETATM   40  O   UNL     1      -9.345   9.983  68.931  1.00  0.00    -0.156 OA 
BRANCH  38  41
HETATM   41  N   UNL     1      -8.802  11.070  66.973  1.00  0.00    -0.141 NA 
HETATM   42  H   UNL     1      -8.020  11.307  66.363  1.00  0.00     0.000 HD 
BRANCH  41  43
HETATM   43  C   UNL     1     -10.029  11.839  66.756  1.00  0.00    -0.201 C  
HETATM   44  C   UNL     1     -10.998  11.245  65.666  1.00  0.00    -0.201 C  
HETATM   45  C   UNL     1     -11.301  11.086  67.141  1.00  0.00    -0.214 C  
BRANCH  43  46
HETATM   46  C   UNL     1     -10.009  13.328  66.903  1.00  0.00    -0.250 C  
HETATM   47  H   UNL     1      -8.741  14.769  66.827  1.00  0.00     0.000 HD 
HETATM   48  O   UNL     1      -8.754  13.824  66.734  1.00  0.00    -0.190 OA 
BRANCH  46  49
HETATM   49  N   UNL     1     -11.059  13.989  67.202  1.00  0.00    -0.296 N  
HETATM   50  H   UNL     1     -11.838  14.008  66.543  1.00  0.00     0.000 HD 
BRANCH  49  51
HETATM   51  S   UNL     1     -11.191  14.793  68.587  1.00  0.00    -0.289 S  
HETATM   52  O   UNL     1     -12.405  15.581  68.566  1.00  0.00    -0.006 OA 
HETATM   53  O   UNL     1     -10.934  13.875  69.687  1.00  0.00    -0.145 OA 
BRANCH  51  54
HETATM   54  C   UNL     1      -9.783  15.960  68.664  1.00  0.00    -0.207 C  
HETATM   55  C   UNL     1      -9.957  17.213  67.940  1.00  0.00    -0.292 C  
HETATM   56  C   UNL     1     -10.043  17.249  69.467  1.00  0.00     0.012 C  
ENDBRANCH  51  54
ENDBRANCH  49  51
ENDBRANCH  46  49
ENDBRANCH  43  46
BRANCH  44  57
HETATM   57  C   UNL     1     -11.960  12.057  64.896  1.00  0.00    -0.286 C  
HETATM   58  C   UNL     1     -12.217  11.969  63.570  1.00  0.00    -0.653 C  
ENDBRANCH  44  57
ENDBRANCH  41  43
ENDBRANCH  38  41
ENDBRANCH  22  38
BRANCH  24  59
HETATM   59  O   UNL     1      -6.370  17.862  67.555  1.00  0.00    -0.163 OA 
HETATM   60  C   UNL     1      -5.935  19.014  68.270  1.00  0.00    -0.210 C  
ENDBRANCH  24  59
TORSDOF 10
ENDMDL
MODEL       21
REMARK 921   NORMALIZED FREE ENERGY PREDICTED BY IDOCK:   -3.54 KCAL/MOL
REMARK 922        TOTAL FREE ENERGY PREDICTED BY IDOCK:   -8.27 KCAL/MOL
REMARK 923 INTER-LIGAND FREE ENERGY PREDICTED BY IDOCK:   -5.62 KCAL/MOL
REMARK 924 INTRA-LIGAND FREE ENERGY PREDICTED BY IDOCK:   -2.65 KCAL/MOL
REMARK 927      BINDING AFFINITY PREDICTED BY RF-SCORE:    0.00 PKD
ROOT
HETATM    1  C   UNL     1      -6.830   6.595  74.296  1.00  0.00    -0.084 C  
HETATM    2  C   UNL     1      -5.784   7.483  73.715  1.00  0.00    -0.052 C  
HETATM    3  C   UNL     1      -7.248   7.927  73.537  1.00  0.00    -0.124 C  
HETATM    4  O   UNL     1      -7.575   8.158  72.126  1.00  0.00    -0.099 OA 
HETATM    5  C   UNL     1      -8.723   8.783  71.668  1.00  0.00    -0.185 C  
HETATM    6  N   UNL     1      -9.778   9.176  72.298  1.00  0.00    -0.053 NA 
HETATM    7  O   UNL     1      -8.724   8.832  70.316  1.00  0.00    -0.140 OA 
HETATM    8  H   UNL     1      -9.825  10.063  72.801  1.00  0.00     0.000 HD 
HETATM    9  H   UNL     1      -9.512   9.261  70.002  1.00  0.00     0.000 HD 
HETATM   10  C   UNL     1     -10.945   8.206  72.224  1.00  0.00    -0.332 C  
HETATM   11  C   UNL     1     -10.391   6.767  72.194  1.00  0.00    -0.200 C  
HETATM   12  N   UNL     1      -8.511   3.531  66.979  1.00  0.00    -0.102 NA 
HETATM   13  C   UNL     1      -7.527   3.064  66.211  1.00  0.00    -0.076 A  
HETATM   14  N   UNL     1      -9.889   6.278  70.969  1.00  0.00    -0.180 N  
HETATM   15  O   UNL     1     -10.270   6.114  73.239  1.00  0.00    -0.185 OA 
HETATM   16  C   UNL     1      -7.451   3.445  64.873  1.00  0.00    -0.073 A  
HETATM   17  C   UNL     1      -6.823   5.050  74.157  1.00  0.00    -0.076 C  
HETATM   18  C   UNL     1     -10.735   5.148  70.550  1.00  0.00    -0.064 C  
HETATM   19  C   UNL     1      -9.832   3.970  70.208  1.00  0.00    -0.134 C  
HETATM   20  O   UNL     1      -9.576   3.895  68.833  1.00  0.00    -0.171 OA 
HETATM   21  C   UNL     1      -8.622   4.324  71.002  1.00  0.00    -0.115 C  
HETATM   22  C   UNL     1      -8.476   5.804  71.074  1.00  0.00    -0.123 C  
HETATM   23  C   UNL     1      -8.563   3.192  68.290  1.00  0.00    -0.091 A  
HETATM   24  C   UNL     1      -6.420   2.989  64.059  1.00  0.00    -0.030 A  
HETATM   25  C   UNL     1      -7.588   2.312  68.860  1.00  0.00    -0.043 A  
HETATM   26  C   UNL     1      -5.456   2.155  64.609  1.00  0.00    -0.009 A  
HETATM   27  C   UNL     1      -7.450   1.807  70.312  1.00  0.00    -0.036 C  
HETATM   28  C   UNL     1      -5.977   4.243  73.133  1.00  0.00    -0.012 C  
HETATM   29  N   UNL     1      -6.585   1.847  68.064  1.00  0.00    -0.028 NA 
HETATM   30  C   UNL     1      -6.507   2.816  72.674  1.00  0.00    -0.014 C  
HETATM   31  C   UNL     1      -6.263   2.463  71.151  1.00  0.00    -0.018 C  
HETATM   32  C   UNL     1      -6.544   2.210  66.761  1.00  0.00    -0.038 A  
HETATM   33  C   UNL     1      -5.521   1.766  65.949  1.00  0.00    -0.009 A  
ENDROOT
BRANCH  10  34
HETATM   34  C   UNL     1     -12.382   8.586  71.610  1.00  0.00    -0.371 C  
HETATM   35  C   UNL     1     -13.274   7.314  71.640  1.00  0.00    -0.421 C  
HETATM   36  C   UNL     1     -12.201   8.967  70.103  1.00  0.00     0.501 C  
HETATM   37  C   UNL     1     -13.281   9.717  72.169  1.00  0.00    -0.535 C  
ENDBRANCH  10  34
BRANCH  22  38
HETATM   38  C   UNL     1      -7.182   6.193  70.183  1.00  0.00    -0.076 C  
HETATM   39  H   UNL     1      -5.293   5.772  69.995  1.00  0.00     0.000 HD 
HETATM   40  O   UNL     1      -6.052   5.544  70.518  1.00  0.00    -0.023 OA 
BRANCH  38  41
HETATM   41  N   UNL     1      -7.171   7.155  69.309  1.00  0.00    -0.083 NA 
HETATM   42  H   UNL     1      -7.335   8.091  69.682  1.00  0.00     0.000 HD 
BRANCH  41  43
HETATM   43  C   UNL     1      -6.956   7.079  67.863  1.00  0.00    -0.083 C  
HETATM   44  C   UNL     1      -5.479   7.370  67.398  1.00  0.00    -0.029 C  
HETATM   45  C   UNL     1      -6.012   5.954  67.443  1.00  0.00    -0.018 C  
BRANCH  43  46
HETATM   46  C   UNL     1      -8.051   7.480  66.926  1.00  0.00    -0.116 C  
HETATM   47  H   UNL     1      -8.853   6.861  65.293  1.00  0.00     0.000 HD 
HETATM   48  O   UNL     1      -8.157   6.606  65.888  1.00  0.00    -0.112 OA 
BRANCH  46  49
HETATM   49  N   UNL     1      -8.730   8.546  67.101  1.00  0.00    -0.128 N  
HETATM   50  H   UNL     1      -9.725   8.470  67.313  1.00  0.00     0.000 HD 
BRANCH  49  51
HETATM   51  S   UNL     1      -8.063  10.004  66.999  1.00  0.00    -0.117 S  
HETATM   52  O   UNL     1      -7.367  10.296  68.235  1.00  0.00    -0.082 OA 
HETATM   53  O   UNL     1      -7.366  10.111  65.726  1.00  0.00    -0.114 OA 
BRANCH  51  54
HETATM   54  C   UNL     1      -9.431  11.209  66.843  1.00  0.00    -0.185 C  
HETATM   55  C   UNL     1     -10.399  10.937  65.788  1.00  0.00    -0.303 C  
HETATM   56  C   UNL     1     -10.823  10.675  67.234  1.00  0.00    -0.345 C  
ENDBRANCH  51  54
ENDBRANCH  49  51
ENDBRANCH  46  49
ENDBRANCH  43  46
BRANCH  44  57
HETATM   57  C   UNL     1      -5.129   7.884  66.060  1.00  0.00    -0.025 C  
HETATM   58  C   UNL     1      -5.201   7.209  64.889  1.00  0.00    -0.028 C  
ENDBRANCH  44  57
ENDBRANCH  41  43
ENDBRANCH  38  41
ENDBRANCH  22  38
BRANCH  24  59
HETATM   59  O   UNL     1      -6.241   3.285  62.737  1.00  0.00    -0.013 OA 
HETATM   60  C   UNL     1      -5.756   4.584  62.414  1.00  0.00    -0.013 C  
ENDBRANCH  24  59
TORSDOF 10
ENDMDL
MODEL       22
REMARK 921   NORMALIZED FREE ENERGY PREDICTED BY IDOCK:   -3.30 KCAL/MOL
REMARK 922        TOTAL FREE ENERGY PREDICTED BY IDOCK:   -7.89 KCAL/MOL
REMARK 923 INTER-LIGAND FREE ENERGY PREDICTED BY IDOCK:   -5.41 KCAL/MOL
REMARK 924 INTRA-LIGAND FREE ENERGY PREDICTED BY IDOCK:   -2.48 KCAL/MOL
REMARK 927      BINDING AFFINITY PREDICTED BY RF-SCORE:    0.00 PKD
ROOT
HETATM    1  C   UNL     1     -11.709  11.602  69.139  1.00  0.00    -0.390 C  
HETATM    2  C   UNL     1     -12.339  11.695  67.791  1.00  0.00     0.805 C  
HETATM    3  C   UNL     1     -11.112  10.774  67.920  1.00  0.00    -0.308 C  
HETATM    4  O   UNL     1     -10.070  11.124  66.949  1.00  0.00    -0.203 OA 
HETATM    5  C   UNL     1      -8.962  10.345  66.659  1.00  0.00    -0.141 C  
HETATM    6  N   UNL     1      -8.521   9.265  67.209  1.00  0.00    -0.124 NA 
HETATM    7  O   UNL     1      -8.193  10.952  65.725  1.00  0.00    -0.193 OA 
HETATM    8  H   UNL     1      -8.889   8.340  66.987  1.00  0.00     0.000 HD 
HETATM    9  H   UNL     1      -7.433  10.418  65.526  1.00  0.00     0.000 HD 
HETATM   10  C   UNL     1      -7.406   9.490  68.217  1.00  0.00    -0.077 C  
HETATM   11  C   UNL     1      -7.647  10.838  68.928  1.00  0.00    -0.121 C  
HETATM   12  N   UNL     1      -5.752  16.611  66.863  1.00  0.00    -0.302 NA 
HETATM   13  C   UNL     1      -6.046  17.781  66.293  1.00  0.00    -0.220 A  
HETATM   14  N   UNL     1      -7.287  12.018  68.245  1.00  0.00    -0.087 N  
HETATM   15  O   UNL     1      -8.256  10.884  70.005  1.00  0.00     0.381 OA 
HETATM   16  C   UNL     1      -5.391  18.168  65.126  1.00  0.00    -0.131 A  
HETATM   17  C   UNL     1     -11.430  12.830  70.046  1.00  0.00    -0.082 C  
HETATM   18  C   UNL     1      -6.212  12.675  69.009  1.00  0.00    -0.091 C  
HETATM   19  C   UNL     1      -6.591  14.136  69.214  1.00  0.00    -0.120 C  
HETATM   20  O   UNL     1      -6.000  14.966  68.252  1.00  0.00    -0.104 OA 
HETATM   21  C   UNL     1      -8.072  14.050  69.072  1.00  0.00     0.087 C  
HETATM   22  C   UNL     1      -8.427  12.974  68.105  1.00  0.00    -0.176 C  
HETATM   23  C   UNL     1      -6.416  16.217  67.976  1.00  0.00    -0.131 A  
HETATM   24  C   UNL     1      -5.699  19.372  64.501  1.00  0.00    -0.267 A  
HETATM   25  C   UNL     1      -7.415  17.054  68.570  1.00  0.00    -0.221 A  
HETATM   26  C   UNL     1      -6.683  20.178  65.057  1.00  0.00    -0.313 A  
HETATM   27  C   UNL     1      -8.291  16.803  69.816  1.00  0.00     0.949 C  
HETATM   28  C   UNL     1     -11.422  14.311  69.577  1.00  0.00    -0.336 C  
HETATM   29  N   UNL     1      -7.708  18.242  67.975  1.00  0.00    -0.252 NA 
HETATM   30  C   UNL     1     -10.541  15.355  70.391  1.00  0.00    -0.274 C  
HETATM   31  C   UNL     1      -9.819  16.458  69.516  1.00  0.00    -0.119 C  
HETATM   32  C   UNL     1      -7.044  18.610  66.855  1.00  0.00    -0.203 A  
HETATM   33  C   UNL     1      -7.347  19.801  66.227  1.00  0.00    -0.293 A  
ENDROOT
BRANCH  10  34
HETATM   34  C   UNL     1      -5.942   8.837  68.087  1.00  0.00    -0.046 C  
HETATM   35  C   UNL     1      -5.144   9.173  69.377  1.00  0.00    -0.035 C  
HETATM   36  C   UNL     1      -5.186   9.527  66.904  1.00  0.00    -0.034 C  
HETATM   37  C   UNL     1      -5.696   7.326  67.848  1.00  0.00    -0.029 C  
ENDBRANCH  10  34
BRANCH  22  38
HETATM   38  C   UNL     1      -9.014  13.702  66.785  1.00  0.00    -0.181 C  
HETATM   39  H   UNL     1      -8.552  14.080  64.934  1.00  0.00     0.000 HD 
HETATM   40  O   UNL     1      -8.206  13.653  65.709  1.00  0.00     1.746 OA 
BRANCH  38  41
HETATM   41  N   UNL     1     -10.104  14.409  66.776  1.00  0.00    -0.261 NA 
HETATM   42  H   UNL     1     -10.789  14.174  67.495  1.00  0.00     0.000 HD 
BRANCH  41  43
HETATM   43  C   UNL     1     -10.484  15.499  65.875  1.00  0.00    -0.342 C  
HETATM   44  C   UNL     1     -10.349  16.943  66.489  1.00  0.00    -0.299 C  
HETATM   45  C   UNL     1      -9.323  16.421  65.505  1.00  0.00     0.217 C  
BRANCH  43  46
HETATM   46  C   UNL     1     -11.576  15.289  64.873  1.00  0.00    -0.289 C  
HETATM   47  H   UNL     1     -12.255  16.123  63.282  1.00  0.00     0.000 HD 
HETATM   48  O   UNL     1     -11.561  16.256  63.917  1.00  0.00    -0.987 OA 
BRANCH  46  49
HETATM   49  N   UNL     1     -12.418  14.336  64.986  1.00  0.00    -0.540 N  
HETATM   50  H   UNL     1     -13.083  14.350  65.759  1.00  0.00     0.000 HD 
BRANCH  49  51
HETATM   51  S   UNL     1     -12.459  13.113  63.943  1.00  0.00    -0.224 S  
HETATM   52  O   UNL     1     -13.610  12.284  64.230  1.00  0.00    -0.457 OA 
HETATM   53  O   UNL     1     -12.251  13.637  62.601  1.00  0.00    -0.028 OA 
BRANCH  51  54
HETATM   54  C   UNL     1     -10.966  12.101  64.246  1.00  0.00    -0.339 C  
HETATM   55  C   UNL     1     -10.867  10.869  63.475  1.00  0.00     0.046 C  
HETATM   56  C   UNL     1      -9.966  12.039  63.075  1.00  0.00    -0.063 C  
ENDBRANCH  51  54
ENDBRANCH  49  51
ENDBRANCH  46  49
ENDBRANCH  43  46
BRANCH  44  57
HETATM   57  C   UNL     1     -11.143  18.102  66.037  1.00  0.00     0.509 C  
HETATM   58  C   UNL     1     -10.667  19.310  65.654  1.00  0.00    -0.335 C  
ENDBRANCH  44  57
ENDBRANCH  41  43
ENDBRANCH  38  41
ENDBRANCH  22  38
BRANCH  24  59
HETATM   59  O   UNL     1      -5.126  19.863  63.363  1.00  0.00    -0.167 OA 
HETATM   60  C   UNL     1      -5.221  21.264  63.131  1.00  0.00    -0.214 C  
ENDBRANCH  24  59
TORSDOF 10
ENDMDL
MODEL       23
REMARK 921   NORMALIZED FREE ENERGY PREDICTED BY IDOCK:   -2.85 KCAL/MOL
REMARK 922        TOTAL FREE ENERGY PREDICTED BY IDOCK:   -7.17 KCAL/MOL
REMARK 923 INTER-LIGAND FREE ENERGY PREDICTED BY IDOCK:   -6.10 KCAL/MOL
REMARK 924 INTRA-LIGAND FREE ENERGY PREDICTED BY IDOCK:   -1.07 KCAL/MOL
REMARK 927      BINDING AFFINITY PREDICTED BY RF-SCORE:    0.00 PKD
ROOT
HETATM    1  C   UNL     1      -6.321   7.227  65.124  1.00  0.00    -0.038 C  
HETATM    2  C   UNL     1      -5.153   8.052  65.544  1.00  0.00    -0.028 C  
HETATM    3  C   UNL     1      -5.998   7.424  66.668  1.00  0.00    -0.036 C  
HETATM    4  O   UNL     1      -6.469   8.436  67.618  1.00  0.00    -0.055 OA 
HETATM    5  C   UNL     1      -7.044   8.164  68.849  1.00  0.00    -0.066 C  
HETATM    6  N   UNL     1      -7.406   7.047  69.383  1.00  0.00    -0.088 NA 
HETATM    7  O   UNL     1      -7.373   9.315  69.479  1.00  0.00    -0.064 OA 
HETATM    8  H   UNL     1      -6.754   6.421  69.856  1.00  0.00     0.000 HD 
HETATM    9  H   UNL     1      -7.767   9.128  70.323  1.00  0.00     0.000 HD 
HETATM   10  C   UNL     1      -8.889   6.744  69.247  1.00  0.00    -0.137 C  
HETATM   11  C   UNL     1      -9.388   7.311  67.902  1.00  0.00    -0.129 C  
HETATM   12  N   UNL     1     -11.412  13.305  66.825  1.00  0.00    -0.333 NA 
HETATM   13  C   UNL     1     -11.184  14.523  66.331  1.00  0.00    -0.341 A  
HETATM   14  N   UNL     1      -9.649   8.695  67.825  1.00  0.00    -0.145 N  
HETATM   15  O   UNL     1      -9.430   6.596  66.891  1.00  0.00    -0.143 OA 
HETATM   16  C   UNL     1     -11.247  15.634  67.169  1.00  0.00    -0.152 A  
HETATM   17  C   UNL     1      -7.318   7.649  64.012  1.00  0.00    -0.092 C  
HETATM   18  C   UNL     1     -11.088   8.871  67.564  1.00  0.00     0.342 C  
HETATM   19  C   UNL     1     -11.251   9.821  66.384  1.00  0.00     0.914 C  
HETATM   20  O   UNL     1     -11.475  11.138  66.805  1.00  0.00    -0.380 OA 
HETATM   21  C   UNL     1      -9.930   9.645  65.716  1.00  0.00    -0.342 C  
HETATM   22  C   UNL     1      -8.880   9.367  66.735  1.00  0.00    -0.127 C  
HETATM   23  C   UNL     1     -11.314  12.221  66.019  1.00  0.00    -0.350 A  
HETATM   24  C   UNL     1     -10.989  16.911  66.680  1.00  0.00     0.151 A  
HETATM   25  C   UNL     1     -10.996  12.364  64.630  1.00  0.00    -0.305 A  
HETATM   26  C   UNL     1     -10.656  17.057  65.340  1.00  0.00    -0.147 A  
HETATM   27  C   UNL     1     -10.824  11.280  63.546  1.00  0.00    -0.373 C  
HETATM   28  C   UNL     1      -7.472   9.085  63.439  1.00  0.00    -0.099 C  
HETATM   29  N   UNL     1     -10.760  13.613  64.141  1.00  0.00    -0.245 NA 
HETATM   30  C   UNL     1      -8.874   9.504  62.817  1.00  0.00    -0.244 C  
HETATM   31  C   UNL     1      -9.319  10.996  63.099  1.00  0.00    -0.339 C  
HETATM   32  C   UNL     1     -10.849  14.681  64.966  1.00  0.00    -0.417 A  
HETATM   33  C   UNL     1     -10.590  15.950  64.491  1.00  0.00     0.291 A  
ENDROOT
BRANCH  10  34
HETATM   34  C   UNL     1      -9.871   6.516  70.500  1.00  0.00    -0.197 C  
HETATM   35  C   UNL     1     -11.326   6.411  69.964  1.00  0.00    -0.496 C  
HETATM   36  C   UNL     1      -9.823   7.785  71.414  1.00  0.00    -0.195 C  
HETATM   37  C   UNL     1      -9.727   5.340  71.498  1.00  0.00    -0.215 C  
ENDBRANCH  10  34
BRANCH  22  38
HETATM   38  C   UNL     1      -7.923  10.671  66.792  1.00  0.00    -0.132 C  
HETATM   39  H   UNL     1      -6.697  11.696  65.686  1.00  0.00     0.000 HD 
HETATM   40  O   UNL     1      -7.258  10.931  65.652  1.00  0.00    -0.068 OA 
BRANCH  38  41
HETATM   41  N   UNL     1      -7.684  11.342  67.879  1.00  0.00    -0.109 NA 
HETATM   42  H   UNL     1      -6.910  10.998  68.448  1.00  0.00     0.000 HD 
BRANCH  41  43
HETATM   43  C   UNL     1      -8.373  12.525  68.397  1.00  0.00    -0.132 C  
HETATM   44  C   UNL     1      -7.431  13.734  68.759  1.00  0.00    -0.098 C  
HETATM   45  C   UNL     1      -8.256  13.749  67.490  1.00  0.00    -0.194 C  
BRANCH  43  46
HETATM   46  C   UNL     1      -9.612  12.363  69.221  1.00  0.00     0.769 C  
HETATM   47  H   UNL     1     -10.604  10.957  70.074  1.00  0.00     0.000 HD 
HETATM   48  O   UNL     1      -9.818  11.060  69.552  1.00  0.00    -0.046 OA 
BRANCH  46  49
HETATM   49  N   UNL     1     -10.368  13.353  69.501  1.00  0.00    -0.194 N  
HETATM   50  H   UNL     1     -10.062  14.295  69.257  1.00  0.00     0.000 HD 
BRANCH  49  51
HETATM   51  S   UNL     1     -11.788  13.157  70.228  1.00  0.00    -0.148 S  
HETATM   52  O   UNL     1     -12.838  13.177  69.232  1.00  0.00     0.512 OA 
HETATM   53  O   UNL     1     -11.686  12.044  71.160  1.00  0.00     0.416 OA 
BRANCH  51  54
HETATM   54  C   UNL     1     -12.036  14.607  71.315  1.00  0.00    -0.350 C  
HETATM   55  C   UNL     1     -13.273  15.351  71.109  1.00  0.00    -0.583 C  
HETATM   56  C   UNL     1     -13.168  14.464  72.352  1.00  0.00    -0.528 C  
ENDBRANCH  51  54
ENDBRANCH  49  51
ENDBRANCH  46  49
ENDBRANCH  43  46
BRANCH  44  57
HETATM   57  C   UNL     1      -7.770  14.765  69.759  1.00  0.00     0.068 C  
HETATM   58  C   UNL     1      -7.136  15.945  69.954  1.00  0.00     0.085 C  
ENDBRANCH  44  57
ENDBRANCH  41  43
ENDBRANCH  38  41
ENDBRANCH  22  38
BRANCH  24  59
HETATM   59  O   UNL     1     -11.024  18.074  67.396  1.00  0.00    -0.293 OA 
HETATM   60  C   UNL     1     -10.544  19.253  66.758  1.00  0.00    -0.448 C  
ENDBRANCH  24  59
TORSDOF 10
ENDMDL
MODEL       24
REMARK 921   NORMALIZED FREE ENERGY PREDICTED BY IDOCK:   -2.62 KCAL/MOL
REMARK 922        TOTAL FREE ENERGY PREDICTED BY IDOCK:   -6.81 KCAL/MOL
REMARK 923 INTER-LIGAND FREE ENERGY PREDICTED BY IDOCK:   -7.60 KCAL/MOL
REMARK 924 INTRA-LIGAND FREE ENERGY PREDICTED BY IDOCK:    0.79 KCAL/MOL
REMARK 927      BINDING AFFINITY PREDICTED BY RF-SCORE:    0.00 PKD
ROOT
HETATM    1  C   UNL     1      -6.561   8.614  65.694  1.00  0.00    -0.060 C  
HETATM    2  C   UNL     1      -5.346   9.406  66.040  1.00  0.00    -0.040 C  
HETATM    3  C   UNL     1      -6.141   8.807  67.215  1.00  0.00    -0.055 C  
HETATM    4  O   UNL     1      -6.525   9.836  68.187  1.00  0.00    -0.056 OA 
HETATM    5  C   UNL     1      -7.033   9.585  69.451  1.00  0.00    -0.050 C  
HETATM    6  N   UNL     1      -7.395   8.481  70.011  1.00  0.00    -0.054 NA 
HETATM    7  O   UNL     1      -7.291  10.748  70.093  1.00  0.00    -0.413 OA 
HETATM    8  H   UNL     1      -6.734   7.838  70.447  1.00  0.00     0.000 HD 
HETATM    9  H   UNL     1      -7.639  10.575  70.960  1.00  0.00     0.000 HD 
HETATM   10  C   UNL     1      -8.892   8.221  69.965  1.00  0.00    -0.134 C  
HETATM   11  C   UNL     1      -9.453   8.797  68.649  1.00  0.00    -0.141 C  
HETATM   12  N   UNL     1     -11.364  14.845  67.663  1.00  0.00    -0.328 NA 
HETATM   13  C   UNL     1     -11.131  16.053  67.149  1.00  0.00    -0.104 A  
HETATM   14  N   UNL     1      -9.679  10.188  68.580  1.00  0.00    -0.157 N  
HETATM   15  O   UNL     1      -9.576   8.081  67.646  1.00  0.00    -0.145 OA 
HETATM   16  C   UNL     1     -11.111  17.169  67.984  1.00  0.00    -0.113 A  
HETATM   17  C   UNL     1      -7.610   9.061  64.641  1.00  0.00    -0.107 C  
HETATM   18  C   UNL     1     -11.125  10.406  68.404  1.00  0.00    -0.268 C  
HETATM   19  C   UNL     1     -11.330  11.356  67.231  1.00  0.00    -0.275 C  
HETATM   20  O   UNL     1     -11.490  12.680  67.658  1.00  0.00    -0.291 OA 
HETATM   21  C   UNL     1     -10.057  11.139  66.487  1.00  0.00    -0.265 C  
HETATM   22  C   UNL     1      -8.956  10.834  67.443  1.00  0.00    -0.139 C  
HETATM   23  C   UNL     1     -11.345  13.755  66.858  1.00  0.00    -0.328 A  
HETATM   24  C   UNL     1     -10.846  18.436  67.474  1.00  0.00    -0.267 A  
HETATM   25  C   UNL     1     -11.106  13.884  65.452  1.00  0.00    -0.310 A  
HETATM   26  C   UNL     1     -10.589  18.567  66.116  1.00  0.00    -0.377 A  
HETATM   27  C   UNL     1     -11.031  12.791  64.365  1.00  0.00    -0.393 C  
HETATM   28  C   UNL     1      -7.756  10.499  64.071  1.00  0.00     0.054 C  
HETATM   29  N   UNL     1     -10.864  15.123  64.943  1.00  0.00    -0.422 NA 
HETATM   30  C   UNL     1      -9.179  10.957  63.531  1.00  0.00    -0.258 C  
HETATM   31  C   UNL     1      -9.564  12.462  63.831  1.00  0.00     0.151 C  
HETATM   32  C   UNL     1     -10.873  16.197  65.767  1.00  0.00    -0.201 A  
HETATM   33  C   UNL     1     -10.606  17.456  65.270  1.00  0.00     0.061 A  
ENDROOT
BRANCH  10  34
HETATM   34  C   UNL     1      -9.803   8.026  71.275  1.00  0.00    -0.200 C  
HETATM   35  C   UNL     1      -8.898   8.199  72.526  1.00  0.00    -0.272 C  
HETATM   36  C   UNL     1     -10.329   6.553  71.308  1.00  0.00    -0.234 C  
HETATM   37  C   UNL     1     -11.065   8.873  71.575  1.00  0.00    -0.397 C  
ENDBRANCH  10  34
BRANCH  22  38
HETATM   38  C   UNL     1      -7.960  12.110  67.437  1.00  0.00    -0.168 C  
HETATM   39  H   UNL     1      -6.112  12.583  67.060  1.00  0.00     0.000 HD 
HETATM   40  O   UNL     1      -6.697  11.834  67.064  1.00  0.00    -0.136 OA 
BRANCH  38  41
HETATM   41  N   UNL     1      -8.288  13.282  67.890  1.00  0.00    -0.150 NA 
HETATM   42  H   UNL     1      -9.210  13.346  68.321  1.00  0.00     0.000 HD 
BRANCH  41  43
HETATM   43  C   UNL     1      -7.513  14.525  67.866  1.00  0.00    -0.150 C  
HETATM   44  C   UNL     1      -7.913  15.531  66.723  1.00  0.00    -0.214 C  
HETATM   45  C   UNL     1      -8.347  15.772  68.153  1.00  0.00    -0.160 C  
BRANCH  43  46
HETATM   46  C   UNL     1      -6.077  14.513  68.285  1.00  0.00    -0.118 C  
HETATM   47  H   UNL     1      -4.353  14.920  67.541  1.00  0.00     0.000 HD 
HETATM   48  O   UNL     1      -5.265  14.927  67.275  1.00  0.00    -0.303 OA 
BRANCH  46  49
HETATM   49  N   UNL     1      -5.716  14.106  69.440  1.00  0.00    -0.084 N  
HETATM   50  H   UNL     1      -5.252  13.201  69.524  1.00  0.00     0.000 HD 
BRANCH  49  51
HETATM   51  S   UNL     1      -5.971  14.978  70.766  1.00  0.00     0.049 S  
HETATM   52  O   UNL     1      -7.392  15.214  70.912  1.00  0.00     0.779 OA 
HETATM   53  O   UNL     1      -5.210  14.396  71.861  1.00  0.00    -0.147 OA 
BRANCH  51  54
HETATM   54  C   UNL     1      -5.171  16.601  70.500  1.00  0.00    -0.217 C  
HETATM   55  C   UNL     1      -6.062  17.697  70.140  1.00  0.00    -0.027 C  
HETATM   56  C   UNL     1      -5.493  17.673  71.560  1.00  0.00     0.342 C  
ENDBRANCH  51  54
ENDBRANCH  49  51
ENDBRANCH  46  49
ENDBRANCH  43  46
BRANCH  44  57
HETATM   57  C   UNL     1      -6.990  16.532  66.154  1.00  0.00     0.476 C  
HETATM   58  C   UNL     1      -7.258  17.836  65.911  1.00  0.00    -0.260 C  
ENDBRANCH  44  57
ENDBRANCH  41  43
ENDBRANCH  38  41
ENDBRANCH  22  38
BRANCH  24  59
HETATM   59  O   UNL     1     -10.804  19.602  68.184  1.00  0.00    -0.262 OA 
HETATM   60  C   UNL     1      -9.891  19.675  69.274  1.00  0.00    -0.261 C  
ENDBRANCH  24  59
TORSDOF 10
ENDMDL
MODEL       25
REMARK 921   NORMALIZED FREE ENERGY PREDICTED BY IDOCK:   -2.23 KCAL/MOL
REMARK 922        TOTAL FREE ENERGY PREDICTED BY IDOCK:   -6.18 KCAL/MOL
REMARK 923 INTER-LIGAND FREE ENERGY PREDICTED BY IDOCK:   -5.69 KCAL/MOL
REMARK 924 INTRA-LIGAND FREE ENERGY PREDICTED BY IDOCK:   -0.50 KCAL/MOL
REMARK 927      BINDING AFFINITY PREDICTED BY RF-SCORE:    0.00 PKD
ROOT
HETATM    1  C   UNL     1      -5.331   8.005  70.962  1.00  0.00    -0.029 C  
HETATM    2  C   UNL     1      -5.263   9.375  71.544  1.00  0.00    -0.058 C  
HETATM    3  C   UNL     1      -6.420   8.477  72.020  1.00  0.00    -0.073 C  
HETATM    4  O   UNL     1      -7.721   9.123  71.824  1.00  0.00    -0.344 OA 
HETATM    5  C   UNL     1      -8.918   8.678  72.361  1.00  0.00    -0.135 C  
HETATM    6  N   UNL     1      -9.203   7.600  73.009  1.00  0.00    -0.179 NA 
HETATM    7  O   UNL     1      -9.933   9.492  71.988  1.00  0.00     0.110 OA 
HETATM    8  H   UNL     1      -9.030   7.492  74.009  1.00  0.00     0.000 HD 
HETATM    9  H   UNL     1     -10.753   9.187  72.356  1.00  0.00     0.000 HD 
HETATM   10  C   UNL     1      -9.820   6.505  72.155  1.00  0.00    -0.157 C  
HETATM   11  C   UNL     1      -9.210   6.578  70.741  1.00  0.00    -0.155 C  
HETATM   12  N   UNL     1     -11.254  10.279  65.912  1.00  0.00     0.561 NA 
HETATM   13  C   UNL     1     -11.103  11.368  65.156  1.00  0.00    -0.133 A  
HETATM   14  N   UNL     1      -9.703   7.563  69.859  1.00  0.00    -0.171 N  
HETATM   15  O   UNL     1      -8.231   5.883  70.437  1.00  0.00    -0.108 OA 
HETATM   16  C   UNL     1     -12.122  12.317  65.095  1.00  0.00    -0.379 A  
HETATM   17  C   UNL     1      -5.133   7.698  69.454  1.00  0.00    -0.015 C  
HETATM   18  C   UNL     1     -10.340   6.877  68.722  1.00  0.00    -0.189 C  
HETATM   19  C   UNL     1      -9.788   7.468  67.431  1.00  0.00    -0.169 C  
HETATM   20  O   UNL     1     -10.630   8.460  66.913  1.00  0.00    -0.305 OA 
HETATM   21  C   UNL     1      -8.490   8.011  67.921  1.00  0.00    -0.125 C  
HETATM   22  C   UNL     1      -8.628   8.459  69.335  1.00  0.00    -0.129 C  
HETATM   23  C   UNL     1     -10.248   9.376  66.002  1.00  0.00    -0.134 A  
HETATM   24  C   UNL     1     -11.976  13.471  64.333  1.00  0.00    -0.422 A  
HETATM   25  C   UNL     1      -9.030   9.557  65.271  1.00  0.00    -0.200 A  
HETATM   26  C   UNL     1     -10.789  13.667  63.640  1.00  0.00     0.648 A  
HETATM   27  C   UNL     1      -7.767   8.672  65.234  1.00  0.00    -0.092 C  
HETATM   28  C   UNL     1      -5.195   8.745  68.307  1.00  0.00    -0.034 C  
HETATM   29  N   UNL     1      -8.888  10.676  64.508  1.00  0.00    -0.191 NA 
HETATM   30  C   UNL     1      -5.601   8.249  66.853  1.00  0.00    -0.037 C  
HETATM   31  C   UNL     1      -6.508   9.248  66.026  1.00  0.00    -0.068 C  
HETATM   32  C   UNL     1      -9.899  11.573  64.444  1.00  0.00    -0.241 A  
HETATM   33  C   UNL     1      -9.761  12.723  63.693  1.00  0.00     0.675 A  
ENDROOT
BRANCH  10  34
HETATM   34  C   UNL     1     -11.271   5.869  72.433  1.00  0.00    -0.340 C  
HETATM   35  C   UNL     1     -11.777   5.220  71.115  1.00  0.00     1.154 C  
HETATM   36  C   UNL     1     -12.270   7.024  72.772  1.00  0.00     0.337 C  
HETATM   37  C   UNL     1     -11.547   4.811  73.531  1.00  0.00    -0.119 C  
ENDBRANCH  10  34
BRANCH  22  38
HETATM   38  C   UNL     1      -8.535  10.074  69.329  1.00  0.00    -0.163 C  
HETATM   39  H   UNL     1      -7.231  11.513  69.423  1.00  0.00     0.000 HD 
HETATM   40  O   UNL     1      -7.285  10.565  69.427  1.00  0.00    -0.089 OA 
BRANCH  38  41
HETATM   41  N   UNL     1      -9.571  10.857  69.377  1.00  0.00    -0.426 NA 
HETATM   42  H   UNL     1     -10.378  10.489  69.882  1.00  0.00     0.000 HD 
BRANCH  41  43
HETATM   43  C   UNL     1      -9.739  12.193  68.803  1.00  0.00     0.012 C  
HETATM   44  C   UNL     1      -8.402  13.007  68.621  1.00  0.00     0.027 C  
HETATM   45  C   UNL     1      -9.082  12.359  67.434  1.00  0.00    -0.183 C  
BRANCH  43  46
HETATM   46  C   UNL     1     -10.974  12.982  69.104  1.00  0.00    -0.140 C  
HETATM   47  H   UNL     1     -12.695  13.322  68.321  1.00  0.00     0.000 HD 
HETATM   48  O   UNL     1     -11.911  12.821  68.130  1.00  0.00    -0.332 OA 
BRANCH  46  49
HETATM   49  N   UNL     1     -11.060  13.733  70.132  1.00  0.00    -0.432 N  
HETATM   50  H   UNL     1     -10.400  13.601  70.899  1.00  0.00     0.000 HD 
BRANCH  49  51
HETATM   51  S   UNL     1     -12.177  14.882  70.253  1.00  0.00    -0.351 S  
HETATM   52  O   UNL     1     -12.089  15.753  69.101  1.00  0.00    -0.353 OA 
HETATM   53  O   UNL     1     -13.446  14.264  70.607  1.00  0.00    -0.177 OA 
BRANCH  51  54
HETATM   54  C   UNL     1     -11.759  15.881  71.728  1.00  0.00    -0.491 C  
HETATM   55  C   UNL     1     -12.783  15.943  72.763  1.00  0.00    -0.562 C  
HETATM   56  C   UNL     1     -11.550  15.077  73.027  1.00  0.00    -0.222 C  
ENDBRANCH  51  54
ENDBRANCH  49  51
ENDBRANCH  46  49
ENDBRANCH  43  46
BRANCH  44  57
HETATM   57  C   UNL     1      -8.338  14.481  68.600  1.00  0.00    -0.164 C  
HETATM   58  C   UNL     1      -8.611  15.289  67.549  1.00  0.00    -0.190 C  
ENDBRANCH  44  57
ENDBRANCH  41  43
ENDBRANCH  38  41
ENDBRANCH  22  38
BRANCH  24  59
HETATM   59  O   UNL     1     -12.900  14.467  64.188  1.00  0.00    -0.606 OA 
HETATM   60  C   UNL     1     -12.416  15.802  64.086  1.00  0.00     0.402 C  
ENDBRANCH  24  59
TORSDOF 10
ENDMDL
MODEL       26
REMARK 921   NORMALIZED FREE ENERGY PREDICTED BY IDOCK:   -2.22 KCAL/MOL
REMARK 922        TOTAL FREE ENERGY PREDICTED BY IDOCK:   -6.17 KCAL/MOL
REMARK 923 INTER-LIGAND FREE ENERGY PREDICTED BY IDOCK:   -4.94 KCAL/MOL
REMARK 924 INTRA-LIGAND FREE ENERGY PREDICTED BY IDOCK:   -1.23 KCAL/MOL
REMARK 927      BINDING AFFINITY PREDICTED BY RF-SCORE:    0.00 PKD
ROOT
HETATM    1  C   UNL     1      -6.433   8.823  72.282  1.00  0.00    -0.037 C  
HETATM    2  C   UNL     1      -6.025   9.681  71.134  1.00  0.00    -0.072 C  
HETATM    3  C   UNL     1      -7.512   9.717  71.533  1.00  0.00     0.753 C  
HETATM    4  O   UNL     1      -8.384   9.405  70.396  1.00  0.00    -0.174 OA 
HETATM    5  C   UNL     1      -9.758   9.586  70.375  1.00  0.00    -0.271 C  
HETATM    6  N   UNL     1     -10.579   9.923  71.311  1.00  0.00    -0.201 NA 
HETATM    7  O   UNL     1     -10.265   9.197  69.182  1.00  0.00    -0.195 OA 
HETATM    8  H   UNL     1     -10.730  10.891  71.593  1.00  0.00     0.000 HD 
HETATM    9  H   UNL     1     -11.206   9.321  69.168  1.00  0.00     0.000 HD 
HETATM   10  C   UNL     1     -11.302   8.752  71.956  1.00  0.00    -0.371 C  
HETATM   11  C   UNL     1     -10.354   7.536  71.975  1.00  0.00    -0.199 C  
HETATM   12  N   UNL     1      -9.535   3.283  67.238  1.00  0.00    -0.193 NA 
HETATM   13  C   UNL     1      -8.801   2.819  66.227  1.00  0.00    -0.144 A  
HETATM   14  N   UNL     1     -10.198   6.800  70.781  1.00  0.00    -0.195 N  
HETATM   15  O   UNL     1      -9.654   7.295  72.968  1.00  0.00    -0.150 OA 
HETATM   16  C   UNL     1      -9.346   2.756  64.946  1.00  0.00    -0.139 A  
HETATM   17  C   UNL     1      -5.966   7.355  72.469  1.00  0.00    -0.040 C  
HETATM   18  C   UNL     1     -10.714   5.441  71.015  1.00  0.00    -0.169 C  
HETATM   19  C   UNL     1      -9.661   4.440  70.556  1.00  0.00    -0.217 C  
HETATM   20  O   UNL     1      -9.912   3.984  69.255  1.00  0.00    -0.103 OA 
HETATM   21  C   UNL     1      -8.436   5.283  70.647  1.00  0.00    -0.118 C  
HETATM   22  C   UNL     1      -8.772   6.702  70.346  1.00  0.00    -0.151 C  
HETATM   23  C   UNL     1      -8.993   3.380  68.476  1.00  0.00    -0.134 A  
HETATM   24  C   UNL     1      -8.591   2.297  63.871  1.00  0.00    -0.086 A  
HETATM   25  C   UNL     1      -7.646   2.963  68.723  1.00  0.00    -0.048 A  
HETATM   26  C   UNL     1      -7.276   1.913  64.097  1.00  0.00    -0.055 A  
HETATM   27  C   UNL     1      -6.833   2.994  70.035  1.00  0.00    -0.034 C  
HETATM   28  C   UNL     1      -5.332   6.465  71.363  1.00  0.00    -0.026 C  
HETATM   29  N   UNL     1      -6.906   2.496  67.679  1.00  0.00    -0.040 NA 
HETATM   30  C   UNL     1      -5.488   4.888  71.482  1.00  0.00    -0.004 C  
HETATM   31  C   UNL     1      -5.711   4.125  70.114  1.00  0.00    -0.016 C  
HETATM   32  C   UNL     1      -7.462   2.421  66.448  1.00  0.00    -0.070 A  
HETATM   33  C   UNL     1      -6.719   1.972  65.376  1.00  0.00    -0.034 A  
ENDROOT
BRANCH  10  34
HETATM   34  C   UNL     1     -12.902   8.594  71.975  1.00  0.00    -0.425 C  
HETATM   35  C   UNL     1     -13.517   9.786  71.189  1.00  0.00    -0.304 C  
HETATM   36  C   UNL     1     -13.404   8.729  73.451  1.00  0.00     1.446 C  
HETATM   37  C   UNL     1     -13.646   7.342  71.447  1.00  0.00    -0.410 C  
ENDBRANCH  10  34
BRANCH  22  38
HETATM   38  C   UNL     1      -8.096   7.054  68.919  1.00  0.00    -0.121 C  
HETATM   39  H   UNL     1      -6.545   6.616  67.831  1.00  0.00     0.000 HD 
HETATM   40  O   UNL     1      -6.942   6.410  68.669  1.00  0.00    -0.074 OA 
BRANCH  38  41
HETATM   41  N   UNL     1      -8.532   7.987  68.125  1.00  0.00    -0.123 NA 
HETATM   42  H   UNL     1      -8.650   8.907  68.550  1.00  0.00     0.000 HD 
BRANCH  41  43
HETATM   43  C   UNL     1      -8.875   7.897  66.705  1.00  0.00    -0.138 C  
HETATM   44  C   UNL     1      -8.046   6.834  65.891  1.00  0.00    -0.123 C  
HETATM   45  C   UNL     1      -9.474   6.550  66.305  1.00  0.00    -0.126 C  
BRANCH  43  46
HETATM   46  C   UNL     1      -9.315   9.122  65.967  1.00  0.00    -0.238 C  
HETATM   47  H   UNL     1     -10.240   9.576  64.346  1.00  0.00     0.000 HD 
HETATM   48  O   UNL     1      -9.961   8.799  64.815  1.00  0.00     1.039 OA 
BRANCH  46  49
HETATM   49  N   UNL     1      -9.041  10.295  66.388  1.00  0.00    -0.151 N  
HETATM   50  H   UNL     1      -8.075  10.526  66.621  1.00  0.00     0.000 HD 
BRANCH  49  51
HETATM   51  S   UNL     1     -10.176  11.420  66.563  1.00  0.00    -0.229 S  
HETATM   52  O   UNL     1     -11.411  10.789  66.976  1.00  0.00    -0.341 OA 
HETATM   53  O   UNL     1      -9.624  12.523  67.335  1.00  0.00    -0.186 OA 
BRANCH  51  54
HETATM   54  C   UNL     1     -10.461  12.153  64.911  1.00  0.00    -0.288 C  
HETATM   55  C   UNL     1     -11.772  12.754  64.701  1.00  0.00    -0.405 C  
HETATM   56  C   UNL     1     -10.575  13.689  64.885  1.00  0.00    -0.421 C  
ENDBRANCH  51  54
ENDBRANCH  49  51
ENDBRANCH  46  49
ENDBRANCH  43  46
BRANCH  44  57
HETATM   57  C   UNL     1      -7.803   6.924  64.438  1.00  0.00    -0.112 C  
HETATM   58  C   UNL     1      -7.974   5.940  63.525  1.00  0.00    -0.113 C  
ENDBRANCH  44  57
ENDBRANCH  41  43
ENDBRANCH  38  41
ENDBRANCH  22  38
BRANCH  24  59
HETATM   59  O   UNL     1      -9.011   2.184  62.577  1.00  0.00    -0.074 OA 
HETATM   60  C   UNL     1     -10.244   1.510  62.342  1.00  0.00    -0.094 C  
ENDBRANCH  24  59
TORSDOF 10
ENDMDL
MODEL       27
REMARK 921   NORMALIZED FREE ENERGY PREDICTED BY IDOCK:   -1.21 KCAL/MOL
REMARK 922        TOTAL FREE ENERGY PREDICTED BY IDOCK:   -4.58 KCAL/MOL
REMARK 923 INTER-LIGAND FREE ENERGY PREDICTED BY IDOCK:   -3.56 KCAL/MOL
REMARK 924 INTRA-LIGAND FREE ENERGY PREDICTED BY IDOCK:   -1.02 KCAL/MOL
REMARK 927      BINDING AFFINITY PREDICTED BY RF-SCORE:    0.00 PKD
ROOT
HETATM    1  C   UNL     1     -11.721  14.961  68.638  1.00  0.00    -0.358 C  
HETATM    2  C   UNL     1     -10.439  15.532  69.139  1.00  0.00    -0.232 C  
HETATM    3  C   UNL     1     -10.417  14.910  67.731  1.00  0.00    -0.255 C  
HETATM    4  O   UNL     1      -9.380  13.880  67.611  1.00  0.00    -0.193 OA 
HETATM    5  C   UNL     1      -8.958  13.313  66.420  1.00  0.00     0.029 C  
HETATM    6  N   UNL     1      -9.415  13.431  65.220  1.00  0.00    -0.384 NA 
HETATM    7  O   UNL     1      -7.993  12.393  66.654  1.00  0.00    -0.390 OA 
HETATM    8  H   UNL     1      -9.179  14.216  64.612  1.00  0.00     0.000 HD 
HETATM    9  H   UNL     1      -7.704  12.003  65.837  1.00  0.00     0.000 HD 
HETATM   10  C   UNL     1     -10.334  12.301  64.789  1.00  0.00    -0.291 C  
HETATM   11  C   UNL     1     -11.128  11.813  66.018  1.00  0.00    -0.312 C  
HETATM   12  N   UNL     1      -9.197   7.436  70.295  1.00  0.00    -0.154 NA 
HETATM   13  C   UNL     1      -8.712   7.147  71.504  1.00  0.00    -0.119 A  
HETATM   14  N   UNL     1     -10.476  10.955  66.928  1.00  0.00    -0.239 N  
HETATM   15  O   UNL     1     -12.254  12.267  66.263  1.00  0.00    -0.628 OA 
HETATM   16  C   UNL     1      -7.514   6.446  71.622  1.00  0.00    -0.093 A  
HETATM   17  C   UNL     1     -12.662  14.071  69.494  1.00  0.00     0.218 C  
HETATM   18  C   UNL     1     -11.177   9.660  66.913  1.00  0.00     0.576 C  
HETATM   19  C   UNL     1     -11.486   9.263  68.350  1.00  0.00     0.668 C  
HETATM   20  O   UNL     1     -10.519   8.390  68.867  1.00  0.00    -0.218 OA 
HETATM   21  C   UNL     1     -11.466  10.600  69.007  1.00  0.00    -0.342 C  
HETATM   22  C   UNL     1     -10.481  11.485  68.325  1.00  0.00    -0.197 C  
HETATM   23  C   UNL     1     -10.341   8.151  70.181  1.00  0.00    -0.215 A  
HETATM   24  C   UNL     1      -6.978   6.154  72.872  1.00  0.00    -0.076 A  
HETATM   25  C   UNL     1     -11.059   8.580  71.343  1.00  0.00    -0.265 A  
HETATM   26  C   UNL     1      -7.655   6.587  74.004  1.00  0.00    -0.086 A  
HETATM   27  C   UNL     1     -12.361   9.403  71.445  1.00  0.00    -0.439 C  
HETATM   28  C   UNL     1     -12.268  13.361  70.818  1.00  0.00    -0.409 C  
HETATM   29  N   UNL     1     -10.550   8.283  72.571  1.00  0.00    -0.337 NA 
HETATM   30  C   UNL     1     -13.053  12.042  71.230  1.00  0.00    -0.209 C  
HETATM   31  C   UNL     1     -12.175  10.917  71.913  1.00  0.00     0.290 C  
HETATM   32  C   UNL     1      -9.397   7.580  72.663  1.00  0.00    -0.159 A  
HETATM   33  C   UNL     1      -8.857   7.291  73.899  1.00  0.00    -0.245 A  
ENDROOT
BRANCH  10  34
HETATM   34  C   UNL     1     -10.048  11.354  63.520  1.00  0.00    -0.437 C  
HETATM   35  C   UNL     1     -11.409  11.013  62.852  1.00  0.00     0.932 C  
HETATM   36  C   UNL     1      -9.450  10.000  64.028  1.00  0.00    -0.299 C  
HETATM   37  C   UNL     1      -9.116  11.750  62.348  1.00  0.00     0.663 C  
ENDBRANCH  10  34
BRANCH  22  38
HETATM   38  C   UNL     1      -9.253  11.705  69.356  1.00  0.00     0.738 C  
HETATM   39  H   UNL     1      -8.226  13.122  70.202  1.00  0.00     0.000 HD 
HETATM   40  O   UNL     1      -8.946  12.993  69.597  1.00  0.00     1.391 OA 
BRANCH  38  41
HETATM   41  N   UNL     1      -8.512  10.740  69.812  1.00  0.00    -0.318 NA 
HETATM   42  H   UNL     1      -8.908  10.210  70.588  1.00  0.00     0.000 HD 
BRANCH  41  43
HETATM   43  C   UNL     1      -7.187  10.310  69.362  1.00  0.00    -0.104 C  
HETATM   44  C   UNL     1      -6.233  11.477  68.906  1.00  0.00    -0.055 C  
HETATM   45  C   UNL     1      -6.048  10.806  70.251  1.00  0.00    -0.133 C  
BRANCH  43  46
HETATM   46  C   UNL     1      -7.029   8.995  68.665  1.00  0.00    -0.063 C  
HETATM   47  H   UNL     1      -5.864   7.469  68.711  1.00  0.00     0.000 HD 
HETATM   48  O   UNL     1      -5.964   8.303  69.153  1.00  0.00    -0.037 OA 
BRANCH  46  49
HETATM   49  N   UNL     1      -7.795   8.646  67.706  1.00  0.00    -0.102 N  
HETATM   50  H   UNL     1      -8.621   9.208  67.502  1.00  0.00     0.000 HD 
BRANCH  49  51
HETATM   51  S   UNL     1      -7.495   7.345  66.811  1.00  0.00    -0.098 S  
HETATM   52  O   UNL     1      -8.610   7.116  65.917  1.00  0.00    -0.146 OA 
HETATM   53  O   UNL     1      -6.143   7.443  66.283  1.00  0.00    -0.036 OA 
BRANCH  51  54
HETATM   54  C   UNL     1      -7.408   5.918  67.953  1.00  0.00    -0.077 C  
HETATM   55  C   UNL     1      -7.860   4.643  67.411  1.00  0.00    -0.090 C  
HETATM   56  C   UNL     1      -6.355   4.852  67.593  1.00  0.00    -0.040 C  
ENDBRANCH  51  54
ENDBRANCH  49  51
ENDBRANCH  46  49
ENDBRANCH  43  46
BRANCH  44  57
HETATM   57  C   UNL     1      -5.129  11.301  67.943  1.00  0.00    -0.043 C  
HETATM   58  C   UNL     1      -5.241  11.092  66.610  1.00  0.00    -0.088 C  
ENDBRANCH  44  57
ENDBRANCH  41  43
ENDBRANCH  38  41
ENDBRANCH  22  38
BRANCH  24  59
HETATM   59  O   UNL     1      -5.820   5.472  73.117  1.00  0.00    -0.026 OA 
HETATM   60  C   UNL     1      -5.712   4.787  74.360  1.00  0.00    -0.029 C  
ENDBRANCH  24  59
TORSDOF 10
ENDMDL
MODEL       28
REMARK 921   NORMALIZED FREE ENERGY PREDICTED BY IDOCK:   -1.18 KCAL/MOL
REMARK 922        TOTAL FREE ENERGY PREDICTED BY IDOCK:   -4.53 KCAL/MOL
REMARK 923 INTER-LIGAND FREE ENERGY PREDICTED BY IDOCK:   -5.21 KCAL/MOL
REMARK 924 INTRA-LIGAND FREE ENERGY PREDICTED BY IDOCK:    0.68 KCAL/MOL
REMARK 927      BINDING AFFINITY PREDICTED BY RF-SCORE:    0.00 PKD
ROOT
HETATM    1  C   UNL     1      -6.652   8.238  73.036  1.00  0.00    -0.113 C  
HETATM    2  C   UNL     1      -5.956   9.056  72.003  1.00  0.00    -0.068 C  
HETATM    3  C   UNL     1      -7.478   9.250  72.132  1.00  0.00     0.679 C  
HETATM    4  O   UNL     1      -8.159   9.044  70.849  1.00  0.00    -0.143 OA 
HETATM    5  C   UNL     1      -9.479   9.374  70.589  1.00  0.00    -0.262 C  
HETATM    6  N   UNL     1     -10.416   9.790  71.373  1.00  0.00    -0.157 NA 
HETATM    7  O   UNL     1      -9.802   9.052  69.315  1.00  0.00    -0.171 OA 
HETATM    8  H   UNL     1     -10.512  10.768  71.650  1.00  0.00     0.000 HD 
HETATM    9  H   UNL     1     -10.707   9.278  69.137  1.00  0.00     0.000 HD 
HETATM   10  C   UNL     1     -11.362   8.700  71.846  1.00  0.00    -0.347 C  
HETATM   11  C   UNL     1     -10.567   7.388  72.001  1.00  0.00    -0.208 C  
HETATM   12  N   UNL     1      -9.363   3.110  67.370  1.00  0.00    -0.203 NA 
HETATM   13  C   UNL     1      -8.512   2.576  66.493  1.00  0.00    -0.099 A  
HETATM   14  N   UNL     1     -10.278   6.649  70.834  1.00  0.00    -0.195 N  
HETATM   15  O   UNL     1     -10.087   7.065  73.096  1.00  0.00    -0.185 OA 
HETATM   16  C   UNL     1      -8.821   2.584  65.134  1.00  0.00    -0.120 A  
HETATM   17  C   UNL     1      -6.384   6.726  73.263  1.00  0.00    -0.063 C  
HETATM   18  C   UNL     1     -10.969   5.352  70.935  1.00  0.00    -0.048 C  
HETATM   19  C   UNL     1      -9.962   4.247  70.643  1.00  0.00    -0.148 C  
HETATM   20  O   UNL     1     -10.021   3.831  69.306  1.00  0.00    -0.022 OA 
HETATM   21  C   UNL     1      -8.691   4.950  70.973  1.00  0.00    -0.143 C  
HETATM   22  C   UNL     1      -8.815   6.400  70.657  1.00  0.00    -0.144 C  
HETATM   23  C   UNL     1      -9.045   3.137  68.687  1.00  0.00    -0.152 A  
HETATM   24  C   UNL     1      -7.938   2.055  64.199  1.00  0.00    -0.073 A  
HETATM   25  C   UNL     1      -7.817   2.574  69.158  1.00  0.00    -0.045 A  
HETATM   26  C   UNL     1      -6.733   1.528  64.644  1.00  0.00    -0.026 A  
HETATM   27  C   UNL     1      -7.255   2.506  70.594  1.00  0.00    -0.033 C  
HETATM   28  C   UNL     1      -5.659   5.781  72.264  1.00  0.00    -0.026 C  
HETATM   29  N   UNL     1      -6.955   2.037  68.250  1.00  0.00    -0.039 NA 
HETATM   30  C   UNL     1      -6.000   4.230  72.309  1.00  0.00    -0.016 C  
HETATM   31  C   UNL     1      -6.052   3.507  70.903  1.00  0.00    -0.018 C  
HETATM   32  C   UNL     1      -7.285   2.033  66.938  1.00  0.00    -0.052 A  
HETATM   33  C   UNL     1      -6.412   1.515  66.004  1.00  0.00    -0.023 A  
ENDROOT
BRANCH  10  34
HETATM   34  C   UNL     1     -12.948   8.718  71.575  1.00  0.00    -0.359 C  
HETATM   35  C   UNL     1     -13.356   7.334  70.997  1.00  0.00    -0.148 C  
HETATM   36  C   UNL     1     -13.257   9.774  70.463  1.00  0.00     0.060 C  
HETATM   37  C   UNL     1     -14.001   9.019  72.670  1.00  0.00    -0.381 C  
ENDBRANCH  10  34
BRANCH  22  38
HETATM   38  C   UNL     1      -7.860   6.688  69.383  1.00  0.00    -0.113 C  
HETATM   39  H   UNL     1      -6.063   6.336  68.731  1.00  0.00     0.000 HD 
HETATM   40  O   UNL     1      -6.623   6.167  69.479  1.00  0.00    -0.041 OA 
BRANCH  38  41
HETATM   41  N   UNL     1      -8.184   7.478  68.403  1.00  0.00    -0.124 NA 
HETATM   42  H   UNL     1      -9.157   7.427  68.099  1.00  0.00     0.000 HD 
BRANCH  41  43
HETATM   43  C   UNL     1      -7.343   8.431  67.676  1.00  0.00    -0.093 C  
HETATM   44  C   UNL     1      -6.886   9.683  68.516  1.00  0.00    -0.057 C  
HETATM   45  C   UNL     1      -5.926   8.546  68.234  1.00  0.00    -0.046 C  
BRANCH  43  46
HETATM   46  C   UNL     1      -7.553   8.640  66.210  1.00  0.00    -0.094 C  
HETATM   47  H   UNL     1      -8.917   9.293  65.025  1.00  0.00     0.000 HD 
HETATM   48  O   UNL     1      -8.784   9.160  65.956  1.00  0.00    -0.138 OA 
BRANCH  46  49
HETATM   49  N   UNL     1      -6.672   8.304  65.349  1.00  0.00    -0.052 N  
HETATM   50  H   UNL     1      -5.771   8.783  65.349  1.00  0.00     0.000 HD 
BRANCH  49  51
HETATM   51  S   UNL     1      -6.941   7.147  64.266  1.00  0.00    -0.059 S  
HETATM   52  O   UNL     1      -5.688   6.498  63.944  1.00  0.00    -0.028 OA 
HETATM   53  O   UNL     1      -8.083   6.358  64.700  1.00  0.00    -0.121 OA 
BRANCH  51  54
HETATM   54  C   UNL     1      -7.538   7.969  62.745  1.00  0.00    -0.123 C  
HETATM   55  C   UNL     1      -8.438   9.098  62.944  1.00  0.00    -0.209 C  
HETATM   56  C   UNL     1      -7.000   9.394  62.514  1.00  0.00    -0.097 C  
ENDBRANCH  51  54
ENDBRANCH  49  51
ENDBRANCH  46  49
ENDBRANCH  43  46
BRANCH  44  57
HETATM   57  C   UNL     1      -6.534  10.985  67.917  1.00  0.00    -0.062 C  
HETATM   58  C   UNL     1      -7.384  11.993  67.613  1.00  0.00    -0.121 C  
ENDBRANCH  44  57
ENDBRANCH  41  43
ENDBRANCH  38  41
ENDBRANCH  22  38
BRANCH  24  59
HETATM   59  O   UNL     1      -8.128   1.998  62.848  1.00  0.00    -0.062 OA 
HETATM   60  C   UNL     1      -9.456   1.785  62.379  1.00  0.00    -0.086 C  
ENDBRANCH  24  59
TORSDOF 10
ENDMDL
MODEL       29
REMARK 921   NORMALIZED FREE ENERGY PREDICTED BY IDOCK:   -1.10 KCAL/MOL
REMARK 922        TOTAL FREE ENERGY PREDICTED BY IDOCK:   -4.41 KCAL/MOL
REMARK 923 INTER-LIGAND FREE ENERGY PREDICTED BY IDOCK:   -2.36 KCAL/MOL
REMARK 924 INTRA-LIGAND FREE ENERGY PREDICTED BY IDOCK:   -2.05 KCAL/MOL
REMARK 927      BINDING AFFINITY PREDICTED BY RF-SCORE:    0.00 PKD
ROOT
HETATM    1  C   UNL     1      -6.051   6.459  67.328  1.00  0.00    -0.025 C  
HETATM    2  C   UNL     1      -5.129   7.630  67.351  1.00  0.00    -0.026 C  
HETATM    3  C   UNL     1      -5.243   6.811  68.650  1.00  0.00    -0.016 C  
HETATM    4  O   UNL     1      -5.606   7.657  69.792  1.00  0.00    -0.023 OA 
HETATM    5  C   UNL     1      -5.553   7.264  71.119  1.00  0.00    -0.031 C  
HETATM    6  N   UNL     1      -5.319   6.113  71.651  1.00  0.00    -0.021 NA 
HETATM    7  O   UNL     1      -5.957   8.274  71.924  1.00  0.00    -0.037 OA 
HETATM    8  H   UNL     1      -4.377   5.748  71.790  1.00  0.00     0.000 HD 
HETATM    9  H   UNL     1      -5.922   8.005  72.835  1.00  0.00     0.000 HD 
HETATM   10  C   UNL     1      -6.568   5.346  72.051  1.00  0.00    -0.056 C  
HETATM   11  C   UNL     1      -7.691   5.669  71.044  1.00  0.00    -0.104 C  
HETATM   12  N   UNL     1     -11.724  10.654  71.324  1.00  0.00    -0.179 NA 
HETATM   13  C   UNL     1     -12.092  11.859  70.888  1.00  0.00    -0.134 A  
HETATM   14  N   UNL     1      -8.378   6.893  71.191  1.00  0.00    -0.119 N  
HETATM   15  O   UNL     1      -7.891   4.939  70.064  1.00  0.00    -0.064 OA 
HETATM   16  C   UNL     1     -12.172  12.925  71.782  1.00  0.00     0.525 A  
HETATM   17  C   UNL     1      -7.474   6.495  66.708  1.00  0.00    -0.079 C  
HETATM   18  C   UNL     1      -9.785   6.589  71.501  1.00  0.00    -0.168 C  
HETATM   19  C   UNL     1     -10.671   7.389  70.554  1.00  0.00    -0.233 C  
HETATM   20  O   UNL     1     -11.114   8.581  71.141  1.00  0.00    -0.242 OA 
HETATM   21  C   UNL     1      -9.720   7.618  69.430  1.00  0.00    -0.165 C  
HETATM   22  C   UNL     1      -8.331   7.732  69.955  1.00  0.00    -0.130 C  
HETATM   23  C   UNL     1     -11.609   9.626  70.449  1.00  0.00    -0.236 A  
HETATM   24  C   UNL     1     -12.530  14.197  71.345  1.00  0.00    -0.359 A  
HETATM   25  C   UNL     1     -11.905   9.808  69.060  1.00  0.00     0.535 A  
HETATM   26  C   UNL     1     -12.795  14.387  69.996  1.00  0.00    -0.055 A  
HETATM   27  C   UNL     1     -11.832   8.792  67.900  1.00  0.00     2.899 C  
HETATM   28  C   UNL     1      -8.271   7.782  66.361  1.00  0.00    -0.116 C  
HETATM   29  N   UNL     1     -12.274  11.045  68.628  1.00  0.00    -0.524 NA 
HETATM   30  C   UNL     1      -9.859   7.706  66.345  1.00  0.00    -0.174 C  
HETATM   31  C   UNL     1     -10.603   8.986  66.901  1.00  0.00    -0.243 C  
HETATM   32  C   UNL     1     -12.369  12.062  69.516  1.00  0.00     0.002 A  
HETATM   33  C   UNL     1     -12.718  13.326  69.090  1.00  0.00     0.746 A  
ENDROOT
BRANCH  10  34
HETATM   34  C   UNL     1      -6.876   4.867  73.555  1.00  0.00    -0.070 C  
HETATM   35  C   UNL     1      -6.363   5.964  74.529  1.00  0.00    -0.074 C  
HETATM   36  C   UNL     1      -6.038   3.580  73.855  1.00  0.00    -0.019 C  
HETATM   37  C   UNL     1      -8.293   4.509  74.068  1.00  0.00    -0.103 C  
ENDBRANCH  10  34
BRANCH  22  38
HETATM   38  C   UNL     1      -7.880   9.274  69.764  1.00  0.00    -0.100 C  
HETATM   39  H   UNL     1      -7.326  10.826  70.797  1.00  0.00     0.000 HD 
HETATM   40  O   UNL     1      -7.592   9.921  70.909  1.00  0.00    -0.293 OA 
BRANCH  38  41
HETATM   41  N   UNL     1      -7.926   9.904  68.629  1.00  0.00    -0.085 NA 
HETATM   42  H   UNL     1      -7.951   9.313  67.798  1.00  0.00     0.000 HD 
BRANCH  41  43
HETATM   43  C   UNL     1      -7.948  11.347  68.380  1.00  0.00    -0.142 C  
HETATM   44  C   UNL     1      -9.009  11.818  67.316  1.00  0.00    -0.172 C  
HETATM   45  C   UNL     1      -9.254  12.020  68.796  1.00  0.00     0.059 C  
BRANCH  43  46
HETATM   46  C   UNL     1      -6.679  12.135  68.465  1.00  0.00    -0.071 C  
HETATM   47  H   UNL     1      -4.985  12.245  67.565  1.00  0.00     0.000 HD 
HETATM   48  O   UNL     1      -5.791  11.745  67.512  1.00  0.00    -0.065 OA 
BRANCH  46  49
HETATM   49  N   UNL     1      -6.492  13.013  69.372  1.00  0.00    -0.161 N  
HETATM   50  H   UNL     1      -6.572  12.739  70.351  1.00  0.00     0.000 HD 
BRANCH  49  51
HETATM   51  S   UNL     1      -6.133  14.539  69.016  1.00  0.00    -0.094 S  
HETATM   52  O   UNL     1      -5.830  15.253  70.238  1.00  0.00    -0.140 OA 
HETATM   53  O   UNL     1      -5.188  14.550  67.909  1.00  0.00    -0.185 OA 
BRANCH  51  54
HETATM   54  C   UNL     1      -7.640  15.290  68.302  1.00  0.00    -0.112 C  
HETATM   55  C   UNL     1      -8.665  15.689  69.258  1.00  0.00    -0.267 C  
HETATM   56  C   UNL     1      -7.831  16.790  68.600  1.00  0.00    -0.241 C  
ENDBRANCH  51  54
ENDBRANCH  49  51
ENDBRANCH  46  49
ENDBRANCH  43  46
BRANCH  44  57
HETATM   57  C   UNL     1      -8.871  13.048  66.513  1.00  0.00    -0.009 C  
HETATM   58  C   UNL     1      -9.823  13.986  66.298  1.00  0.00    -0.318 C  
ENDBRANCH  44  57
ENDBRANCH  41  43
ENDBRANCH  38  41
ENDBRANCH  22  38
BRANCH  24  59
HETATM   59  O   UNL     1     -12.649  15.315  72.120  1.00  0.00    -0.309 OA 
HETATM   60  C   UNL     1     -12.459  15.165  73.523  1.00  0.00    -0.540 C  
ENDBRANCH  24  59
TORSDOF 10
ENDMDL
MODEL       30
REMARK 921   NORMALIZED FREE ENERGY PREDICTED BY IDOCK:   -0.60 KCAL/MOL
REMARK 922        TOTAL FREE ENERGY PREDICTED BY IDOCK:   -3.60 KCAL/MOL
REMARK 923 INTER-LIGAND FREE ENERGY PREDICTED BY IDOCK:   -2.19 KCAL/MOL
REMARK 924 INTRA-LIGAND FREE ENERGY PREDICTED BY IDOCK:   -1.41 KCAL/MOL
REMARK 927      BINDING AFFINITY PREDICTED BY RF-SCORE:    0.00 PKD
ROOT
HETATM    1  C   UNL     1     -11.342  15.196  70.908  1.00  0.00    -0.345 C  
HETATM    2  C   UNL     1     -10.081  14.767  71.578  1.00  0.00     2.349 C  
HETATM    3  C   UNL     1     -10.011  16.044  70.720  1.00  0.00     1.226 C  
HETATM    4  O   UNL     1      -8.959  15.954  69.702  1.00  0.00    -0.204 OA 
HETATM    5  C   UNL     1      -8.496  17.016  68.943  1.00  0.00    -0.193 C  
HETATM    6  N   UNL     1      -8.918  18.231  68.844  1.00  0.00    -0.195 NA 
HETATM    7  O   UNL     1      -7.529  16.599  68.093  1.00  0.00    -0.159 OA 
HETATM    8  H   UNL     1      -8.673  18.959  69.515  1.00  0.00     0.000 HD 
HETATM    9  H   UNL     1      -7.212  17.328  67.572  1.00  0.00     0.000 HD 
HETATM   10  C   UNL     1      -9.812  18.483  67.641  1.00  0.00    -0.313 C  
HETATM   11  C   UNL     1     -10.637  17.210  67.362  1.00  0.00    -0.297 C  
HETATM   12  N   UNL     1      -8.787  12.184  63.826  1.00  0.00     0.752 NA 
HETATM   13  C   UNL     1      -8.336  10.931  63.760  1.00  0.00     0.155 A  
HETATM   14  N   UNL     1     -10.003  16.147  66.686  1.00  0.00    -0.249 N  
HETATM   15  O   UNL     1     -11.775  17.078  67.834  1.00  0.00     0.344 OA 
HETATM   16  C   UNL     1      -7.134  10.660  63.108  1.00  0.00     0.096 A  
HETATM   17  C   UNL     1     -12.297  14.224  70.166  1.00  0.00    -0.413 C  
HETATM   18  C   UNL     1     -10.690  15.955  65.397  1.00  0.00    -0.399 C  
HETATM   19  C   UNL     1     -11.037  14.479  65.251  1.00  0.00    -0.353 C  
HETATM   20  O   UNL     1     -10.077  13.792  64.497  1.00  0.00    -0.348 OA 
HETATM   21  C   UNL     1     -11.051  14.066  66.682  1.00  0.00    -0.312 C  
HETATM   22  C   UNL     1     -10.056  14.864  67.451  1.00  0.00    -0.228 C  
HETATM   23  C   UNL     1      -9.935  12.452  64.493  1.00  0.00    -0.175 A  
HETATM   24  C   UNL     1      -6.632   9.364  63.047  1.00  0.00    -0.099 A  
HETATM   25  C   UNL     1     -10.692  11.403  65.106  1.00  0.00    -0.269 A  
HETATM   26  C   UNL     1      -7.347   8.344  63.660  1.00  0.00    -0.103 A  
HETATM   27  C   UNL     1     -12.005  11.481  65.913  1.00  0.00     0.621 C  
HETATM   28  C   UNL     1     -11.935  12.785  69.703  1.00  0.00    -0.354 C  
HETATM   29  N   UNL     1     -10.216  10.129  65.034  1.00  0.00    -0.247 NA 
HETATM   30  C   UNL     1     -12.719  12.172  68.463  1.00  0.00     1.576 C  
HETATM   31  C   UNL     1     -11.849  11.280  67.488  1.00  0.00    -0.030 C  
HETATM   32  C   UNL     1      -9.059   9.884  64.377  1.00  0.00    -0.254 A  
HETATM   33  C   UNL     1      -8.552   8.603  64.316  1.00  0.00    -0.048 A  
ENDROOT
BRANCH  10  34
HETATM   34  C   UNL     1      -9.478  19.559  66.493  1.00  0.00    -0.450 C  
HETATM   35  C   UNL     1      -8.049  19.269  65.957  1.00  0.00    -0.234 C  
HETATM   36  C   UNL     1      -9.431  20.984  67.137  1.00  0.00    -0.194 C  
HETATM   37  C   UNL     1     -10.347  19.757  65.226  1.00  0.00     0.217 C  
ENDBRANCH  10  34
BRANCH  22  38
HETATM   38  C   UNL     1      -8.861  13.854  67.866  1.00  0.00    -0.184 C  
HETATM   39  H   UNL     1      -6.949  13.595  67.627  1.00  0.00     0.000 HD 
HETATM   40  O   UNL     1      -7.650  14.188  67.383  1.00  0.00    -0.182 OA 
BRANCH  38  41
HETATM   41  N   UNL     1      -9.051  12.730  68.488  1.00  0.00    -0.371 NA 
HETATM   42  H   UNL     1      -9.983  12.597  68.884  1.00  0.00     0.000 HD 
BRANCH  41  43
HETATM   43  C   UNL     1      -8.111  11.628  68.700  1.00  0.00    -0.121 C  
HETATM   44  C   UNL     1      -7.262  11.231  67.434  1.00  0.00    -0.110 C  
HETATM   45  C   UNL     1      -6.646  12.037  68.558  1.00  0.00    -0.062 C  
BRANCH  43  46
HETATM   46  C   UNL     1      -8.456  10.528  69.654  1.00  0.00     0.033 C  
HETATM   47  H   UNL     1      -7.721   9.690  71.218  1.00  0.00     0.000 HD 
HETATM   48  O   UNL     1      -7.502  10.388  70.613  1.00  0.00    -0.124 OA 
BRANCH  46  49
HETATM   49  N   UNL     1      -9.502   9.811  69.505  1.00  0.00    -0.198 N  
HETATM   50  H   UNL     1      -9.916   9.726  68.576  1.00  0.00     0.000 HD 
BRANCH  49  51
HETATM   51  S   UNL     1     -10.186   9.040  70.738  1.00  0.00    -0.267 S  
HETATM   52  O   UNL     1      -9.535   9.439  71.967  1.00  0.00    -0.095 OA 
HETATM   53  O   UNL     1     -11.631   9.143  70.609  1.00  0.00    -0.266 OA 
BRANCH  51  54
HETATM   54  C   UNL     1      -9.858   7.256  70.499  1.00  0.00    -0.183 C  
HETATM   55  C   UNL     1     -10.733   6.347  71.230  1.00  0.00    -0.288 C  
HETATM   56  C   UNL     1     -10.945   6.487  69.721  1.00  0.00    -0.396 C  
ENDBRANCH  51  54
ENDBRANCH  49  51
ENDBRANCH  46  49
ENDBRANCH  43  46
BRANCH  44  57
HETATM   57  C   UNL     1      -6.693   9.887  67.219  1.00  0.00    -0.074 C  
HETATM   58  C   UNL     1      -5.633   9.344  67.862  1.00  0.00    -0.041 C  
ENDBRANCH  44  57
ENDBRANCH  41  43
ENDBRANCH  38  41
ENDBRANCH  22  38
BRANCH  24  59
HETATM   59  O   UNL     1      -5.475   8.972  62.436  1.00  0.00    -0.082 OA 
HETATM   60  C   UNL     1      -5.227   7.574  62.334  1.00  0.00    -0.046 C  
ENDBRANCH  24  59
TORSDOF 10
ENDMDL
MODEL       31
REMARK 921   NORMALIZED FREE ENERGY PREDICTED BY IDOCK:   -0.34 KCAL/MOL
REMARK 922        TOTAL FREE ENERGY PREDICTED BY IDOCK:   -3.20 KCAL/MOL
REMARK 923 INTER-LIGAND FREE ENERGY PREDICTED BY IDOCK:   -2.58 KCAL/MOL
REMARK 924 INTRA-LIGAND FREE ENERGY PREDICTED BY IDOCK:   -0.62 KCAL/MOL
REMARK 927      BINDING AFFINITY PREDICTED BY RF-SCORE:    0.00 PKD
ROOT
HETATM    1  C   UNL     1     -11.680  11.072  69.473  1.00  0.00    -0.400 C  
HETATM    2  C   UNL     1     -12.374  11.234  68.164  1.00  0.00     0.622 C  
HETATM    3  C   UNL     1     -11.162  10.285  68.194  1.00  0.00    -0.229 C  
HETATM    4  O   UNL     1     -10.161  10.656  67.187  1.00  0.00    -0.198 OA 
HETATM    5  C   UNL     1      -9.085   9.869  66.810  1.00  0.00    -0.143 C  
HETATM    6  N   UNL     1      -8.641   8.758  67.293  1.00  0.00    -0.121 NA 
HETATM    7  O   UNL     1      -8.350  10.499  65.865  1.00  0.00    -0.149 OA 
HETATM    8  H   UNL     1      -9.039   7.850  67.051  1.00  0.00     0.000 HD 
HETATM    9  H   UNL     1      -7.613   9.960  65.606  1.00  0.00     0.000 HD 
HETATM   10  C   UNL     1      -7.474   8.919  68.252  1.00  0.00    -0.087 C  
HETATM   11  C   UNL     1      -7.651  10.240  69.029  1.00  0.00    -0.102 C  
HETATM   12  N   UNL     1      -5.737  16.058  67.111  1.00  0.00    -0.345 NA 
HETATM   13  C   UNL     1      -6.035  17.256  66.605  1.00  0.00    -0.207 A  
HETATM   14  N   UNL     1      -7.300  11.441  68.378  1.00  0.00    -0.089 N  
HETATM   15  O   UNL     1      -8.206  10.253  70.136  1.00  0.00    -0.067 OA 
HETATM   16  C   UNL     1      -5.429  17.679  65.424  1.00  0.00     0.156 A  
HETATM   17  C   UNL     1     -11.331  12.255  70.416  1.00  0.00     0.507 C  
HETATM   18  C   UNL     1      -6.175  12.045  69.114  1.00  0.00    -0.087 C  
HETATM   19  C   UNL     1      -6.512  13.503  69.398  1.00  0.00    -0.103 C  
HETATM   20  O   UNL     1      -5.952  14.361  68.442  1.00  0.00    -0.088 OA 
HETATM   21  C   UNL     1      -8.000  13.451  69.326  1.00  0.00     0.510 C  
HETATM   22  C   UNL     1      -8.425  12.424  68.335  1.00  0.00    -0.131 C  
HETATM   23  C   UNL     1      -6.354  15.631  68.239  1.00  0.00    -0.114 A  
HETATM   24  C   UNL     1      -5.742  18.914  64.865  1.00  0.00    -0.263 A  
HETATM   25  C   UNL     1      -7.305  16.460  68.916  1.00  0.00    -0.214 A  
HETATM   26  C   UNL     1      -6.680  19.715  65.502  1.00  0.00    -0.313 A  
HETATM   27  C   UNL     1      -8.124  16.174  70.193  1.00  0.00     1.267 C  
HETATM   28  C   UNL     1     -11.315  13.755  70.008  1.00  0.00    -0.089 C  
HETATM   29  N   UNL     1      -7.602  17.678  68.385  1.00  0.00    -0.250 NA 
HETATM   30  C   UNL     1     -10.373  14.747  70.819  1.00  0.00     0.660 C  
HETATM   31  C   UNL     1      -9.672  15.871  69.955  1.00  0.00    -0.011 C  
HETATM   32  C   UNL     1      -6.986  18.080  67.250  1.00  0.00    -0.187 A  
HETATM   33  C   UNL     1      -7.294  19.301  66.687  1.00  0.00    -0.237 A  
ENDROOT
BRANCH  10  34
HETATM   34  C   UNL     1      -6.032   8.244  68.023  1.00  0.00    -0.043 C  
HETATM   35  C   UNL     1      -5.162   8.518  69.281  1.00  0.00    -0.031 C  
HETATM   36  C   UNL     1      -5.324   8.964  66.827  1.00  0.00    -0.039 C  
HETATM   37  C   UNL     1      -5.829   6.739  67.717  1.00  0.00    -0.020 C  
ENDBRANCH  10  34
BRANCH  22  38
HETATM   38  C   UNL     1      -9.061  13.218  67.076  1.00  0.00    -0.232 C  
HETATM   39  H   UNL     1      -8.535  14.122  65.437  1.00  0.00     0.000 HD 
HETATM   40  O   UNL     1      -8.162  13.656  66.176  1.00  0.00     0.874 OA 
BRANCH  38  41
HETATM   41  N   UNL     1     -10.315  13.547  66.991  1.00  0.00    -0.251 NA 
HETATM   42  H   UNL     1     -10.743  13.880  67.855  1.00  0.00     0.000 HD 
BRANCH  41  43
HETATM   43  C   UNL     1     -11.197  13.507  65.823  1.00  0.00    -0.297 C  
HETATM   44  C   UNL     1     -10.739  12.521  64.683  1.00  0.00    -0.341 C  
HETATM   45  C   UNL     1     -11.875  12.154  65.614  1.00  0.00    -0.343 C  
BRANCH  43  46
HETATM   46  C   UNL     1     -11.922  14.744  65.396  1.00  0.00    -0.209 C  
HETATM   47  H   UNL     1     -13.731  15.361  65.199  1.00  0.00     0.000 HD 
HETATM   48  O   UNL     1     -13.270  14.576  65.470  1.00  0.00    -0.446 OA 
BRANCH  46  49
HETATM   49  N   UNL     1     -11.302  15.776  64.974  1.00  0.00    -0.267 N  
HETATM   50  H   UNL     1     -11.320  15.993  63.978  1.00  0.00     0.000 HD 
BRANCH  49  51
HETATM   51  S   UNL     1     -10.492  16.745  65.969  1.00  0.00    -0.236 S  
HETATM   52  O   UNL     1     -10.721  16.322  67.335  1.00  0.00    -0.319 OA 
HETATM   53  O   UNL     1      -9.134  16.898  65.469  1.00  0.00    -0.414 OA 
BRANCH  51  54
HETATM   54  C   UNL     1     -11.209  18.418  65.787  1.00  0.00     0.855 C  
HETATM   55  C   UNL     1     -11.092  19.290  66.950  1.00  0.00    -0.204 C  
HETATM   56  C   UNL     1     -10.186  19.570  65.749  1.00  0.00    -0.398 C  
ENDBRANCH  51  54
ENDBRANCH  49  51
ENDBRANCH  46  49
ENDBRANCH  43  46
BRANCH  44  57
HETATM   57  C   UNL     1     -11.101  12.689  63.262  1.00  0.00    -0.198 C  
HETATM   58  C   UNL     1     -12.347  12.663  62.735  1.00  0.00     0.591 C  
ENDBRANCH  44  57
ENDBRANCH  41  43
ENDBRANCH  38  41
ENDBRANCH  22  38
BRANCH  24  59
HETATM   59  O   UNL     1      -5.215  19.441  63.721  1.00  0.00    -0.190 OA 
HETATM   60  C   UNL     1      -6.115  20.064  62.809  1.00  0.00     0.075 C  
ENDBRANCH  24  59
TORSDOF 10
ENDMDL
MODEL       32
REMARK 921   NORMALIZED FREE ENERGY PREDICTED BY IDOCK:   -0.03 KCAL/MOL
REMARK 922        TOTAL FREE ENERGY PREDICTED BY IDOCK:   -2.71 KCAL/MOL
REMARK 923 INTER-LIGAND FREE ENERGY PREDICTED BY IDOCK:   -4.29 KCAL/MOL
REMARK 924 INTRA-LIGAND FREE ENERGY PREDICTED BY IDOCK:    1.58 KCAL/MOL
REMARK 927      BINDING AFFINITY PREDICTED BY RF-SCORE:    0.00 PKD
ROOT
HETATM    1  C   UNL     1      -6.318   2.767  68.699  1.00  0.00    -0.029 C  
HETATM    2  C   UNL     1      -5.134   3.483  69.254  1.00  0.00    -0.007 C  
HETATM    3  C   UNL     1      -6.286   3.187  70.231  1.00  0.00    -0.028 C  
HETATM    4  O   UNL     1      -6.758   4.406  70.895  1.00  0.00    -0.033 OA 
HETATM    5  C   UNL     1      -7.610   4.437  71.988  1.00  0.00    -0.080 C  
HETATM    6  N   UNL     1      -8.261   3.493  72.577  1.00  0.00    -0.079 NA 
HETATM    7  O   UNL     1      -7.856   5.716  72.356  1.00  0.00    -0.101 OA 
HETATM    8  H   UNL     1      -7.837   2.877  73.271  1.00  0.00     0.000 HD 
HETATM    9  H   UNL     1      -8.440   5.737  73.105  1.00  0.00     0.000 HD 
HETATM   10  C   UNL     1      -9.715   3.378  72.150  1.00  0.00    -0.158 C  
HETATM   11  C   UNL     1      -9.824   3.762  70.660  1.00  0.00    -0.089 C  
HETATM   12  N   UNL     1     -10.517   9.693  68.308  1.00  0.00    -0.209 NA 
HETATM   13  C   UNL     1      -9.985  10.761  67.711  1.00  0.00    -0.171 A  
HETATM   14  N   UNL     1      -9.820   5.133  70.329  1.00  0.00    -0.205 N  
HETATM   15  O   UNL     1      -9.782   2.893  69.778  1.00  0.00    -0.078 OA 
HETATM   16  C   UNL     1     -10.024  12.001  68.346  1.00  0.00    -0.209 A  
HETATM   17  C   UNL     1      -6.978   3.119  67.339  1.00  0.00    -0.050 C  
HETATM   18  C   UNL     1     -11.123   5.457  69.723  1.00  0.00     0.315 C  
HETATM   19  C   UNL     1     -10.875   6.197  68.415  1.00  0.00    -0.305 C  
HETATM   20  O   UNL     1     -10.948   7.586  68.582  1.00  0.00    -0.061 OA 
HETATM   21  C   UNL     1      -9.497   5.726  68.099  1.00  0.00    -0.120 C  
HETATM   22  C   UNL     1      -8.740   5.490  69.360  1.00  0.00    -0.107 C  
HETATM   23  C   UNL     1     -10.445   8.481  67.708  1.00  0.00    -0.223 A  
HETATM   24  C   UNL     1      -9.455  13.123  67.753  1.00  0.00    -0.209 A  
HETATM   25  C   UNL     1      -9.831   8.331  66.423  1.00  0.00    -0.213 A  
HETATM   26  C   UNL     1      -8.836  12.983  66.518  1.00  0.00    -0.009 A  
HETATM   27  C   UNL     1      -9.633   7.059  65.572  1.00  0.00     0.722 C  
HETATM   28  C   UNL     1      -6.761   4.439  66.549  1.00  0.00    -0.050 C  
HETATM   29  N   UNL     1      -9.289   9.429  65.828  1.00  0.00    -0.221 NA 
HETATM   30  C   UNL     1      -7.913   4.931  65.570  1.00  0.00    -0.099 C  
HETATM   31  C   UNL     1      -8.141   6.496  65.526  1.00  0.00    -0.127 C  
HETATM   32  C   UNL     1      -9.357  10.628  66.451  1.00  0.00    -0.169 A  
HETATM   33  C   UNL     1      -8.791  11.745  65.872  1.00  0.00    -0.003 A  
ENDROOT
BRANCH  10  34
HETATM   34  C   UNL     1     -10.956   3.512  73.164  1.00  0.00    -0.221 C  
HETATM   35  C   UNL     1     -10.486   4.328  74.400  1.00  0.00    -0.300 C  
HETATM   36  C   UNL     1     -11.333   2.087  73.689  1.00  0.00    -0.319 C  
HETATM   37  C   UNL     1     -12.320   4.132  72.772  1.00  0.00     1.066 C  
ENDBRANCH  10  34
BRANCH  22  38
HETATM   38  C   UNL     1      -7.604   6.639  69.450  1.00  0.00    -0.096 C  
HETATM   39  H   UNL     1      -6.669   7.930  68.337  1.00  0.00     0.000 HD 
HETATM   40  O   UNL     1      -7.335   7.256  68.284  1.00  0.00    -0.094 OA 
BRANCH  38  41
HETATM   41  N   UNL     1      -6.890   6.866  70.511  1.00  0.00    -0.057 NA 
HETATM   42  H   UNL     1      -6.202   6.149  70.742  1.00  0.00     0.000 HD 
BRANCH  41  43
HETATM   43  C   UNL     1      -6.939   8.011  71.422  1.00  0.00    -0.054 C  
HETATM   44  C   UNL     1      -5.975   7.910  72.664  1.00  0.00    -0.047 C  
HETATM   45  C   UNL     1      -5.632   8.798  71.487  1.00  0.00    -0.045 C  
BRANCH  43  46
HETATM   46  C   UNL     1      -8.227   8.747  71.624  1.00  0.00    -0.110 C  
HETATM   47  H   UNL     1      -9.264  10.108  70.751  1.00  0.00     0.000 HD 
HETATM   48  O   UNL     1      -8.446   9.641  70.623  1.00  0.00    -0.212 OA 
BRANCH  46  49
HETATM   49  N   UNL     1      -8.958   8.554  72.652  1.00  0.00    -0.226 N  
HETATM   50  H   UNL     1      -8.562   8.715  73.579  1.00  0.00     0.000 HD 
BRANCH  49  51
HETATM   51  S   UNL     1     -10.484   8.065  72.530  1.00  0.00    -0.339 S  
HETATM   52  O   UNL     1     -10.521   6.796  71.835  1.00  0.00    -0.199 OA 
HETATM   53  O   UNL     1     -11.125   8.206  73.828  1.00  0.00     0.513 OA 
BRANCH  51  54
HETATM   54  C   UNL     1     -11.355   9.288  71.484  1.00  0.00    -0.385 C  
HETATM   55  C   UNL     1     -12.748   8.985  71.179  1.00  0.00    -0.242 C  
HETATM   56  C   UNL     1     -12.460  10.091  72.196  1.00  0.00    -0.176 C  
ENDBRANCH  51  54
ENDBRANCH  49  51
ENDBRANCH  46  49
ENDBRANCH  43  46
BRANCH  44  57
HETATM   57  C   UNL     1      -6.215   8.603  73.944  1.00  0.00    -0.121 C  
HETATM   58  C   UNL     1      -5.721   9.806  74.320  1.00  0.00     0.175 C  
ENDBRANCH  44  57
ENDBRANCH  41  43
ENDBRANCH  38  41
ENDBRANCH  22  38
BRANCH  24  59
HETATM   59  O   UNL     1      -9.433  14.388  68.269  1.00  0.00    -0.195 OA 
HETATM   60  C   UNL     1      -9.344  15.471  67.350  1.00  0.00    -0.207 C  
ENDBRANCH  24  59
TORSDOF 10
ENDMDL
MODEL       33
REMARK 921   NORMALIZED FREE ENERGY PREDICTED BY IDOCK:    0.61 KCAL/MOL
REMARK 922        TOTAL FREE ENERGY PREDICTED BY IDOCK:   -1.68 KCAL/MOL
REMARK 923 INTER-LIGAND FREE ENERGY PREDICTED BY IDOCK:   -2.74 KCAL/MOL
REMARK 924 INTRA-LIGAND FREE ENERGY PREDICTED BY IDOCK:    1.06 KCAL/MOL
REMARK 927      BINDING AFFINITY PREDICTED BY RF-SCORE:    0.00 PKD
ROOT
HETATM    1  C   UNL     1      -7.597   2.830  66.906  1.00  0.00    -0.071 C  
HETATM    2  C   UNL     1      -6.395   3.388  66.223  1.00  0.00    -0.032 C  
HETATM    3  C   UNL     1      -6.301   3.199  67.748  1.00  0.00    -0.036 C  
HETATM    4  O   UNL     1      -5.926   4.445  68.425  1.00  0.00    -0.025 OA 
HETATM    5  C   UNL     1      -5.535   4.543  69.750  1.00  0.00    -0.008 C  
HETATM    6  N   UNL     1      -5.523   3.664  70.694  1.00  0.00    -0.011 NA 
HETATM    7  O   UNL     1      -5.263   5.830  70.066  1.00  0.00    -0.004 OA 
HETATM    8  H   UNL     1      -4.771   2.983  70.807  1.00  0.00     0.000 HD 
HETATM    9  H   UNL     1      -4.995   5.897  70.975  1.00  0.00     0.000 HD 
HETATM   10  C   UNL     1      -6.723   3.730  71.623  1.00  0.00    -0.026 C  
HETATM   11  C   UNL     1      -7.957   4.168  70.806  1.00  0.00    -0.056 C  
HETATM   12  N   UNL     1      -9.718  10.205  69.527  1.00  0.00    -0.227 NA 
HETATM   13  C   UNL     1      -9.795  11.221  68.666  1.00  0.00    -0.202 A  
HETATM   14  N   UNL     1      -8.096   5.539  70.503  1.00  0.00    -0.102 N  
HETATM   15  O   UNL     1      -8.725   3.326  70.321  1.00  0.00    -0.060 OA 
HETATM   16  C   UNL     1      -9.190  12.438  68.974  1.00  0.00     0.437 A  
HETATM   17  C   UNL     1      -9.048   3.296  66.613  1.00  0.00    -0.180 C  
HETATM   18  C   UNL     1      -9.314   6.029  71.172  1.00  0.00    -0.160 C  
HETATM   19  C   UNL     1     -10.160   6.773  70.147  1.00  0.00    -0.178 C  
HETATM   20  O   UNL     1      -9.940   8.155  70.198  1.00  0.00    -0.184 OA 
HETATM   21  C   UNL     1      -9.658   6.154  68.888  1.00  0.00    -0.144 C  
HETATM   22  C   UNL     1      -8.220   5.796  69.037  1.00  0.00    -0.101 C  
HETATM   23  C   UNL     1     -10.273   9.010  69.210  1.00  0.00    -0.205 A  
HETATM   24  C   UNL     1      -9.237  13.504  68.081  1.00  0.00    -0.208 A  
HETATM   25  C   UNL     1     -10.969   8.828  67.973  1.00  0.00     0.132 A  
HETATM   26  C   UNL     1      -9.889  13.328  66.869  1.00  0.00    -0.247 A  
HETATM   27  C   UNL     1     -11.659   7.567  67.411  1.00  0.00     1.318 C  
HETATM   28  C   UNL     1      -9.441   4.604  65.872  1.00  0.00    -0.174 C  
HETATM   29  N   UNL     1     -11.035   9.872  67.102  1.00  0.00    -0.165 NA 
HETATM   30  C   UNL     1     -10.857   5.255  66.187  1.00  0.00    -0.142 C  
HETATM   31  C   UNL     1     -10.881   6.836  66.226  1.00  0.00     0.647 C  
HETATM   32  C   UNL     1     -10.461  11.053  67.430  1.00  0.00    -0.218 A  
HETATM   33  C   UNL     1     -10.499  12.113  66.549  1.00  0.00    -0.254 A  
ENDROOT
BRANCH  10  34
HETATM   34  C   UNL     1      -6.611   3.978  73.208  1.00  0.00    -0.042 C  
HETATM   35  C   UNL     1      -6.353   5.492  73.445  1.00  0.00    -0.065 C  
HETATM   36  C   UNL     1      -5.351   3.223  73.747  1.00  0.00     0.000 C  
HETATM   37  C   UNL     1      -7.725   3.600  74.215  1.00  0.00    -0.066 C  
ENDBRANCH  10  34
BRANCH  22  38
HETATM   38  C   UNL     1      -7.383   6.802  68.085  1.00  0.00    -0.097 C  
HETATM   39  H   UNL     1      -5.602   7.552  67.876  1.00  0.00     0.000 HD 
HETATM   40  O   UNL     1      -6.093   6.962  68.435  1.00  0.00    -0.027 OA 
BRANCH  38  41
HETATM   41  N   UNL     1      -7.920   7.522  67.147  1.00  0.00    -0.116 NA 
HETATM   42  H   UNL     1      -8.892   7.794  67.302  1.00  0.00     0.000 HD 
BRANCH  41  43
HETATM   43  C   UNL     1      -7.322   7.996  65.897  1.00  0.00    -0.076 C  
HETATM   44  C   UNL     1      -7.985   7.423  64.588  1.00  0.00    -0.127 C  
HETATM   45  C   UNL     1      -8.270   8.838  65.046  1.00  0.00    -0.156 C  
BRANCH  43  46
HETATM   46  C   UNL     1      -5.856   8.291  65.840  1.00  0.00    -0.041 C  
HETATM   47  H   UNL     1      -4.248   7.488  65.164  1.00  0.00     0.000 HD 
HETATM   48  O   UNL     1      -5.178   7.300  65.201  1.00  0.00    -0.027 OA 
BRANCH  46  49
HETATM   49  N   UNL     1      -5.358   9.331  66.386  1.00  0.00    -0.043 N  
HETATM   50  H   UNL     1      -4.346   9.460  66.375  1.00  0.00     0.000 HD 
BRANCH  49  51
HETATM   51  S   UNL     1      -6.279  10.444  67.092  1.00  0.00    -0.064 S  
HETATM   52  O   UNL     1      -6.973  11.201  66.072  1.00  0.00    -0.068 OA 
HETATM   53  O   UNL     1      -7.025   9.816  68.171  1.00  0.00    -0.075 OA 
BRANCH  51  54
HETATM   54  C   UNL     1      -5.154  11.596  67.960  1.00  0.00    -0.045 C  
HETATM   55  C   UNL     1      -5.470  13.013  67.827  1.00  0.00    -0.118 C  
HETATM   56  C   UNL     1      -5.772  12.334  69.164  1.00  0.00    -0.070 C  
ENDBRANCH  51  54
ENDBRANCH  49  51
ENDBRANCH  46  49
ENDBRANCH  43  46
BRANCH  44  57
HETATM   57  C   UNL     1      -7.275   7.294  63.301  1.00  0.00    -0.075 C  
HETATM   58  C   UNL     1      -7.026   8.282  62.410  1.00  0.00    -0.090 C  
ENDBRANCH  44  57
ENDBRANCH  41  43
ENDBRANCH  38  41
ENDBRANCH  22  38
BRANCH  24  59
HETATM   59  O   UNL     1      -8.691  14.741  68.270  1.00  0.00    -0.157 OA 
HETATM   60  C   UNL     1      -9.543  15.869  68.095  1.00  0.00    -0.208 C  
ENDBRANCH  24  59
TORSDOF 10
ENDMDL
MODEL       34
REMARK 921   NORMALIZED FREE ENERGY PREDICTED BY IDOCK:    0.84 KCAL/MOL
REMARK 922        TOTAL FREE ENERGY PREDICTED BY IDOCK:   -1.33 KCAL/MOL
REMARK 923 INTER-LIGAND FREE ENERGY PREDICTED BY IDOCK:   -1.29 KCAL/MOL
REMARK 924 INTRA-LIGAND FREE ENERGY PREDICTED BY IDOCK:   -0.04 KCAL/MOL
REMARK 927      BINDING AFFINITY PREDICTED BY RF-SCORE:    0.00 PKD
ROOT
HETATM    1  C   UNL     1     -11.680  15.229  71.380  1.00  0.00    -0.444 C  
HETATM    2  C   UNL     1     -10.440  14.912  72.144  1.00  0.00     1.994 C  
HETATM    3  C   UNL     1     -10.366  16.095  71.160  1.00  0.00     1.304 C  
HETATM    4  O   UNL     1      -9.267  15.933  70.204  1.00  0.00     0.233 OA 
HETATM    5  C   UNL     1      -8.798  16.924  69.357  1.00  0.00     0.218 C  
HETATM    6  N   UNL     1      -9.248  18.108  69.113  1.00  0.00    -0.026 NA 
HETATM    7  O   UNL     1      -7.782  16.452  68.598  1.00  0.00    -0.180 OA 
HETATM    8  H   UNL     1      -9.054  18.910  69.713  1.00  0.00     0.000 HD 
HETATM    9  H   UNL     1      -7.461  17.132  68.017  1.00  0.00     0.000 HD 
HETATM   10  C   UNL     1     -10.092  18.205  67.853  1.00  0.00    -0.357 C  
HETATM   11  C   UNL     1     -10.869  16.885  67.675  1.00  0.00    -0.244 C  
HETATM   12  N   UNL     1      -8.723  11.579  64.771  1.00  0.00     0.324 NA 
HETATM   13  C   UNL     1      -8.235  10.341  64.856  1.00  0.00    -0.157 A  
HETATM   14  N   UNL     1     -10.176  15.777  67.142  1.00  0.00    -0.273 N  
HETATM   15  O   UNL     1     -12.023  16.767  68.109  1.00  0.00     0.416 OA 
HETATM   16  C   UNL     1      -6.998  10.042  64.288  1.00  0.00    -0.128 A  
HETATM   17  C   UNL     1     -12.574  14.155  70.704  1.00  0.00    -0.421 C  
HETATM   18  C   UNL     1     -10.797  15.431  65.852  1.00  0.00    -0.325 C  
HETATM   19  C   UNL     1     -11.097  13.938  65.848  1.00  0.00    -0.291 C  
HETATM   20  O   UNL     1     -10.085  13.207  65.212  1.00  0.00    -0.287 OA 
HETATM   21  C   UNL     1     -11.165  13.675  67.313  1.00  0.00    -0.329 C  
HETATM   22  C   UNL     1     -10.229  14.580  68.035  1.00  0.00    -0.233 C  
HETATM   23  C   UNL     1      -9.907  11.879  65.355  1.00  0.00    -0.233 A  
HETATM   24  C   UNL     1      -6.459   8.763  64.386  1.00  0.00    -0.071 A  
HETATM   25  C   UNL     1     -10.663  10.875  66.042  1.00  0.00    -0.140 A  
HETATM   26  C   UNL     1      -7.173   7.790  65.071  1.00  0.00    -0.065 A  
HETATM   27  C   UNL     1     -12.013  10.996  66.780  1.00  0.00     1.233 C  
HETATM   28  C   UNL     1     -12.152  12.689  70.411  1.00  0.00    -0.381 C  
HETATM   29  N   UNL     1     -10.150   9.617  66.126  1.00  0.00    -0.277 NA 
HETATM   30  C   UNL     1     -12.861  11.925  69.210  1.00  0.00     1.092 C  
HETATM   31  C   UNL     1     -11.924  10.964  68.373  1.00  0.00    -0.081 C  
HETATM   32  C   UNL     1      -8.958   9.342  65.548  1.00  0.00    -0.205 A  
HETATM   33  C   UNL     1      -8.414   8.077  65.644  1.00  0.00    -0.162 A  
ENDROOT
BRANCH  10  34
HETATM   34  C   UNL     1      -9.735  19.166  66.613  1.00  0.00    -0.401 C  
HETATM   35  C   UNL     1     -10.806  18.950  65.508  1.00  0.00     0.024 C  
HETATM   36  C   UNL     1      -8.368  18.712  66.002  1.00  0.00    -0.070 C  
HETATM   37  C   UNL     1      -9.591  20.703  66.734  1.00  0.00    -0.360 C  
ENDBRANCH  10  34
BRANCH  22  38
HETATM   38  C   UNL     1      -9.027  13.658  68.605  1.00  0.00    -0.025 C  
HETATM   39  H   UNL     1      -8.657  11.832  69.162  1.00  0.00     0.000 HD 
HETATM   40  O   UNL     1      -9.363  12.374  68.828  1.00  0.00    -0.048 OA 
BRANCH  38  41
HETATM   41  N   UNL     1      -7.869  14.124  68.966  1.00  0.00    -0.297 NA 
HETATM   42  H   UNL     1      -7.876  15.066  69.356  1.00  0.00     0.000 HD 
BRANCH  41  43
HETATM   43  C   UNL     1      -6.557  13.480  68.888  1.00  0.00    -0.106 C  
HETATM   44  C   UNL     1      -6.108  13.065  67.436  1.00  0.00    -0.064 C  
HETATM   45  C   UNL     1      -5.523  14.289  68.108  1.00  0.00    -0.122 C  
BRANCH  43  46
HETATM   46  C   UNL     1      -6.085  12.615  70.014  1.00  0.00    -0.115 C  
HETATM   47  H   UNL     1      -5.741  12.759  71.899  1.00  0.00     0.000 HD 
HETATM   48  O   UNL     1      -6.040  13.308  71.184  1.00  0.00    -0.208 OA 
BRANCH  46  49
HETATM   49  N   UNL     1      -5.734  11.402  69.829  1.00  0.00    -0.076 N  
HETATM   50  H   UNL     1      -5.110  11.179  69.053  1.00  0.00     0.000 HD 
BRANCH  49  51
HETATM   51  S   UNL     1      -6.246  10.214  70.784  1.00  0.00    -0.026 S  
HETATM   52  O   UNL     1      -5.726  10.421  72.119  1.00  0.00    -0.295 OA 
HETATM   53  O   UNL     1      -7.674  10.031  70.575  1.00  0.00    -0.264 OA 
BRANCH  51  54
HETATM   54  C   UNL     1      -5.515   8.663  70.146  1.00  0.00    -0.024 C  
HETATM   55  C   UNL     1      -5.866   7.450  70.874  1.00  0.00    -0.035 C  
HETATM   56  C   UNL     1      -6.516   7.680  69.509  1.00  0.00    -0.032 C  
ENDBRANCH  51  54
ENDBRANCH  49  51
ENDBRANCH  46  49
ENDBRANCH  43  46
BRANCH  44  57
HETATM   57  C   UNL     1      -5.160  11.971  67.154  1.00  0.00    -0.095 C  
HETATM   58  C   UNL     1      -5.422  10.643  67.185  1.00  0.00    -0.042 C  
ENDBRANCH  44  57
ENDBRANCH  41  43
ENDBRANCH  38  41
ENDBRANCH  22  38
BRANCH  24  59
HETATM   59  O   UNL     1      -5.265   8.347  63.869  1.00  0.00    -0.047 OA 
HETATM   60  C   UNL     1      -5.182   8.180  62.458  1.00  0.00    -0.064 C  
ENDBRANCH  24  59
TORSDOF 10
ENDMDL
MODEL       35
REMARK 921   NORMALIZED FREE ENERGY PREDICTED BY IDOCK:    0.99 KCAL/MOL
REMARK 922        TOTAL FREE ENERGY PREDICTED BY IDOCK:   -1.09 KCAL/MOL
REMARK 923 INTER-LIGAND FREE ENERGY PREDICTED BY IDOCK:    0.24 KCAL/MOL
REMARK 924 INTRA-LIGAND FREE ENERGY PREDICTED BY IDOCK:   -1.32 KCAL/MOL
REMARK 927      BINDING AFFINITY PREDICTED BY RF-SCORE:    0.00 PKD
ROOT
HETATM    1  C   UNL     1      -6.195   3.160  69.752  1.00  0.00    -0.028 C  
HETATM    2  C   UNL     1      -5.127   4.143  70.092  1.00  0.00     0.000 C  
HETATM    3  C   UNL     1      -6.401   4.177  70.957  1.00  0.00    -0.018 C  
HETATM    4  O   UNL     1      -7.000   5.514  70.982  1.00  0.00    -0.057 OA 
HETATM    5  C   UNL     1      -8.003   5.919  71.849  1.00  0.00    -0.107 C  
HETATM    6  N   UNL     1      -8.706   5.249  72.698  1.00  0.00    -0.120 NA 
HETATM    7  O   UNL     1      -8.338   7.208  71.611  1.00  0.00    -0.109 OA 
HETATM    8  H   UNL     1      -8.370   5.015  73.632  1.00  0.00     0.000 HD 
HETATM    9  H   UNL     1      -9.026   7.486  72.204  1.00  0.00     0.000 HD 
HETATM   10  C   UNL     1     -10.077   4.840  72.187  1.00  0.00    -0.191 C  
HETATM   11  C   UNL     1      -9.978   4.563  70.672  1.00  0.00    -0.203 C  
HETATM   12  N   UNL     1     -10.492   8.906  65.975  1.00  0.00     0.276 NA 
HETATM   13  C   UNL     1      -9.911   9.674  65.053  1.00  0.00    -0.071 A  
HETATM   14  N   UNL     1      -9.966   5.670  69.798  1.00  0.00    -0.183 N  
HETATM   15  O   UNL     1      -9.782   3.415  70.251  1.00  0.00    -0.176 OA 
HETATM   16  C   UNL     1     -10.078  11.057  65.096  1.00  0.00    -0.346 A  
HETATM   17  C   UNL     1      -6.660   2.859  68.302  1.00  0.00    -0.036 C  
HETATM   18  C   UNL     1     -11.175   5.599  68.959  1.00  0.00     0.277 C  
HETATM   19  C   UNL     1     -10.760   5.750  67.501  1.00  0.00    -0.236 C  
HETATM   20  O   UNL     1     -10.898   7.072  67.058  1.00  0.00    -0.348 OA 
HETATM   21  C   UNL     1      -9.338   5.314  67.583  1.00  0.00    -0.128 C  
HETATM   22  C   UNL     1      -8.767   5.688  68.907  1.00  0.00    -0.107 C  
HETATM   23  C   UNL     1     -10.299   7.566  65.956  1.00  0.00     0.967 A  
HETATM   24  C   UNL     1      -9.461  11.880  64.159  1.00  0.00     0.072 A  
HETATM   25  C   UNL     1      -9.499   6.953  64.938  1.00  0.00     1.556 A  
HETATM   26  C   UNL     1      -8.665  11.297  63.183  1.00  0.00     0.010 A  
HETATM   27  C   UNL     1      -9.141   5.466  64.733  1.00  0.00     0.108 C  
HETATM   28  C   UNL     1      -6.368   3.748  67.062  1.00  0.00    -0.036 C  
HETATM   29  N   UNL     1      -8.908   7.751  64.006  1.00  0.00     0.593 NA 
HETATM   30  C   UNL     1      -7.378   3.688  65.835  1.00  0.00    -0.076 C  
HETATM   31  C   UNL     1      -7.643   5.068  65.110  1.00  0.00    -0.081 C  
HETATM   32  C   UNL     1      -9.101   9.089  64.052  1.00  0.00     0.258 A  
HETATM   33  C   UNL     1      -8.490   9.912  63.129  1.00  0.00    -0.178 A  
ENDROOT
BRANCH  10  34
HETATM   34  C   UNL     1     -11.457   5.272  72.892  1.00  0.00    -0.339 C  
HETATM   35  C   UNL     1     -11.118   5.924  74.262  1.00  0.00     0.890 C  
HETATM   36  C   UNL     1     -12.287   3.983  73.206  1.00  0.00     0.556 C  
HETATM   37  C   UNL     1     -12.490   6.225  72.242  1.00  0.00    -0.074 C  
ENDBRANCH  10  34
BRANCH  22  38
HETATM   38  C   UNL     1      -7.690   6.866  68.640  1.00  0.00    -0.113 C  
HETATM   39  H   UNL     1      -6.703   7.713  67.195  1.00  0.00     0.000 HD 
HETATM   40  O   UNL     1      -7.334   7.021  67.351  1.00  0.00    -0.087 OA 
BRANCH  38  41
HETATM   41  N   UNL     1      -7.092   7.524  69.587  1.00  0.00    -0.063 NA 
HETATM   42  H   UNL     1      -6.865   6.985  70.423  1.00  0.00     0.000 HD 
BRANCH  41  43
HETATM   43  C   UNL     1      -6.699   8.934  69.618  1.00  0.00    -0.046 C  
HETATM   44  C   UNL     1      -5.698   9.316  70.773  1.00  0.00    -0.042 C  
HETATM   45  C   UNL     1      -5.214   9.162  69.347  1.00  0.00    -0.035 C  
BRANCH  43  46
HETATM   46  C   UNL     1      -7.673   9.987  69.192  1.00  0.00    -0.104 C  
HETATM   47  H   UNL     1      -8.110  10.996  67.617  1.00  0.00     0.000 HD 
HETATM   48  O   UNL     1      -7.492  10.328  67.888  1.00  0.00    -0.087 OA 
BRANCH  46  49
HETATM   49  N   UNL     1      -8.510  10.500  70.008  1.00  0.00    -0.277 N  
HETATM   50  H   UNL     1      -8.216  11.283  70.592  1.00  0.00     0.000 HD 
BRANCH  49  51
HETATM   51  S   UNL     1     -10.013   9.947  70.142  1.00  0.00    -0.184 S  
HETATM   52  O   UNL     1     -10.386   9.282  68.912  1.00  0.00    -0.204 OA 
HETATM   53  O   UNL     1     -10.145   9.256  71.416  1.00  0.00    -0.314 OA 
BRANCH  51  54
HETATM   54  C   UNL     1     -11.104  11.404  70.328  1.00  0.00     0.291 C  
HETATM   55  C   UNL     1     -11.189  12.286  69.171  1.00  0.00    -0.300 C  
HETATM   56  C   UNL     1     -12.384  11.380  69.471  1.00  0.00    -0.211 C  
ENDBRANCH  51  54
ENDBRANCH  49  51
ENDBRANCH  46  49
ENDBRANCH  43  46
BRANCH  44  57
HETATM   57  C   UNL     1      -5.589  10.672  71.346  1.00  0.00     0.085 C  
HETATM   58  C   UNL     1      -5.169  11.790  70.709  1.00  0.00    -0.138 C  
ENDBRANCH  44  57
ENDBRANCH  41  43
ENDBRANCH  38  41
ENDBRANCH  22  38
BRANCH  24  59
HETATM   59  O   UNL     1      -9.552  13.241  64.093  1.00  0.00     0.111 OA 
HETATM   60  C   UNL     1     -10.264  13.903  65.133  1.00  0.00    -0.358 C  
ENDBRANCH  24  59
TORSDOF 10
ENDMDL
MODEL       36
REMARK 921   NORMALIZED FREE ENERGY PREDICTED BY IDOCK:    1.17 KCAL/MOL
REMARK 922        TOTAL FREE ENERGY PREDICTED BY IDOCK:   -0.80 KCAL/MOL
REMARK 923 INTER-LIGAND FREE ENERGY PREDICTED BY IDOCK:    0.52 KCAL/MOL
REMARK 924 INTRA-LIGAND FREE ENERGY PREDICTED BY IDOCK:   -1.32 KCAL/MOL
REMARK 927      BINDING AFFINITY PREDICTED BY RF-SCORE:    0.00 PKD
ROOT
HETATM    1  C   UNL     1     -11.286  15.392  70.819  1.00  0.00    -0.378 C  
HETATM    2  C   UNL     1     -10.118  14.783  71.516  1.00  0.00     2.349 C  
HETATM    3  C   UNL     1      -9.849  16.063  70.702  1.00  0.00     1.179 C  
HETATM    4  O   UNL     1      -8.782  15.862  69.717  1.00  0.00    -0.089 OA 
HETATM    5  C   UNL     1      -8.156  16.875  69.008  1.00  0.00    -0.162 C  
HETATM    6  N   UNL     1      -8.412  18.137  68.933  1.00  0.00    -0.186 NA 
HETATM    7  O   UNL     1      -7.220  16.357  68.178  1.00  0.00    -0.137 OA 
HETATM    8  H   UNL     1      -8.099  18.808  69.635  1.00  0.00     0.000 HD 
HETATM    9  H   UNL     1      -6.791  17.051  67.691  1.00  0.00     0.000 HD 
HETATM   10  C   UNL     1      -9.220  18.537  67.710  1.00  0.00    -0.281 C  
HETATM   11  C   UNL     1     -10.193  17.392  67.364  1.00  0.00    -0.326 C  
HETATM   12  N   UNL     1      -8.885  12.263  63.734  1.00  0.00     0.893 NA 
HETATM   13  C   UNL     1      -8.599  10.964  63.642  1.00  0.00     0.029 A  
HETATM   14  N   UNL     1      -9.678  16.273  66.676  1.00  0.00    -0.238 N  
HETATM   15  O   UNL     1     -11.355  17.398  67.793  1.00  0.00     0.006 OA 
HETATM   16  C   UNL     1      -7.420  10.555  63.023  1.00  0.00    -0.043 A  
HETATM   17  C   UNL     1     -12.332  14.575  70.015  1.00  0.00    -0.376 C  
HETATM   18  C   UNL     1     -10.336  16.208  65.359  1.00  0.00    -0.330 C  
HETATM   19  C   UNL     1     -10.867  14.796  65.155  1.00  0.00    -0.404 C  
HETATM   20  O   UNL     1      -9.978  14.009  64.411  1.00  0.00    -0.168 OA 
HETATM   21  C   UNL     1     -10.988  14.349  66.571  1.00  0.00    -0.316 C  
HETATM   22  C   UNL     1      -9.926  14.988  67.397  1.00  0.00    -0.226 C  
HETATM   23  C   UNL     1     -10.012  12.662  64.370  1.00  0.00    -0.170 A  
HETATM   24  C   UNL     1      -7.089   9.207  62.937  1.00  0.00    -0.091 A  
HETATM   25  C   UNL     1     -10.922  11.705  64.923  1.00  0.00    -0.284 A  
HETATM   26  C   UNL     1      -7.953   8.273  63.493  1.00  0.00    -0.154 A  
HETATM   27  C   UNL     1     -12.242  11.934  65.689  1.00  0.00     0.345 C  
HETATM   28  C   UNL     1     -12.144  13.114  69.518  1.00  0.00    -0.296 C  
HETATM   29  N   UNL     1     -10.614  10.382  64.827  1.00  0.00    -0.053 NA 
HETATM   30  C   UNL     1     -12.954  12.643  68.234  1.00  0.00     2.657 C  
HETATM   31  C   UNL     1     -12.173  11.671  67.261  1.00  0.00     0.704 C  
HETATM   32  C   UNL     1      -9.475  10.005  64.201  1.00  0.00    -0.252 A  
HETATM   33  C   UNL     1      -9.138   8.670  64.116  1.00  0.00     0.523 A  
ENDROOT
BRANCH  10  34
HETATM   34  C   UNL     1      -8.706  19.590  66.609  1.00  0.00    -0.377 C  
HETATM   35  C   UNL     1      -8.405  20.935  67.326  1.00  0.00    -0.138 C  
HETATM   36  C   UNL     1      -9.870  19.873  65.602  1.00  0.00    -0.173 C  
HETATM   37  C   UNL     1      -7.481  19.343  65.693  1.00  0.00    -0.167 C  
ENDBRANCH  10  34
BRANCH  22  38
HETATM   38  C   UNL     1      -8.890  13.819  67.820  1.00  0.00    -0.188 C  
HETATM   39  H   UNL     1      -7.119  13.142  67.392  1.00  0.00     0.000 HD 
HETATM   40  O   UNL     1      -7.727  13.828  67.143  1.00  0.00    -0.121 OA 
BRANCH  38  41
HETATM   41  N   UNL     1      -9.188  12.851  68.634  1.00  0.00    -0.397 NA 
HETATM   42  H   UNL     1      -9.891  13.070  69.340  1.00  0.00     0.000 HD 
BRANCH  41  43
HETATM   43  C   UNL     1      -8.652  11.489  68.675  1.00  0.00    -0.109 C  
HETATM   44  C   UNL     1      -9.728  10.363  68.911  1.00  0.00    -0.203 C  
HETATM   45  C   UNL     1      -9.145  10.602  67.534  1.00  0.00    -0.144 C  
BRANCH  43  46
HETATM   46  C   UNL     1      -7.284  11.245  69.231  1.00  0.00    -0.094 C  
HETATM   47  H   UNL     1      -5.457  11.292  68.640  1.00  0.00     0.000 HD 
HETATM   48  O   UNL     1      -6.325  11.447  68.287  1.00  0.00    -0.046 OA 
BRANCH  46  49
HETATM   49  N   UNL     1      -7.106  10.847  70.430  1.00  0.00    -0.082 N  
HETATM   50  H   UNL     1      -7.630  11.293  71.183  1.00  0.00     0.000 HD 
BRANCH  49  51
HETATM   51  S   UNL     1      -6.080   9.663  70.789  1.00  0.00    -0.093 S  
HETATM   52  O   UNL     1      -5.431   9.214  69.575  1.00  0.00    -0.034 OA 
HETATM   53  O   UNL     1      -5.283  10.068  71.937  1.00  0.00    -0.086 OA 
BRANCH  51  54
HETATM   54  C   UNL     1      -7.076   8.267  71.427  1.00  0.00    -0.067 C  
HETATM   55  C   UNL     1      -6.474   7.502  72.512  1.00  0.00    -0.055 C  
HETATM   56  C   UNL     1      -7.624   8.452  72.856  1.00  0.00    -0.120 C  
ENDBRANCH  51  54
ENDBRANCH  49  51
ENDBRANCH  46  49
ENDBRANCH  43  46
BRANCH  44  57
HETATM   57  C   UNL     1      -9.421   9.054  69.520  1.00  0.00    -0.164 C  
HETATM   58  C   UNL     1     -10.310   8.094  69.868  1.00  0.00    -0.214 C  
ENDBRANCH  44  57
ENDBRANCH  41  43
ENDBRANCH  38  41
ENDBRANCH  22  38
BRANCH  24  59
HETATM   59  O   UNL     1      -5.972   8.683  62.353  1.00  0.00    -0.087 OA 
HETATM   60  C   UNL     1      -5.676   7.314  62.610  1.00  0.00    -0.049 C  
ENDBRANCH  24  59
TORSDOF 10
ENDMDL
MODEL       37
REMARK 921   NORMALIZED FREE ENERGY PREDICTED BY IDOCK:    1.24 KCAL/MOL
REMARK 922        TOTAL FREE ENERGY PREDICTED BY IDOCK:   -0.69 KCAL/MOL
REMARK 923 INTER-LIGAND FREE ENERGY PREDICTED BY IDOCK:   -1.50 KCAL/MOL
REMARK 924 INTRA-LIGAND FREE ENERGY PREDICTED BY IDOCK:    0.81 KCAL/MOL
REMARK 927      BINDING AFFINITY PREDICTED BY RF-SCORE:    0.00 PKD
ROOT
HETATM    1  C   UNL     1     -10.255   7.151  69.669  1.00  0.00    -0.215 C  
HETATM    2  C   UNL     1     -11.415   8.072  69.836  1.00  0.00     0.157 C  
HETATM    3  C   UNL     1     -10.945   7.802  68.394  1.00  0.00     0.187 C  
HETATM    4  O   UNL     1     -10.648   9.048  67.681  1.00  0.00    -0.257 OA 
HETATM    5  C   UNL     1     -10.435   9.151  66.316  1.00  0.00     0.035 C  
HETATM    6  N   UNL     1     -10.321   8.241  65.409  1.00  0.00     1.391 NA 
HETATM    7  O   UNL     1     -10.179  10.435  65.976  1.00  0.00    -0.243 OA 
HETATM    8  H   UNL     1     -11.126   7.790  64.973  1.00  0.00     0.000 HD 
HETATM    9  H   UNL     1     -10.033  10.506  65.040  1.00  0.00     0.000 HD 
HETATM   10  C   UNL     1      -8.886   7.900  65.045  1.00  0.00     0.210 C  
HETATM   11  C   UNL     1      -8.010   8.036  66.307  1.00  0.00    -0.105 C  
HETATM   12  N   UNL     1      -5.258  13.421  68.457  1.00  0.00    -0.073 NA 
HETATM   13  C   UNL     1      -5.243  14.437  69.321  1.00  0.00    -0.078 A  
HETATM   14  N   UNL     1      -7.617   9.333  66.702  1.00  0.00    -0.093 N  
HETATM   15  O   UNL     1      -7.773   7.053  67.021  1.00  0.00    -0.103 OA 
HETATM   16  C   UNL     1      -5.301  15.748  68.851  1.00  0.00    -0.103 A  
HETATM   17  C   UNL     1      -8.973   7.214  70.542  1.00  0.00    -0.155 C  
HETATM   18  C   UNL     1      -6.150   9.412  66.601  1.00  0.00    -0.064 C  
HETATM   19  C   UNL     1      -5.606   9.965  67.913  1.00  0.00    -0.039 C  
HETATM   20  O   UNL     1      -5.383  11.346  67.840  1.00  0.00    -0.043 OA 
HETATM   21  C   UNL     1      -6.721   9.608  68.835  1.00  0.00    -0.046 C  
HETATM   22  C   UNL     1      -8.018   9.655  68.105  1.00  0.00    -0.100 C  
HETATM   23  C   UNL     1      -5.241  12.147  68.915  1.00  0.00    -0.054 A  
HETATM   24  C   UNL     1      -5.311  16.822  69.734  1.00  0.00    -0.171 A  
HETATM   25  C   UNL     1      -5.178  11.871  70.319  1.00  0.00    -0.100 A  
HETATM   26  C   UNL     1      -5.274  16.564  71.097  1.00  0.00    -0.073 A  
HETATM   27  C   UNL     1      -5.160  10.514  71.053  1.00  0.00    -0.085 C  
HETATM   28  C   UNL     1      -8.551   8.413  71.436  1.00  0.00    -0.207 C  
HETATM   29  N   UNL     1      -5.169  12.918  71.189  1.00  0.00    -0.163 NA 
HETATM   30  C   UNL     1      -7.006   8.616  71.746  1.00  0.00    -0.096 C  
HETATM   31  C   UNL     1      -6.518  10.120  71.792  1.00  0.00     0.866 C  
HETATM   32  C   UNL     1      -5.201  14.184  70.711  1.00  0.00    -0.122 A  
HETATM   33  C   UNL     1      -5.216  15.255  71.580  1.00  0.00    -0.042 A  
ENDROOT
BRANCH  10  34
HETATM   34  C   UNL     1      -8.284   8.049  63.561  1.00  0.00    -0.038 C  
HETATM   35  C   UNL     1      -9.090   9.150  62.818  1.00  0.00     0.070 C  
HETATM   36  C   UNL     1      -8.530   6.715  62.782  1.00  0.00     0.179 C  
HETATM   37  C   UNL     1      -6.798   8.376  63.269  1.00  0.00    -0.089 C  
ENDBRANCH  10  34
BRANCH  22  38
HETATM   38  C   UNL     1      -8.840  10.924  68.683  1.00  0.00    -0.158 C  
HETATM   39  H   UNL     1      -8.755  12.266  70.087  1.00  0.00     0.000 HD 
HETATM   40  O   UNL     1      -8.273  11.521  69.748  1.00  0.00     0.720 OA 
BRANCH  38  41
HETATM   41  N   UNL     1     -10.022  11.267  68.268  1.00  0.00    -0.188 NA 
HETATM   42  H   UNL     1     -10.614  10.503  67.942  1.00  0.00     0.000 HD 
BRANCH  41  43
HETATM   43  C   UNL     1     -10.620  12.602  68.205  1.00  0.00    -0.237 C  
HETATM   44  C   UNL     1     -11.517  12.984  69.442  1.00  0.00    -0.323 C  
HETATM   45  C   UNL     1     -10.121  13.549  69.295  1.00  0.00     0.328 C  
BRANCH  43  46
HETATM   46  C   UNL     1     -11.012  13.180  66.881  1.00  0.00    -0.276 C  
HETATM   47  H   UNL     1     -11.599  12.570  65.157  1.00  0.00     0.000 HD 
HETATM   48  O   UNL     1     -11.351  12.203  65.998  1.00  0.00    -0.329 OA 
BRANCH  46  49
HETATM   49  N   UNL     1     -10.963  14.435  66.654  1.00  0.00    -0.312 N  
HETATM   50  H   UNL     1     -11.702  15.034  67.021  1.00  0.00     0.000 HD 
BRANCH  49  51
HETATM   51  S   UNL     1      -9.770  15.098  65.805  1.00  0.00    -0.312 S  
HETATM   52  O   UNL     1      -8.501  14.656  66.344  1.00  0.00    -0.015 OA 
HETATM   53  O   UNL     1     -10.059  14.936  64.388  1.00  0.00     0.083 OA 
BRANCH  51  54
HETATM   54  C   UNL     1      -9.873  16.907  66.061  1.00  0.00    -0.258 C  
HETATM   55  C   UNL     1     -11.160  17.410  66.526  1.00  0.00     0.444 C  
HETATM   56  C   UNL     1     -10.006  17.355  67.530  1.00  0.00    -0.298 C  
ENDBRANCH  51  54
ENDBRANCH  49  51
ENDBRANCH  46  49
ENDBRANCH  43  46
BRANCH  44  57
HETATM   57  C   UNL     1     -12.618  13.965  69.382  1.00  0.00     0.112 C  
HETATM   58  C   UNL     1     -13.089  14.717  70.404  1.00  0.00    -0.189 C  
ENDBRANCH  44  57
ENDBRANCH  41  43
ENDBRANCH  38  41
ENDBRANCH  22  38
BRANCH  24  59
HETATM   59  O   UNL     1      -5.359  18.145  69.398  1.00  0.00    -0.187 OA 
HETATM   60  C   UNL     1      -6.627  18.791  69.449  1.00  0.00    -0.247 C  
ENDBRANCH  24  59
TORSDOF 10
ENDMDL
MODEL       38
REMARK 921   NORMALIZED FREE ENERGY PREDICTED BY IDOCK:    1.28 KCAL/MOL
REMARK 922        TOTAL FREE ENERGY PREDICTED BY IDOCK:   -0.62 KCAL/MOL
REMARK 923 INTER-LIGAND FREE ENERGY PREDICTED BY IDOCK:   -1.55 KCAL/MOL
REMARK 924 INTRA-LIGAND FREE ENERGY PREDICTED BY IDOCK:    0.93 KCAL/MOL
REMARK 927      BINDING AFFINITY PREDICTED BY RF-SCORE:    0.00 PKD
ROOT
HETATM    1  C   UNL     1     -11.212  13.930  65.471  1.00  0.00    -0.307 C  
HETATM    2  C   UNL     1     -12.313  13.616  66.427  1.00  0.00    -0.441 C  
HETATM    3  C   UNL     1     -11.083  14.344  67.000  1.00  0.00    -0.313 C  
HETATM    4  O   UNL     1     -10.509  13.620  68.139  1.00  0.00    -0.234 OA 
HETATM    5  C   UNL     1      -9.556  14.129  69.006  1.00  0.00     0.037 C  
HETATM    6  N   UNL     1      -8.883  15.229  68.969  1.00  0.00    -0.211 NA 
HETATM    7  O   UNL     1      -9.234  13.209  69.943  1.00  0.00     1.447 OA 
HETATM    8  H   UNL     1      -9.259  16.120  69.294  1.00  0.00     0.000 HD 
HETATM    9  H   UNL     1      -8.580  13.558  70.538  1.00  0.00     0.000 HD 
HETATM   10  C   UNL     1      -7.482  15.083  68.400  1.00  0.00    -0.113 C  
HETATM   11  C   UNL     1      -7.504  13.995  67.306  1.00  0.00    -0.029 C  
HETATM   12  N   UNL     1      -6.843   7.677  68.221  1.00  0.00    -0.065 NA 
HETATM   13  C   UNL     1      -7.393   6.465  68.303  1.00  0.00    -0.086 A  
HETATM   14  N   UNL     1      -7.493  12.645  67.717  1.00  0.00    -0.117 N  
HETATM   15  O   UNL     1      -7.658  14.298  66.115  1.00  0.00     1.539 OA 
HETATM   16  C   UNL     1      -7.253   5.717  69.470  1.00  0.00    -0.066 A  
HETATM   17  C   UNL     1     -10.674  12.925  64.418  1.00  0.00    -0.407 C  
HETATM   18  C   UNL     1      -6.244  12.033  67.232  1.00  0.00    -0.149 C  
HETATM   19  C   UNL     1      -6.592  10.738  66.509  1.00  0.00    -0.119 C  
HETATM   20  O   UNL     1      -6.457   9.623  67.348  1.00  0.00    -0.067 OA 
HETATM   21  C   UNL     1      -8.009  11.012  66.138  1.00  0.00    -0.129 C  
HETATM   22  C   UNL     1      -8.649  11.869  67.174  1.00  0.00    -0.172 C  
HETATM   23  C   UNL     1      -7.011   8.420  67.101  1.00  0.00    -0.075 A  
HETATM   24  C   UNL     1      -7.838   4.460  69.586  1.00  0.00    -0.057 A  
HETATM   25  C   UNL     1      -7.750   7.911  65.986  1.00  0.00    -0.092 A  
HETATM   26  C   UNL     1      -8.577   3.968  68.518  1.00  0.00    -0.115 A  
HETATM   27  C   UNL     1      -8.071   8.580  64.633  1.00  0.00    -0.153 C  
HETATM   28  C   UNL     1     -10.922  11.390  64.430  1.00  0.00    -0.371 C  
HETATM   29  N   UNL     1      -8.310   6.674  66.085  1.00  0.00    -0.123 NA 
HETATM   30  C   UNL     1      -9.853  10.448  63.725  1.00  0.00    -0.308 C  
HETATM   31  C   UNL     1      -9.578   9.072  64.457  1.00  0.00     0.708 C  
HETATM   32  C   UNL     1      -8.143   5.954  67.219  1.00  0.00    -0.102 A  
HETATM   33  C   UNL     1      -8.724   4.709  67.343  1.00  0.00    -0.105 A  
ENDROOT
BRANCH  10  34
HETATM   34  C   UNL     1      -6.146  15.456  69.214  1.00  0.00    -0.113 C  
HETATM   35  C   UNL     1      -6.531  16.440  70.352  1.00  0.00     0.524 C  
HETATM   36  C   UNL     1      -5.177  16.233  68.262  1.00  0.00    -0.102 C  
HETATM   37  C   UNL     1      -5.232  14.403  69.888  1.00  0.00    -0.093 C  
ENDBRANCH  10  34
BRANCH  22  38
HETATM   38  C   UNL     1      -9.732  10.946  67.945  1.00  0.00    -0.165 C  
HETATM   39  H   UNL     1     -10.005   9.118  68.548  1.00  0.00     0.000 HD 
HETATM   40  O   UNL     1      -9.369   9.659  68.095  1.00  0.00    -0.133 OA 
BRANCH  38  41
HETATM   41  N   UNL     1     -10.923  11.352  68.270  1.00  0.00    -0.199 NA 
HETATM   42  H   UNL     1     -11.327  12.066  67.663  1.00  0.00     0.000 HD 
BRANCH  41  43
HETATM   43  C   UNL     1     -11.764  10.924  69.389  1.00  0.00    -0.325 C  
HETATM   44  C   UNL     1     -12.400  12.098  70.225  1.00  0.00    -0.269 C  
HETATM   45  C   UNL     1     -13.233  11.313  69.235  1.00  0.00     2.025 C  
BRANCH  43  46
HETATM   46  C   UNL     1     -11.432   9.668  70.132  1.00  0.00    -0.189 C  
HETATM   47  H   UNL     1     -10.204   9.072  71.483  1.00  0.00     0.000 HD 
HETATM   48  O   UNL     1     -10.415   9.869  71.012  1.00  0.00    -0.252 OA 
BRANCH  46  49
HETATM   49  N   UNL     1     -12.026   8.565  69.887  1.00  0.00    -0.036 N  
HETATM   50  H   UNL     1     -12.429   8.413  68.963  1.00  0.00     0.000 HD 
BRANCH  49  51
HETATM   51  S   UNL     1     -12.158   7.408  70.996  1.00  0.00    -0.268 S  
HETATM   52  O   UNL     1     -13.559   7.166  71.265  1.00  0.00    -0.353 OA 
HETATM   53  O   UNL     1     -11.283   6.305  70.625  1.00  0.00    -0.300 OA 
BRANCH  51  54
HETATM   54  C   UNL     1     -11.408   8.054  72.534  1.00  0.00    -0.406 C  
HETATM   55  C   UNL     1     -11.483   7.175  73.694  1.00  0.00     0.870 C  
HETATM   56  C   UNL     1     -10.130   7.328  72.997  1.00  0.00    -0.294 C  
ENDBRANCH  51  54
ENDBRANCH  49  51
ENDBRANCH  46  49
ENDBRANCH  43  46
BRANCH  44  57
HETATM   57  C   UNL     1     -12.796  11.972  71.641  1.00  0.00    -0.399 C  
HETATM   58  C   UNL     1     -13.263  10.861  72.257  1.00  0.00    -0.139 C  
ENDBRANCH  44  57
ENDBRANCH  41  43
ENDBRANCH  38  41
ENDBRANCH  22  38
BRANCH  24  59
HETATM   59  O   UNL     1      -7.769   3.632  70.670  1.00  0.00    -0.040 OA 
HETATM   60  C   UNL     1      -8.414   4.059  71.865  1.00  0.00    -0.099 C  
ENDBRANCH  24  59
TORSDOF 10
ENDMDL
MODEL       39
REMARK 921   NORMALIZED FREE ENERGY PREDICTED BY IDOCK:    1.42 KCAL/MOL
REMARK 922        TOTAL FREE ENERGY PREDICTED BY IDOCK:   -0.40 KCAL/MOL
REMARK 923 INTER-LIGAND FREE ENERGY PREDICTED BY IDOCK:    0.97 KCAL/MOL
REMARK 924 INTRA-LIGAND FREE ENERGY PREDICTED BY IDOCK:   -1.37 KCAL/MOL
REMARK 927      BINDING AFFINITY PREDICTED BY RF-SCORE:    0.00 PKD
ROOT
HETATM    1  C   UNL     1     -12.321  15.008  69.765  1.00  0.00    -0.278 C  
HETATM    2  C   UNL     1     -11.006  15.561  70.200  1.00  0.00    -0.336 C  
HETATM    3  C   UNL     1     -11.185  15.301  68.693  1.00  0.00    -0.296 C  
HETATM    4  O   UNL     1     -10.126  14.434  68.165  1.00  0.00    -0.217 OA 
HETATM    5  C   UNL     1      -9.877  14.213  66.820  1.00  0.00    -0.272 C  
HETATM    6  N   UNL     1     -10.534  14.573  65.770  1.00  0.00    -0.306 NA 
HETATM    7  O   UNL     1      -8.838  13.359  66.669  1.00  0.00    -0.400 OA 
HETATM    8  H   UNL     1     -10.446  15.500  65.353  1.00  0.00     0.000 HD 
HETATM    9  H   UNL     1      -8.668  13.207  65.747  1.00  0.00     0.000 HD 
HETATM   10  C   UNL     1     -11.448  13.497  65.208  1.00  0.00    -0.299 C  
HETATM   11  C   UNL     1     -11.998  12.655  66.377  1.00  0.00    -0.357 C  
HETATM   12  N   UNL     1      -9.142   7.580  69.076  1.00  0.00    -0.141 NA 
HETATM   13  C   UNL     1      -8.448   7.057  70.087  1.00  0.00    -0.139 A  
HETATM   14  N   UNL     1     -11.157  11.669  66.934  1.00  0.00    -0.295 N  
HETATM   15  O   UNL     1     -13.091  12.927  66.892  1.00  0.00     0.998 OA 
HETATM   16  C   UNL     1      -7.210   6.465  69.845  1.00  0.00    -0.074 A  
HETATM   17  C   UNL     1     -13.054  13.853  70.498  1.00  0.00    -0.056 C  
HETATM   18  C   UNL     1     -11.778  10.355  66.695  1.00  0.00     1.661 C  
HETATM   19  C   UNL     1     -11.821   9.595  68.015  1.00  0.00     1.821 C  
HETATM   20  O   UNL     1     -10.735   8.720  68.146  1.00  0.00    -0.177 OA 
HETATM   21  C   UNL     1     -11.766  10.731  68.978  1.00  0.00    -0.357 C  
HETATM   22  C   UNL     1     -10.959  11.844  68.405  1.00  0.00    -0.232 C  
HETATM   23  C   UNL     1     -10.327   8.190  69.316  1.00  0.00    -0.217 A  
HETATM   24  C   UNL     1      -6.458   5.933  70.888  1.00  0.00    -0.040 A  
HETATM   25  C   UNL     1     -10.865   8.256  70.641  1.00  0.00    -0.236 A  
HETATM   26  C   UNL     1      -6.960   6.014  72.180  1.00  0.00    -0.078 A  
HETATM   27  C   UNL     1     -12.175   8.902  71.139  1.00  0.00    -0.303 C  
HETATM   28  C   UNL     1     -12.406  12.885  71.526  1.00  0.00     0.017 C  
HETATM   29  N   UNL     1     -10.142   7.721  71.665  1.00  0.00    -0.182 NA 
HETATM   30  C   UNL     1     -13.038  11.437  71.702  1.00  0.00    -0.498 C  
HETATM   31  C   UNL     1     -11.998  10.270  71.941  1.00  0.00     0.129 C  
HETATM   32  C   UNL     1      -8.953   7.130  71.405  1.00  0.00    -0.135 A  
HETATM   33  C   UNL     1      -8.199   6.605  72.434  1.00  0.00    -0.103 A  
ENDROOT
BRANCH  10  34
HETATM   34  C   UNL     1     -11.324  12.915  63.713  1.00  0.00    -0.490 C  
HETATM   35  C   UNL     1      -9.817  12.841  63.344  1.00  0.00     0.905 C  
HETATM   36  C   UNL     1     -11.976  13.935  62.721  1.00  0.00     1.677 C  
HETATM   37  C   UNL     1     -11.911  11.550  63.274  1.00  0.00    -0.089 C  
ENDBRANCH  10  34
BRANCH  22  38
HETATM   38  C   UNL     1      -9.591  11.925  69.265  1.00  0.00     0.556 C  
HETATM   39  H   UNL     1      -8.439  13.214  70.154  1.00  0.00     0.000 HD 
HETATM   40  O   UNL     1      -9.241  13.167  69.649  1.00  0.00     1.292 OA 
BRANCH  38  41
HETATM   41  N   UNL     1      -8.798  10.913  69.457  1.00  0.00    -0.374 NA 
HETATM   42  H   UNL     1      -9.208  10.120  69.950  1.00  0.00     0.000 HD 
BRANCH  41  43
HETATM   43  C   UNL     1      -7.397  10.757  69.062  1.00  0.00    -0.109 C  
HETATM   44  C   UNL     1      -6.530  12.067  69.170  1.00  0.00    -0.099 C  
HETATM   45  C   UNL     1      -6.410  10.971  70.208  1.00  0.00    -0.120 C  
BRANCH  43  46
HETATM   46  C   UNL     1      -7.034   9.793  67.976  1.00  0.00    -0.077 C  
HETATM   47  H   UNL     1      -5.647   8.526  67.576  1.00  0.00     0.000 HD 
HETATM   48  O   UNL     1      -5.877   9.138  68.265  1.00  0.00    -0.038 OA 
BRANCH  46  49
HETATM   49  N   UNL     1      -7.732   9.683  66.913  1.00  0.00    -0.098 N  
HETATM   50  H   UNL     1      -8.733   9.873  66.956  1.00  0.00     0.000 HD 
BRANCH  49  51
HETATM   51  S   UNL     1      -7.078   9.251  65.510  1.00  0.00    -0.087 S  
HETATM   52  O   UNL     1      -5.968  10.132  65.213  1.00  0.00    -0.091 OA 
HETATM   53  O   UNL     1      -6.888   7.809  65.507  1.00  0.00    -0.051 OA 
BRANCH  51  54
HETATM   54  C   UNL     1      -8.350   9.520  64.223  1.00  0.00    -0.170 C  
HETATM   55  C   UNL     1      -7.922  10.282  63.057  1.00  0.00    -0.150 C  
HETATM   56  C   UNL     1      -8.110   8.772  62.896  1.00  0.00    -0.174 C  
ENDBRANCH  51  54
ENDBRANCH  49  51
ENDBRANCH  46  49
ENDBRANCH  43  46
BRANCH  44  57
HETATM   57  C   UNL     1      -5.323  12.319  68.358  1.00  0.00    -0.052 C  
HETATM   58  C   UNL     1      -5.285  12.711  67.063  1.00  0.00     0.213 C  
ENDBRANCH  44  57
ENDBRANCH  41  43
ENDBRANCH  38  41
ENDBRANCH  22  38
BRANCH  24  59
HETATM   59  O   UNL     1      -5.239   5.325  70.779  1.00  0.00    -0.004 OA 
HETATM   60  C   UNL     1      -5.219   3.964  70.362  1.00  0.00    -0.004 C  
ENDBRANCH  24  59
TORSDOF 10
ENDMDL
MODEL       40
REMARK 921   NORMALIZED FREE ENERGY PREDICTED BY IDOCK:    1.77 KCAL/MOL
REMARK 922        TOTAL FREE ENERGY PREDICTED BY IDOCK:    0.14 KCAL/MOL
REMARK 923 INTER-LIGAND FREE ENERGY PREDICTED BY IDOCK:    0.09 KCAL/MOL
REMARK 924 INTRA-LIGAND FREE ENERGY PREDICTED BY IDOCK:    0.05 KCAL/MOL
REMARK 927      BINDING AFFINITY PREDICTED BY RF-SCORE:    0.00 PKD
ROOT
HETATM    1  C   UNL     1      -5.273   8.369  70.889  1.00  0.00    -0.028 C  
HETATM    2  C   UNL     1      -5.270   9.696  71.567  1.00  0.00    -0.069 C  
HETATM    3  C   UNL     1      -6.340   8.687  72.024  1.00  0.00    -0.073 C  
HETATM    4  O   UNL     1      -7.690   9.251  71.932  1.00  0.00    -0.297 OA 
HETATM    5  C   UNL     1      -8.827   8.685  72.485  1.00  0.00    -0.083 C  
HETATM    6  N   UNL     1      -9.007   7.546  73.063  1.00  0.00    -0.144 NA 
HETATM    7  O   UNL     1      -9.911   9.450  72.216  1.00  0.00     0.176 OA 
HETATM    8  H   UNL     1      -8.780   7.380  74.043  1.00  0.00     0.000 HD 
HETATM    9  H   UNL     1     -10.690   9.061  72.595  1.00  0.00     0.000 HD 
HETATM   10  C   UNL     1      -9.588   6.473  72.157  1.00  0.00    -0.148 C  
HETATM   11  C   UNL     1      -9.053   6.690  70.727  1.00  0.00    -0.151 C  
HETATM   12  N   UNL     1     -11.569  10.570  66.277  1.00  0.00     0.567 NA 
HETATM   13  C   UNL     1     -11.529  11.717  65.598  1.00  0.00    -0.186 A  
HETATM   14  N   UNL     1      -9.653   7.698  69.943  1.00  0.00    -0.161 N  
HETATM   15  O   UNL     1      -8.044   6.090  70.332  1.00  0.00    -0.107 OA 
HETATM   16  C   UNL     1     -12.611  12.593  65.651  1.00  0.00    -0.073 A  
HETATM   17  C   UNL     1      -5.126   8.185  69.355  1.00  0.00    -0.030 C  
HETATM   18  C   UNL     1     -10.295   7.050  68.786  1.00  0.00    -0.187 C  
HETATM   19  C   UNL     1      -9.846   7.769  67.521  1.00  0.00    -0.171 C  
HETATM   20  O   UNL     1     -10.778   8.733  67.114  1.00  0.00    -0.271 OA 
HETATM   21  C   UNL     1      -8.566   8.367  67.994  1.00  0.00    -0.135 C  
HETATM   22  C   UNL     1      -8.667   8.702  69.441  1.00  0.00    -0.139 C  
HETATM   23  C   UNL     1     -10.502   9.736  66.257  1.00  0.00    -0.090 A  
HETATM   24  C   UNL     1     -12.581  13.806  64.970  1.00  0.00    -0.389 A  
HETATM   25  C   UNL     1      -9.335  10.055  65.490  1.00  0.00    -0.216 A  
HETATM   26  C   UNL     1     -11.444  14.134  64.244  1.00  0.00    -0.287 A  
HETATM   27  C   UNL     1      -8.018   9.266  65.334  1.00  0.00    -0.108 C  
HETATM   28  C   UNL     1      -5.313   9.303  68.292  1.00  0.00    -0.037 C  
HETATM   29  N   UNL     1      -9.306  11.232  64.807  1.00  0.00    -0.186 NA 
HETATM   30  C   UNL     1      -5.754   8.884  66.824  1.00  0.00    -0.048 C  
HETATM   31  C   UNL     1      -6.764   9.872  66.113  1.00  0.00    -0.092 C  
HETATM   32  C   UNL     1     -10.377  12.058  64.852  1.00  0.00    -0.278 A  
HETATM   33  C   UNL     1     -10.353  13.264  64.184  1.00  0.00    -0.204 A  
ENDROOT
BRANCH  10  34
HETATM   34  C   UNL     1     -10.978   5.718  72.449  1.00  0.00    -0.308 C  
HETATM   35  C   UNL     1     -11.147   4.589  71.395  1.00  0.00     0.848 C  
HETATM   36  C   UNL     1     -12.155   6.723  72.216  1.00  0.00    -0.212 C  
HETATM   37  C   UNL     1     -11.325   5.054  73.805  1.00  0.00     0.051 C  
ENDBRANCH  10  34
BRANCH  22  38
HETATM   38  C   UNL     1      -8.683  10.316  69.551  1.00  0.00    -0.139 C  
HETATM   39  H   UNL     1      -7.716  11.785  70.381  1.00  0.00     0.000 HD 
HETATM   40  O   UNL     1      -7.707  10.838  70.317  1.00  0.00     0.124 OA 
BRANCH  38  41
HETATM   41  N   UNL     1      -9.634  11.062  69.073  1.00  0.00    -0.354 NA 
HETATM   42  H   UNL     1     -10.350  10.572  68.535  1.00  0.00     0.000 HD 
BRANCH  41  43
HETATM   43  C   UNL     1      -9.817  12.509  69.200  1.00  0.00     0.448 C  
HETATM   44  C   UNL     1     -11.205  13.047  68.685  1.00  0.00    -0.316 C  
HETATM   45  C   UNL     1     -10.931  12.902  70.167  1.00  0.00     0.819 C  
BRANCH  43  46
HETATM   46  C   UNL     1      -8.641  13.423  69.055  1.00  0.00     0.397 C  
HETATM   47  H   UNL     1      -8.144  15.220  69.518  1.00  0.00     0.000 HD 
HETATM   48  O   UNL     1      -8.890  14.640  69.610  1.00  0.00     0.121 OA 
BRANCH  46  49
HETATM   49  N   UNL     1      -7.585  13.067  68.432  1.00  0.00    -0.128 N  
HETATM   50  H   UNL     1      -7.599  12.207  67.884  1.00  0.00     0.000 HD 
BRANCH  49  51
HETATM   51  S   UNL     1      -6.234  13.936  68.487  1.00  0.00    -0.103 S  
HETATM   52  O   UNL     1      -5.509  13.610  69.697  1.00  0.00    -0.085 OA 
HETATM   53  O   UNL     1      -5.572  13.852  67.194  1.00  0.00    -0.195 OA 
BRANCH  51  54
HETATM   54  C   UNL     1      -6.731  15.692  68.603  1.00  0.00    -0.115 C  
HETATM   55  C   UNL     1      -5.643  16.662  68.604  1.00  0.00    -0.119 C  
HETATM   56  C   UNL     1      -6.484  16.530  67.333  1.00  0.00    -0.198 C  
ENDBRANCH  51  54
ENDBRANCH  49  51
ENDBRANCH  46  49
ENDBRANCH  43  46
BRANCH  44  57
HETATM   57  C   UNL     1     -11.420  14.425  68.202  1.00  0.00    -0.337 C  
HETATM   58  C   UNL     1     -11.956  15.454  68.900  1.00  0.00    -0.298 C  
ENDBRANCH  44  57
ENDBRANCH  41  43
ENDBRANCH  38  41
ENDBRANCH  22  38
BRANCH  24  59
HETATM   59  O   UNL     1     -13.575  14.742  64.939  1.00  0.00     0.373 OA 
HETATM   60  C   UNL     1     -13.556  15.686  63.874  1.00  0.00     3.462 C  
ENDBRANCH  24  59
TORSDOF 10
ENDMDL
MODEL       41
REMARK 921   NORMALIZED FREE ENERGY PREDICTED BY IDOCK:    2.19 KCAL/MOL
REMARK 922        TOTAL FREE ENERGY PREDICTED BY IDOCK:    0.82 KCAL/MOL
REMARK 923 INTER-LIGAND FREE ENERGY PREDICTED BY IDOCK:   -1.26 KCAL/MOL
REMARK 924 INTRA-LIGAND FREE ENERGY PREDICTED BY IDOCK:    2.08 KCAL/MOL
REMARK 927      BINDING AFFINITY PREDICTED BY RF-SCORE:    0.00 PKD
ROOT
HETATM    1  C   UNL     1      -9.815   5.580  70.056  1.00  0.00    -0.262 C  
HETATM    2  C   UNL     1     -11.224   6.045  69.924  1.00  0.00    -0.438 C  
HETATM    3  C   UNL     1     -10.555   5.490  68.653  1.00  0.00    -0.145 C  
HETATM    4  O   UNL     1     -10.619   6.449  67.546  1.00  0.00    -0.207 OA 
HETATM    5  C   UNL     1     -10.322   6.157  66.224  1.00  0.00     0.070 C  
HETATM    6  N   UNL     1      -9.827   5.095  65.685  1.00  0.00    -0.345 NA 
HETATM    7  O   UNL     1     -10.473   7.260  65.454  1.00  0.00     1.721 OA 
HETATM    8  H   UNL     1     -10.391   4.278  65.452  1.00  0.00     0.000 HD 
HETATM    9  H   UNL     1     -10.269   7.060  64.548  1.00  0.00     0.000 HD 
HETATM   10  C   UNL     1      -8.332   5.168  65.425  1.00  0.00    -0.132 C  
HETATM   11  C   UNL     1      -7.676   6.009  66.539  1.00  0.00    -0.103 C  
HETATM   12  N   UNL     1      -7.081  12.398  66.623  1.00  0.00     0.275 NA 
HETATM   13  C   UNL     1      -7.486  13.583  67.081  1.00  0.00     0.096 A  
HETATM   14  N   UNL     1      -7.774   7.413  66.451  1.00  0.00    -0.091 N  
HETATM   15  O   UNL     1      -7.197   5.464  67.543  1.00  0.00    -0.072 OA 
HETATM   16  C   UNL     1      -7.928  14.558  66.189  1.00  0.00     1.737 A  
HETATM   17  C   UNL     1      -8.716   6.366  70.820  1.00  0.00    -0.140 C  
HETATM   18  C   UNL     1      -6.413   7.954  66.292  1.00  0.00    -0.047 C  
HETATM   19  C   UNL     1      -6.212   9.063  67.317  1.00  0.00    -0.059 C  
HETATM   20  O   UNL     1      -6.452  10.328  66.765  1.00  0.00    -0.068 OA 
HETATM   21  C   UNL     1      -7.229   8.673  68.333  1.00  0.00    -0.085 C  
HETATM   22  C   UNL     1      -8.392   8.026  67.666  1.00  0.00    -0.128 C  
HETATM   23  C   UNL     1      -6.687  11.438  67.493  1.00  0.00    -0.078 A  
HETATM   24  C   UNL     1      -8.378  15.792  66.646  1.00  0.00    -0.284 A  
HETATM   25  C   UNL     1      -6.672  11.685  68.904  1.00  0.00    -0.088 A  
HETATM   26  C   UNL     1      -8.389  16.032  68.013  1.00  0.00    -0.162 A  
HETATM   27  C   UNL     1      -6.276  10.744  70.061  1.00  0.00    -0.119 C  
HETATM   28  C   UNL     1      -8.803   7.861  71.233  1.00  0.00    -0.152 C  
HETATM   29  N   UNL     1      -7.093  12.898  69.357  1.00  0.00     0.099 NA 
HETATM   30  C   UNL     1      -7.449   8.675  71.414  1.00  0.00    -0.124 C  
HETATM   31  C   UNL     1      -7.492  10.178  70.925  1.00  0.00     0.741 C  
HETATM   32  C   UNL     1      -7.497  13.838  68.472  1.00  0.00    -0.119 A  
HETATM   33  C   UNL     1      -7.949  15.063  68.918  1.00  0.00    -0.169 A  
ENDROOT
BRANCH  10  34
HETATM   34  C   UNL     1      -7.672   5.011  63.966  1.00  0.00    -0.079 C  
HETATM   35  C   UNL     1      -6.322   5.781  63.959  1.00  0.00    -0.029 C  
HETATM   36  C   UNL     1      -8.594   5.720  62.919  1.00  0.00     0.088 C  
HETATM   37  C   UNL     1      -7.356   3.644  63.311  1.00  0.00    -0.051 C  
ENDBRANCH  10  34
BRANCH  22  38
HETATM   38  C   UNL     1      -9.638   9.050  67.791  1.00  0.00    -0.150 C  
HETATM   39  H   UNL     1     -11.171   9.696  66.784  1.00  0.00     0.000 HD 
HETATM   40  O   UNL     1     -10.439   9.095  66.710  1.00  0.00    -0.249 OA 
BRANCH  38  41
HETATM   41  N   UNL     1      -9.793   9.880  68.778  1.00  0.00    -0.165 NA 
HETATM   42  H   UNL     1      -9.356   9.605  69.658  1.00  0.00     0.000 HD 
BRANCH  41  43
HETATM   43  C   UNL     1     -10.511  11.156  68.801  1.00  0.00    -0.203 C  
HETATM   44  C   UNL     1     -11.311  11.442  70.127  1.00  0.00    -0.207 C  
HETATM   45  C   UNL     1      -9.991  12.132  69.855  1.00  0.00     1.893 C  
BRANCH  43  46
HETATM   46  C   UNL     1     -11.082  11.710  67.534  1.00  0.00    -0.276 C  
HETATM   47  H   UNL     1     -12.479  11.301  66.281  1.00  0.00     0.000 HD 
HETATM   48  O   UNL     1     -12.116  10.950  67.085  1.00  0.00     0.174 OA 
BRANCH  46  49
HETATM   49  N   UNL     1     -10.585  12.740  66.965  1.00  0.00    -0.240 N  
HETATM   50  H   UNL     1      -9.797  13.216  67.404  1.00  0.00     0.000 HD 
BRANCH  49  51
HETATM   51  S   UNL     1     -11.167  13.307  65.578  1.00  0.00    -0.291 S  
HETATM   52  O   UNL     1     -12.463  13.905  65.817  1.00  0.00    -0.457 OA 
HETATM   53  O   UNL     1     -10.122  14.069  64.911  1.00  0.00    -0.380 OA 
BRANCH  51  54
HETATM   54  C   UNL     1     -11.421  11.869  64.477  1.00  0.00    -0.294 C  
HETATM   55  C   UNL     1     -11.447  12.160  63.049  1.00  0.00    -0.065 C  
HETATM   56  C   UNL     1     -10.202  11.477  63.618  1.00  0.00    -0.450 C  
ENDBRANCH  51  54
ENDBRANCH  49  51
ENDBRANCH  46  49
ENDBRANCH  43  46
BRANCH  44  57
HETATM   57  C   UNL     1     -12.494  12.320  70.196  1.00  0.00    -0.095 C  
HETATM   58  C   UNL     1     -12.555  13.557  70.743  1.00  0.00    -0.382 C  
ENDBRANCH  44  57
ENDBRANCH  41  43
ENDBRANCH  38  41
ENDBRANCH  22  38
BRANCH  24  59
HETATM   59  O   UNL     1      -8.828  16.826  65.875  1.00  0.00    -0.499 OA 
HETATM   60  C   UNL     1      -8.057  18.022  65.864  1.00  0.00     0.026 C  
ENDBRANCH  24  59
TORSDOF 10
ENDMDL
MODEL       42
REMARK 921   NORMALIZED FREE ENERGY PREDICTED BY IDOCK:    2.46 KCAL/MOL
REMARK 922        TOTAL FREE ENERGY PREDICTED BY IDOCK:    1.25 KCAL/MOL
REMARK 923 INTER-LIGAND FREE ENERGY PREDICTED BY IDOCK:    2.25 KCAL/MOL
REMARK 924 INTRA-LIGAND FREE ENERGY PREDICTED BY IDOCK:   -1.00 KCAL/MOL
REMARK 927      BINDING AFFINITY PREDICTED BY RF-SCORE:    0.00 PKD
ROOT
HETATM    1  C   UNL     1      -8.078  16.382  67.615  1.00  0.00    -0.170 C  
HETATM    2  C   UNL     1      -8.544  16.434  66.200  1.00  0.00    -0.343 C  
HETATM    3  C   UNL     1      -9.609  16.132  67.270  1.00  0.00    -0.229 C  
HETATM    4  O   UNL     1     -10.330  14.889  66.980  1.00  0.00    -0.258 OA 
HETATM    5  C   UNL     1     -11.489  14.476  67.615  1.00  0.00    -0.353 C  
HETATM    6  N   UNL     1     -12.115  14.965  68.631  1.00  0.00    -0.574 NA 
HETATM    7  O   UNL     1     -11.898  13.284  67.121  1.00  0.00    -0.354 OA 
HETATM    8  H   UNL     1     -12.761  15.752  68.558  1.00  0.00     0.000 HD 
HETATM    9  H   UNL     1     -12.693  13.001  67.557  1.00  0.00     0.000 HD 
HETATM   10  C   UNL     1     -11.808  14.270  69.947  1.00  0.00    -0.322 C  
HETATM   11  C   UNL     1     -10.339  13.800  69.927  1.00  0.00     0.899 C  
HETATM   12  N   UNL     1      -8.151   8.275  67.504  1.00  0.00    -0.120 NA 
HETATM   13  C   UNL     1      -7.530   7.616  66.524  1.00  0.00    -0.092 A  
HETATM   14  N   UNL     1     -10.032  12.621  69.215  1.00  0.00     0.432 N  
HETATM   15  O   UNL     1      -9.443  14.507  70.408  1.00  0.00     0.976 OA 
HETATM   16  C   UNL     1      -8.186   6.583  65.858  1.00  0.00    -0.131 A  
HETATM   17  C   UNL     1      -6.784  15.656  68.070  1.00  0.00    -0.148 C  
HETATM   18  C   UNL     1      -9.542  11.623  70.180  1.00  0.00     2.688 C  
HETATM   19  C   UNL     1      -8.230  11.052  69.658  1.00  0.00     0.402 C  
HETATM   20  O   UNL     1      -8.425   9.846  68.972  1.00  0.00    -0.119 OA 
HETATM   21  C   UNL     1      -7.793  12.161  68.764  1.00  0.00    -0.017 C  
HETATM   22  C   UNL     1      -8.982  12.834  68.173  1.00  0.00    -0.199 C  
HETATM   23  C   UNL     1      -7.528   9.304  68.125  1.00  0.00    -0.083 A  
HETATM   24  C   UNL     1      -7.566   5.899  64.818  1.00  0.00    -0.088 A  
HETATM   25  C   UNL     1      -6.194   9.681  67.765  1.00  0.00    -0.053 A  
HETATM   26  C   UNL     1      -6.282   6.273  64.446  1.00  0.00    -0.030 A  
HETATM   27  C   UNL     1      -5.309  10.813  68.327  1.00  0.00    -0.036 C  
HETATM   28  C   UNL     1      -5.999  14.607  67.233  1.00  0.00     0.464 C  
HETATM   29  N   UNL     1      -5.574   9.003  66.760  1.00  0.00    -0.040 NA 
HETATM   30  C   UNL     1      -5.128  13.525  68.005  1.00  0.00    -0.107 C  
HETATM   31  C   UNL     1      -5.130  12.076  67.369  1.00  0.00    -0.096 C  
HETATM   32  C   UNL     1      -6.220   7.988  66.142  1.00  0.00    -0.045 A  
HETATM   33  C   UNL     1      -5.615   7.307  65.106  1.00  0.00    -0.033 A  
ENDROOT
BRANCH  10  34
HETATM   34  C   UNL     1     -12.924  13.559  70.861  1.00  0.00    -0.224 C  
HETATM   35  C   UNL     1     -14.251  14.356  70.715  1.00  0.00     0.499 C  
HETATM   36  C   UNL     1     -12.497  13.678  72.361  1.00  0.00     0.056 C  
HETATM   37  C   UNL     1     -13.334  12.072  70.713  1.00  0.00     0.663 C  
ENDBRANCH  10  34
BRANCH  22  38
HETATM   38  C   UNL     1      -8.996  12.467  66.597  1.00  0.00    -0.174 C  
HETATM   39  H   UNL     1      -8.565  13.233  64.862  1.00  0.00     0.000 HD 
HETATM   40  O   UNL     1      -8.557  13.449  65.787  1.00  0.00     0.911 OA 
BRANCH  38  41
HETATM   41  N   UNL     1      -9.520  11.380  66.114  1.00  0.00    -0.210 NA 
HETATM   42  H   UNL     1     -10.049  10.814  66.777  1.00  0.00     0.000 HD 
BRANCH  41  43
HETATM   43  C   UNL     1      -9.454  10.858  64.748  1.00  0.00    -0.238 C  
HETATM   44  C   UNL     1      -8.057  10.256  64.337  1.00  0.00    -0.149 C  
HETATM   45  C   UNL     1      -9.221   9.350  64.679  1.00  0.00    -0.185 C  
BRANCH  43  46
HETATM   46  C   UNL     1     -10.255  11.508  63.664  1.00  0.00    -0.405 C  
HETATM   47  H   UNL     1     -10.800  11.146  61.858  1.00  0.00     0.000 HD 
HETATM   48  O   UNL     1     -10.292  10.734  62.546  1.00  0.00     0.138 OA 
BRANCH  46  49
HETATM   49  N   UNL     1     -10.770  12.666  63.810  1.00  0.00    -0.430 N  
HETATM   50  H   UNL     1     -10.156  13.466  63.963  1.00  0.00     0.000 HD 
BRANCH  49  51
HETATM   51  S   UNL     1     -12.359  12.901  63.760  1.00  0.00    -0.393 S  
HETATM   52  O   UNL     1     -12.900  12.238  62.592  1.00  0.00     0.224 OA 
HETATM   53  O   UNL     1     -12.913  12.630  65.078  1.00  0.00    -0.812 OA 
BRANCH  51  54
HETATM   54  C   UNL     1     -12.627  14.698  63.542  1.00  0.00     0.929 C  
HETATM   55  C   UNL     1     -12.767  15.472  64.769  1.00  0.00     0.618 C  
HETATM   56  C   UNL     1     -11.457  15.595  63.990  1.00  0.00     0.119 C  
ENDBRANCH  51  54
ENDBRANCH  49  51
ENDBRANCH  46  49
ENDBRANCH  43  46
BRANCH  44  57
HETATM   57  C   UNL     1      -7.574  10.185  62.945  1.00  0.00    -0.142 C  
HETATM   58  C   UNL     1      -6.321   9.878  62.536  1.00  0.00    -0.110 C  
ENDBRANCH  44  57
ENDBRANCH  41  43
ENDBRANCH  38  41
ENDBRANCH  22  38
BRANCH  24  59
HETATM   59  O   UNL     1      -8.100   4.870  64.095  1.00  0.00    -0.102 OA 
HETATM   60  C   UNL     1      -9.240   4.209  64.635  1.00  0.00    -0.151 C  
ENDBRANCH  24  59
TORSDOF 10
ENDMDL
MODEL       43
REMARK 921   NORMALIZED FREE ENERGY PREDICTED BY IDOCK:    2.72 KCAL/MOL
REMARK 922        TOTAL FREE ENERGY PREDICTED BY IDOCK:    1.65 KCAL/MOL
REMARK 923 INTER-LIGAND FREE ENERGY PREDICTED BY IDOCK:    2.39 KCAL/MOL
REMARK 924 INTRA-LIGAND FREE ENERGY PREDICTED BY IDOCK:   -0.74 KCAL/MOL
REMARK 927      BINDING AFFINITY PREDICTED BY RF-SCORE:    0.00 PKD
ROOT
HETATM    1  C   UNL     1      -5.722   6.478  71.898  1.00  0.00    -0.036 C  
HETATM    2  C   UNL     1      -5.501   7.899  72.291  1.00  0.00    -0.036 C  
HETATM    3  C   UNL     1      -6.842   7.265  72.706  1.00  0.00    -0.068 C  
HETATM    4  O   UNL     1      -7.982   8.056  72.231  1.00  0.00    -0.105 OA 
HETATM    5  C   UNL     1      -9.295   7.880  72.637  1.00  0.00    -0.213 C  
HETATM    6  N   UNL     1      -9.836   6.971  73.375  1.00  0.00    -0.210 NA 
HETATM    7  O   UNL     1     -10.104   8.764  72.008  1.00  0.00    -0.313 OA 
HETATM    8  H   UNL     1      -9.811   6.998  74.395  1.00  0.00     0.000 HD 
HETATM    9  H   UNL     1     -11.004   8.643  72.287  1.00  0.00     0.000 HD 
HETATM   10  C   UNL     1     -10.513   5.856  72.595  1.00  0.00    -0.206 C  
HETATM   11  C   UNL     1      -9.724   5.616  71.291  1.00  0.00    -0.167 C  
HETATM   12  N   UNL     1     -10.493   8.766  65.753  1.00  0.00     0.840 NA 
HETATM   13  C   UNL     1     -10.068   9.688  64.888  1.00  0.00     0.356 A  
HETATM   14  N   UNL     1      -9.931   6.511  70.220  1.00  0.00    -0.174 N  
HETATM   15  O   UNL     1      -8.844   4.746  71.236  1.00  0.00    -0.122 OA 
HETATM   16  C   UNL     1     -10.899  10.753  64.546  1.00  0.00    -0.000 A  
HETATM   17  C   UNL     1      -5.388   5.912  70.492  1.00  0.00    -0.013 C  
HETATM   18  C   UNL     1     -10.523   5.753  69.104  1.00  0.00    -0.276 C  
HETATM   19  C   UNL     1      -9.721   6.047  67.843  1.00  0.00    -0.119 C  
HETATM   20  O   UNL     1     -10.314   7.057  67.074  1.00  0.00    -0.233 OA 
HETATM   21  C   UNL     1      -8.423   6.465  68.444  1.00  0.00    -0.116 C  
HETATM   22  C   UNL     1      -8.663   7.146  69.747  1.00  0.00    -0.142 C  
HETATM   23  C   UNL     1      -9.672   7.752  66.115  1.00  0.00     0.014 A  
HETATM   24  C   UNL     1     -10.468  11.739  63.664  1.00  0.00    -0.439 A  
HETATM   25  C   UNL     1      -8.358   7.636  65.558  1.00  0.00    -0.135 A  
HETATM   26  C   UNL     1      -9.187  11.648  63.138  1.00  0.00    -0.105 A  
HETATM   27  C   UNL     1      -7.265   6.581  65.832  1.00  0.00    -0.074 C  
HETATM   28  C   UNL     1      -5.128   6.763  69.218  1.00  0.00    -0.013 C  
HETATM   29  N   UNL     1      -7.936   8.587  64.680  1.00  0.00    -0.135 NA 
HETATM   30  C   UNL     1      -5.424   6.108  67.800  1.00  0.00    -0.005 C  
HETATM   31  C   UNL     1      -6.039   7.085  66.718  1.00  0.00    -0.037 C  
HETATM   32  C   UNL     1      -8.767   9.601  64.343  1.00  0.00    -0.205 A  
HETATM   33  C   UNL     1      -8.345  10.585  63.473  1.00  0.00    -0.113 A  
ENDROOT
BRANCH  10  34
HETATM   34  C   UNL     1     -12.072   5.491  72.735  1.00  0.00    -0.006 C  
HETATM   35  C   UNL     1     -12.192   4.182  73.565  1.00  0.00     0.544 C  
HETATM   36  C   UNL     1     -12.644   5.170  71.315  1.00  0.00     3.928 C  
HETATM   37  C   UNL     1     -13.126   6.448  73.347  1.00  0.00     3.292 C  
ENDBRANCH  10  34
BRANCH  22  38
HETATM   38  C   UNL     1      -8.302   8.709  69.536  1.00  0.00    -0.117 C  
HETATM   39  H   UNL     1      -6.800   9.870  69.119  1.00  0.00     0.000 HD 
HETATM   40  O   UNL     1      -7.012   8.953  69.243  1.00  0.00    -0.056 OA 
BRANCH  38  41
HETATM   41  N   UNL     1      -9.135   9.679  69.769  1.00  0.00    -0.200 NA 
HETATM   42  H   UNL     1      -9.821   9.504  70.504  1.00  0.00     0.000 HD 
BRANCH  41  43
HETATM   43  C   UNL     1      -9.222  10.989  69.121  1.00  0.00    -0.005 C  
HETATM   44  C   UNL     1      -7.835  11.667  68.811  1.00  0.00    -0.096 C  
HETATM   45  C   UNL     1      -8.641  11.013  67.709  1.00  0.00    -0.130 C  
BRANCH  43  46
HETATM   46  C   UNL     1     -10.365  11.901  69.439  1.00  0.00     0.290 C  
HETATM   47  H   UNL     1     -12.032  11.849  70.391  1.00  0.00     0.000 HD 
HETATM   48  O   UNL     1     -11.307  11.270  70.189  1.00  0.00    -0.265 OA 
BRANCH  46  49
HETATM   49  N   UNL     1     -10.417  13.095  68.990  1.00  0.00    -0.432 N  
HETATM   50  H   UNL     1      -9.769  13.792  69.357  1.00  0.00     0.000 HD 
BRANCH  49  51
HETATM   51  S   UNL     1     -11.475  13.532  67.861  1.00  0.00    -0.339 S  
HETATM   52  O   UNL     1     -11.498  12.529  66.818  1.00  0.00    -0.319 OA 
HETATM   53  O   UNL     1     -12.712  13.937  68.513  1.00  0.00     0.329 OA 
BRANCH  51  54
HETATM   54  C   UNL     1     -10.853  15.083  67.117  1.00  0.00    -0.314 C  
HETATM   55  C   UNL     1     -10.055  14.931  65.907  1.00  0.00    -0.348 C  
HETATM   56  C   UNL     1     -11.483  15.459  65.761  1.00  0.00    -0.022 C  
ENDBRANCH  51  54
ENDBRANCH  49  51
ENDBRANCH  46  49
ENDBRANCH  43  46
BRANCH  44  57
HETATM   57  C   UNL     1      -7.646  13.125  68.691  1.00  0.00    -0.089 C  
HETATM   58  C   UNL     1      -6.511  13.819  68.941  1.00  0.00    -0.100 C  
ENDBRANCH  44  57
ENDBRANCH  41  43
ENDBRANCH  38  41
ENDBRANCH  22  38
BRANCH  24  59
HETATM   59  O   UNL     1     -11.187  12.824  63.249  1.00  0.00    -0.397 OA 
HETATM   60  C   UNL     1     -12.604  12.696  63.206  1.00  0.00    -0.159 C  
ENDBRANCH  24  59
TORSDOF 10
ENDMDL
MODEL       44
REMARK 921   NORMALIZED FREE ENERGY PREDICTED BY IDOCK:    3.08 KCAL/MOL
REMARK 922        TOTAL FREE ENERGY PREDICTED BY IDOCK:    2.22 KCAL/MOL
REMARK 923 INTER-LIGAND FREE ENERGY PREDICTED BY IDOCK:    3.59 KCAL/MOL
REMARK 924 INTRA-LIGAND FREE ENERGY PREDICTED BY IDOCK:   -1.36 KCAL/MOL
REMARK 927      BINDING AFFINITY PREDICTED BY RF-SCORE:    0.00 PKD
ROOT
HETATM    1  C   UNL     1     -10.594   8.550  69.307  1.00  0.00    -0.193 C  
HETATM    2  C   UNL     1     -11.630   9.289  70.084  1.00  0.00    -0.078 C  
HETATM    3  C   UNL     1     -11.655   9.463  68.554  1.00  0.00     0.758 C  
HETATM    4  O   UNL     1     -11.594  10.877  68.171  1.00  0.00    -0.431 OA 
HETATM    5  C   UNL     1     -11.834  11.366  66.897  1.00  0.00     0.359 C  
HETATM    6  N   UNL     1     -12.028  10.752  65.780  1.00  0.00     1.310 NA 
HETATM    7  O   UNL     1     -11.691  12.712  66.876  1.00  0.00    -0.355 OA 
HETATM    8  H   UNL     1     -12.934  10.370  65.508  1.00  0.00     0.000 HD 
HETATM    9  H   UNL     1     -11.855  13.047  66.002  1.00  0.00     0.000 HD 
HETATM   10  C   UNL     1     -10.791  10.646  64.904  1.00  0.00     0.148 C  
HETATM   11  C   UNL     1      -9.552  10.507  65.813  1.00  0.00    -0.210 C  
HETATM   12  N   UNL     1      -6.208  15.315  68.438  1.00  0.00    -0.100 NA 
HETATM   13  C   UNL     1      -5.906  16.055  69.506  1.00  0.00    -0.140 A  
HETATM   14  N   UNL     1      -9.042  11.675  66.417  1.00  0.00    -0.203 N  
HETATM   15  O   UNL     1      -9.104   9.390  66.104  1.00  0.00    -0.150 OA 
HETATM   16  C   UNL     1      -6.102  17.434  69.472  1.00  0.00    -0.252 A  
HETATM   17  C   UNL     1      -9.098   8.482  69.714  1.00  0.00    -0.153 C  
HETATM   18  C   UNL     1      -7.685  11.904  65.890  1.00  0.00     0.804 C  
HETATM   19  C   UNL     1      -6.742  12.122  67.066  1.00  0.00    -0.071 C  
HETATM   20  O   UNL     1      -6.543  13.485  67.326  1.00  0.00    -0.247 OA 
HETATM   21  C   UNL     1      -7.501  11.434  68.148  1.00  0.00    -0.100 C  
HETATM   22  C   UNL     1      -8.964  11.567  67.906  1.00  0.00    -0.159 C  
HETATM   23  C   UNL     1      -6.054  13.970  68.484  1.00  0.00    -0.094 A  
HETATM   24  C   UNL     1      -5.817  18.222  70.583  1.00  0.00     0.055 A  
HETATM   25  C   UNL     1      -5.541  13.329  69.657  1.00  0.00    -0.100 A  
HETATM   26  C   UNL     1      -5.342  17.606  71.732  1.00  0.00     0.421 A  
HETATM   27  C   UNL     1      -5.297  11.829  69.928  1.00  0.00    -0.085 C  
HETATM   28  C   UNL     1      -8.399   9.423  70.735  1.00  0.00    -0.180 C  
HETATM   29  N   UNL     1      -5.242  14.096  70.741  1.00  0.00    -0.112 NA 
HETATM   30  C   UNL     1      -6.835   9.665  70.591  1.00  0.00    -0.119 C  
HETATM   31  C   UNL     1      -6.346  11.135  70.910  1.00  0.00     0.530 C  
HETATM   32  C   UNL     1      -5.418  15.436  70.680  1.00  0.00    -0.123 A  
HETATM   33  C   UNL     1      -5.142  16.224  71.778  1.00  0.00     0.211 A  
ENDROOT
BRANCH  10  34
HETATM   34  C   UNL     1     -10.700  11.245  63.414  1.00  0.00    -0.349 C  
HETATM   35  C   UNL     1      -9.708  10.370  62.599  1.00  0.00    -0.191 C  
HETATM   36  C   UNL     1     -10.074  12.678  63.485  1.00  0.00     0.059 C  
HETATM   37  C   UNL     1     -11.928  11.426  62.487  1.00  0.00     1.526 C  
ENDBRANCH  10  34
BRANCH  22  38
HETATM   38  C   UNL     1      -9.543  12.555  69.049  1.00  0.00     0.378 C  
HETATM   39  H   UNL     1      -9.499  12.830  70.973  1.00  0.00     0.000 HD 
HETATM   40  O   UNL     1      -9.159  12.250  70.302  1.00  0.00     3.532 OA 
BRANCH  38  41
HETATM   41  N   UNL     1     -10.425  13.483  68.822  1.00  0.00    -0.346 NA 
HETATM   42  H   UNL     1     -11.400  13.193  68.900  1.00  0.00     0.000 HD 
BRANCH  41  43
HETATM   43  C   UNL     1     -10.208  14.887  68.469  1.00  0.00    -0.235 C  
HETATM   44  C   UNL     1     -11.238  15.895  69.105  1.00  0.00    -0.334 C  
HETATM   45  C   UNL     1      -9.835  15.767  69.660  1.00  0.00    -0.275 C  
BRANCH  43  46
HETATM   46  C   UNL     1      -9.663  15.239  67.121  1.00  0.00    -0.217 C  
HETATM   47  H   UNL     1     -10.148  15.050  65.272  1.00  0.00     0.000 HD 
HETATM   48  O   UNL     1     -10.495  14.826  66.128  1.00  0.00    -0.285 OA 
BRANCH  46  49
HETATM   49  N   UNL     1      -8.529  15.809  66.982  1.00  0.00    -0.199 N  
HETATM   50  H   UNL     1      -7.696  15.352  67.354  1.00  0.00     0.000 HD 
BRANCH  49  51
HETATM   51  S   UNL     1      -8.375  17.225  66.238  1.00  0.00    -0.220 S  
HETATM   52  O   UNL     1      -7.190  17.199  65.407  1.00  0.00     0.278 OA 
HETATM   53  O   UNL     1      -9.661  17.593  65.665  1.00  0.00    -0.525 OA 
BRANCH  51  54
HETATM   54  C   UNL     1      -8.106  18.485  67.536  1.00  0.00    -0.251 C  
HETATM   55  C   UNL     1      -7.048  19.452  67.273  1.00  0.00    -0.221 C  
HETATM   56  C   UNL     1      -8.498  19.924  67.146  1.00  0.00    -0.376 C  
ENDBRANCH  51  54
ENDBRANCH  49  51
ENDBRANCH  46  49
ENDBRANCH  43  46
BRANCH  44  57
HETATM   57  C   UNL     1     -11.578  17.201  68.510  1.00  0.00     0.690 C  
HETATM   58  C   UNL     1     -10.950  18.380  68.730  1.00  0.00     0.804 C  
ENDBRANCH  44  57
ENDBRANCH  41  43
ENDBRANCH  38  41
ENDBRANCH  22  38
BRANCH  24  59
HETATM   59  O   UNL     1      -5.960  19.577  70.671  1.00  0.00    -0.231 OA 
HETATM   60  C   UNL     1      -5.138  20.265  71.608  1.00  0.00    -0.370 C  
ENDBRANCH  24  59
TORSDOF 10
ENDMDL
MODEL       45
REMARK 921   NORMALIZED FREE ENERGY PREDICTED BY IDOCK:    3.63 KCAL/MOL
REMARK 922        TOTAL FREE ENERGY PREDICTED BY IDOCK:    3.09 KCAL/MOL
REMARK 923 INTER-LIGAND FREE ENERGY PREDICTED BY IDOCK:    1.25 KCAL/MOL
REMARK 924 INTRA-LIGAND FREE ENERGY PREDICTED BY IDOCK:    1.85 KCAL/MOL
REMARK 927      BINDING AFFINITY PREDICTED BY RF-SCORE:    0.00 PKD
ROOT
HETATM    1  C   UNL     1      -6.684   9.023  72.341  1.00  0.00     0.161 C  
HETATM    2  C   UNL     1      -5.726   9.429  71.274  1.00  0.00    -0.068 C  
HETATM    3  C   UNL     1      -7.091  10.141  71.286  1.00  0.00     1.020 C  
HETATM    4  O   UNL     1      -7.771  10.027  69.992  1.00  0.00    -0.162 OA 
HETATM    5  C   UNL     1      -8.891  10.751  69.617  1.00  0.00     0.291 C  
HETATM    6  N   UNL     1      -9.646  11.549  70.293  1.00  0.00     1.801 NA 
HETATM    7  O   UNL     1      -9.274  10.409  68.365  1.00  0.00    -0.137 OA 
HETATM    8  H   UNL     1      -9.408  12.527  70.461  1.00  0.00     0.000 HD 
HETATM    9  H   UNL     1     -10.042  10.905  68.108  1.00  0.00     0.000 HD 
HETATM   10  C   UNL     1     -10.920  10.908  70.816  1.00  0.00     0.712 C  
HETATM   11  C   UNL     1     -10.628   9.432  71.154  1.00  0.00    -0.333 C  
HETATM   12  N   UNL     1     -10.856   4.483  67.074  1.00  0.00     0.625 NA 
HETATM   13  C   UNL     1     -10.219   3.593  66.312  1.00  0.00     0.554 A  
HETATM   14  N   UNL     1     -10.582   8.507  70.090  1.00  0.00    -0.228 N  
HETATM   15  O   UNL     1     -10.314   9.097  72.305  1.00  0.00    -0.162 OA 
HETATM   16  C   UNL     1     -10.475   3.544  64.943  1.00  0.00     0.132 A  
HETATM   17  C   UNL     1      -6.957   7.548  72.738  1.00  0.00    -0.073 C  
HETATM   18  C   UNL     1     -11.678   7.541  70.281  1.00  0.00    -0.023 C  
HETATM   19  C   UNL     1     -11.106   6.134  70.168  1.00  0.00    -0.378 C  
HETATM   20  O   UNL     1     -11.271   5.608  68.880  1.00  0.00    -0.092 OA 
HETATM   21  C   UNL     1      -9.678   6.400  70.504  1.00  0.00    -0.186 C  
HETATM   22  C   UNL     1      -9.290   7.758  70.033  1.00  0.00    -0.157 C  
HETATM   23  C   UNL     1     -10.579   4.557  68.398  1.00  0.00     0.728 A  
HETATM   24  C   UNL     1      -9.805   2.640  64.124  1.00  0.00    -0.132 A  
HETATM   25  C   UNL     1      -9.630   3.671  69.001  1.00  0.00    -0.095 A  
HETATM   26  C   UNL     1      -8.865   1.794  64.696  1.00  0.00    -0.106 A  
HETATM   27  C   UNL     1      -9.160   3.587  70.469  1.00  0.00    -0.192 C  
HETATM   28  C   UNL     1      -6.577   6.303  71.889  1.00  0.00    -0.062 C  
HETATM   29  N   UNL     1      -8.984   2.771  68.210  1.00  0.00    -0.129 NA 
HETATM   30  C   UNL     1      -7.431   4.975  72.073  1.00  0.00    -0.091 C  
HETATM   31  C   UNL     1      -7.695   4.151  70.748  1.00  0.00    -0.052 C  
HETATM   32  C   UNL     1      -9.264   2.724  66.887  1.00  0.00    -0.115 A  
HETATM   33  C   UNL     1      -8.601   1.834  66.067  1.00  0.00    -0.112 A  
ENDROOT
BRANCH  10  34
HETATM   34  C   UNL     1     -12.396  11.428  70.446  1.00  0.00    -0.404 C  
HETATM   35  C   UNL     1     -12.462  11.648  68.909  1.00  0.00     0.362 C  
HETATM   36  C   UNL     1     -12.616  12.830  71.106  1.00  0.00    -0.365 C  
HETATM   37  C   UNL     1     -13.691  10.652  70.794  1.00  0.00     0.704 C  
ENDBRANCH  10  34
BRANCH  22  38
HETATM   38  C   UNL     1      -8.264   7.553  68.798  1.00  0.00    -0.129 C  
HETATM   39  H   UNL     1      -7.107   6.209  68.001  1.00  0.00     0.000 HD 
HETATM   40  O   UNL     1      -7.709   6.329  68.726  1.00  0.00    -0.097 OA 
BRANCH  38  41
HETATM   41  N   UNL     1      -7.877   8.515  68.015  1.00  0.00    -0.102 NA 
HETATM   42  H   UNL     1      -7.463   9.323  68.481  1.00  0.00     0.000 HD 
BRANCH  41  43
HETATM   43  C   UNL     1      -7.955   8.597  66.555  1.00  0.00    -0.099 C  
HETATM   44  C   UNL     1      -7.840  10.055  65.968  1.00  0.00    -0.119 C  
HETATM   45  C   UNL     1      -6.669   9.098  65.901  1.00  0.00    -0.079 C  
BRANCH  43  46
HETATM   46  C   UNL     1      -8.811   7.630  65.800  1.00  0.00    -0.100 C  
HETATM   47  H   UNL     1     -10.597   6.925  65.868  1.00  0.00     0.000 HD 
HETATM   48  O   UNL     1     -10.053   7.539  66.347  1.00  0.00    -0.157 OA 
BRANCH  46  49
HETATM   49  N   UNL     1      -8.360   6.964  64.809  1.00  0.00    -0.319 N  
HETATM   50  H   UNL     1      -8.870   6.984  63.926  1.00  0.00     0.000 HD 
BRANCH  49  51
HETATM   51  S   UNL     1      -7.013   6.094  64.913  1.00  0.00    -0.057 S  
HETATM   52  O   UNL     1      -5.954   6.922  65.451  1.00  0.00    -0.034 OA 
HETATM   53  O   UNL     1      -7.328   4.816  65.534  1.00  0.00    -0.070 OA 
BRANCH  51  54
HETATM   54  C   UNL     1      -6.538   5.638  63.207  1.00  0.00    -0.032 C  
HETATM   55  C   UNL     1      -5.178   5.984  62.812  1.00  0.00    -0.017 C  
HETATM   56  C   UNL     1      -5.490   4.513  63.095  1.00  0.00    -0.009 C  
ENDBRANCH  51  54
ENDBRANCH  49  51
ENDBRANCH  46  49
ENDBRANCH  43  46
BRANCH  44  57
HETATM   57  C   UNL     1      -8.414  10.461  64.671  1.00  0.00    -0.176 C  
HETATM   58  C   UNL     1      -7.991  10.081  63.443  1.00  0.00    -0.156 C  
ENDBRANCH  44  57
ENDBRANCH  41  43
ENDBRANCH  38  41
ENDBRANCH  22  38
BRANCH  24  59
HETATM   59  O   UNL     1      -9.971   2.492  62.777  1.00  0.00    -0.092 OA 
HETATM   60  C   UNL     1     -10.914   1.522  62.334  1.00  0.00    -0.146 C  
ENDBRANCH  24  59
TORSDOF 10
ENDMDL
MODEL       46
REMARK 921   NORMALIZED FREE ENERGY PREDICTED BY IDOCK:    4.59 KCAL/MOL
REMARK 922        TOTAL FREE ENERGY PREDICTED BY IDOCK:    4.62 KCAL/MOL
REMARK 923 INTER-LIGAND FREE ENERGY PREDICTED BY IDOCK:    4.64 KCAL/MOL
REMARK 924 INTRA-LIGAND FREE ENERGY PREDICTED BY IDOCK:   -0.02 KCAL/MOL
REMARK 927      BINDING AFFINITY PREDICTED BY RF-SCORE:    0.00 PKD
ROOT
HETATM    1  C   UNL     1     -12.908  14.731  71.370  1.00  0.00    -0.409 C  
HETATM    2  C   UNL     1     -11.678  15.050  72.148  1.00  0.00    -0.437 C  
HETATM    3  C   UNL     1     -11.709  15.512  70.679  1.00  0.00    -0.357 C  
HETATM    4  O   UNL     1     -10.550  15.013  69.931  1.00  0.00    -0.239 OA 
HETATM    5  C   UNL     1     -10.173  15.444  68.670  1.00  0.00    -0.217 C  
HETATM    6  N   UNL     1     -10.762  16.234  67.837  1.00  0.00    -0.321 NA 
HETATM    7  O   UNL     1      -9.067  14.782  68.258  1.00  0.00    -0.171 OA 
HETATM    8  H   UNL     1     -10.705  17.250  67.902  1.00  0.00     0.000 HD 
HETATM    9  H   UNL     1      -8.808  15.078  67.393  1.00  0.00     0.000 HD 
HETATM   10  C   UNL     1     -11.546  15.519  66.749  1.00  0.00     0.132 C  
HETATM   11  C   UNL     1     -12.133  14.219  67.337  1.00  0.00    -0.336 C  
HETATM   12  N   UNL     1      -9.165   8.540  67.706  1.00  0.00    -0.135 NA 
HETATM   13  C   UNL     1      -8.524   7.625  68.434  1.00  0.00    -0.125 A  
HETATM   14  N   UNL     1     -11.274  13.107  67.468  1.00  0.00    -0.271 N  
HETATM   15  O   UNL     1     -13.282  14.196  67.798  1.00  0.00     1.789 OA 
HETATM   16  C   UNL     1      -7.232   7.241  68.083  1.00  0.00    -0.091 A  
HETATM   17  C   UNL     1     -13.618  13.351  71.408  1.00  0.00    -0.101 C  
HETATM   18  C   UNL     1     -11.779  12.038  66.589  1.00  0.00    -0.256 C  
HETATM   19  C   UNL     1     -11.880  10.753  67.402  1.00  0.00     0.722 C  
HETATM   20  O   UNL     1     -10.750   9.943  67.234  1.00  0.00    -0.265 OA 
HETATM   21  C   UNL     1     -11.987  11.317  68.777  1.00  0.00    -0.350 C  
HETATM   22  C   UNL     1     -11.215  12.587  68.868  1.00  0.00    -0.281 C  
HETATM   23  C   UNL     1     -10.407   8.942  68.069  1.00  0.00    -0.219 A  
HETATM   24  C   UNL     1      -6.535   6.305  68.842  1.00  0.00    -0.043 A  
HETATM   25  C   UNL     1     -11.058   8.375  69.211  1.00  0.00     0.162 A  
HETATM   26  C   UNL     1      -7.149   5.768  69.965  1.00  0.00    -0.067 A  
HETATM   27  C   UNL     1     -12.448   8.687  69.804  1.00  0.00     1.742 C  
HETATM   28  C   UNL     1     -12.993  12.033  71.943  1.00  0.00    -0.428 C  
HETATM   29  N   UNL     1     -10.390   7.445  69.948  1.00  0.00    -0.212 NA 
HETATM   30  C   UNL     1     -13.533  10.653  71.368  1.00  0.00    -0.150 C  
HETATM   31  C   UNL     1     -12.437   9.532  71.157  1.00  0.00    -0.399 C  
HETATM   32  C   UNL     1      -9.144   7.069  69.577  1.00  0.00    -0.146 A  
HETATM   33  C   UNL     1      -8.445   6.145  70.326  1.00  0.00    -0.126 A  
ENDROOT
BRANCH  10  34
HETATM   34  C   UNL     1     -11.256  15.697  65.178  1.00  0.00    -0.286 C  
HETATM   35  C   UNL     1     -12.538  15.292  64.398  1.00  0.00     0.134 C  
HETATM   36  C   UNL     1     -10.140  14.685  64.754  1.00  0.00    -0.086 C  
HETATM   37  C   UNL     1     -10.803  17.032  64.536  1.00  0.00     0.797 C  
ENDBRANCH  10  34
BRANCH  22  38
HETATM   38  C   UNL     1      -9.934  12.293  69.812  1.00  0.00     1.644 C  
HETATM   39  H   UNL     1      -8.964  13.045  71.320  1.00  0.00     0.000 HD 
HETATM   40  O   UNL     1      -9.716  13.217  70.766  1.00  0.00     4.972 OA 
BRANCH  38  41
HETATM   41  N   UNL     1      -9.084  11.334  69.597  1.00  0.00     0.062 NA 
HETATM   42  H   UNL     1      -9.452  10.388  69.701  1.00  0.00     0.000 HD 
BRANCH  41  43
HETATM   43  C   UNL     1      -7.671  11.426  69.225  1.00  0.00     0.061 C  
HETATM   44  C   UNL     1      -7.391  11.377  67.676  1.00  0.00    -0.102 C  
HETATM   45  C   UNL     1      -7.328  12.687  68.434  1.00  0.00    -0.118 C  
BRANCH  43  46
HETATM   46  C   UNL     1      -6.627  10.838  70.121  1.00  0.00    -0.143 C  
HETATM   47  H   UNL     1      -4.995  11.373  70.982  1.00  0.00     0.000 HD 
HETATM   48  O   UNL     1      -5.658  11.747  70.413  1.00  0.00    -0.122 OA 
BRANCH  46  49
HETATM   49  N   UNL     1      -6.666   9.616  70.488  1.00  0.00    -0.105 N  
HETATM   50  H   UNL     1      -7.083   8.925  69.865  1.00  0.00     0.000 HD 
BRANCH  49  51
HETATM   51  S   UNL     1      -6.077   9.136  71.904  1.00  0.00     0.012 S  
HETATM   52  O   UNL     1      -5.484   7.824  71.751  1.00  0.00    -0.035 OA 
HETATM   53  O   UNL     1      -5.304  10.225  72.482  1.00  0.00    -0.305 OA 
BRANCH  51  54
HETATM   54  C   UNL     1      -7.498   8.964  73.044  1.00  0.00     0.393 C  
HETATM   55  C   UNL     1      -8.756   8.555  72.432  1.00  0.00    -0.242 C  
HETATM   56  C   UNL     1      -7.993   7.521  73.263  1.00  0.00    -0.142 C  
ENDBRANCH  51  54
ENDBRANCH  49  51
ENDBRANCH  46  49
ENDBRANCH  43  46
BRANCH  44  57
HETATM   57  C   UNL     1      -6.119  10.911  67.090  1.00  0.00    -0.068 C  
HETATM   58  C   UNL     1      -5.960   9.916  66.187  1.00  0.00    -0.065 C  
ENDBRANCH  44  57
ENDBRANCH  41  43
ENDBRANCH  38  41
ENDBRANCH  22  38
BRANCH  24  59
HETATM   59  O   UNL     1      -5.272   5.846  68.599  1.00  0.00    -0.006 OA 
HETATM   60  C   UNL     1      -5.140   4.683  67.787  1.00  0.00    -0.007 C  
ENDBRANCH  24  59
TORSDOF 10
ENDMDL
MODEL       47
REMARK 921   NORMALIZED FREE ENERGY PREDICTED BY IDOCK:    5.25 KCAL/MOL
REMARK 922        TOTAL FREE ENERGY PREDICTED BY IDOCK:    5.66 KCAL/MOL
REMARK 923 INTER-LIGAND FREE ENERGY PREDICTED BY IDOCK:    0.22 KCAL/MOL
REMARK 924 INTRA-LIGAND FREE ENERGY PREDICTED BY IDOCK:    5.44 KCAL/MOL
REMARK 927      BINDING AFFINITY PREDICTED BY RF-SCORE:    0.00 PKD
ROOT
HETATM    1  C   UNL     1      -8.972   9.687  64.263  1.00  0.00    -0.269 C  
HETATM    2  C   UNL     1      -7.568  10.185  64.274  1.00  0.00    -0.124 C  
HETATM    3  C   UNL     1      -8.015   9.344  65.484  1.00  0.00    -0.111 C  
HETATM    4  O   UNL     1      -7.790  10.054  66.748  1.00  0.00    -0.108 OA 
HETATM    5  C   UNL     1      -7.866   9.479  68.006  1.00  0.00    -0.087 C  
HETATM    6  N   UNL     1      -8.250   8.304  68.376  1.00  0.00    -0.130 NA 
HETATM    7  O   UNL     1      -7.611  10.403  68.961  1.00  0.00    -0.089 OA 
HETATM    8  H   UNL     1      -7.642   7.486  68.339  1.00  0.00     0.000 HD 
HETATM    9  H   UNL     1      -7.664  10.009  69.824  1.00  0.00     0.000 HD 
HETATM   10  C   UNL     1      -9.685   8.245  68.871  1.00  0.00    -0.164 C  
HETATM   11  C   UNL     1     -10.525   9.266  68.076  1.00  0.00    -0.223 C  
HETATM   12  N   UNL     1     -11.233  15.495  69.451  1.00  0.00    -0.277 NA 
HETATM   13  C   UNL     1     -10.926  16.768  69.200  1.00  0.00    -0.223 A  
HETATM   14  N   UNL     1     -10.438  10.625  68.446  1.00  0.00    -0.177 N  
HETATM   15  O   UNL     1     -11.150   8.919  67.065  1.00  0.00     0.065 OA 
HETATM   16  C   UNL     1     -10.363  17.556  70.201  1.00  0.00     0.837 A  
HETATM   17  C   UNL     1     -10.193  10.558  63.863  1.00  0.00    -0.199 C  
HETATM   18  C   UNL     1     -11.765  11.051  68.924  1.00  0.00    -0.330 C  
HETATM   19  C   UNL     1     -12.146  12.337  68.203  1.00  0.00    -0.013 C  
HETATM   20  O   UNL     1     -11.841  13.471  68.968  1.00  0.00    -0.305 OA 
HETATM   21  C   UNL     1     -11.299  12.220  66.983  1.00  0.00    -0.395 C  
HETATM   22  C   UNL     1     -10.033  11.507  67.310  1.00  0.00    -0.191 C  
HETATM   23  C   UNL     1     -11.745  14.718  68.466  1.00  0.00    -0.317 A  
HETATM   24  C   UNL     1     -10.013  18.880  69.955  1.00  0.00     0.721 A  
HETATM   25  C   UNL     1     -11.991  15.252  67.161  1.00  0.00     0.211 A  
HETATM   26  C   UNL     1     -10.225  19.400  68.685  1.00  0.00    -0.462 A  
HETATM   27  C   UNL     1     -12.551  14.554  65.904  1.00  0.00    -0.157 C  
HETATM   28  C   UNL     1     -10.198  12.110  63.770  1.00  0.00    -0.449 C  
HETATM   29  N   UNL     1     -11.668  16.553  66.918  1.00  0.00     0.872 NA 
HETATM   30  C   UNL     1     -11.577  12.874  63.977  1.00  0.00    -0.486 C  
HETATM   31  C   UNL     1     -11.480  14.243  64.763  1.00  0.00    -0.394 C  
HETATM   32  C   UNL     1     -11.143  17.307  67.911  1.00  0.00    -0.053 A  
HETATM   33  C   UNL     1     -10.789  18.619  67.673  1.00  0.00    -0.347 A  
ENDROOT
BRANCH  10  34
HETATM   34  C   UNL     1     -10.099   7.756  70.346  1.00  0.00    -0.194 C  
HETATM   35  C   UNL     1      -9.031   8.276  71.348  1.00  0.00    -0.211 C  
HETATM   36  C   UNL     1     -10.032   6.193  70.395  1.00  0.00    -0.223 C  
HETATM   37  C   UNL     1     -11.461   8.085  71.008  1.00  0.00    -0.300 C  
ENDBRANCH  10  34
BRANCH  22  38
HETATM   38  C   UNL     1      -8.840  12.596  67.217  1.00  0.00    -0.196 C  
HETATM   39  H   UNL     1      -7.062  12.955  67.917  1.00  0.00     0.000 HD 
HETATM   40  O   UNL     1      -7.762  12.315  67.972  1.00  0.00    -0.112 OA 
BRANCH  38  41
HETATM   41  N   UNL     1      -8.946  13.730  66.591  1.00  0.00    -0.425 NA 
HETATM   42  H   UNL     1      -9.442  13.696  65.700  1.00  0.00     0.000 HD 
BRANCH  41  43
HETATM   43  C   UNL     1      -8.452  15.049  66.990  1.00  0.00    -0.229 C  
HETATM   44  C   UNL     1      -7.825  15.901  65.823  1.00  0.00     1.687 C  
HETATM   45  C   UNL     1      -9.211  16.208  66.348  1.00  0.00    -0.334 C  
BRANCH  43  46
HETATM   46  C   UNL     1      -7.872  15.243  68.356  1.00  0.00    -0.122 C  
HETATM   47  H   UNL     1      -7.953  16.519  69.790  1.00  0.00     0.000 HD 
HETATM   48  O   UNL     1      -8.320  16.396  68.923  1.00  0.00    -0.218 OA 
BRANCH  46  49
HETATM   49  N   UNL     1      -7.029  14.424  68.852  1.00  0.00    -0.100 N  
HETATM   50  H   UNL     1      -6.924  13.502  68.428  1.00  0.00     0.000 HD 
BRANCH  49  51
HETATM   51  S   UNL     1      -6.126  14.803  70.127  1.00  0.00    -0.162 S  
HETATM   52  O   UNL     1      -5.132  15.778  69.731  1.00  0.00    -0.103 OA 
HETATM   53  O   UNL     1      -7.002  15.069  71.257  1.00  0.00     0.843 OA 
BRANCH  51  54
HETATM   54  C   UNL     1      -5.235  13.283  70.621  1.00  0.00    -0.131 C  
HETATM   55  C   UNL     1      -5.747  12.604  71.805  1.00  0.00     0.629 C  
HETATM   56  C   UNL     1      -6.024  11.972  70.440  1.00  0.00    -0.107 C  
ENDBRANCH  51  54
ENDBRANCH  49  51
ENDBRANCH  46  49
ENDBRANCH  43  46
BRANCH  44  57
HETATM   57  C   UNL     1      -6.810  16.952  66.032  1.00  0.00     0.246 C  
HETATM   58  C   UNL     1      -6.965  18.280  65.823  1.00  0.00    -0.284 C  
ENDBRANCH  44  57
ENDBRANCH  41  43
ENDBRANCH  38  41
ENDBRANCH  22  38
BRANCH  24  59
HETATM   59  O   UNL     1      -9.462  19.752  70.850  1.00  0.00     1.214 OA 
HETATM   60  C   UNL     1      -8.057  19.671  71.066  1.00  0.00     2.422 C  
ENDBRANCH  24  59
TORSDOF 10
ENDMDL
MODEL       48
REMARK 921   NORMALIZED FREE ENERGY PREDICTED BY IDOCK:    5.68 KCAL/MOL
REMARK 922        TOTAL FREE ENERGY PREDICTED BY IDOCK:    6.34 KCAL/MOL
REMARK 923 INTER-LIGAND FREE ENERGY PREDICTED BY IDOCK:    5.25 KCAL/MOL
REMARK 924 INTRA-LIGAND FREE ENERGY PREDICTED BY IDOCK:    1.09 KCAL/MOL
REMARK 927      BINDING AFFINITY PREDICTED BY RF-SCORE:    0.00 PKD
ROOT
HETATM    1  C   UNL     1      -6.515   8.374  71.877  1.00  0.00    -0.067 C  
HETATM    2  C   UNL     1      -7.797   8.757  72.535  1.00  0.00     0.099 C  
HETATM    3  C   UNL     1      -7.737   7.359  71.892  1.00  0.00    -0.085 C  
HETATM    4  O   UNL     1      -8.824   7.161  70.928  1.00  0.00    -0.148 OA 
HETATM    5  C   UNL     1      -9.178   5.944  70.369  1.00  0.00    -0.158 C  
HETATM    6  N   UNL     1      -8.613   4.786  70.439  1.00  0.00    -0.096 NA 
HETATM    7  O   UNL     1     -10.216   6.103  69.515  1.00  0.00    -0.173 OA 
HETATM    8  H   UNL     1      -8.745   4.152  71.227  1.00  0.00     0.000 HD 
HETATM    9  H   UNL     1     -10.458   5.269  69.131  1.00  0.00     0.000 HD 
HETATM   10  C   UNL     1      -7.734   4.449  69.246  1.00  0.00    -0.055 C  
HETATM   11  C   UNL     1      -7.081   5.747  68.730  1.00  0.00    -0.073 C  
HETATM   12  N   UNL     1      -9.647   9.889  64.553  1.00  0.00    -0.279 NA 
HETATM   13  C   UNL     1     -10.250  11.054  64.315  1.00  0.00    -0.352 A  
HETATM   14  N   UNL     1      -7.862   6.607  67.930  1.00  0.00    -0.111 N  
HETATM   15  O   UNL     1      -5.954   6.084  69.116  1.00  0.00    -0.021 OA 
HETATM   16  C   UNL     1     -11.496  11.075  63.691  1.00  0.00     0.492 A  
HETATM   17  C   UNL     1      -5.710   9.318  70.944  1.00  0.00    -0.051 C  
HETATM   18  C   UNL     1      -7.246   6.666  66.593  1.00  0.00    -0.073 C  
HETATM   19  C   UNL     1      -7.087   8.130  66.200  1.00  0.00    -0.062 C  
HETATM   20  O   UNL     1      -8.149   8.570  65.399  1.00  0.00    -0.112 OA 
HETATM   21  C   UNL     1      -7.079   8.767  67.547  1.00  0.00    -0.079 C  
HETATM   22  C   UNL     1      -7.943   7.993  68.481  1.00  0.00    -0.120 C  
HETATM   23  C   UNL     1      -8.453   9.867  65.193  1.00  0.00    -0.150 A  
HETATM   24  C   UNL     1     -12.155  12.277  63.455  1.00  0.00    -0.516 A  
HETATM   25  C   UNL     1      -7.812  11.082  65.595  1.00  0.00     0.062 A  
HETATM   26  C   UNL     1     -11.552  13.459  63.863  1.00  0.00    -0.401 A  
HETATM   27  C   UNL     1      -6.474  11.287  66.336  1.00  0.00    -0.080 C  
HETATM   28  C   UNL     1      -6.261  10.612  70.281  1.00  0.00    -0.139 C  
HETATM   29  N   UNL     1      -8.442  12.264  65.350  1.00  0.00     0.998 NA 
HETATM   30  C   UNL     1      -5.599  11.104  68.923  1.00  0.00    -0.039 C  
HETATM   31  C   UNL     1      -6.602  11.720  67.866  1.00  0.00    -0.068 C  
HETATM   32  C   UNL     1      -9.641  12.263  64.722  1.00  0.00     0.096 A  
HETATM   33  C   UNL     1     -10.303  13.451  64.488  1.00  0.00    -0.394 A  
ENDROOT
BRANCH  10  34
HETATM   34  C   UNL     1      -7.971   3.171  68.299  1.00  0.00    -0.062 C  
HETATM   35  C   UNL     1      -9.462   2.752  68.412  1.00  0.00    -0.209 C  
HETATM   36  C   UNL     1      -7.129   1.973  68.850  1.00  0.00    -0.040 C  
HETATM   37  C   UNL     1      -7.668   3.163  66.779  1.00  0.00    -0.076 C  
ENDBRANCH  10  34
BRANCH  22  38
HETATM   38  C   UNL     1      -9.238   8.911  68.794  1.00  0.00    -0.140 C  
HETATM   39  H   UNL     1     -11.032   9.270  68.136  1.00  0.00     0.000 HD 
HETATM   40  O   UNL     1     -10.272   8.731  67.951  1.00  0.00    -0.196 OA 
BRANCH  38  41
HETATM   41  N   UNL     1      -9.254   9.856  69.686  1.00  0.00    -0.217 NA 
HETATM   42  H   UNL     1      -8.588   9.750  70.452  1.00  0.00     0.000 HD 
BRANCH  41  43
HETATM   43  C   UNL     1     -10.097  11.052  69.742  1.00  0.00     0.332 C  
HETATM   44  C   UNL     1     -11.479  10.853  70.471  1.00  0.00    -0.314 C  
HETATM   45  C   UNL     1     -10.335  11.567  71.160  1.00  0.00     5.273 C  
BRANCH  43  46
HETATM   46  C   UNL     1     -10.061  12.040  68.619  1.00  0.00    -0.160 C  
HETATM   47  H   UNL     1      -9.499  12.120  66.784  1.00  0.00     0.000 HD 
HETATM   48  O   UNL     1      -9.522  11.492  67.496  1.00  0.00    -0.167 OA 
BRANCH  46  49
HETATM   49  N   UNL     1     -10.452  13.246  68.771  1.00  0.00    -0.363 N  
HETATM   50  H   UNL     1     -11.382  13.421  69.150  1.00  0.00     0.000 HD 
BRANCH  49  51
HETATM   51  S   UNL     1      -9.520  14.496  68.381  1.00  0.00    -0.211 S  
HETATM   52  O   UNL     1      -8.365  14.517  69.253  1.00  0.00    -0.055 OA 
HETATM   53  O   UNL     1      -9.346  14.515  66.936  1.00  0.00    -0.223 OA 
BRANCH  51  54
HETATM   54  C   UNL     1     -10.489  16.010  68.718  1.00  0.00    -0.248 C  
HETATM   55  C   UNL     1     -11.475  15.908  69.786  1.00  0.00    -0.342 C  
HETATM   56  C   UNL     1     -10.192  16.692  70.068  1.00  0.00     0.218 C  
ENDBRANCH  51  54
ENDBRANCH  49  51
ENDBRANCH  46  49
ENDBRANCH  43  46
BRANCH  44  57
HETATM   57  C   UNL     1     -12.675  11.671  70.194  1.00  0.00     0.022 C  
HETATM   58  C   UNL     1     -13.368  12.421  71.082  1.00  0.00     0.222 C  
ENDBRANCH  44  57
ENDBRANCH  41  43
ENDBRANCH  38  41
ENDBRANCH  22  38
BRANCH  24  59
HETATM   59  O   UNL     1     -13.371  12.429  62.850  1.00  0.00     0.029 OA 
HETATM   60  C   UNL     1     -14.409  11.530  63.228  1.00  0.00     4.336 C  
ENDBRANCH  24  59
TORSDOF 10
ENDMDL
MODEL       49
REMARK 921   NORMALIZED FREE ENERGY PREDICTED BY IDOCK:    5.74 KCAL/MOL
REMARK 922        TOTAL FREE ENERGY PREDICTED BY IDOCK:    6.44 KCAL/MOL
REMARK 923 INTER-LIGAND FREE ENERGY PREDICTED BY IDOCK:    4.47 KCAL/MOL
REMARK 924 INTRA-LIGAND FREE ENERGY PREDICTED BY IDOCK:    1.97 KCAL/MOL
REMARK 927      BINDING AFFINITY PREDICTED BY RF-SCORE:    0.00 PKD
ROOT
HETATM    1  C   UNL     1      -5.469   6.601  71.840  1.00  0.00    -0.032 C  
HETATM    2  C   UNL     1      -5.401   7.973  72.418  1.00  0.00    -0.036 C  
HETATM    3  C   UNL     1      -6.608   7.107  72.827  1.00  0.00    -0.063 C  
HETATM    4  O   UNL     1      -7.878   7.785  72.549  1.00  0.00    -0.094 OA 
HETATM    5  C   UNL     1      -9.116   7.373  73.015  1.00  0.00    -0.155 C  
HETATM    6  N   UNL     1      -9.468   6.307  73.649  1.00  0.00    -0.143 NA 
HETATM    7  O   UNL     1     -10.085   8.210  72.576  1.00  0.00    -0.249 OA 
HETATM    8  H   UNL     1      -9.358   6.201  74.658  1.00  0.00     0.000 HD 
HETATM    9  H   UNL     1     -10.934   7.928  72.895  1.00  0.00     0.000 HD 
HETATM   10  C   UNL     1     -10.059   5.222  72.765  1.00  0.00    -0.168 C  
HETATM   11  C   UNL     1      -9.362   5.271  71.389  1.00  0.00    -0.148 C  
HETATM   12  N   UNL     1     -11.013   8.991  66.427  1.00  0.00     0.518 NA 
HETATM   13  C   UNL     1     -10.789  10.071  65.676  1.00  0.00     0.581 A  
HETATM   14  N   UNL     1      -9.776   6.263  70.474  1.00  0.00    -0.172 N  
HETATM   15  O   UNL     1      -8.384   4.550  71.150  1.00  0.00    -0.087 OA 
HETATM   16  C   UNL     1     -11.778  11.044  65.549  1.00  0.00     0.920 A  
HETATM   17  C   UNL     1      -5.187   6.279  70.348  1.00  0.00    -0.014 C  
HETATM   18  C   UNL     1     -10.360   5.585  69.304  1.00  0.00    -0.265 C  
HETATM   19  C   UNL     1      -9.715   6.154  68.047  1.00  0.00    -0.120 C  
HETATM   20  O   UNL     1     -10.499   7.164  67.473  1.00  0.00    -0.208 OA 
HETATM   21  C   UNL     1      -8.436   6.667  68.612  1.00  0.00    -0.122 C  
HETATM   22  C   UNL     1      -8.648   7.127  70.013  1.00  0.00    -0.141 C  
HETATM   23  C   UNL     1     -10.039   8.064  66.582  1.00  0.00    -0.259 A  
HETATM   24  C   UNL     1     -11.557  12.190  64.791  1.00  0.00    -0.321 A  
HETATM   25  C   UNL     1      -8.774   8.210  65.926  1.00  0.00    -0.156 A  
HETATM   26  C   UNL     1     -10.325  12.351  64.171  1.00  0.00    -0.409 A  
HETATM   27  C   UNL     1      -7.534   7.292  65.971  1.00  0.00    -0.080 C  
HETATM   28  C   UNL     1      -5.152   7.321  69.195  1.00  0.00    -0.015 C  
HETATM   29  N   UNL     1      -8.557   9.319  65.168  1.00  0.00    -0.161 NA 
HETATM   30  C   UNL     1      -5.482   6.826  67.721  1.00  0.00    -0.012 C  
HETATM   31  C   UNL     1      -6.311   7.842  66.836  1.00  0.00    -0.054 C  
HETATM   32  C   UNL     1      -9.539  10.241  65.038  1.00  0.00    -0.285 A  
HETATM   33  C   UNL     1      -9.327  11.382  64.292  1.00  0.00    -0.081 A  
ENDROOT
BRANCH  10  34
HETATM   34  C   UNL     1     -11.540   4.625  72.956  1.00  0.00    -0.208 C  
HETATM   35  C   UNL     1     -11.947   4.805  74.445  1.00  0.00     3.677 C  
HETATM   36  C   UNL     1     -11.499   3.083  72.690  1.00  0.00     0.686 C  
HETATM   37  C   UNL     1     -12.769   5.105  72.145  1.00  0.00     1.644 C  
ENDBRANCH  10  34
BRANCH  22  38
HETATM   38  C   UNL     1      -8.513   8.740  70.005  1.00  0.00    -0.133 C  
HETATM   39  H   UNL     1      -7.189  10.145  69.779  1.00  0.00     0.000 HD 
HETATM   40  O   UNL     1      -7.267   9.199  69.784  1.00  0.00    -0.056 OA 
BRANCH  38  41
HETATM   41  N   UNL     1      -9.480   9.546  70.328  1.00  0.00    -0.245 NA 
HETATM   42  H   UNL     1     -10.176   9.164  70.969  1.00  0.00     0.000 HD 
BRANCH  41  43
HETATM   43  C   UNL     1      -9.706  10.927  69.898  1.00  0.00     0.608 C  
HETATM   44  C   UNL     1     -11.090  11.180  69.190  1.00  0.00    -0.306 C  
HETATM   45  C   UNL     1     -10.862  11.613  70.623  1.00  0.00     1.839 C  
BRANCH  43  46
HETATM   46  C   UNL     1      -8.551  11.763  69.444  1.00  0.00     0.817 C  
HETATM   47  H   UNL     1      -6.682  11.975  69.833  1.00  0.00     0.000 HD 
HETATM   48  O   UNL     1      -7.415  11.445  70.121  1.00  0.00     0.394 OA 
BRANCH  46  49
HETATM   49  N   UNL     1      -8.688  12.679  68.566  1.00  0.00    -0.354 N  
HETATM   50  H   UNL     1      -8.952  12.419  67.615  1.00  0.00     0.000 HD 
BRANCH  49  51
HETATM   51  S   UNL     1      -8.455  14.231  68.914  1.00  0.00     0.041 S  
HETATM   52  O   UNL     1      -9.740  14.883  69.054  1.00  0.00    -0.216 OA 
HETATM   53  O   UNL     1      -7.467  14.327  69.978  1.00  0.00     0.209 OA 
BRANCH  51  54
HETATM   54  C   UNL     1      -7.612  14.982  67.475  1.00  0.00    -0.192 C  
HETATM   55  C   UNL     1      -7.344  16.411  67.571  1.00  0.00    -0.170 C  
HETATM   56  C   UNL     1      -6.166  15.449  67.732  1.00  0.00    -0.180 C  
ENDBRANCH  51  54
ENDBRANCH  49  51
ENDBRANCH  46  49
ENDBRANCH  43  46
BRANCH  44  57
HETATM   57  C   UNL     1     -11.325  12.267  68.220  1.00  0.00    -0.339 C  
HETATM   58  C   UNL     1     -12.234  13.265  68.326  1.00  0.00    -0.094 C  
ENDBRANCH  44  57
ENDBRANCH  41  43
ENDBRANCH  38  41
ENDBRANCH  22  38
BRANCH  24  59
HETATM   59  O   UNL     1     -12.444  13.208  64.586  1.00  0.00    -0.510 OA 
HETATM   60  C   UNL     1     -12.526  14.219  65.585  1.00  0.00    -0.417 C  
ENDBRANCH  24  59
TORSDOF 10
ENDMDL
MODEL       50
REMARK 921   NORMALIZED FREE ENERGY PREDICTED BY IDOCK:    6.01 KCAL/MOL
REMARK 922        TOTAL FREE ENERGY PREDICTED BY IDOCK:    6.87 KCAL/MOL
REMARK 923 INTER-LIGAND FREE ENERGY PREDICTED BY IDOCK:    5.65 KCAL/MOL
REMARK 924 INTRA-LIGAND FREE ENERGY PREDICTED BY IDOCK:    1.22 KCAL/MOL
REMARK 927      BINDING AFFINITY PREDICTED BY RF-SCORE:    0.00 PKD
ROOT
HETATM    1  C   UNL     1      -7.651   6.154  66.974  1.00  0.00    -0.095 C  
HETATM    2  C   UNL     1      -6.374   6.869  66.692  1.00  0.00    -0.046 C  
HETATM    3  C   UNL     1      -6.654   6.503  68.161  1.00  0.00    -0.059 C  
HETATM    4  O   UNL     1      -6.586   7.680  69.034  1.00  0.00    -0.045 OA 
HETATM    5  C   UNL     1      -6.557   7.641  70.418  1.00  0.00    -0.038 C  
HETATM    6  N   UNL     1      -6.702   6.657  71.239  1.00  0.00    -0.057 NA 
HETATM    7  O   UNL     1      -6.500   8.896  70.922  1.00  0.00    -0.045 OA 
HETATM    8  H   UNL     1      -5.943   6.019  71.478  1.00  0.00     0.000 HD 
HETATM    9  H   UNL     1      -6.480   8.870  71.871  1.00  0.00     0.000 HD 
HETATM   10  C   UNL     1      -8.101   6.530  71.819  1.00  0.00    -0.104 C  
HETATM   11  C   UNL     1      -9.121   6.981  70.753  1.00  0.00    -0.154 C  
HETATM   12  N   UNL     1     -11.068  12.998  69.663  1.00  0.00    -0.002 NA 
HETATM   13  C   UNL     1     -11.019  14.104  68.919  1.00  0.00    -0.259 A  
HETATM   14  N   UNL     1      -9.309   8.366  70.563  1.00  0.00    -0.158 N  
HETATM   15  O   UNL     1      -9.655   6.155  70.001  1.00  0.00    -0.158 OA 
HETATM   16  C   UNL     1     -10.633  15.312  69.496  1.00  0.00    -0.272 A  
HETATM   17  C   UNL     1      -9.017   6.554  66.355  1.00  0.00    -0.158 C  
HETATM   18  C   UNL     1     -10.698   8.689  70.931  1.00  0.00    -0.219 C  
HETATM   19  C   UNL     1     -11.322   9.494  69.798  1.00  0.00    -0.083 C  
HETATM   20  O   UNL     1     -11.256  10.872  70.043  1.00  0.00    -0.281 OA 
HETATM   21  C   UNL     1     -10.458   9.068  68.662  1.00  0.00    -0.229 C  
HETATM   22  C   UNL     1      -9.079   8.790  69.149  1.00  0.00    -0.141 C  
HETATM   23  C   UNL     1     -11.406  11.816  69.094  1.00  0.00    -0.279 A  
HETATM   24  C   UNL     1     -10.552  16.472  68.733  1.00  0.00    -0.322 A  
HETATM   25  C   UNL     1     -11.743  11.740  67.704  1.00  0.00    -0.250 A  
HETATM   26  C   UNL     1     -10.853  16.403  67.380  1.00  0.00    -0.219 A  
HETATM   27  C   UNL     1     -12.142  10.513  66.857  1.00  0.00     2.760 C  
HETATM   28  C   UNL     1      -9.331   7.914  65.671  1.00  0.00     0.133 C  
HETATM   29  N   UNL     1     -11.684  12.876  66.955  1.00  0.00    -0.371 NA 
HETATM   30  C   UNL     1     -10.836   8.425  65.664  1.00  0.00     3.405 C  
HETATM   31  C   UNL     1     -11.021   9.985  65.852  1.00  0.00     0.531 C  
HETATM   32  C   UNL     1     -11.329  14.043  67.540  1.00  0.00    -0.321 A  
HETATM   33  C   UNL     1     -11.242  15.198  66.790  1.00  0.00    -0.285 A  
ENDROOT
BRANCH  10  34
HETATM   34  C   UNL     1      -8.421   6.591  73.394  1.00  0.00    -0.126 C  
HETATM   35  C   UNL     1      -9.961   6.497  73.580  1.00  0.00    -0.232 C  
HETATM   36  C   UNL     1      -7.991   7.992  73.941  1.00  0.00    -0.266 C  
HETATM   37  C   UNL     1      -7.833   5.597  74.427  1.00  0.00    -0.097 C  
ENDBRANCH  10  34
BRANCH  22  38
HETATM   38  C   UNL     1      -8.127   9.958  68.558  1.00  0.00    -0.101 C  
HETATM   39  H   UNL     1      -7.258  11.614  69.091  1.00  0.00     0.000 HD 
HETATM   40  O   UNL     1      -7.817  10.929  69.437  1.00  0.00    -0.126 OA 
BRANCH  38  41
HETATM   41  N   UNL     1      -7.795  10.054  67.305  1.00  0.00    -0.102 NA 
HETATM   42  H   UNL     1      -7.371   9.221  66.897  1.00  0.00     0.000 HD 
BRANCH  41  43
HETATM   43  C   UNL     1      -7.949  11.194  66.401  1.00  0.00    -0.147 C  
HETATM   44  C   UNL     1      -8.100  10.816  64.879  1.00  0.00     0.066 C  
HETATM   45  C   UNL     1      -9.303  11.239  65.695  1.00  0.00    -0.245 C  
BRANCH  43  46
HETATM   46  C   UNL     1      -7.262  12.487  66.711  1.00  0.00     0.316 C  
HETATM   47  H   UNL     1      -7.365  14.335  66.198  1.00  0.00     0.000 HD 
HETATM   48  O   UNL     1      -7.801  13.515  66.001  1.00  0.00     1.652 OA 
BRANCH  46  49
HETATM   49  N   UNL     1      -6.267  12.546  67.509  1.00  0.00    -0.143 N  
HETATM   50  H   UNL     1      -5.538  11.836  67.445  1.00  0.00     0.000 HD 
BRANCH  49  51
HETATM   51  S   UNL     1      -6.132  13.707  68.612  1.00  0.00    -0.095 S  
HETATM   52  O   UNL     1      -5.160  14.680  68.159  1.00  0.00    -0.107 OA 
HETATM   53  O   UNL     1      -7.466  14.135  69.006  1.00  0.00    -0.124 OA 
BRANCH  51  54
HETATM   54  C   UNL     1      -5.464  12.930  70.127  1.00  0.00    -0.124 C  
HETATM   55  C   UNL     1      -5.133  13.841  71.215  1.00  0.00    -0.147 C  
HETATM   56  C   UNL     1      -6.392  12.984  71.356  1.00  0.00     1.618 C  
ENDBRANCH  51  54
ENDBRANCH  49  51
ENDBRANCH  46  49
ENDBRANCH  43  46
BRANCH  44  57
HETATM   57  C   UNL     1      -7.725  11.716  63.771  1.00  0.00     2.067 C  
HETATM   58  C   UNL     1      -7.165  11.359  62.591  1.00  0.00     0.648 C  
ENDBRANCH  44  57
ENDBRANCH  41  43
ENDBRANCH  38  41
ENDBRANCH  22  38
BRANCH  24  59
HETATM   59  O   UNL     1     -10.193  17.712  69.182  1.00  0.00    -0.342 OA 
HETATM   60  C   UNL     1     -10.221  18.783  68.244  1.00  0.00    -0.375 C  
ENDBRANCH  24  59
TORSDOF 10
ENDMDL
MODEL       51
REMARK 921   NORMALIZED FREE ENERGY PREDICTED BY IDOCK:    6.92 KCAL/MOL
REMARK 922        TOTAL FREE ENERGY PREDICTED BY IDOCK:    8.30 KCAL/MOL
REMARK 923 INTER-LIGAND FREE ENERGY PREDICTED BY IDOCK:   -2.58 KCAL/MOL
REMARK 924 INTRA-LIGAND FREE ENERGY PREDICTED BY IDOCK:   10.88 KCAL/MOL
REMARK 927      BINDING AFFINITY PREDICTED BY RF-SCORE:    0.00 PKD
ROOT
HETATM    1  C   UNL     1      -9.567   6.231  72.489  1.00  0.00    -0.146 C  
HETATM    2  C   UNL     1     -10.810   6.993  72.796  1.00  0.00    -0.321 C  
HETATM    3  C   UNL     1     -10.721   6.342  71.403  1.00  0.00    -0.245 C  
HETATM    4  O   UNL     1     -10.932   7.324  70.334  1.00  0.00    -0.241 OA 
HETATM    5  C   UNL     1     -11.146   7.012  69.001  1.00  0.00    -0.074 C  
HETATM    6  N   UNL     1     -11.089   5.884  68.378  1.00  0.00    -0.195 NA 
HETATM    7  O   UNL     1     -11.299   8.142  68.273  1.00  0.00    -0.100 OA 
HETATM    8  H   UNL     1     -11.859   5.214  68.374  1.00  0.00     0.000 HD 
HETATM    9  H   UNL     1     -11.445   7.929  67.359  1.00  0.00     0.000 HD 
HETATM   10  C   UNL     1      -9.778   5.639  67.649  1.00  0.00    -0.124 C  
HETATM   11  C   UNL     1      -8.636   6.288  68.457  1.00  0.00    -0.114 C  
HETATM   12  N   UNL     1      -6.699  12.394  68.068  1.00  0.00    -0.072 NA 
HETATM   13  C   UNL     1      -6.672  13.625  68.580  1.00  0.00    -0.095 A  
HETATM   14  N   UNL     1      -8.455   7.682  68.344  1.00  0.00    -0.125 N  
HETATM   15  O   UNL     1      -7.986   5.625  69.277  1.00  0.00    -0.093 OA 
HETATM   16  C   UNL     1      -7.160  14.697  67.834  1.00  0.00    -0.170 A  
HETATM   17  C   UNL     1      -8.139   6.740  72.826  1.00  0.00    -0.108 C  
HETATM   18  C   UNL     1      -7.136   7.921  67.734  1.00  0.00    -0.086 C  
HETATM   19  C   UNL     1      -6.384   8.932  68.591  1.00  0.00    -0.053 C  
HETATM   20  O   UNL     1      -6.514  10.234  68.091  1.00  0.00    -0.056 OA 
HETATM   21  C   UNL     1      -7.078   8.742  69.896  1.00  0.00    -0.051 C  
HETATM   22  C   UNL     1      -8.504   8.379  69.665  1.00  0.00    -0.127 C  
HETATM   23  C   UNL     1      -6.260  11.347  68.807  1.00  0.00    -0.050 A  
HETATM   24  C   UNL     1      -7.165  15.986  68.357  1.00  0.00    -0.126 A  
HETATM   25  C   UNL     1      -5.739  11.546  70.126  1.00  0.00    -0.137 A  
HETATM   26  C   UNL     1      -6.684  16.184  69.644  1.00  0.00    -0.165 A  
HETATM   27  C   UNL     1      -5.202  10.509  71.135  1.00  0.00    -0.091 C  
HETATM   28  C   UNL     1      -7.768   8.207  73.180  1.00  0.00    -0.204 C  
HETATM   29  N   UNL     1      -5.723  12.808  70.637  1.00  0.00    -0.176 NA 
HETATM   30  C   UNL     1      -6.288   8.704  72.882  1.00  0.00    -0.067 C  
HETATM   31  C   UNL     1      -6.166  10.195  72.367  1.00  0.00     1.117 C  
HETATM   32  C   UNL     1      -6.180  13.838  69.888  1.00  0.00    -0.129 A  
HETATM   33  C   UNL     1      -6.193  15.118  70.401  1.00  0.00    -0.072 A  
ENDROOT
BRANCH  10  34
HETATM   34  C   UNL     1      -9.673   5.386  66.065  1.00  0.00    -0.134 C  
HETATM   35  C   UNL     1      -8.309   5.943  65.573  1.00  0.00    -0.145 C  
HETATM   36  C   UNL     1     -10.781   6.225  65.346  1.00  0.00     2.515 C  
HETATM   37  C   UNL     1      -9.791   3.986  65.411  1.00  0.00    -0.192 C  
ENDBRANCH  10  34
BRANCH  22  38
HETATM   38  C   UNL     1      -9.395   9.645  70.138  1.00  0.00    -0.251 C  
HETATM   39  H   UNL     1      -9.925  10.604  71.743  1.00  0.00     0.000 HD 
HETATM   40  O   UNL     1      -9.403   9.861  71.466  1.00  0.00     0.463 OA 
BRANCH  38  41
HETATM   41  N   UNL     1     -10.166  10.321  69.341  1.00  0.00    -0.223 NA 
HETATM   42  H   UNL     1     -11.060  10.615  69.736  1.00  0.00     0.000 HD 
BRANCH  41  43
HETATM   43  C   UNL     1      -9.927  10.720  67.953  1.00  0.00    -0.174 C  
HETATM   44  C   UNL     1      -8.544  10.256  67.360  1.00  0.00    -0.125 C  
HETATM   45  C   UNL     1      -9.825   9.542  66.986  1.00  0.00    -0.246 C  
BRANCH  43  46
HETATM   46  C   UNL     1     -10.480  12.015  67.445  1.00  0.00    -0.216 C  
HETATM   47  H   UNL     1     -11.879  12.630  66.281  1.00  0.00     0.000 HD 
HETATM   48  O   UNL     1     -11.528  11.808  66.603  1.00  0.00    -0.399 OA 
BRANCH  46  49
HETATM   49  N   UNL     1      -9.958  13.137  67.756  1.00  0.00    -0.221 N  
HETATM   50  H   UNL     1      -8.955  13.270  67.627  1.00  0.00     0.000 HD 
BRANCH  49  51
HETATM   51  S   UNL     1     -10.836  14.348  68.346  1.00  0.00    -0.256 S  
HETATM   52  O   UNL     1      -9.950  15.388  68.823  1.00  0.00    -0.195 OA 
HETATM   53  O   UNL     1     -11.891  14.665  67.396  1.00  0.00    -0.385 OA 
BRANCH  51  54
HETATM   54  C   UNL     1     -11.742  13.694  69.795  1.00  0.00    -0.297 C  
HETATM   55  C   UNL     1     -11.047  13.785  71.073  1.00  0.00     1.555 C  
HETATM   56  C   UNL     1     -12.202  14.754  70.814  1.00  0.00    -0.380 C  
ENDBRANCH  51  54
ENDBRANCH  49  51
ENDBRANCH  46  49
ENDBRANCH  43  46
BRANCH  44  57
HETATM   57  C   UNL     1      -7.850  10.952  66.259  1.00  0.00    -0.158 C  
HETATM   58  C   UNL     1      -7.658  10.490  65.002  1.00  0.00    -0.026 C  
ENDBRANCH  44  57
ENDBRANCH  41  43
ENDBRANCH  38  41
ENDBRANCH  22  38
BRANCH  24  59
HETATM   59  O   UNL     1      -7.609  17.113  67.727  1.00  0.00    -0.170 OA 
HETATM   60  C   UNL     1      -8.970  17.141  67.311  1.00  0.00    -0.221 C  
ENDBRANCH  24  59
TORSDOF 10
ENDMDL
MODEL       52
REMARK 921   NORMALIZED FREE ENERGY PREDICTED BY IDOCK:    8.45 KCAL/MOL
REMARK 922        TOTAL FREE ENERGY PREDICTED BY IDOCK:   10.73 KCAL/MOL
REMARK 923 INTER-LIGAND FREE ENERGY PREDICTED BY IDOCK:   10.10 KCAL/MOL
REMARK 924 INTRA-LIGAND FREE ENERGY PREDICTED BY IDOCK:    0.63 KCAL/MOL
REMARK 927      BINDING AFFINITY PREDICTED BY RF-SCORE:    0.00 PKD
ROOT
HETATM    1  C   UNL     1     -11.063  19.760  66.194  1.00  0.00    -0.059 C  
HETATM    2  C   UNL     1     -12.262  19.678  67.076  1.00  0.00     2.944 C  
HETATM    3  C   UNL     1     -10.923  20.014  67.757  1.00  0.00     0.129 C  
HETATM    4  O   UNL     1     -10.625  19.085  68.851  1.00  0.00    -0.003 OA 
HETATM    5  C   UNL     1      -9.626  19.263  69.795  1.00  0.00     0.370 C  
HETATM    6  N   UNL     1      -8.691  20.147  69.878  1.00  0.00     0.844 NA 
HETATM    7  O   UNL     1      -9.609  18.224  70.662  1.00  0.00     2.499 OA 
HETATM    8  H   UNL     1      -8.844  21.080  70.263  1.00  0.00     0.000 HD 
HETATM    9  H   UNL     1      -8.924  18.346  71.309  1.00  0.00     0.000 HD 
HETATM   10  C   UNL     1      -7.344  19.681  69.354  1.00  0.00    -0.194 C  
HETATM   11  C   UNL     1      -7.580  18.719  68.171  1.00  0.00    -0.272 C  
HETATM   12  N   UNL     1      -8.626  12.399  68.567  1.00  0.00    -0.112 NA 
HETATM   13  C   UNL     1      -9.474  11.371  68.523  1.00  0.00    -0.183 A  
HETATM   14  N   UNL     1      -7.942  17.387  68.465  1.00  0.00    -0.258 N  
HETATM   15  O   UNL     1      -7.579  19.138  67.006  1.00  0.00    -0.224 OA 
HETATM   16  C   UNL     1      -9.602  10.529  69.627  1.00  0.00    -0.062 A  
HETATM   17  C   UNL     1     -10.739  18.728  65.081  1.00  0.00     0.841 C  
HETATM   18  C   UNL     1      -6.867  16.506  67.978  1.00  0.00    -0.140 C  
HETATM   19  C   UNL     1      -7.493  15.403  67.135  1.00  0.00    -0.189 C  
HETATM   20  O   UNL     1      -7.700  14.235  67.879  1.00  0.00    -0.123 OA 
HETATM   21  C   UNL     1      -8.766  16.065  66.733  1.00  0.00    -0.287 C  
HETATM   22  C   UNL     1      -9.224  16.982  67.813  1.00  0.00    -0.236 C  
HETATM   23  C   UNL     1      -8.530  13.240  67.509  1.00  0.00    -0.202 A  
HETATM   24  C   UNL     1     -10.498   9.465  69.612  1.00  0.00    -0.223 A  
HETATM   25  C   UNL     1      -9.307  13.024  66.326  1.00  0.00    -0.140 A  
HETATM   26  C   UNL     1     -11.273   9.263  68.478  1.00  0.00     0.197 A  
HETATM   27  C   UNL     1      -9.363  13.850  65.024  1.00  0.00     0.924 C  
HETATM   28  C   UNL     1     -11.375  17.316  64.952  1.00  0.00     0.773 C  
HETATM   29  N   UNL     1     -10.172  11.973  66.297  1.00  0.00    -0.217 NA 
HETATM   30  C   UNL     1     -10.546  16.180  64.211  1.00  0.00     1.118 C  
HETATM   31  C   UNL     1     -10.679  14.731  64.832  1.00  0.00    -0.438 C  
HETATM   32  C   UNL     1     -10.264  11.154  67.371  1.00  0.00    -0.190 A  
HETATM   33  C   UNL     1     -11.153  10.099  67.366  1.00  0.00    -0.219 A  
ENDROOT
BRANCH  10  34
HETATM   34  C   UNL     1      -6.008  19.631  70.248  1.00  0.00    -0.310 C  
HETATM   35  C   UNL     1      -5.148  20.879  69.906  1.00  0.00    -0.408 C  
HETATM   36  C   UNL     1      -5.166  18.381  69.827  1.00  0.00    -0.195 C  
HETATM   37  C   UNL     1      -6.015  19.563  71.796  1.00  0.00    -0.034 C  
ENDBRANCH  10  34
BRANCH  22  38
HETATM   38  C   UNL     1     -10.553  16.322  68.459  1.00  0.00    -0.294 C  
HETATM   39  H   UNL     1     -12.429  16.714  68.788  1.00  0.00     0.000 HD 
HETATM   40  O   UNL     1     -11.649  17.102  68.409  1.00  0.00     0.172 OA 
BRANCH  38  41
HETATM   41  N   UNL     1     -10.556  15.198  69.110  1.00  0.00    -0.246 NA 
HETATM   42  H   UNL     1      -9.657  14.721  69.170  1.00  0.00     0.000 HD 
BRANCH  41  43
HETATM   43  C   UNL     1     -11.676  14.522  69.769  1.00  0.00    -0.303 C  
HETATM   44  C   UNL     1     -13.093  15.137  69.460  1.00  0.00     0.638 C  
HETATM   45  C   UNL     1     -12.644  13.852  68.797  1.00  0.00     0.461 C  
BRANCH  43  46
HETATM   46  C   UNL     1     -11.484  13.912  71.122  1.00  0.00     0.703 C  
HETATM   47  H   UNL     1     -10.885  14.436  72.870  1.00  0.00     0.000 HD 
HETATM   48  O   UNL     1     -11.006  14.823  72.011  1.00  0.00     0.239 OA 
BRANCH  46  49
HETATM   49  N   UNL     1     -11.707  12.674  71.339  1.00  0.00     0.660 N  
HETATM   50  H   UNL     1     -10.985  11.992  71.107  1.00  0.00     0.000 HD 
BRANCH  49  51
HETATM   51  S   UNL     1     -13.094  12.159  71.968  1.00  0.00    -0.210 S  
HETATM   52  O   UNL     1     -13.404  12.947  73.142  1.00  0.00     0.050 OA 
HETATM   53  O   UNL     1     -14.071  12.026  70.898  1.00  0.00     2.108 OA 
BRANCH  51  54
HETATM   54  C   UNL     1     -12.823  10.436  72.520  1.00  0.00     0.512 C  
HETATM   55  C   UNL     1     -14.023   9.683  72.863  1.00  0.00     0.346 C  
HETATM   56  C   UNL     1     -13.318   9.349  71.547  1.00  0.00    -0.458 C  
ENDBRANCH  51  54
ENDBRANCH  49  51
ENDBRANCH  46  49
ENDBRANCH  43  46
BRANCH  44  57
HETATM   57  C   UNL     1     -14.250  15.022  70.369  1.00  0.00     0.975 C  
HETATM   58  C   UNL     1     -14.379  15.586  71.592  1.00  0.00    -0.510 C  
ENDBRANCH  44  57
ENDBRANCH  41  43
ENDBRANCH  38  41
ENDBRANCH  22  38
BRANCH  24  59
HETATM   59  O   UNL     1     -10.709   8.571  70.623  1.00  0.00    -0.210 OA 
HETATM   60  C   UNL     1      -9.728   8.499  71.652  1.00  0.00    -0.252 C  
ENDBRANCH  24  59
TORSDOF 10
ENDMDL
MODEL       53
REMARK 921   NORMALIZED FREE ENERGY PREDICTED BY IDOCK:    8.95 KCAL/MOL
REMARK 922        TOTAL FREE ENERGY PREDICTED BY IDOCK:   11.52 KCAL/MOL
REMARK 923 INTER-LIGAND FREE ENERGY PREDICTED BY IDOCK:   -6.57 KCAL/MOL
REMARK 924 INTRA-LIGAND FREE ENERGY PREDICTED BY IDOCK:   18.09 KCAL/MOL
REMARK 927      BINDING AFFINITY PREDICTED BY RF-SCORE:    0.00 PKD
ROOT
HETATM    1  C   UNL     1      -8.030   8.649  64.661  1.00  0.00    -0.141 C  
HETATM    2  C   UNL     1      -6.671   9.210  64.903  1.00  0.00    -0.073 C  
HETATM    3  C   UNL     1      -7.425   8.668  66.131  1.00  0.00    -0.086 C  
HETATM    4  O   UNL     1      -7.527   9.676  67.191  1.00  0.00    -0.088 OA 
HETATM    5  C   UNL     1      -7.932   9.424  68.491  1.00  0.00    -0.093 C  
HETATM    6  N   UNL     1      -8.412   8.356  69.033  1.00  0.00    -0.122 NA 
HETATM    7  O   UNL     1      -7.923  10.566  69.216  1.00  0.00    -0.142 OA 
HETATM    8  H   UNL     1      -7.825   7.588  69.358  1.00  0.00     0.000 HD 
HETATM    9  H   UNL     1      -8.201  10.393  70.108  1.00  0.00     0.000 HD 
HETATM   10  C   UNL     1      -9.927   8.343  69.148  1.00  0.00    -0.196 C  
HETATM   11  C   UNL     1     -10.521   9.091  67.937  1.00  0.00    -0.234 C  
HETATM   12  N   UNL     1     -11.490  15.419  67.482  1.00  0.00    -0.281 NA 
HETATM   13  C   UNL     1     -11.114  16.606  67.006  1.00  0.00     0.145 A  
HETATM   14  N   UNL     1     -10.517  10.501  67.964  1.00  0.00    -0.184 N  
HETATM   15  O   UNL     1     -10.868   8.473  66.920  1.00  0.00    -0.190 OA 
HETATM   16  C   UNL     1     -10.820  17.645  67.887  1.00  0.00    -0.245 A  
HETATM   17  C   UNL     1      -9.096   9.328  63.760  1.00  0.00     0.027 C  
HETATM   18  C   UNL     1     -11.918  10.959  67.968  1.00  0.00     0.216 C  
HETATM   19  C   UNL     1     -12.085  12.007  66.876  1.00  0.00     0.215 C  
HETATM   20  O   UNL     1     -11.975  13.308  67.384  1.00  0.00    -0.363 OA 
HETATM   21  C   UNL     1     -10.952  11.641  65.979  1.00  0.00    -0.338 C  
HETATM   22  C   UNL     1      -9.822  11.099  66.784  1.00  0.00    -0.200 C  
HETATM   23  C   UNL     1     -11.738  14.398  66.627  1.00  0.00    -0.394 A  
HETATM   24  C   UNL     1     -10.403  18.885  67.414  1.00  0.00    -0.427 A  
HETATM   25  C   UNL     1     -11.632  14.582  65.212  1.00  0.00    -0.359 A  
HETATM   26  C   UNL     1     -10.274  19.066  66.044  1.00  0.00    -0.462 A  
HETATM   27  C   UNL     1     -11.856  13.568  64.070  1.00  0.00    -0.476 C  
HETATM   28  C   UNL     1      -9.059  10.807  63.283  1.00  0.00    -0.260 C  
HETATM   29  N   UNL     1     -11.243  15.799  64.740  1.00  0.00    -0.413 NA 
HETATM   30  C   UNL     1     -10.436  11.523  62.936  1.00  0.00    -0.114 C  
HETATM   31  C   UNL     1     -10.530  13.046  63.353  1.00  0.00     0.534 C  
HETATM   32  C   UNL     1     -10.984  16.801  65.612  1.00  0.00     0.004 A  
HETATM   33  C   UNL     1     -10.566  18.032  65.151  1.00  0.00     0.616 A  
ENDROOT
BRANCH  10  34
HETATM   34  C   UNL     1     -10.714   8.207  70.544  1.00  0.00    -0.233 C  
HETATM   35  C   UNL     1     -11.039   9.637  71.059  1.00  0.00    -0.438 C  
HETATM   36  C   UNL     1      -9.758   7.561  71.601  1.00  0.00    -0.184 C  
HETATM   37  C   UNL     1     -12.034   7.414  70.710  1.00  0.00    -0.261 C  
ENDBRANCH  10  34
BRANCH  22  38
HETATM   38  C   UNL     1      -8.634  12.196  66.727  1.00  0.00    -0.163 C  
HETATM   39  H   UNL     1      -8.354  14.117  66.630  1.00  0.00     0.000 HD 
HETATM   40  O   UNL     1      -9.051  13.474  66.664  1.00  0.00    -0.234 OA 
BRANCH  38  41
HETATM   41  N   UNL     1      -7.377  11.891  66.601  1.00  0.00    -0.372 NA 
HETATM   42  H   UNL     1      -7.041  11.795  65.643  1.00  0.00     0.000 HD 
BRANCH  41  43
HETATM   43  C   UNL     1      -6.378  11.667  67.648  1.00  0.00    -0.072 C  
HETATM   44  C   UNL     1      -6.165  10.159  68.047  1.00  0.00    -0.056 C  
HETATM   45  C   UNL     1      -5.160  10.878  67.172  1.00  0.00    -0.042 C  
BRANCH  43  46
HETATM   46  C   UNL     1      -6.192  12.685  68.728  1.00  0.00    -0.075 C  
HETATM   47  H   UNL     1      -5.009  13.026  70.203  1.00  0.00     0.000 HD 
HETATM   48  O   UNL     1      -5.127  12.380  69.517  1.00  0.00    -0.069 OA 
BRANCH  46  49
HETATM   49  N   UNL     1      -6.996  13.666  68.874  1.00  0.00    -0.109 N  
HETATM   50  H   UNL     1      -7.729  13.814  68.180  1.00  0.00     0.000 HD 
BRANCH  49  51
HETATM   51  S   UNL     1      -6.887  14.675  70.120  1.00  0.00     0.056 S  
HETATM   52  O   UNL     1      -8.216  14.951  70.626  1.00  0.00     0.993 OA 
HETATM   53  O   UNL     1      -5.848  14.197  71.019  1.00  0.00    -0.196 OA 
BRANCH  51  54
HETATM   54  C   UNL     1      -6.209  16.248  69.477  1.00  0.00    -0.186 C  
HETATM   55  C   UNL     1      -5.910  16.274  68.050  1.00  0.00    -0.128 C  
HETATM   56  C   UNL     1      -7.147  17.031  68.537  1.00  0.00    -0.202 C  
ENDBRANCH  51  54
ENDBRANCH  49  51
ENDBRANCH  46  49
ENDBRANCH  43  46
BRANCH  44  57
HETATM   57  C   UNL     1      -5.674   9.724  69.369  1.00  0.00    -0.034 C  
HETATM   58  C   UNL     1      -5.147   8.517  69.680  1.00  0.00    -0.030 C  
ENDBRANCH  44  57
ENDBRANCH  41  43
ENDBRANCH  38  41
ENDBRANCH  22  38
BRANCH  24  59
HETATM   59  O   UNL     1     -10.093  19.978  68.172  1.00  0.00    -0.413 OA 
HETATM   60  C   UNL     1      -9.092  20.860  67.675  1.00  0.00     0.001 C  
ENDBRANCH  24  59
TORSDOF 10
ENDMDL
MODEL       54
REMARK 921   NORMALIZED FREE ENERGY PREDICTED BY IDOCK:    9.11 KCAL/MOL
REMARK 922        TOTAL FREE ENERGY PREDICTED BY IDOCK:   11.78 KCAL/MOL
REMARK 923 INTER-LIGAND FREE ENERGY PREDICTED BY IDOCK:    8.96 KCAL/MOL
REMARK 924 INTRA-LIGAND FREE ENERGY PREDICTED BY IDOCK:    2.82 KCAL/MOL
REMARK 927      BINDING AFFINITY PREDICTED BY RF-SCORE:    0.00 PKD
ROOT
HETATM    1  C   UNL     1     -12.966  13.587  70.633  1.00  0.00    -0.096 C  
HETATM    2  C   UNL     1     -11.748  13.971  71.402  1.00  0.00     0.253 C  
HETATM    3  C   UNL     1     -11.757  14.314  69.901  1.00  0.00    -0.311 C  
HETATM    4  O   UNL     1     -10.587  13.758  69.213  1.00  0.00    -0.142 OA 
HETATM    5  C   UNL     1     -10.191  14.088  67.927  1.00  0.00    -0.240 C  
HETATM    6  N   UNL     1     -10.768  14.807  67.024  1.00  0.00    -0.294 NA 
HETATM    7  O   UNL     1      -9.079  13.397  67.586  1.00  0.00    -0.184 OA 
HETATM    8  H   UNL     1     -10.713  15.825  67.009  1.00  0.00     0.000 HD 
HETATM    9  H   UNL     1      -8.807  13.623  66.704  1.00  0.00     0.000 HD 
HETATM   10  C   UNL     1     -11.535  14.005  65.986  1.00  0.00    -0.338 C  
HETATM   11  C   UNL     1     -12.130  12.755  66.667  1.00  0.00    -0.246 C  
HETATM   12  N   UNL     1      -9.164   7.131  67.534  1.00  0.00    -0.125 NA 
HETATM   13  C   UNL     1      -8.533   6.278  68.343  1.00  0.00    -0.115 A  
HETATM   14  N   UNL     1     -11.273  11.659  66.900  1.00  0.00    -0.308 N  
HETATM   15  O   UNL     1     -13.286  12.767  67.111  1.00  0.00     1.964 OA 
HETATM   16  C   UNL     1      -7.235   5.869  68.044  1.00  0.00    -0.076 A  
HETATM   17  C   UNL     1     -13.675  12.214  70.772  1.00  0.00     1.811 C  
HETATM   18  C   UNL     1     -11.763  10.522  66.102  1.00  0.00     1.843 C  
HETATM   19  C   UNL     1     -11.875   9.307  67.013  1.00  0.00     3.982 C  
HETATM   20  O   UNL     1     -10.742   8.488  66.928  1.00  0.00    -0.265 OA 
HETATM   21  C   UNL     1     -12.004   9.978  68.337  1.00  0.00     0.972 C  
HETATM   22  C   UNL     1     -11.234  11.253  68.337  1.00  0.00    -0.262 C  
HETATM   23  C   UNL     1     -10.411   7.557  67.845  1.00  0.00    -0.204 A  
HETATM   24  C   UNL     1      -6.549   4.999  68.885  1.00  0.00    -0.048 A  
HETATM   25  C   UNL     1     -11.079   7.082  69.019  1.00  0.00    -0.074 A  
HETATM   26  C   UNL     1      -7.180   4.553  70.038  1.00  0.00    -0.050 A  
HETATM   27  C   UNL     1     -12.478   7.439  69.565  1.00  0.00     1.787 C  
HETATM   28  C   UNL     1     -13.058  10.944  71.420  1.00  0.00    -0.457 C  
HETATM   29  N   UNL     1     -10.421   6.216  69.838  1.00  0.00    -0.211 NA 
HETATM   30  C   UNL     1     -13.588   9.521  70.949  1.00  0.00    -0.049 C  
HETATM   31  C   UNL     1     -12.488   8.389  70.845  1.00  0.00     0.006 C  
HETATM   32  C   UNL     1      -9.169   5.814  69.517  1.00  0.00    -0.130 A  
HETATM   33  C   UNL     1      -8.481   4.955  70.349  1.00  0.00    -0.104 A  
ENDROOT
BRANCH  10  34
HETATM   34  C   UNL     1     -11.221  14.057  64.409  1.00  0.00    -0.318 C  
HETATM   35  C   UNL     1      -9.709  13.765  64.206  1.00  0.00     1.273 C  
HETATM   36  C   UNL     1     -11.466  15.515  63.895  1.00  0.00     0.401 C  
HETATM   37  C   UNL     1     -11.943  13.173  63.362  1.00  0.00    -0.552 C  
ENDBRANCH  10  34
BRANCH  22  38
HETATM   38  C   UNL     1      -9.967  11.039  69.321  1.00  0.00    -0.063 C  
HETATM   39  H   UNL     1      -8.670  12.051  70.357  1.00  0.00     0.000 HD 
HETATM   40  O   UNL     1      -9.413  12.177  69.779  1.00  0.00     1.444 OA 
BRANCH  38  41
HETATM   41  N   UNL     1      -9.418   9.883  69.549  1.00  0.00    -0.210 NA 
HETATM   42  H   UNL     1     -10.008   9.071  69.365  1.00  0.00     0.000 HD 
BRANCH  41  43
HETATM   43  C   UNL     1      -8.068   9.588  70.032  1.00  0.00    -0.167 C  
HETATM   44  C   UNL     1      -6.962   9.535  68.912  1.00  0.00    -0.063 C  
HETATM   45  C   UNL     1      -7.080  10.735  69.828  1.00  0.00    -0.126 C  
BRANCH  43  46
HETATM   46  C   UNL     1      -7.881   8.686  71.211  1.00  0.00    -0.128 C  
HETATM   47  H   UNL     1      -8.902   7.427  72.241  1.00  0.00     0.000 HD 
HETATM   48  O   UNL     1      -9.021   7.999  71.493  1.00  0.00    -0.130 OA 
BRANCH  46  49
HETATM   49  N   UNL     1      -6.784   8.648  71.862  1.00  0.00    -0.078 N  
HETATM   50  H   UNL     1      -5.911   8.509  71.354  1.00  0.00     0.000 HD 
BRANCH  49  51
HETATM   51  S   UNL     1      -6.739   8.814  73.460  1.00  0.00     0.178 S  
HETATM   52  O   UNL     1      -5.674   9.729  73.813  1.00  0.00    -0.325 OA 
HETATM   53  O   UNL     1      -8.092   9.046  73.944  1.00  0.00    -0.191 OA 
BRANCH  51  54
HETATM   54  C   UNL     1      -6.307   7.178  74.156  1.00  0.00    -0.077 C  
HETATM   55  C   UNL     1      -6.838   6.024  73.440  1.00  0.00    -0.080 C  
HETATM   56  C   UNL     1      -5.346   6.333  73.297  1.00  0.00    -0.036 C  
ENDBRANCH  51  54
ENDBRANCH  49  51
ENDBRANCH  46  49
ENDBRANCH  43  46
BRANCH  44  57
HETATM   57  C   UNL     1      -5.714   8.756  69.032  1.00  0.00    -0.040 C  
HETATM   58  C   UNL     1      -5.207   8.206  70.160  1.00  0.00    -0.023 C  
ENDBRANCH  44  57
ENDBRANCH  41  43
ENDBRANCH  38  41
ENDBRANCH  22  38
BRANCH  24  59
HETATM   59  O   UNL     1      -5.282   4.524  68.699  1.00  0.00    -0.006 OA 
HETATM   60  C   UNL     1      -5.141   3.152  68.343  1.00  0.00    -0.011 C  
ENDBRANCH  24  59
TORSDOF 10
ENDMDL
MODEL       55
REMARK 921   NORMALIZED FREE ENERGY PREDICTED BY IDOCK:    9.63 KCAL/MOL
REMARK 922        TOTAL FREE ENERGY PREDICTED BY IDOCK:   12.60 KCAL/MOL
REMARK 923 INTER-LIGAND FREE ENERGY PREDICTED BY IDOCK:   -1.76 KCAL/MOL
REMARK 924 INTRA-LIGAND FREE ENERGY PREDICTED BY IDOCK:   14.36 KCAL/MOL
REMARK 927      BINDING AFFINITY PREDICTED BY RF-SCORE:    0.00 PKD
ROOT
HETATM    1  C   UNL     1     -10.239   8.701  65.375  1.00  0.00     1.493 C  
HETATM    2  C   UNL     1      -8.782   8.388  65.392  1.00  0.00    -0.175 C  
HETATM    3  C   UNL     1      -9.561   8.137  66.697  1.00  0.00    -0.229 C  
HETATM    4  O   UNL     1      -8.955   8.839  67.832  1.00  0.00    -0.139 OA 
HETATM    5  C   UNL     1      -9.277   8.626  69.162  1.00  0.00    -0.152 C  
HETATM    6  N   UNL     1     -10.207   7.913  69.702  1.00  0.00    -0.202 NA 
HETATM    7  O   UNL     1      -8.543   9.437  69.959  1.00  0.00    -0.163 OA 
HETATM    8  H   UNL     1     -10.119   6.907  69.846  1.00  0.00     0.000 HD 
HETATM    9  H   UNL     1      -8.765   9.291  70.872  1.00  0.00     0.000 HD 
HETATM   10  C   UNL     1     -11.442   8.700  70.105  1.00  0.00    -0.005 C  
HETATM   11  C   UNL     1     -11.650   9.846  69.093  1.00  0.00     0.122 C  
HETATM   12  N   UNL     1      -8.943  15.660  69.331  1.00  0.00    -0.265 NA 
HETATM   13  C   UNL     1      -8.024  16.518  68.885  1.00  0.00    -0.239 A  
HETATM   14  N   UNL     1     -10.851  11.001  69.230  1.00  0.00    -0.230 N  
HETATM   15  O   UNL     1     -12.399   9.699  68.118  1.00  0.00     2.049 OA 
HETATM   16  C   UNL     1      -7.097  17.063  69.772  1.00  0.00     0.361 A  
HETATM   17  C   UNL     1     -10.835   9.992  64.752  1.00  0.00     1.538 C  
HETATM   18  C   UNL     1     -11.741  12.134  69.539  1.00  0.00    -0.336 C  
HETATM   19  C   UNL     1     -11.417  13.276  68.585  1.00  0.00    -0.304 C  
HETATM   20  O   UNL     1     -10.537  14.201  69.163  1.00  0.00    -0.227 OA 
HETATM   21  C   UNL     1     -10.799  12.516  67.461  1.00  0.00    -0.264 C  
HETATM   22  C   UNL     1     -10.084  11.321  67.989  1.00  0.00    -0.177 C  
HETATM   23  C   UNL     1      -9.820  15.101  68.462  1.00  0.00    -0.220 A  
HETATM   24  C   UNL     1      -6.114  17.941  69.326  1.00  0.00    -0.239 A  
HETATM   25  C   UNL     1      -9.794  15.440  67.071  1.00  0.00    -0.232 A  
HETATM   26  C   UNL     1      -6.066  18.256  67.975  1.00  0.00    -0.173 A  
HETATM   27  C   UNL     1     -10.680  14.922  65.919  1.00  0.00    -0.329 C  
HETATM   28  C   UNL     1     -10.031  11.272  64.394  1.00  0.00    -0.338 C  
HETATM   29  N   UNL     1      -8.846  16.313  66.631  1.00  0.00    -0.228 NA 
HETATM   30  C   UNL     1     -10.797  12.665  64.376  1.00  0.00    -0.386 C  
HETATM   31  C   UNL     1      -9.971  13.899  64.921  1.00  0.00    -0.173 C  
HETATM   32  C   UNL     1      -7.970  16.848  67.512  1.00  0.00    -0.170 A  
HETATM   33  C   UNL     1      -6.990  17.716  67.076  1.00  0.00    -0.209 A  
ENDROOT
BRANCH  10  34
HETATM   34  C   UNL     1     -12.000   8.773  71.612  1.00  0.00    -0.399 C  
HETATM   35  C   UNL     1     -10.789   8.952  72.569  1.00  0.00     0.079 C  
HETATM   36  C   UNL     1     -12.654   7.398  71.974  1.00  0.00    -0.262 C  
HETATM   37  C   UNL     1     -13.044   9.813  72.090  1.00  0.00    -0.513 C  
ENDBRANCH  10  34
BRANCH  22  38
HETATM   38  C   UNL     1      -8.501  11.593  67.789  1.00  0.00    -0.144 C  
HETATM   39  H   UNL     1      -7.183  11.889  66.391  1.00  0.00     0.000 HD 
HETATM   40  O   UNL     1      -8.112  11.729  66.508  1.00  0.00    -0.135 OA 
BRANCH  38  41
HETATM   41  N   UNL     1      -7.633  11.541  68.754  1.00  0.00    -0.133 NA 
HETATM   42  H   UNL     1      -7.237  12.437  69.039  1.00  0.00     0.000 HD 
BRANCH  41  43
HETATM   43  C   UNL     1      -7.147  10.372  69.489  1.00  0.00    -0.113 C  
HETATM   44  C   UNL     1      -6.386  10.703  70.828  1.00  0.00     0.070 C  
HETATM   45  C   UNL     1      -7.809  10.187  70.853  1.00  0.00     1.059 C  
BRANCH  43  46
HETATM   46  C   UNL     1      -6.701   9.156  68.741  1.00  0.00    -0.053 C  
HETATM   47  H   UNL     1      -5.498   8.698  67.315  1.00  0.00     0.000 HD 
HETATM   48  O   UNL     1      -5.781   9.470  67.790  1.00  0.00    -0.041 OA 
BRANCH  46  49
HETATM   49  N   UNL     1      -7.198   8.003  68.974  1.00  0.00    -0.076 N  
HETATM   50  H   UNL     1      -8.212   7.893  68.986  1.00  0.00     0.000 HD 
BRANCH  49  51
HETATM   51  S   UNL     1      -6.271   6.719  69.248  1.00  0.00    -0.027 S  
HETATM   52  O   UNL     1      -5.977   6.068  67.990  1.00  0.00    -0.012 OA 
HETATM   53  O   UNL     1      -5.189   7.107  70.141  1.00  0.00    -0.022 OA 
BRANCH  51  54
HETATM   54  C   UNL     1      -7.259   5.551  70.252  1.00  0.00    -0.067 C  
HETATM   55  C   UNL     1      -6.664   5.142  71.518  1.00  0.00    -0.050 C  
HETATM   56  C   UNL     1      -7.831   6.131  71.560  1.00  0.00    -0.102 C  
ENDBRANCH  51  54
ENDBRANCH  49  51
ENDBRANCH  46  49
ENDBRANCH  43  46
BRANCH  44  57
HETATM   57  C   UNL     1      -5.371   9.818  71.432  1.00  0.00    -0.072 C  
HETATM   58  C   UNL     1      -5.528   9.029  72.520  1.00  0.00    -0.072 C  
ENDBRANCH  44  57
ENDBRANCH  41  43
ENDBRANCH  38  41
ENDBRANCH  22  38
BRANCH  24  59
HETATM   59  O   UNL     1      -5.158  18.542  70.093  1.00  0.00    -0.186 OA 
HETATM   60  C   UNL     1      -5.450  19.835  70.612  1.00  0.00    -0.252 C  
ENDBRANCH  24  59
TORSDOF 10
ENDMDL
MODEL       56
REMARK 921   NORMALIZED FREE ENERGY PREDICTED BY IDOCK:   10.06 KCAL/MOL
REMARK 922        TOTAL FREE ENERGY PREDICTED BY IDOCK:   13.29 KCAL/MOL
REMARK 923 INTER-LIGAND FREE ENERGY PREDICTED BY IDOCK:    5.40 KCAL/MOL
REMARK 924 INTRA-LIGAND FREE ENERGY PREDICTED BY IDOCK:    7.88 KCAL/MOL
REMARK 927      BINDING AFFINITY PREDICTED BY RF-SCORE:    0.00 PKD
ROOT
HETATM    1  C   UNL     1      -9.496   9.815  63.814  1.00  0.00    -0.064 C  
HETATM    2  C   UNL     1      -8.371  10.598  63.227  1.00  0.00    -0.087 C  
HETATM    3  C   UNL     1      -8.047   9.737  64.462  1.00  0.00    -0.146 C  
HETATM    4  O   UNL     1      -7.437  10.534  65.531  1.00  0.00    -0.148 OA 
HETATM    5  C   UNL     1      -6.823  10.013  66.659  1.00  0.00    -0.082 C  
HETATM    6  N   UNL     1      -6.748   8.802  67.095  1.00  0.00    -0.065 NA 
HETATM    7  O   UNL     1      -6.369  11.013  67.450  1.00  0.00    -0.057 OA 
HETATM    8  H   UNL     1      -6.065   8.129  66.748  1.00  0.00     0.000 HD 
HETATM    9  H   UNL     1      -5.949  10.656  68.224  1.00  0.00     0.000 HD 
HETATM   10  C   UNL     1      -7.765   8.464  68.173  1.00  0.00    -0.103 C  
HETATM   11  C   UNL     1      -9.064   9.248  67.890  1.00  0.00    -0.127 C  
HETATM   12  N   UNL     1     -10.366  15.243  69.774  1.00  0.00    -0.264 NA 
HETATM   13  C   UNL     1     -10.477  16.540  69.483  1.00  0.00    -0.298 A  
HETATM   14  N   UNL     1      -9.106  10.610  68.257  1.00  0.00    -0.147 N  
HETATM   15  O   UNL     1      -9.986   8.732  67.244  1.00  0.00    -0.183 OA 
HETATM   16  C   UNL     1      -9.705  17.474  70.171  1.00  0.00     1.553 A  
HETATM   17  C   UNL     1     -10.918  10.391  64.045  1.00  0.00     1.344 C  
HETATM   18  C   UNL     1     -10.138  10.768  69.296  1.00  0.00    -0.177 C  
HETATM   19  C   UNL     1     -11.059  11.912  68.891  1.00  0.00    -0.247 C  
HETATM   20  O   UNL     1     -10.689  13.117  69.502  1.00  0.00     0.059 OA 
HETATM   21  C   UNL     1     -10.840  11.920  67.417  1.00  0.00    -0.289 C  
HETATM   22  C   UNL     1      -9.443  11.506  67.109  1.00  0.00    -0.177 C  
HETATM   23  C   UNL     1     -11.088  14.333  69.079  1.00  0.00    -0.259 A  
HETATM   24  C   UNL     1      -9.785  18.829  69.868  1.00  0.00     0.812 A  
HETATM   25  C   UNL     1     -11.995  14.744  68.049  1.00  0.00    -0.227 A  
HETATM   26  C   UNL     1     -10.643  19.234  68.855  1.00  0.00     0.234 A  
HETATM   27  C   UNL     1     -12.897  13.888  67.136  1.00  0.00     0.819 C  
HETATM   28  C   UNL     1     -11.288  11.901  64.049  1.00  0.00    -0.475 C  
HETATM   29  N   UNL     1     -12.093  16.071  67.759  1.00  0.00     0.502 NA 
HETATM   30  C   UNL     1     -12.556  12.365  64.888  1.00  0.00    -0.372 C  
HETATM   31  C   UNL     1     -12.407  13.758  65.623  1.00  0.00    -0.517 C  
HETATM   32  C   UNL     1     -11.352  16.963  68.456  1.00  0.00     0.021 A  
HETATM   33  C   UNL     1     -11.422  18.308  68.158  1.00  0.00     1.188 A  
ENDROOT
BRANCH  10  34
HETATM   34  C   UNL     1      -7.368   7.965  69.649  1.00  0.00    -0.090 C  
HETATM   35  C   UNL     1      -6.669   9.141  70.387  1.00  0.00    -0.058 C  
HETATM   36  C   UNL     1      -6.305   6.824  69.525  1.00  0.00    -0.042 C  
HETATM   37  C   UNL     1      -8.390   7.405  70.669  1.00  0.00    -0.127 C  
ENDBRANCH  10  34
BRANCH  22  38
HETATM   38  C   UNL     1      -8.673  12.817  66.556  1.00  0.00     0.025 C  
HETATM   39  H   UNL     1      -6.983  13.763  66.729  1.00  0.00     0.000 HD 
HETATM   40  O   UNL     1      -7.435  12.993  67.054  1.00  0.00    -0.045 OA 
BRANCH  38  41
HETATM   41  N   UNL     1      -9.232  13.720  65.808  1.00  0.00    -0.424 NA 
HETATM   42  H   UNL     1      -9.677  13.374  64.957  1.00  0.00     0.000 HD 
BRANCH  41  43
HETATM   43  C   UNL     1      -9.311  15.166  66.020  1.00  0.00    -0.291 C  
HETATM   44  C   UNL     1     -10.150  15.948  64.939  1.00  0.00     0.269 C  
HETATM   45  C   UNL     1     -10.725  15.666  66.311  1.00  0.00    -0.295 C  
BRANCH  43  46
HETATM   46  C   UNL     1      -8.156  15.892  66.634  1.00  0.00    -0.262 C  
HETATM   47  H   UNL     1      -6.888  17.254  66.156  1.00  0.00     0.000 HD 
HETATM   48  O   UNL     1      -7.622  16.793  65.766  1.00  0.00    -0.082 OA 
BRANCH  46  49
HETATM   49  N   UNL     1      -7.738  15.620  67.809  1.00  0.00    -0.134 N  
HETATM   50  H   UNL     1      -8.382  15.199  68.479  1.00  0.00     0.000 HD 
BRANCH  49  51
HETATM   51  S   UNL     1      -6.225  15.920  68.262  1.00  0.00    -0.120 S  
HETATM   52  O   UNL     1      -5.557  14.668  68.547  1.00  0.00    -0.089 OA 
HETATM   53  O   UNL     1      -5.637  16.867  67.327  1.00  0.00    -0.128 OA 
BRANCH  51  54
HETATM   54  C   UNL     1      -6.314  16.862  69.828  1.00  0.00    -0.157 C  
HETATM   55  C   UNL     1      -5.138  16.781  70.685  1.00  0.00    -0.230 C  
HETATM   56  C   UNL     1      -5.376  18.081  69.915  1.00  0.00    -0.217 C  
ENDBRANCH  51  54
ENDBRANCH  49  51
ENDBRANCH  46  49
ENDBRANCH  43  46
BRANCH  44  57
HETATM   57  C   UNL     1      -9.937  17.371  64.611  1.00  0.00     3.143 C  
HETATM   58  C   UNL     1     -10.613  18.429  65.117  1.00  0.00     0.822 C  
ENDBRANCH  44  57
ENDBRANCH  41  43
ENDBRANCH  38  41
ENDBRANCH  22  38
BRANCH  24  59
HETATM   59  O   UNL     1      -9.088  19.836  70.472  1.00  0.00     1.009 OA 
HETATM   60  C   UNL     1      -7.889  20.275  69.843  1.00  0.00     0.902 C  
ENDBRANCH  24  59
TORSDOF 10
ENDMDL
MODEL       57
REMARK 921   NORMALIZED FREE ENERGY PREDICTED BY IDOCK:   10.48 KCAL/MOL
REMARK 922        TOTAL FREE ENERGY PREDICTED BY IDOCK:   13.95 KCAL/MOL
REMARK 923 INTER-LIGAND FREE ENERGY PREDICTED BY IDOCK:   10.37 KCAL/MOL
REMARK 924 INTRA-LIGAND FREE ENERGY PREDICTED BY IDOCK:    3.57 KCAL/MOL
REMARK 927      BINDING AFFINITY PREDICTED BY RF-SCORE:    0.00 PKD
ROOT
HETATM    1  C   UNL     1     -12.731  14.165  71.268  1.00  0.00    -0.434 C  
HETATM    2  C   UNL     1     -11.436  14.403  71.967  1.00  0.00     0.643 C  
HETATM    3  C   UNL     1     -11.573  14.979  70.546  1.00  0.00    -0.298 C  
HETATM    4  O   UNL     1     -10.489  14.522  69.671  1.00  0.00    -0.136 OA 
HETATM    5  C   UNL     1     -10.203  15.045  68.420  1.00  0.00    -0.228 C  
HETATM    6  N   UNL     1     -10.839  15.906  67.700  1.00  0.00    -0.316 NA 
HETATM    7  O   UNL     1      -9.148  14.400  67.871  1.00  0.00    -0.176 OA 
HETATM    8  H   UNL     1     -10.755  16.914  67.839  1.00  0.00     0.000 HD 
HETATM    9  H   UNL     1      -8.952  14.759  67.014  1.00  0.00     0.000 HD 
HETATM   10  C   UNL     1     -11.722  15.291  66.628  1.00  0.00     0.057 C  
HETATM   11  C   UNL     1     -12.288  13.958  67.159  1.00  0.00    -0.210 C  
HETATM   12  N   UNL     1      -9.424   8.223  66.850  1.00  0.00    -0.172 NA 
HETATM   13  C   UNL     1      -8.748   7.243  67.452  1.00  0.00    -0.121 A  
HETATM   14  N   UNL     1     -11.446  12.826  67.135  1.00  0.00    -0.318 N  
HETATM   15  O   UNL     1     -13.398  13.917  67.708  1.00  0.00     2.373 OA 
HETATM   16  C   UNL     1      -7.495   6.868  66.970  1.00  0.00    -0.087 A  
HETATM   17  C   UNL     1     -13.465  12.797  71.258  1.00  0.00     0.168 C  
HETATM   18  C   UNL     1     -12.042  11.837  66.220  1.00  0.00     0.571 C  
HETATM   19  C   UNL     1     -12.106  10.495  66.937  1.00  0.00     2.862 C  
HETATM   20  O   UNL     1     -11.010   9.682  66.617  1.00  0.00    -0.005 OA 
HETATM   21  C   UNL     1     -12.092  10.950  68.356  1.00  0.00     0.074 C  
HETATM   22  C   UNL     1     -11.288  12.197  68.481  1.00  0.00    -0.275 C  
HETATM   23  C   UNL     1     -10.624   8.614  67.342  1.00  0.00    -0.228 A  
HETATM   24  C   UNL     1      -6.762   5.866  67.596  1.00  0.00    -0.058 A  
HETATM   25  C   UNL     1     -11.195   7.969  68.486  1.00  0.00     0.571 A  
HETATM   26  C   UNL     1      -7.297   5.252  68.720  1.00  0.00    -0.070 A  
HETATM   27  C   UNL     1     -12.527   8.256  69.211  1.00  0.00     3.151 C  
HETATM   28  C   UNL     1     -12.828  11.431  71.638  1.00  0.00    -0.497 C  
HETATM   29  N   UNL     1     -10.491   6.974  69.093  1.00  0.00    -0.201 NA 
HETATM   30  C   UNL     1     -13.443  10.109  71.004  1.00  0.00    -0.220 C  
HETATM   31  C   UNL     1     -12.391   8.992  70.620  1.00  0.00     0.046 C  
HETATM   32  C   UNL     1      -9.287   6.609  68.595  1.00  0.00    -0.129 A  
HETATM   33  C   UNL     1      -8.551   5.619  69.212  1.00  0.00    -0.106 A  
ENDROOT
BRANCH  10  34
HETATM   34  C   UNL     1     -11.553  15.587  65.056  1.00  0.00    -0.133 C  
HETATM   35  C   UNL     1     -10.089  15.255  64.655  1.00  0.00     0.373 C  
HETATM   36  C   UNL     1     -11.745  17.120  64.809  1.00  0.00     1.569 C  
HETATM   37  C   UNL     1     -12.426  14.926  63.961  1.00  0.00     0.026 C  
ENDBRANCH  10  34
BRANCH  22  38
HETATM   38  C   UNL     1      -9.943  11.811  69.294  1.00  0.00     0.309 C  
HETATM   39  H   UNL     1      -8.980  12.258  70.923  1.00  0.00     0.000 HD 
HETATM   40  O   UNL     1      -9.770  12.485  70.446  1.00  0.00     3.731 OA 
BRANCH  38  41
HETATM   41  N   UNL     1      -9.017  11.029  68.826  1.00  0.00    -0.223 NA 
HETATM   42  H   UNL     1      -9.284  10.051  68.709  1.00  0.00     0.000 HD 
BRANCH  41  43
HETATM   43  C   UNL     1      -7.643  11.360  68.443  1.00  0.00    -0.123 C  
HETATM   44  C   UNL     1      -6.721  11.828  69.631  1.00  0.00    -0.034 C  
HETATM   45  C   UNL     1      -6.596  10.433  69.057  1.00  0.00    -0.058 C  
BRANCH  43  46
HETATM   46  C   UNL     1      -7.369  11.956  67.098  1.00  0.00    -0.142 C  
HETATM   47  H   UNL     1      -6.061  13.086  66.260  1.00  0.00     0.000 HD 
HETATM   48  O   UNL     1      -6.235  12.707  67.113  1.00  0.00    -0.228 OA 
BRANCH  46  49
HETATM   49  N   UNL     1      -8.164  11.789  66.114  1.00  0.00    -0.380 N  
HETATM   50  H   UNL     1      -8.864  12.504  65.915  1.00  0.00     0.000 HD 
BRANCH  49  51
HETATM   51  S   UNL     1      -8.092  10.485  65.177  1.00  0.00    -0.064 S  
HETATM   52  O   UNL     1      -6.747   9.951  65.208  1.00  0.00    -0.093 OA 
HETATM   53  O   UNL     1      -9.227   9.627  65.484  1.00  0.00    -0.198 OA 
BRANCH  51  54
HETATM   54  C   UNL     1      -8.422  11.038  63.465  1.00  0.00     0.155 C  
HETATM   55  C   UNL     1      -9.759  10.758  62.954  1.00  0.00    -0.337 C  
HETATM   56  C   UNL     1      -9.424  12.202  63.332  1.00  0.00     0.200 C  
ENDBRANCH  51  54
ENDBRANCH  49  51
ENDBRANCH  46  49
ENDBRANCH  43  46
BRANCH  44  57
HETATM   57  C   UNL     1      -5.545  12.702  69.458  1.00  0.00    -0.089 C  
HETATM   58  C   UNL     1      -5.225  13.788  70.200  1.00  0.00    -0.096 C  
ENDBRANCH  44  57
ENDBRANCH  41  43
ENDBRANCH  38  41
ENDBRANCH  22  38
BRANCH  24  59
HETATM   59  O   UNL     1      -5.532   5.407  67.218  1.00  0.00    -0.011 OA 
HETATM   60  C   UNL     1      -5.399   4.897  65.895  1.00  0.00    -0.013 C  
ENDBRANCH  24  59
TORSDOF 10
ENDMDL
MODEL       58
REMARK 921   NORMALIZED FREE ENERGY PREDICTED BY IDOCK:   10.76 KCAL/MOL
REMARK 922        TOTAL FREE ENERGY PREDICTED BY IDOCK:   14.39 KCAL/MOL
REMARK 923 INTER-LIGAND FREE ENERGY PREDICTED BY IDOCK:    8.58 KCAL/MOL
REMARK 924 INTRA-LIGAND FREE ENERGY PREDICTED BY IDOCK:    5.81 KCAL/MOL
REMARK 927      BINDING AFFINITY PREDICTED BY RF-SCORE:    0.00 PKD
ROOT
HETATM    1  C   UNL     1      -8.926   9.334  62.806  1.00  0.00    -0.139 C  
HETATM    2  C   UNL     1      -7.646  10.071  62.606  1.00  0.00    -0.136 C  
HETATM    3  C   UNL     1      -7.709   9.104  63.802  1.00  0.00    -0.119 C  
HETATM    4  O   UNL     1      -7.366   9.776  65.059  1.00  0.00    -0.115 OA 
HETATM    5  C   UNL     1      -7.105   9.134  66.258  1.00  0.00    -0.087 C  
HETATM    6  N   UNL     1      -7.213   7.893  66.592  1.00  0.00    -0.082 NA 
HETATM    7  O   UNL     1      -6.827  10.039  67.225  1.00  0.00    -0.080 OA 
HETATM    8  H   UNL     1      -6.498   7.197  66.378  1.00  0.00     0.000 HD 
HETATM    9  H   UNL     1      -6.648   9.598  68.048  1.00  0.00     0.000 HD 
HETATM   10  C   UNL     1      -8.497   7.556  67.331  1.00  0.00    -0.115 C  
HETATM   11  C   UNL     1      -9.630   8.451  66.788  1.00  0.00    -0.219 C  
HETATM   12  N   UNL     1     -11.072  14.379  68.781  1.00  0.00    -0.246 NA 
HETATM   13  C   UNL     1     -11.032  15.698  68.585  1.00  0.00    -0.294 A  
HETATM   14  N   UNL     1      -9.697   9.784  67.248  1.00  0.00    -0.163 N  
HETATM   15  O   UNL     1     -10.371   8.051  65.880  1.00  0.00     0.515 OA 
HETATM   16  C   UNL     1     -10.424  16.521  69.531  1.00  0.00    -0.298 A  
HETATM   17  C   UNL     1     -10.327   9.995  62.706  1.00  0.00     1.397 C  
HETATM   18  C   UNL     1     -10.959   9.944  67.990  1.00  0.00    -0.213 C  
HETATM   19  C   UNL     1     -11.677  11.178  67.459  1.00  0.00    -0.015 C  
HETATM   20  O   UNL     1     -11.421  12.307  68.248  1.00  0.00    -0.267 OA 
HETATM   21  C   UNL     1     -11.071  11.274  66.101  1.00  0.00    -0.207 C  
HETATM   22  C   UNL     1      -9.667  10.780  66.135  1.00  0.00    -0.207 C  
HETATM   23  C   UNL     1     -11.628  13.575  67.843  1.00  0.00    -0.342 A  
HETATM   24  C   UNL     1     -10.349  17.897  69.336  1.00  0.00     0.123 A  
HETATM   25  C   UNL     1     -12.204  14.124  66.653  1.00  0.00    -0.418 A  
HETATM   26  C   UNL     1     -10.883  18.435  68.173  1.00  0.00    -0.081 A  
HETATM   27  C   UNL     1     -12.872  13.403  65.463  1.00  0.00    -0.361 C  
HETATM   28  C   UNL     1     -10.604  11.524  62.745  1.00  0.00     0.167 C  
HETATM   29  N   UNL     1     -12.151  15.471  66.464  1.00  0.00     0.570 NA 
HETATM   30  C   UNL     1     -12.024  12.021  63.259  1.00  0.00    -0.477 C  
HETATM   31  C   UNL     1     -12.004  13.344  64.127  1.00  0.00    -0.505 C  
HETATM   32  C   UNL     1     -11.577  16.255  67.406  1.00  0.00     0.384 A  
HETATM   33  C   UNL     1     -11.495  17.620  67.218  1.00  0.00     0.937 A  
ENDROOT
BRANCH  10  34
HETATM   34  C   UNL     1      -8.535   6.927  68.811  1.00  0.00    -0.121 C  
HETATM   35  C   UNL     1      -7.444   7.629  69.665  1.00  0.00    -0.091 C  
HETATM   36  C   UNL     1      -8.130   5.417  68.726  1.00  0.00    -0.087 C  
HETATM   37  C   UNL     1      -9.799   6.918  69.706  1.00  0.00    -0.177 C  
ENDBRANCH  10  34
BRANCH  22  38
HETATM   38  C   UNL     1      -8.709  12.066  65.920  1.00  0.00     0.207 C  
HETATM   39  H   UNL     1      -7.302  12.725  64.751  1.00  0.00     0.000 HD 
HETATM   40  O   UNL     1      -7.864  11.969  64.877  1.00  0.00     1.910 OA 
BRANCH  38  41
HETATM   41  N   UNL     1      -8.637  13.059  66.755  1.00  0.00    -0.412 NA 
HETATM   42  H   UNL     1      -9.513  13.317  67.210  1.00  0.00     0.000 HD 
BRANCH  41  43
HETATM   43  C   UNL     1      -7.469  13.858  67.132  1.00  0.00     0.121 C  
HETATM   44  C   UNL     1      -6.908  13.568  68.575  1.00  0.00    -0.099 C  
HETATM   45  C   UNL     1      -6.204  13.029  67.347  1.00  0.00    -0.082 C  
BRANCH  43  46
HETATM   46  C   UNL     1      -7.329  15.257  66.620  1.00  0.00     0.620 C  
HETATM   47  H   UNL     1      -6.777  16.159  65.017  1.00  0.00     0.000 HD 
HETATM   48  O   UNL     1      -6.866  15.271  65.341  1.00  0.00     6.162 OA 
BRANCH  46  49
HETATM   49  N   UNL     1      -7.576  16.270  67.356  1.00  0.00    -0.142 N  
HETATM   50  H   UNL     1      -8.302  16.200  68.069  1.00  0.00     0.000 HD 
BRANCH  49  51
HETATM   51  S   UNL     1      -6.776  17.655  67.192  1.00  0.00    -0.174 S  
HETATM   52  O   UNL     1      -6.699  18.314  68.478  1.00  0.00    -0.221 OA 
HETATM   53  O   UNL     1      -5.565  17.405  66.425  1.00  0.00    -0.184 OA 
BRANCH  51  54
HETATM   54  C   UNL     1      -7.773  18.720  66.088  1.00  0.00    -0.247 C  
HETATM   55  C   UNL     1      -8.999  19.258  66.663  1.00  0.00    -0.369 C  
HETATM   56  C   UNL     1      -7.816  20.211  66.479  1.00  0.00    -0.317 C  
ENDBRANCH  51  54
ENDBRANCH  49  51
ENDBRANCH  46  49
ENDBRANCH  43  46
BRANCH  44  57
HETATM   57  C   UNL     1      -6.150  14.552  69.371  1.00  0.00    -0.106 C  
HETATM   58  C   UNL     1      -6.208  15.900  69.262  1.00  0.00    -0.146 C  
ENDBRANCH  44  57
ENDBRANCH  41  43
ENDBRANCH  38  41
ENDBRANCH  22  38
BRANCH  24  59
HETATM   59  O   UNL     1      -9.787  18.805  70.187  1.00  0.00     0.743 OA 
HETATM   60  C   UNL     1      -8.390  18.692  70.440  1.00  0.00     2.882 C  
ENDBRANCH  24  59
TORSDOF 10
ENDMDL
MODEL       59
REMARK 921   NORMALIZED FREE ENERGY PREDICTED BY IDOCK:   12.62 KCAL/MOL
REMARK 922        TOTAL FREE ENERGY PREDICTED BY IDOCK:   17.35 KCAL/MOL
REMARK 923 INTER-LIGAND FREE ENERGY PREDICTED BY IDOCK:   14.38 KCAL/MOL
REMARK 924 INTRA-LIGAND FREE ENERGY PREDICTED BY IDOCK:    2.97 KCAL/MOL
REMARK 927      BINDING AFFINITY PREDICTED BY RF-SCORE:    0.00 PKD
ROOT
HETATM    1  C   UNL     1      -7.155   3.471  69.061  1.00  0.00    -0.049 C  
HETATM    2  C   UNL     1      -5.807   4.096  68.947  1.00  0.00    -0.022 C  
HETATM    3  C   UNL     1      -6.646   4.475  70.182  1.00  0.00    -0.036 C  
HETATM    4  O   UNL     1      -6.803   5.928  70.302  1.00  0.00    -0.050 OA 
HETATM    5  C   UNL     1      -7.294   6.584  71.419  1.00  0.00    -0.084 C  
HETATM    6  N   UNL     1      -7.822   6.125  72.503  1.00  0.00    -0.103 NA 
HETATM    7  O   UNL     1      -7.317   7.920  71.207  1.00  0.00    -0.063 OA 
HETATM    8  H   UNL     1      -7.266   5.782  73.287  1.00  0.00     0.000 HD 
HETATM    9  H   UNL     1      -7.655   8.370  71.973  1.00  0.00     0.000 HD 
HETATM   10  C   UNL     1      -9.341   6.141  72.512  1.00  0.00    -0.140 C  
HETATM   11  C   UNL     1      -9.846   5.882  71.078  1.00  0.00    -0.182 C  
HETATM   12  N   UNL     1     -10.703  10.297  66.500  1.00  0.00    -0.133 NA 
HETATM   13  C   UNL     1     -10.283  10.887  65.379  1.00  0.00    -0.277 A  
HETATM   14  N   UNL     1      -9.826   6.959  70.166  1.00  0.00    -0.177 N  
HETATM   15  O   UNL     1     -10.134   4.736  70.706  1.00  0.00    -0.225 OA 
HETATM   16  C   UNL     1     -10.033  12.258  65.369  1.00  0.00    -0.264 A  
HETATM   17  C   UNL     1      -8.152   3.350  67.876  1.00  0.00    -0.082 C  
HETATM   18  C   UNL     1     -11.218   7.258  69.787  1.00  0.00    -0.126 C  
HETATM   19  C   UNL     1     -11.301   7.318  68.267  1.00  0.00     0.448 C  
HETATM   20  O   UNL     1     -11.208   8.633  67.794  1.00  0.00     0.203 OA 
HETATM   21  C   UNL     1     -10.118   6.488  67.903  1.00  0.00    -0.170 C  
HETATM   22  C   UNL     1      -9.049   6.651  68.928  1.00  0.00    -0.132 C  
HETATM   23  C   UNL     1     -10.909   8.959  66.521  1.00  0.00     0.423 A  
HETATM   24  C   UNL     1      -9.571  12.889  64.219  1.00  0.00     0.446 A  
HETATM   25  C   UNL     1     -10.710   8.166  65.345  1.00  0.00     4.324 A  
HETATM   26  C   UNL     1      -9.351  12.124  63.081  1.00  0.00     0.542 A  
HETATM   27  C   UNL     1     -10.873   6.644  65.149  1.00  0.00     4.835 C  
HETATM   28  C   UNL     1      -8.066   4.146  66.544  1.00  0.00    -0.101 C  
HETATM   29  N   UNL     1     -10.275   8.780  64.211  1.00  0.00     3.378 NA 
HETATM   30  C   UNL     1      -9.408   4.408  65.734  1.00  0.00    -0.162 C  
HETATM   31  C   UNL     1      -9.510   5.822  65.033  1.00  0.00     0.514 C  
HETATM   32  C   UNL     1     -10.061  10.116  64.215  1.00  0.00     0.040 A  
HETATM   33  C   UNL     1      -9.598  10.749  63.080  1.00  0.00    -0.381 A  
ENDROOT
BRANCH  10  34
HETATM   34  C   UNL     1     -10.218   6.935  73.601  1.00  0.00    -0.372 C  
HETATM   35  C   UNL     1      -9.251   7.767  74.490  1.00  0.00     0.413 C  
HETATM   36  C   UNL     1     -10.908   5.896  74.547  1.00  0.00     0.611 C  
HETATM   37  C   UNL     1     -11.362   7.912  73.233  1.00  0.00     0.091 C  
ENDBRANCH  10  34
BRANCH  22  38
HETATM   38  C   UNL     1      -7.846   7.475  68.227  1.00  0.00    -0.122 C  
HETATM   39  H   UNL     1      -7.052   7.800  66.482  1.00  0.00     0.000 HD 
HETATM   40  O   UNL     1      -7.758   7.316  66.893  1.00  0.00    -0.105 OA 
BRANCH  38  41
HETATM   41  N   UNL     1      -6.936   8.125  68.889  1.00  0.00    -0.061 NA 
HETATM   42  H   UNL     1      -6.302   7.552  69.446  1.00  0.00     0.000 HD 
BRANCH  41  43
HETATM   43  C   UNL     1      -6.696   9.569  68.943  1.00  0.00    -0.051 C  
HETATM   44  C   UNL     1      -6.197  10.104  70.337  1.00  0.00    -0.112 C  
HETATM   45  C   UNL     1      -5.233   9.937  69.181  1.00  0.00    -0.036 C  
BRANCH  43  46
HETATM   46  C   UNL     1      -7.542  10.494  68.127  1.00  0.00    -0.091 C  
HETATM   47  H   UNL     1      -7.774  10.993  66.286  1.00  0.00     0.000 HD 
HETATM   48  O   UNL     1      -7.237  10.405  66.804  1.00  0.00    -0.100 OA 
BRANCH  46  49
HETATM   49  N   UNL     1      -8.390  11.282  68.666  1.00  0.00    -0.167 N  
HETATM   50  H   UNL     1      -9.164  10.887  69.200  1.00  0.00     0.000 HD 
BRANCH  49  51
HETATM   51  S   UNL     1      -8.273  12.879  68.526  1.00  0.00    -0.003 S  
HETATM   52  O   UNL     1      -7.118  13.337  69.268  1.00  0.00    -0.047 OA 
HETATM   53  O   UNL     1      -8.431  13.237  67.124  1.00  0.00    -0.201 OA 
BRANCH  51  54
HETATM   54  C   UNL     1      -9.756  13.595  69.323  1.00  0.00     0.492 C  
HETATM   55  C   UNL     1      -9.871  15.047  69.261  1.00  0.00    -0.200 C  
HETATM   56  C   UNL     1     -10.785  14.216  68.358  1.00  0.00    -0.264 C  
ENDBRANCH  51  54
ENDBRANCH  49  51
ENDBRANCH  46  49
ENDBRANCH  43  46
BRANCH  44  57
HETATM   57  C   UNL     1      -6.407  11.487  70.805  1.00  0.00     0.586 C  
HETATM   58  C   UNL     1      -5.461  12.442  70.965  1.00  0.00    -0.116 C  
ENDBRANCH  44  57
ENDBRANCH  41  43
ENDBRANCH  38  41
ENDBRANCH  22  38
BRANCH  24  59
HETATM   59  O   UNL     1      -9.296  14.220  64.081  1.00  0.00     1.864 OA 
HETATM   60  C   UNL     1     -10.202  15.143  64.676  1.00  0.00     0.175 C  
ENDBRANCH  24  59
TORSDOF 10
ENDMDL
MODEL       60
REMARK 921   NORMALIZED FREE ENERGY PREDICTED BY IDOCK:   12.91 KCAL/MOL
REMARK 922        TOTAL FREE ENERGY PREDICTED BY IDOCK:   17.80 KCAL/MOL
REMARK 923 INTER-LIGAND FREE ENERGY PREDICTED BY IDOCK:   15.35 KCAL/MOL
REMARK 924 INTRA-LIGAND FREE ENERGY PREDICTED BY IDOCK:    2.44 KCAL/MOL
REMARK 927      BINDING AFFINITY PREDICTED BY RF-SCORE:    0.00 PKD
ROOT
HETATM    1  C   UNL     1     -12.387  13.236  71.765  1.00  0.00     0.093 C  
HETATM    2  C   UNL     1     -11.044  13.520  72.346  1.00  0.00     5.148 C  
HETATM    3  C   UNL     1     -11.351  14.145  70.972  1.00  0.00     0.448 C  
HETATM    4  O   UNL     1     -10.336  13.787  69.977  1.00  0.00     0.671 OA 
HETATM    5  C   UNL     1     -10.203  14.375  68.729  1.00  0.00    -0.239 C  
HETATM    6  N   UNL     1     -10.952  15.227  68.114  1.00  0.00    -0.280 NA 
HETATM    7  O   UNL     1      -9.175  13.815  68.052  1.00  0.00    -0.182 OA 
HETATM    8  H   UNL     1     -10.908  16.231  68.290  1.00  0.00     0.000 HD 
HETATM    9  H   UNL     1      -9.084  14.219  67.197  1.00  0.00     0.000 HD 
HETATM   10  C   UNL     1     -11.903  14.606  67.105  1.00  0.00    -0.345 C  
HETATM   11  C   UNL     1     -12.342  13.222  67.626  1.00  0.00     0.052 C  
HETATM   12  N   UNL     1      -9.222   7.678  66.780  1.00  0.00    -0.151 NA 
HETATM   13  C   UNL     1      -8.438   6.716  67.268  1.00  0.00    -0.120 A  
HETATM   14  N   UNL     1     -11.448  12.143  67.470  1.00  0.00    -0.321 N  
HETATM   15  O   UNL     1     -13.388  13.095  68.278  1.00  0.00     2.593 OA 
HETATM   16  C   UNL     1      -7.221   6.433  66.651  1.00  0.00    -0.077 A  
HETATM   17  C   UNL     1     -13.045  11.831  71.762  1.00  0.00    -0.480 C  
HETATM   18  C   UNL     1     -12.077  11.159  66.572  1.00  0.00     1.726 C  
HETATM   19  C   UNL     1     -11.999   9.787  67.229  1.00  0.00     3.478 C  
HETATM   20  O   UNL     1     -10.898   9.053  66.768  1.00  0.00    -0.116 OA 
HETATM   21  C   UNL     1     -11.869  10.185  68.660  1.00  0.00     0.288 C  
HETATM   22  C   UNL     1     -11.124  11.470  68.764  1.00  0.00    -0.233 C  
HETATM   23  C   UNL     1     -10.387   7.979  67.403  1.00  0.00    -0.284 A  
HETATM   24  C   UNL     1      -6.377   5.450  67.156  1.00  0.00    -0.039 A  
HETATM   25  C   UNL     1     -10.806   7.257  68.565  1.00  0.00    -0.060 A  
HETATM   26  C   UNL     1      -6.765   4.761  68.297  1.00  0.00    -0.050 A  
HETATM   27  C   UNL     1     -12.073   7.437  69.428  1.00  0.00     1.138 C  
HETATM   28  C   UNL     1     -12.302  10.489  72.016  1.00  0.00     0.079 C  
HETATM   29  N   UNL     1      -9.994   6.281  69.055  1.00  0.00    -0.141 NA 
HETATM   30  C   UNL     1     -12.904   9.161  71.384  1.00  0.00    -0.376 C  
HETATM   31  C   UNL     1     -11.838   8.122  70.849  1.00  0.00    -0.232 C  
HETATM   32  C   UNL     1      -8.827   6.006  68.427  1.00  0.00    -0.112 A  
HETATM   33  C   UNL     1      -7.982   5.036  68.925  1.00  0.00    -0.081 A  
ENDROOT
BRANCH  10  34
HETATM   34  C   UNL     1     -11.906  14.975  65.540  1.00  0.00    -0.071 C  
HETATM   35  C   UNL     1     -13.332  14.710  64.982  1.00  0.00     0.906 C  
HETATM   36  C   UNL     1     -10.946  13.993  64.790  1.00  0.00    -0.410 C  
HETATM   37  C   UNL     1     -11.513  16.367  64.986  1.00  0.00     0.118 C  
ENDBRANCH  10  34
BRANCH  22  38
HETATM   38  C   UNL     1      -9.686  11.129  69.424  1.00  0.00     0.175 C  
HETATM   39  H   UNL     1      -8.581  11.584  70.958  1.00  0.00     0.000 HD 
HETATM   40  O   UNL     1      -9.425  11.785  70.570  1.00  0.00     3.527 OA 
BRANCH  38  41
HETATM   41  N   UNL     1      -8.780  10.401  68.843  1.00  0.00    -0.148 NA 
HETATM   42  H   UNL     1      -8.842   9.398  69.018  1.00  0.00     0.000 HD 
BRANCH  41  43
HETATM   43  C   UNL     1      -7.683  10.825  67.972  1.00  0.00    -0.101 C  
HETATM   44  C   UNL     1      -7.625  10.094  66.578  1.00  0.00    -0.109 C  
HETATM   45  C   UNL     1      -8.149  11.511  66.689  1.00  0.00    -0.139 C  
BRANCH  43  46
HETATM   46  C   UNL     1      -6.376  11.243  68.571  1.00  0.00    -0.047 C  
HETATM   47  H   UNL     1      -4.516  10.782  68.441  1.00  0.00     0.000 HD 
HETATM   48  O   UNL     1      -5.345  10.517  68.061  1.00  0.00    -0.038 OA 
BRANCH  46  49
HETATM   49  N   UNL     1      -6.308  12.136  69.481  1.00  0.00    -0.120 N  
HETATM   50  H   UNL     1      -6.274  11.846  70.458  1.00  0.00     0.000 HD 
BRANCH  49  51
HETATM   51  S   UNL     1      -6.276  13.704  69.130  1.00  0.00    -0.104 S  
HETATM   52  O   UNL     1      -5.344  13.928  68.045  1.00  0.00    -0.106 OA 
HETATM   53  O   UNL     1      -7.644  14.188  69.030  1.00  0.00    -0.120 OA 
BRANCH  51  54
HETATM   54  C   UNL     1      -5.619  14.568  70.602  1.00  0.00    -0.154 C  
HETATM   55  C   UNL     1      -6.487  14.575  71.774  1.00  0.00     0.857 C  
HETATM   56  C   UNL     1      -5.263  13.657  71.794  1.00  0.00    -0.195 C  
ENDBRANCH  51  54
ENDBRANCH  49  51
ENDBRANCH  46  49
ENDBRANCH  43  46
BRANCH  44  57
HETATM   57  C   UNL     1      -6.387   9.926  65.793  1.00  0.00    -0.084 C  
HETATM   58  C   UNL     1      -6.180   9.048  64.785  1.00  0.00    -0.066 C  
ENDBRANCH  44  57
ENDBRANCH  41  43
ENDBRANCH  38  41
ENDBRANCH  22  38
BRANCH  24  59
HETATM   59  O   UNL     1      -5.168   5.078  66.641  1.00  0.00    -0.008 OA 
HETATM   60  C   UNL     1      -5.174   4.209  65.513  1.00  0.00    -0.009 C  
ENDBRANCH  24  59
TORSDOF 10
ENDMDL
MODEL       61
REMARK 921   NORMALIZED FREE ENERGY PREDICTED BY IDOCK:   13.15 KCAL/MOL
REMARK 922        TOTAL FREE ENERGY PREDICTED BY IDOCK:   18.18 KCAL/MOL
REMARK 923 INTER-LIGAND FREE ENERGY PREDICTED BY IDOCK:   16.97 KCAL/MOL
REMARK 924 INTRA-LIGAND FREE ENERGY PREDICTED BY IDOCK:    1.21 KCAL/MOL
REMARK 927      BINDING AFFINITY PREDICTED BY RF-SCORE:    0.00 PKD
ROOT
HETATM    1  C   UNL     1     -12.869  14.672  66.453  1.00  0.00     0.652 C  
HETATM    2  C   UNL     1     -13.597  13.378  66.321  1.00  0.00     3.272 C  
HETATM    3  C   UNL     1     -13.690  14.091  67.683  1.00  0.00     7.225 C  
HETATM    4  O   UNL     1     -13.269  13.215  68.781  1.00  0.00     1.964 OA 
HETATM    5  C   UNL     1     -13.462  13.481  70.128  1.00  0.00     1.297 C  
HETATM    6  N   UNL     1     -13.904  14.535  70.725  1.00  0.00    -0.400 NA 
HETATM    7  O   UNL     1     -12.955  12.478  70.881  1.00  0.00    -0.145 OA 
HETATM    8  H   UNL     1     -14.899  14.740  70.823  1.00  0.00     0.000 HD 
HETATM    9  H   UNL     1     -13.087  12.661  71.804  1.00  0.00     0.000 HD 
HETATM   10  C   UNL     1     -12.816  15.444  71.272  1.00  0.00    -0.452 C  
HETATM   11  C   UNL     1     -11.598  15.380  70.327  1.00  0.00    -0.320 C  
HETATM   12  N   UNL     1      -6.862  11.054  70.524  1.00  0.00    -0.065 NA 
HETATM   13  C   UNL     1      -6.285   9.959  70.027  1.00  0.00    -0.065 A  
HETATM   14  N   UNL     1     -10.740  14.266  70.431  1.00  0.00     0.386 N  
HETATM   15  O   UNL     1     -11.457  16.213  69.422  1.00  0.00    -0.328 OA 
HETATM   16  C   UNL     1      -6.093   8.845  70.841  1.00  0.00    -0.044 A  
HETATM   17  C   UNL     1     -11.424  14.904  65.937  1.00  0.00    -0.276 C  
HETATM   18  C   UNL     1      -9.418  14.750  70.864  1.00  0.00     2.235 C  
HETATM   19  C   UNL     1      -8.363  14.177  69.927  1.00  0.00     1.157 C  
HETATM   20  O   UNL     1      -7.775  13.019  70.453  1.00  0.00     2.205 OA 
HETATM   21  C   UNL     1      -9.197  13.904  68.723  1.00  0.00    -0.013 C  
HETATM   22  C   UNL     1     -10.581  13.538  69.136  1.00  0.00    -0.024 C  
HETATM   23  C   UNL     1      -7.083  12.123  69.722  1.00  0.00     0.447 A  
HETATM   24  C   UNL     1      -5.516   7.684  70.338  1.00  0.00    -0.023 A  
HETATM   25  C   UNL     1      -6.679  12.108  68.349  1.00  0.00    -0.062 A  
HETATM   26  C   UNL     1      -5.144   7.651  69.001  1.00  0.00    -0.018 A  
HETATM   27  C   UNL     1      -6.840  13.195  67.266  1.00  0.00    -0.001 C  
HETATM   28  C   UNL     1     -10.415  13.785  65.553  1.00  0.00    -0.327 C  
HETATM   29  N   UNL     1      -6.097  10.981  67.853  1.00  0.00    -0.049 NA 
HETATM   30  C   UNL     1      -8.861  14.101  65.659  1.00  0.00     1.158 C  
HETATM   31  C   UNL     1      -7.961  12.904  66.169  1.00  0.00     1.352 C  
HETATM   32  C   UNL     1      -5.898   9.918  68.667  1.00  0.00    -0.038 A  
HETATM   33  C   UNL     1      -5.331   8.762  68.174  1.00  0.00    -0.035 A  
ENDROOT
BRANCH  10  34
HETATM   34  C   UNL     1     -12.678  15.834  72.826  1.00  0.00    -0.553 C  
HETATM   35  C   UNL     1     -12.078  14.616  73.581  1.00  0.00    -0.244 C  
HETATM   36  C   UNL     1     -14.109  16.062  73.417  1.00  0.00     0.485 C  
HETATM   37  C   UNL     1     -11.873  17.056  73.335  1.00  0.00     0.124 C  
ENDBRANCH  10  34
BRANCH  22  38
HETATM   38  C   UNL     1     -10.773  11.967  68.798  1.00  0.00    -0.220 C  
HETATM   39  H   UNL     1     -11.715  10.389  69.433  1.00  0.00     0.000 HD 
HETATM   40  O   UNL     1     -11.602  11.311  69.631  1.00  0.00    -0.271 OA 
BRANCH  38  41
HETATM   41  N   UNL     1     -10.085  11.334  67.896  1.00  0.00    -0.174 NA 
HETATM   42  H   UNL     1      -9.805  11.887  67.086  1.00  0.00     0.000 HD 
BRANCH  41  43
HETATM   43  C   UNL     1      -9.657   9.934  67.884  1.00  0.00    -0.138 C  
HETATM   44  C   UNL     1     -10.200   9.087  66.672  1.00  0.00    -0.333 C  
HETATM   45  C   UNL     1      -8.767   9.576  66.695  1.00  0.00    -0.146 C  
BRANCH  43  46
HETATM   46  C   UNL     1      -9.449   9.209  69.176  1.00  0.00    -0.156 C  
HETATM   47  H   UNL     1      -8.315   7.835  69.894  1.00  0.00     0.000 HD 
HETATM   48  O   UNL     1      -8.447   8.295  69.074  1.00  0.00    -0.128 OA 
BRANCH  46  49
HETATM   49  N   UNL     1     -10.186   9.426  70.196  1.00  0.00    -0.213 N  
HETATM   50  H   UNL     1     -10.531  10.371  70.365  1.00  0.00     0.000 HD 
BRANCH  49  51
HETATM   51  S   UNL     1     -10.584   8.254  71.221  1.00  0.00    -0.229 S  
HETATM   52  O   UNL     1     -11.789   8.631  71.928  1.00  0.00    -0.304 OA 
HETATM   53  O   UNL     1     -10.515   6.979  70.522  1.00  0.00    -0.203 OA 
BRANCH  51  54
HETATM   54  C   UNL     1      -9.238   8.141  72.454  1.00  0.00    -0.226 C  
HETATM   55  C   UNL     1      -9.647   7.805  73.812  1.00  0.00    -0.200 C  
HETATM   56  C   UNL     1      -8.950   6.723  72.985  1.00  0.00    -0.142 C  
ENDBRANCH  51  54
ENDBRANCH  49  51
ENDBRANCH  46  49
ENDBRANCH  43  46
BRANCH  44  57
HETATM   57  C   UNL     1     -10.381   7.623  66.713  1.00  0.00    -0.343 C  
HETATM   58  C   UNL     1     -11.366   6.945  67.348  1.00  0.00    -0.024 C  
ENDBRANCH  44  57
ENDBRANCH  41  43
ENDBRANCH  38  41
ENDBRANCH  22  38
BRANCH  24  59
HETATM   59  O   UNL     1      -5.271   6.535  71.033  1.00  0.00    -0.018 OA 
HETATM   60  C   UNL     1      -5.611   6.518  72.416  1.00  0.00    -0.037 C  
ENDBRANCH  24  59
TORSDOF 10
ENDMDL
MODEL       62
REMARK 921   NORMALIZED FREE ENERGY PREDICTED BY IDOCK:   14.26 KCAL/MOL
REMARK 922        TOTAL FREE ENERGY PREDICTED BY IDOCK:   19.94 KCAL/MOL
REMARK 923 INTER-LIGAND FREE ENERGY PREDICTED BY IDOCK:   16.07 KCAL/MOL
REMARK 924 INTRA-LIGAND FREE ENERGY PREDICTED BY IDOCK:    3.87 KCAL/MOL
REMARK 927      BINDING AFFINITY PREDICTED BY RF-SCORE:    0.00 PKD
ROOT
HETATM    1  C   UNL     1     -12.238  13.782  66.421  1.00  0.00    -0.480 C  
HETATM    2  C   UNL     1     -13.149  12.606  66.503  1.00  0.00     2.620 C  
HETATM    3  C   UNL     1     -13.005  13.461  67.776  1.00  0.00     2.180 C  
HETATM    4  O   UNL     1     -12.603  12.650  68.929  1.00  0.00     0.316 OA 
HETATM    5  C   UNL     1     -12.621  13.079  70.247  1.00  0.00    -0.038 C  
HETATM    6  N   UNL     1     -12.850  14.244  70.752  1.00  0.00    -0.346 NA 
HETATM    7  O   UNL     1     -12.187  12.095  71.067  1.00  0.00    -0.351 OA 
HETATM    8  H   UNL     1     -13.791  14.605  70.908  1.00  0.00     0.000 HD 
HETATM    9  H   UNL     1     -12.199  12.389  71.971  1.00  0.00     0.000 HD 
HETATM   10  C   UNL     1     -11.596  15.030  71.096  1.00  0.00    -0.330 C  
HETATM   11  C   UNL     1     -10.499  14.687  70.066  1.00  0.00     0.148 C  
HETATM   12  N   UNL     1      -6.420   9.742  70.369  1.00  0.00    -0.088 NA 
HETATM   13  C   UNL     1      -6.055   8.528  69.956  1.00  0.00    -0.031 A  
HETATM   14  N   UNL     1      -9.799  13.473  70.227  1.00  0.00     2.598 N  
HETATM   15  O   UNL     1     -10.334  15.391  69.061  1.00  0.00    -0.222 OA 
HETATM   16  C   UNL     1      -5.940   7.487  70.876  1.00  0.00    -0.035 A  
HETATM   17  C   UNL     1     -10.833  13.740  65.762  1.00  0.00    -0.277 C  
HETATM   18  C   UNL     1      -8.386  13.796  70.489  1.00  0.00     3.737 C  
HETATM   19  C   UNL     1      -7.521  12.976  69.539  1.00  0.00     0.598 C  
HETATM   20  O   UNL     1      -7.052  11.804  70.146  1.00  0.00     0.250 OA 
HETATM   21  C   UNL     1      -8.502  12.709  68.449  1.00  0.00    -0.121 C  
HETATM   22  C   UNL     1      -9.874  12.600  69.017  1.00  0.00     0.297 C  
HETATM   23  C   UNL     1      -6.568  10.744  69.469  1.00  0.00    -0.099 A  
HETATM   24  C   UNL     1      -5.585   6.207  70.465  1.00  0.00    -0.018 A  
HETATM   25  C   UNL     1      -6.310  10.526  68.078  1.00  0.00    -0.058 A  
HETATM   26  C   UNL     1      -5.356   5.981  69.114  1.00  0.00    -0.004 A  
HETATM   27  C   UNL     1      -6.424  11.508  66.893  1.00  0.00    -0.144 C  
HETATM   28  C   UNL     1     -10.035  12.449  65.428  1.00  0.00    -0.253 C  
HETATM   29  N   UNL     1      -5.943   9.280  67.670  1.00  0.00    -0.052 NA 
HETATM   30  C   UNL     1      -8.449  12.536  65.366  1.00  0.00     1.593 C  
HETATM   31  C   UNL     1      -7.679  11.277  65.935  1.00  0.00     0.143 C  
HETATM   32  C   UNL     1      -5.816   8.289  68.583  1.00  0.00    -0.040 A  
HETATM   33  C   UNL     1      -5.468   7.016  68.182  1.00  0.00    -0.020 A  
ENDROOT
BRANCH  10  34
HETATM   34  C   UNL     1     -11.250  15.553  72.577  1.00  0.00    -0.098 C  
HETATM   35  C   UNL     1      -9.706  15.684  72.697  1.00  0.00     6.450 C  
HETATM   36  C   UNL     1     -11.686  14.463  73.611  1.00  0.00     0.547 C  
HETATM   37  C   UNL     1     -11.809  16.869  73.173  1.00  0.00     0.001 C  
ENDBRANCH  10  34
BRANCH  22  38
HETATM   38  C   UNL     1     -10.318  11.050  68.882  1.00  0.00    -0.205 C  
HETATM   39  H   UNL     1     -11.881   9.905  69.043  1.00  0.00     0.000 HD 
HETATM   40  O   UNL     1     -11.621  10.815  69.123  1.00  0.00    -0.277 OA 
BRANCH  38  41
HETATM   41  N   UNL     1      -9.480  10.073  68.703  1.00  0.00    -0.151 NA 
HETATM   42  H   UNL     1      -8.588  10.329  68.279  1.00  0.00     0.000 HD 
BRANCH  41  43
HETATM   43  C   UNL     1      -9.641   8.654  69.029  1.00  0.00    -0.163 C  
HETATM   44  C   UNL     1      -9.054   8.226  70.426  1.00  0.00    -0.148 C  
HETATM   45  C   UNL     1     -10.545   8.402  70.233  1.00  0.00    -0.234 C  
BRANCH  43  46
HETATM   46  C   UNL     1      -9.603   7.632  67.937  1.00  0.00    -0.144 C  
HETATM   47  H   UNL     1     -10.825   6.730  66.761  1.00  0.00     0.000 HD 
HETATM   48  O   UNL     1     -10.849   7.379  67.454  1.00  0.00    -0.274 OA 
BRANCH  46  49
HETATM   49  N   UNL     1      -8.515   7.065  67.583  1.00  0.00    -0.123 N  
HETATM   50  H   UNL     1      -7.698   7.140  68.188  1.00  0.00     0.000 HD 
BRANCH  49  51
HETATM   51  S   UNL     1      -8.397   6.237  66.211  1.00  0.00    -0.127 S  
HETATM   52  O   UNL     1      -7.723   4.982  66.470  1.00  0.00    -0.090 OA 
HETATM   53  O   UNL     1      -9.691   6.249  65.545  1.00  0.00     0.328 OA 
BRANCH  51  54
HETATM   54  C   UNL     1      -7.328   7.211  65.090  1.00  0.00    -0.081 C  
HETATM   55  C   UNL     1      -7.672   7.152  63.674  1.00  0.00    -0.119 C  
HETATM   56  C   UNL     1      -8.001   8.436  64.440  1.00  0.00    -0.148 C  
ENDBRANCH  51  54
ENDBRANCH  49  51
ENDBRANCH  46  49
ENDBRANCH  43  46
BRANCH  44  57
HETATM   57  C   UNL     1      -8.603   6.856  70.738  1.00  0.00    -0.144 C  
HETATM   58  C   UNL     1      -9.327   5.718  70.624  1.00  0.00    -0.186 C  
ENDBRANCH  44  57
ENDBRANCH  41  43
ENDBRANCH  38  41
ENDBRANCH  22  38
BRANCH  24  59
HETATM   59  O   UNL     1      -5.435   5.112  71.267  1.00  0.00    -0.004 OA 
HETATM   60  C   UNL     1      -5.673   3.834  70.685  1.00  0.00    -0.013 C  
ENDBRANCH  24  59
TORSDOF 10
ENDMDL
MODEL       63
REMARK 921   NORMALIZED FREE ENERGY PREDICTED BY IDOCK:   16.61 KCAL/MOL
REMARK 922        TOTAL FREE ENERGY PREDICTED BY IDOCK:   23.66 KCAL/MOL
REMARK 923 INTER-LIGAND FREE ENERGY PREDICTED BY IDOCK:   15.32 KCAL/MOL
REMARK 924 INTRA-LIGAND FREE ENERGY PREDICTED BY IDOCK:    8.34 KCAL/MOL
REMARK 927      BINDING AFFINITY PREDICTED BY RF-SCORE:    0.00 PKD
ROOT
HETATM    1  C   UNL     1     -12.600  13.006  71.102  1.00  0.00    -0.388 C  
HETATM    2  C   UNL     1     -13.549  13.682  70.172  1.00  0.00     1.481 C  
HETATM    3  C   UNL     1     -12.919  12.364  69.683  1.00  0.00     1.186 C  
HETATM    4  O   UNL     1     -12.251  12.532  68.389  1.00  0.00    -0.178 OA 
HETATM    5  C   UNL     1     -11.801  11.496  67.586  1.00  0.00    -0.118 C  
HETATM    6  N   UNL     1     -11.737  10.226  67.804  1.00  0.00    -0.540 NA 
HETATM    7  O   UNL     1     -11.226  11.986  66.464  1.00  0.00    -0.301 OA 
HETATM    8  H   UNL     1     -12.537   9.604  67.690  1.00  0.00     0.000 HD 
HETATM    9  H   UNL     1     -10.917  11.276  65.914  1.00  0.00     0.000 HD 
HETATM   10  C   UNL     1     -10.368   9.738  68.246  1.00  0.00    -0.198 C  
HETATM   11  C   UNL     1      -9.701  10.839  69.096  1.00  0.00    -0.163 C  
HETATM   12  N   UNL     1      -6.255  15.781  66.882  1.00  0.00    -0.206 NA 
HETATM   13  C   UNL     1      -6.166  17.080  66.591  1.00  0.00    -0.205 A  
HETATM   14  N   UNL     1      -9.111  11.929  68.420  1.00  0.00    -0.186 N  
HETATM   15  O   UNL     1      -9.798  10.831  70.330  1.00  0.00     0.680 OA 
HETATM   16  C   UNL     1      -5.866  17.479  65.290  1.00  0.00     0.605 A  
HETATM   17  C   UNL     1     -11.493  13.752  71.895  1.00  0.00     1.958 C  
HETATM   18  C   UNL     1      -7.664  11.903  68.695  1.00  0.00    -0.113 C  
HETATM   19  C   UNL     1      -7.237  13.289  69.160  1.00  0.00     0.059 C  
HETATM   20  O   UNL     1      -6.716  14.052  68.106  1.00  0.00    -0.096 OA 
HETATM   21  C   UNL     1      -8.537  13.813  69.665  1.00  0.00     1.236 C  
HETATM   22  C   UNL     1      -9.658  13.246  68.864  1.00  0.00     0.192 C  
HETATM   23  C   UNL     1      -6.585  15.393  68.138  1.00  0.00    -0.133 A  
HETATM   24  C   UNL     1      -5.791  18.828  64.958  1.00  0.00    -0.264 A  
HETATM   25  C   UNL     1      -6.811  16.359  69.170  1.00  0.00    -0.210 A  
HETATM   26  C   UNL     1      -6.033  19.772  65.947  1.00  0.00    -0.186 A  
HETATM   27  C   UNL     1      -7.201  16.143  70.647  1.00  0.00     1.933 C  
HETATM   28  C   UNL     1     -10.978  15.186  71.588  1.00  0.00    -0.032 C  
HETATM   29  N   UNL     1      -6.721  17.681  68.857  1.00  0.00    -0.227 NA 
HETATM   30  C   UNL     1      -9.496  15.564  72.021  1.00  0.00     5.035 C  
HETATM   31  C   UNL     1      -8.714  16.497  71.011  1.00  0.00     5.249 C  
HETATM   32  C   UNL     1      -6.406  18.048  67.593  1.00  0.00    -0.173 A  
HETATM   33  C   UNL     1      -6.334  19.383  67.255  1.00  0.00    -0.201 A  
ENDROOT
BRANCH  10  34
HETATM   34  C   UNL     1      -9.513   8.636  67.444  1.00  0.00    -0.187 C  
HETATM   35  C   UNL     1     -10.477   7.871  66.496  1.00  0.00    -0.014 C  
HETATM   36  C   UNL     1      -8.965   7.585  68.465  1.00  0.00    -0.128 C  
HETATM   37  C   UNL     1      -8.281   8.977  66.570  1.00  0.00    -0.114 C  
ENDBRANCH  10  34
BRANCH  22  38
HETATM   38  C   UNL     1     -10.273  14.461  67.990  1.00  0.00    -0.228 C  
HETATM   39  H   UNL     1     -10.738  14.923  66.160  1.00  0.00     0.000 HD 
HETATM   40  O   UNL     1     -10.376  14.210  66.672  1.00  0.00    -0.270 OA 
BRANCH  38  41
HETATM   41  N   UNL     1     -10.519  15.643  68.471  1.00  0.00    -0.231 NA 
HETATM   42  H   UNL     1     -10.952  15.662  69.394  1.00  0.00     0.000 HD 
BRANCH  41  43
HETATM   43  C   UNL     1     -10.257  16.951  67.868  1.00  0.00    -0.308 C  
HETATM   44  C   UNL     1     -10.640  18.184  68.771  1.00  0.00     0.009 C  
HETATM   45  C   UNL     1      -9.195  17.764  68.604  1.00  0.00    -0.264 C  
BRANCH  43  46
HETATM   46  C   UNL     1     -10.394  17.129  66.388  1.00  0.00    -0.307 C  
HETATM   47  H   UNL     1      -9.314  17.665  64.893  1.00  0.00     0.000 HD 
HETATM   48  O   UNL     1      -9.228  17.553  65.832  1.00  0.00    -0.508 OA 
BRANCH  46  49
HETATM   49  N   UNL     1     -11.505  16.941  65.788  1.00  0.00     0.748 N  
HETATM   50  H   UNL     1     -12.237  17.647  65.868  1.00  0.00     0.000 HD 
BRANCH  49  51
HETATM   51  S   UNL     1     -11.784  15.625  64.909  1.00  0.00     0.031 S  
HETATM   52  O   UNL     1     -12.303  14.582  65.769  1.00  0.00    -0.336 OA 
HETATM   53  O   UNL     1     -12.509  16.010  63.708  1.00  0.00    -0.784 OA 
BRANCH  51  54
HETATM   54  C   UNL     1     -10.166  15.055  64.272  1.00  0.00     1.299 C  
HETATM   55  C   UNL     1      -9.366  14.258  65.193  1.00  0.00     0.798 C  
HETATM   56  C   UNL     1     -10.053  13.537  64.032  1.00  0.00     0.668 C  
ENDBRANCH  51  54
ENDBRANCH  49  51
ENDBRANCH  46  49
ENDBRANCH  43  46
BRANCH  44  57
HETATM   57  C   UNL     1     -10.989  19.514  68.234  1.00  0.00     0.270 C  
HETATM   58  C   UNL     1     -10.288  20.661  68.391  1.00  0.00     0.114 C  
ENDBRANCH  44  57
ENDBRANCH  41  43
ENDBRANCH  38  41
ENDBRANCH  22  38
BRANCH  24  59
HETATM   59  O   UNL     1      -5.502  19.344  63.727  1.00  0.00    -0.248 OA 
HETATM   60  C   UNL     1      -5.137  20.718  63.659  1.00  0.00    -0.187 C  
ENDBRANCH  24  59
TORSDOF 10
ENDMDL
MODEL       64
REMARK 921   NORMALIZED FREE ENERGY PREDICTED BY IDOCK:   16.93 KCAL/MOL
REMARK 922        TOTAL FREE ENERGY PREDICTED BY IDOCK:   24.17 KCAL/MOL
REMARK 923 INTER-LIGAND FREE ENERGY PREDICTED BY IDOCK:   20.30 KCAL/MOL
REMARK 924 INTRA-LIGAND FREE ENERGY PREDICTED BY IDOCK:    3.87 KCAL/MOL
REMARK 927      BINDING AFFINITY PREDICTED BY RF-SCORE:    0.00 PKD
ROOT
HETATM    1  C   UNL     1      -6.547  10.263  72.625  1.00  0.00     2.362 C  
HETATM    2  C   UNL     1      -7.941  10.178  73.145  1.00  0.00     6.348 C  
HETATM    3  C   UNL     1      -7.449   8.999  72.285  1.00  0.00     0.353 C  
HETATM    4  O   UNL     1      -8.347   8.745  71.154  1.00  0.00    -0.146 OA 
HETATM    5  C   UNL     1      -8.308   7.620  70.346  1.00  0.00    -0.124 C  
HETATM    6  N   UNL     1      -7.463   6.646  70.295  1.00  0.00    -0.092 NA 
HETATM    7  O   UNL     1      -9.264   7.694  69.391  1.00  0.00    -0.149 OA 
HETATM    8  H   UNL     1      -7.496   5.851  70.933  1.00  0.00     0.000 HD 
HETATM    9  H   UNL     1      -9.237   6.923  68.837  1.00  0.00     0.000 HD 
HETATM   10  C   UNL     1      -6.417   6.786  69.202  1.00  0.00    -0.036 C  
HETATM   11  C   UNL     1      -6.088   8.282  69.020  1.00  0.00    -0.043 C  
HETATM   12  N   UNL     1      -9.256  12.441  65.298  1.00  0.00     0.246 NA 
HETATM   13  C   UNL     1     -10.123  13.447  65.181  1.00  0.00    -0.246 A  
HETATM   14  N   UNL     1      -6.990   9.071  68.276  1.00  0.00    -0.075 N  
HETATM   15  O   UNL     1      -5.134   8.796  69.619  1.00  0.00    -0.030 OA 
HETATM   16  C   UNL     1     -11.264  13.292  64.397  1.00  0.00    -0.409 A  
HETATM   17  C   UNL     1      -5.939  11.545  71.997  1.00  0.00     1.729 C  
HETATM   18  C   UNL     1      -6.288   9.552  67.074  1.00  0.00    -0.066 C  
HETATM   19  C   UNL     1      -6.489  11.058  66.970  1.00  0.00    -0.092 C  
HETATM   20  O   UNL     1      -7.547  11.382  66.111  1.00  0.00    -0.043 OA 
HETATM   21  C   UNL     1      -6.779  11.388  68.393  1.00  0.00    -0.065 C  
HETATM   22  C   UNL     1      -7.490  10.252  69.043  1.00  0.00    -0.097 C  
HETATM   23  C   UNL     1      -8.166  12.579  66.092  1.00  0.00     0.701 A  
HETATM   24  C   UNL     1     -12.194  14.319  64.279  1.00  0.00    -0.423 A  
HETATM   25  C   UNL     1      -7.914  13.804  66.787  1.00  0.00     0.418 A  
HETATM   26  C   UNL     1     -11.970  15.502  64.970  1.00  0.00     0.161 A  
HETATM   27  C   UNL     1      -6.757  14.172  67.740  1.00  0.00    -0.190 C  
HETATM   28  C   UNL     1      -6.749  12.773  71.496  1.00  0.00     3.722 C  
HETATM   29  N   UNL     1      -8.811  14.821  66.663  1.00  0.00    -0.252 NA 
HETATM   30  C   UNL     1      -6.116  13.680  70.354  1.00  0.00    -0.108 C  
HETATM   31  C   UNL     1      -7.142  14.237  69.286  1.00  0.00    -0.107 C  
HETATM   32  C   UNL     1      -9.901  14.658  65.877  1.00  0.00    -0.330 A  
HETATM   33  C   UNL     1     -10.830  15.670  65.759  1.00  0.00    -0.312 A  
ENDROOT
BRANCH  10  34
HETATM   34  C   UNL     1      -6.211   5.711  68.023  1.00  0.00    -0.037 C  
HETATM   35  C   UNL     1      -5.664   6.459  66.776  1.00  0.00    -0.013 C  
HETATM   36  C   UNL     1      -7.609   5.135  67.619  1.00  0.00    -0.087 C  
HETATM   37  C   UNL     1      -5.319   4.452  68.157  1.00  0.00    -0.015 C  
ENDBRANCH  10  34
BRANCH  22  38
HETATM   38  C   UNL     1      -9.008  10.742  69.319  1.00  0.00    -0.030 C  
HETATM   39  H   UNL     1     -10.000  12.184  70.166  1.00  0.00     0.000 HD 
HETATM   40  O   UNL     1      -9.109  11.896  70.004  1.00  0.00     2.151 OA 
BRANCH  38  41
HETATM   41  N   UNL     1     -10.058  10.028  69.044  1.00  0.00    -0.189 NA 
HETATM   42  H   UNL     1      -9.872   9.092  68.682  1.00  0.00     0.000 HD 
BRANCH  41  43
HETATM   43  C   UNL     1     -11.471  10.383  69.184  1.00  0.00    -0.196 C  
HETATM   44  C   UNL     1     -11.782  11.922  69.061  1.00  0.00    -0.391 C  
HETATM   45  C   UNL     1     -12.081  10.977  67.917  1.00  0.00     0.356 C  
BRANCH  43  46
HETATM   46  C   UNL     1     -12.351   9.586  70.095  1.00  0.00     0.346 C  
HETATM   47  H   UNL     1     -14.208   9.473  70.574  1.00  0.00     0.000 HD 
HETATM   48  O   UNL     1     -13.650   9.979  69.995  1.00  0.00     0.288 OA 
BRANCH  46  49
HETATM   49  N   UNL     1     -11.878   8.700  70.883  1.00  0.00    -0.390 N  
HETATM   50  H   UNL     1     -11.174   8.972  71.569  1.00  0.00     0.000 HD 
BRANCH  49  51
HETATM   51  S   UNL     1     -12.359   7.168  70.823  1.00  0.00    -0.143 S  
HETATM   52  O   UNL     1     -11.550   6.380  71.730  1.00  0.00    -0.290 OA 
HETATM   53  O   UNL     1     -13.811   7.130  70.919  1.00  0.00    -0.103 OA 
BRANCH  51  54
HETATM   54  C   UNL     1     -12.025   6.567  69.128  1.00  0.00     0.787 C  
HETATM   55  C   UNL     1     -10.939   7.235  68.421  1.00  0.00    -0.028 C  
HETATM   56  C   UNL     1     -10.688   5.821  68.948  1.00  0.00    -0.334 C  
ENDBRANCH  51  54
ENDBRANCH  49  51
ENDBRANCH  46  49
ENDBRANCH  43  46
BRANCH  44  57
HETATM   57  C   UNL     1     -12.952  12.573  69.682  1.00  0.00     1.133 C  
HETATM   58  C   UNL     1     -13.126  13.899  69.889  1.00  0.00     0.610 C  
ENDBRANCH  44  57
ENDBRANCH  41  43
ENDBRANCH  38  41
ENDBRANCH  22  38
BRANCH  24  59
HETATM   59  O   UNL     1     -13.342  14.291  63.540  1.00  0.00     0.835 OA 
HETATM   60  C   UNL     1     -13.658  13.079  62.863  1.00  0.00     3.432 C  
ENDBRANCH  24  59
TORSDOF 10
ENDMDL
MODEL       65
REMARK 921   NORMALIZED FREE ENERGY PREDICTED BY IDOCK:   18.77 KCAL/MOL
REMARK 922        TOTAL FREE ENERGY PREDICTED BY IDOCK:   27.09 KCAL/MOL
REMARK 923 INTER-LIGAND FREE ENERGY PREDICTED BY IDOCK:   23.75 KCAL/MOL
REMARK 924 INTRA-LIGAND FREE ENERGY PREDICTED BY IDOCK:    3.34 KCAL/MOL
REMARK 927      BINDING AFFINITY PREDICTED BY RF-SCORE:    0.00 PKD
ROOT
HETATM    1  C   UNL     1      -8.990   9.315  62.813  1.00  0.00    -0.139 C  
HETATM    2  C   UNL     1      -7.786  10.192  62.862  1.00  0.00    -0.148 C  
HETATM    3  C   UNL     1      -7.774   8.946  63.768  1.00  0.00    -0.129 C  
HETATM    4  O   UNL     1      -7.521   9.300  65.168  1.00  0.00    -0.101 OA 
HETATM    5  C   UNL     1      -7.219   8.395  66.173  1.00  0.00    -0.077 C  
HETATM    6  N   UNL     1      -7.210   7.106  66.174  1.00  0.00    -0.073 NA 
HETATM    7  O   UNL     1      -7.048   9.041  67.350  1.00  0.00    -0.078 OA 
HETATM    8  H   UNL     1      -6.427   6.556  65.820  1.00  0.00     0.000 HD 
HETATM    9  H   UNL     1      -6.841   8.421  68.039  1.00  0.00     0.000 HD 
HETATM   10  C   UNL     1      -8.468   6.475  66.748  1.00  0.00    -0.113 C  
HETATM   11  C   UNL     1      -9.673   7.374  66.404  1.00  0.00    -0.093 C  
HETATM   12  N   UNL     1     -11.725  12.430  69.782  1.00  0.00    -0.309 NA 
HETATM   13  C   UNL     1     -11.811  13.753  69.932  1.00  0.00    -0.327 A  
HETATM   14  N   UNL     1      -9.879   8.530  67.186  1.00  0.00    -0.186 N  
HETATM   15  O   UNL     1     -10.356   7.157  65.394  1.00  0.00     1.933 OA 
HETATM   16  C   UNL     1     -11.303  14.355  71.082  1.00  0.00     0.175 A  
HETATM   17  C   UNL     1     -10.447   9.851  62.826  1.00  0.00     2.093 C  
HETATM   18  C   UNL     1     -11.164   8.379  67.890  1.00  0.00     0.656 C  
HETATM   19  C   UNL     1     -11.990   9.638  67.662  1.00  0.00     3.080 C  
HETATM   20  O   UNL     1     -11.860  10.543  68.724  1.00  0.00    -0.277 OA 
HETATM   21  C   UNL     1     -11.373  10.136  66.401  1.00  0.00     0.848 C  
HETATM   22  C   UNL     1      -9.928   9.779  66.366  1.00  0.00    -0.247 C  
HETATM   23  C   UNL     1     -12.183  11.849  68.648  1.00  0.00     0.104 A  
HETATM   24  C   UNL     1     -11.361  15.735  71.248  1.00  0.00    -0.376 A  
HETATM   25  C   UNL     1     -12.789  12.633  67.614  1.00  0.00     2.357 A  
HETATM   26  C   UNL     1     -11.924  16.505  70.240  1.00  0.00     0.599 A  
HETATM   27  C   UNL     1     -13.363  12.186  66.253  1.00  0.00     5.190 C  
HETATM   28  C   UNL     1     -10.874  11.286  63.242  1.00  0.00    -0.222 C  
HETATM   29  N   UNL     1     -12.865  13.982  67.778  1.00  0.00     0.923 NA 
HETATM   30  C   UNL     1     -12.344  11.503  63.806  1.00  0.00    -0.097 C  
HETATM   31  C   UNL     1     -12.469  12.553  64.983  1.00  0.00    -0.494 C  
HETATM   32  C   UNL     1     -12.388  14.545  68.912  1.00  0.00    -0.056 A  
HETATM   33  C   UNL     1     -12.436  15.913  69.083  1.00  0.00     0.335 A  
ENDROOT
BRANCH  10  34
HETATM   34  C   UNL     1      -8.470   5.484  68.014  1.00  0.00    -0.098 C  
HETATM   35  C   UNL     1      -8.185   4.044  67.504  1.00  0.00    -0.094 C  
HETATM   36  C   UNL     1      -9.907   5.460  68.633  1.00  0.00    -0.204 C  
HETATM   37  C   UNL     1      -7.544   5.662  69.243  1.00  0.00    -0.087 C  
ENDBRANCH  10  34
BRANCH  22  38
HETATM   38  C   UNL     1      -9.097  11.159  66.528  1.00  0.00    -0.182 C  
HETATM   39  H   UNL     1      -7.766  12.238  65.610  1.00  0.00     0.000 HD 
HETATM   40  O   UNL     1      -8.253  11.428  65.515  1.00  0.00     0.093 OA 
BRANCH  38  41
HETATM   41  N   UNL     1      -9.114  11.889  67.602  1.00  0.00    -0.174 NA 
HETATM   42  H   UNL     1      -9.988  11.877  68.129  1.00  0.00     0.000 HD 
BRANCH  41  43
HETATM   43  C   UNL     1      -8.051  12.727  68.159  1.00  0.00    -0.158 C  
HETATM   44  C   UNL     1      -7.270  12.087  69.368  1.00  0.00     0.152 C  
HETATM   45  C   UNL     1      -6.653  12.136  67.986  1.00  0.00    -0.069 C  
BRANCH  43  46
HETATM   46  C   UNL     1      -8.202  14.215  68.164  1.00  0.00    -0.149 C  
HETATM   47  H   UNL     1      -7.819  15.701  69.320  1.00  0.00     0.000 HD 
HETATM   48  O   UNL     1      -7.723  14.756  69.317  1.00  0.00    -0.153 OA 
BRANCH  46  49
HETATM   49  N   UNL     1      -8.765  14.838  67.202  1.00  0.00    -0.209 N  
HETATM   50  H   UNL     1      -8.703  14.453  66.260  1.00  0.00     0.000 HD 
BRANCH  49  51
HETATM   51  S   UNL     1      -9.570  16.210  67.434  1.00  0.00    -0.231 S  
HETATM   52  O   UNL     1     -10.656  16.290  66.482  1.00  0.00    -0.308 OA 
HETATM   53  O   UNL     1      -9.832  16.362  68.858  1.00  0.00    -0.238 OA 
BRANCH  51  54
HETATM   54  C   UNL     1      -8.413  17.577  67.062  1.00  0.00    -0.234 C  
HETATM   55  C   UNL     1      -9.000  18.910  67.011  1.00  0.00    -0.306 C  
HETATM   56  C   UNL     1      -8.147  18.549  68.229  1.00  0.00    -0.324 C  
ENDBRANCH  51  54
ENDBRANCH  49  51
ENDBRANCH  46  49
ENDBRANCH  43  46
BRANCH  44  57
HETATM   57  C   UNL     1      -6.583  12.876  70.408  1.00  0.00     0.611 C  
HETATM   58  C   UNL     1      -5.261  13.161  70.469  1.00  0.00    -0.122 C  
ENDBRANCH  44  57
ENDBRANCH  41  43
ENDBRANCH  38  41
ENDBRANCH  22  38
BRANCH  24  59
HETATM   59  O   UNL     1     -10.905  16.440  72.326  1.00  0.00     1.079 OA 
HETATM   60  C   UNL     1      -9.500  16.643  72.432  1.00  0.00    10.403 C  
ENDBRANCH  24  59
TORSDOF 10
ENDMDL
MODEL       66
REMARK 921   NORMALIZED FREE ENERGY PREDICTED BY IDOCK:   19.27 KCAL/MOL
REMARK 922        TOTAL FREE ENERGY PREDICTED BY IDOCK:   27.88 KCAL/MOL
REMARK 923 INTER-LIGAND FREE ENERGY PREDICTED BY IDOCK:   23.26 KCAL/MOL
REMARK 924 INTRA-LIGAND FREE ENERGY PREDICTED BY IDOCK:    4.62 KCAL/MOL
REMARK 927      BINDING AFFINITY PREDICTED BY RF-SCORE:    0.00 PKD
ROOT
HETATM    1  C   UNL     1      -6.443   5.401  64.861  1.00  0.00    -0.039 C  
HETATM    2  C   UNL     1      -5.411   6.465  64.701  1.00  0.00    -0.021 C  
HETATM    3  C   UNL     1      -5.418   5.701  66.038  1.00  0.00    -0.013 C  
HETATM    4  O   UNL     1      -5.520   6.615  67.181  1.00  0.00    -0.012 OA 
HETATM    5  C   UNL     1      -5.315   6.258  68.504  1.00  0.00    -0.008 C  
HETATM    6  N   UNL     1      -5.127   5.104  69.047  1.00  0.00     0.000 NA 
HETATM    7  O   UNL     1      -5.490   7.329  69.312  1.00  0.00    -0.015 OA 
HETATM    8  H   UNL     1      -4.217   4.642  69.067  1.00  0.00     0.000 HD 
HETATM    9  H   UNL     1      -5.349   7.085  70.219  1.00  0.00     0.000 HD 
HETATM   10  C   UNL     1      -6.377   4.490  69.656  1.00  0.00    -0.028 C  
HETATM   11  C   UNL     1      -7.595   4.905  68.805  1.00  0.00    -0.069 C  
HETATM   12  N   UNL     1     -11.003  10.307  69.432  1.00  0.00    -0.233 NA 
HETATM   13  C   UNL     1     -11.303  11.532  68.999  1.00  0.00    -0.276 A  
HETATM   14  N   UNL     1      -8.122   6.200  68.993  1.00  0.00    -0.111 N  
HETATM   15  O   UNL     1      -8.010   4.172  67.897  1.00  0.00    -0.085 OA 
HETATM   16  C   UNL     1     -11.141  12.626  69.847  1.00  0.00     0.253 A  
HETATM   17  C   UNL     1      -7.929   5.574  64.449  1.00  0.00    -0.120 C  
HETATM   18  C   UNL     1      -9.493   6.061  69.514  1.00  0.00    -0.139 C  
HETATM   19  C   UNL     1     -10.419   6.925  68.667  1.00  0.00    -0.195 C  
HETATM   20  O   UNL     1     -10.645   8.176  69.257  1.00  0.00    -0.222 OA 
HETATM   21  C   UNL     1      -9.624   7.016  67.410  1.00  0.00    -0.164 C  
HETATM   22  C   UNL     1      -8.169   6.992  67.727  1.00  0.00    -0.114 C  
HETATM   23  C   UNL     1     -11.125   9.248  68.596  1.00  0.00     0.111 A  
HETATM   24  C   UNL     1     -11.425  13.915  69.409  1.00  0.00    -0.280 A  
HETATM   25  C   UNL     1     -11.600   9.420  67.257  1.00  0.00     1.957 A  
HETATM   26  C   UNL     1     -11.863  14.094  68.104  1.00  0.00    -0.387 A  
HETATM   27  C   UNL     1     -11.804   8.369  66.145  1.00  0.00     6.974 C  
HETATM   28  C   UNL     1      -8.631   6.931  64.162  1.00  0.00     0.432 C  
HETATM   29  N   UNL     1     -11.898  10.677  66.827  1.00  0.00     0.563 NA 
HETATM   30  C   UNL     1     -10.203   7.028  64.376  1.00  0.00     5.858 C  
HETATM   31  C   UNL     1     -10.721   8.398  64.974  1.00  0.00     5.598 C  
HETATM   32  C   UNL     1     -11.755  11.723  67.673  1.00  0.00    -0.250 A  
HETATM   33  C   UNL     1     -12.030  13.005  67.245  1.00  0.00    -0.379 A  
ENDROOT
BRANCH  10  34
HETATM   34  C   UNL     1      -6.509   4.092  71.208  1.00  0.00    -0.018 C  
HETATM   35  C   UNL     1      -8.014   3.874  71.527  1.00  0.00    -0.065 C  
HETATM   36  C   UNL     1      -6.041   5.303  72.081  1.00  0.00    -0.030 C  
HETATM   37  C   UNL     1      -5.786   2.879  71.846  1.00  0.00    -0.009 C  
ENDBRANCH  10  34
BRANCH  22  38
HETATM   38  C   UNL     1      -7.593   8.470  67.405  1.00  0.00    -0.097 C  
HETATM   39  H   UNL     1      -6.067   9.613  67.784  1.00  0.00     0.000 HD 
HETATM   40  O   UNL     1      -6.405   8.745  67.974  1.00  0.00    -0.054 OA 
BRANCH  38  41
HETATM   41  N   UNL     1      -8.267   9.386  66.777  1.00  0.00    -0.112 NA 
HETATM   42  H   UNL     1      -9.266   9.203  66.670  1.00  0.00     0.000 HD 
BRANCH  41  43
HETATM   43  C   UNL     1      -7.789  10.644  66.201  1.00  0.00    -0.152 C  
HETATM   44  C   UNL     1      -7.567  10.615  64.642  1.00  0.00     0.140 C  
HETATM   45  C   UNL     1      -8.782  11.293  65.239  1.00  0.00     0.047 C  
BRANCH  43  46
HETATM   46  C   UNL     1      -6.883  11.530  66.997  1.00  0.00    -0.147 C  
HETATM   47  H   UNL     1      -5.405  11.364  68.212  1.00  0.00     0.000 HD 
HETATM   48  O   UNL     1      -5.980  10.801  67.707  1.00  0.00    -0.043 OA 
BRANCH  46  49
HETATM   49  N   UNL     1      -7.024  12.798  67.010  1.00  0.00    -0.357 N  
HETATM   50  H   UNL     1      -6.275  13.384  66.640  1.00  0.00     0.000 HD 
BRANCH  49  51
HETATM   51  S   UNL     1      -8.347  13.500  67.593  1.00  0.00    -0.193 S  
HETATM   52  O   UNL     1      -9.386  13.466  66.586  1.00  0.00    -0.252 OA 
HETATM   53  O   UNL     1      -8.604  12.977  68.927  1.00  0.00     0.092 OA 
BRANCH  51  54
HETATM   54  C   UNL     1      -7.932  15.257  67.893  1.00  0.00    -0.137 C  
HETATM   55  C   UNL     1      -7.326  15.966  66.773  1.00  0.00    -0.140 C  
HETATM   56  C   UNL     1      -8.786  16.275  67.112  1.00  0.00    -0.213 C  
ENDBRANCH  51  54
ENDBRANCH  49  51
ENDBRANCH  46  49
ENDBRANCH  43  46
BRANCH  44  57
HETATM   57  C   UNL     1      -6.620  11.499  63.935  1.00  0.00     2.468 C  
HETATM   58  C   UNL     1      -6.897  12.311  62.888  1.00  0.00     4.630 C  
ENDBRANCH  44  57
ENDBRANCH  41  43
ENDBRANCH  38  41
ENDBRANCH  22  38
BRANCH  24  59
HETATM   59  O   UNL     1     -11.312  15.062  70.142  1.00  0.00    -0.245 OA 
HETATM   60  C   UNL     1     -12.454  15.486  70.879  1.00  0.00    -0.440 C  
ENDBRANCH  24  59
TORSDOF 10
ENDMDL
MODEL       67
REMARK 921   NORMALIZED FREE ENERGY PREDICTED BY IDOCK:   19.81 KCAL/MOL
REMARK 922        TOTAL FREE ENERGY PREDICTED BY IDOCK:   28.74 KCAL/MOL
REMARK 923 INTER-LIGAND FREE ENERGY PREDICTED BY IDOCK:   23.37 KCAL/MOL
REMARK 924 INTRA-LIGAND FREE ENERGY PREDICTED BY IDOCK:    5.37 KCAL/MOL
REMARK 927      BINDING AFFINITY PREDICTED BY RF-SCORE:    0.00 PKD
ROOT
HETATM    1  C   UNL     1     -11.862  13.073  71.494  1.00  0.00     1.177 C  
HETATM    2  C   UNL     1     -12.910  13.763  70.688  1.00  0.00    -0.262 C  
HETATM    3  C   UNL     1     -12.354  12.443  70.120  1.00  0.00    -0.136 C  
HETATM    4  O   UNL     1     -11.845  12.615  68.756  1.00  0.00    -0.302 OA 
HETATM    5  C   UNL     1     -11.504  11.581  67.899  1.00  0.00    -0.301 C  
HETATM    6  N   UNL     1     -11.426  10.309  68.101  1.00  0.00    -0.633 NA 
HETATM    7  O   UNL     1     -11.063  12.074  66.719  1.00  0.00    -0.272 OA 
HETATM    8  H   UNL     1     -12.239   9.694  68.079  1.00  0.00     0.000 HD 
HETATM    9  H   UNL     1     -10.829  11.365  66.132  1.00  0.00     0.000 HD 
HETATM   10  C   UNL     1     -10.018   9.807  68.372  1.00  0.00    -0.156 C  
HETATM   11  C   UNL     1      -9.244  10.896  69.142  1.00  0.00    -0.060 C  
HETATM   12  N   UNL     1      -6.044  15.824  66.560  1.00  0.00     0.512 NA 
HETATM   13  C   UNL     1      -5.979  17.124  66.268  1.00  0.00    -0.049 A  
HETATM   14  N   UNL     1      -8.729  11.985  68.407  1.00  0.00    -0.170 N  
HETATM   15  O   UNL     1      -9.192  10.880  70.379  1.00  0.00     1.199 OA 
HETATM   16  C   UNL     1      -5.833  17.530  64.943  1.00  0.00     1.269 A  
HETATM   17  C   UNL     1     -10.662  13.804  72.152  1.00  0.00     5.408 C  
HETATM   18  C   UNL     1      -7.260  11.945  68.506  1.00  0.00    -0.100 C  
HETATM   19  C   UNL     1      -6.768  13.325  68.924  1.00  0.00    -0.110 C  
HETATM   20  O   UNL     1      -6.371  14.091  67.821  1.00  0.00    -0.156 OA 
HETATM   21  C   UNL     1      -7.994  13.856  69.585  1.00  0.00     0.738 C  
HETATM   22  C   UNL     1      -9.207  13.304  68.921  1.00  0.00     0.271 C  
HETATM   23  C   UNL     1      -6.224  15.430  67.844  1.00  0.00    -0.150 A  
HETATM   24  C   UNL     1      -5.787  18.881  64.612  1.00  0.00    -0.264 A  
HETATM   25  C   UNL     1      -6.316  16.391  68.901  1.00  0.00    -0.150 A  
HETATM   26  C   UNL     1      -5.900  19.820  65.629  1.00  0.00    -0.198 A  
HETATM   27  C   UNL     1      -6.529  16.169  70.414  1.00  0.00     0.404 C  
HETATM   28  C   UNL     1     -10.174  15.236  71.795  1.00  0.00     1.714 C  
HETATM   29  N   UNL     1      -6.253  17.715  68.587  1.00  0.00    -0.181 NA 
HETATM   30  C   UNL     1      -8.648  15.599  72.049  1.00  0.00     7.453 C  
HETATM   31  C   UNL     1      -7.984  16.532  70.958  1.00  0.00     5.138 C  
HETATM   32  C   UNL     1      -6.088  18.087  67.297  1.00  0.00    -0.151 A  
HETATM   33  C   UNL     1      -6.046  19.425  66.960  1.00  0.00    -0.183 A  
ENDROOT
BRANCH  10  34
HETATM   34  C   UNL     1      -9.276   8.703  67.467  1.00  0.00    -0.151 C  
HETATM   35  C   UNL     1      -8.007   8.226  68.227  1.00  0.00    -0.119 C  
HETATM   36  C   UNL     1      -8.775   9.385  66.151  1.00  0.00    -0.165 C  
HETATM   37  C   UNL     1      -9.956   7.403  66.971  1.00  0.00    -0.301 C  
ENDBRANCH  10  34
BRANCH  22  38
HETATM   38  C   UNL     1      -9.912  14.530  68.134  1.00  0.00    -0.220 C  
HETATM   39  H   UNL     1     -10.908  16.166  68.467  1.00  0.00     0.000 HD 
HETATM   40  O   UNL     1     -10.495  15.447  68.929  1.00  0.00    -0.222 OA 
BRANCH  38  41
HETATM   41  N   UNL     1     -10.048  14.575  66.843  1.00  0.00    -0.254 NA 
HETATM   42  H   UNL     1      -9.232  14.286  66.303  1.00  0.00     0.000 HD 
BRANCH  41  43
HETATM   43  C   UNL     1     -11.214  14.984  66.057  1.00  0.00    -0.310 C  
HETATM   44  C   UNL     1     -11.477  14.119  64.767  1.00  0.00    -0.384 C  
HETATM   45  C   UNL     1     -12.321  13.933  66.011  1.00  0.00    -0.511 C  
BRANCH  43  46
HETATM   46  C   UNL     1     -11.598  16.429  65.992  1.00  0.00     0.935 C  
HETATM   47  H   UNL     1     -11.978  17.763  64.664  1.00  0.00     0.000 HD 
HETATM   48  O   UNL     1     -11.735  16.846  64.705  1.00  0.00    -0.295 OA 
BRANCH  46  49
HETATM   49  N   UNL     1     -11.715  17.141  67.045  1.00  0.00     1.214 N  
HETATM   50  H   UNL     1     -12.648  17.369  67.388  1.00  0.00     0.000 HD 
BRANCH  49  51
HETATM   51  S   UNL     1     -10.434  17.690  67.845  1.00  0.00    -0.386 S  
HETATM   52  O   UNL     1     -10.770  17.821  69.247  1.00  0.00    -0.038 OA 
HETATM   53  O   UNL     1      -9.266  16.921  67.442  1.00  0.00    -0.219 OA 
BRANCH  51  54
HETATM   54  C   UNL     1     -10.084  19.369  67.207  1.00  0.00    -0.390 C  
HETATM   55  C   UNL     1      -9.285  19.431  65.989  1.00  0.00    -0.206 C  
HETATM   56  C   UNL     1     -10.783  19.726  65.881  1.00  0.00    -0.488 C  
ENDBRANCH  51  54
ENDBRANCH  49  51
ENDBRANCH  46  49
ENDBRANCH  43  46
BRANCH  44  57
HETATM   57  C   UNL     1     -12.190  14.622  63.576  1.00  0.00     0.553 C  
HETATM   58  C   UNL     1     -13.450  14.310  63.194  1.00  0.00     4.174 C  
ENDBRANCH  44  57
ENDBRANCH  41  43
ENDBRANCH  38  41
ENDBRANCH  22  38
BRANCH  24  59
HETATM   59  O   UNL     1      -5.642  19.402  63.358  1.00  0.00    -0.305 OA 
HETATM   60  C   UNL     1      -5.144  18.540  62.341  1.00  0.00     0.159 C  
ENDBRANCH  24  59
TORSDOF 10
ENDMDL
MODEL       68
REMARK 921   NORMALIZED FREE ENERGY PREDICTED BY IDOCK:   22.08 KCAL/MOL
REMARK 922        TOTAL FREE ENERGY PREDICTED BY IDOCK:   32.33 KCAL/MOL
REMARK 923 INTER-LIGAND FREE ENERGY PREDICTED BY IDOCK:   31.06 KCAL/MOL
REMARK 924 INTRA-LIGAND FREE ENERGY PREDICTED BY IDOCK:    1.27 KCAL/MOL
REMARK 927      BINDING AFFINITY PREDICTED BY RF-SCORE:    0.00 PKD
ROOT
HETATM    1  C   UNL     1     -12.095  12.345  71.252  1.00  0.00     0.280 C  
HETATM    2  C   UNL     1     -10.701  12.501  71.755  1.00  0.00     8.229 C  
HETATM    3  C   UNL     1     -11.068  13.280  70.478  1.00  0.00     1.208 C  
HETATM    4  O   UNL     1     -10.147  12.978  69.378  1.00  0.00     0.371 OA 
HETATM    5  C   UNL     1     -10.070  13.686  68.189  1.00  0.00    -0.245 C  
HETATM    6  N   UNL     1     -10.811  14.632  67.721  1.00  0.00    -0.262 NA 
HETATM    7  O   UNL     1      -9.124  13.150  67.384  1.00  0.00    -0.190 OA 
HETATM    8  H   UNL     1     -10.699  15.609  67.993  1.00  0.00     0.000 HD 
HETATM    9  H   UNL     1      -9.072  13.635  66.569  1.00  0.00     0.000 HD 
HETATM   10  C   UNL     1     -11.864  14.167  66.730  1.00  0.00    -0.425 C  
HETATM   11  C   UNL     1     -12.343  12.759  67.141  1.00  0.00     0.259 C  
HETATM   12  N   UNL     1      -9.606   7.188  65.511  1.00  0.00     0.597 NA 
HETATM   13  C   UNL     1      -8.845   6.143  65.839  1.00  0.00    -0.143 A  
HETATM   14  N   UNL     1     -11.523  11.659  66.810  1.00  0.00    -0.290 N  
HETATM   15  O   UNL     1     -13.346  12.616  67.854  1.00  0.00     3.068 OA 
HETATM   16  C   UNL     1      -7.692   5.867  65.106  1.00  0.00    -0.093 A  
HETATM   17  C   UNL     1     -12.830  10.981  71.158  1.00  0.00    -0.491 C  
HETATM   18  C   UNL     1     -12.269  10.806  65.868  1.00  0.00     3.502 C  
HETATM   19  C   UNL     1     -12.221   9.371  66.378  1.00  0.00     8.186 C  
HETATM   20  O   UNL     1     -11.199   8.636  65.763  1.00  0.00     2.844 OA 
HETATM   21  C   UNL     1     -11.969   9.611  67.827  1.00  0.00     2.756 C  
HETATM   22  C   UNL     1     -11.148  10.841  68.002  1.00  0.00    -0.299 C  
HETATM   23  C   UNL     1     -10.705   7.479  66.246  1.00  0.00     1.009 A  
HETATM   24  C   UNL     1      -6.871   4.796  65.445  1.00  0.00    -0.061 A  
HETATM   25  C   UNL     1     -11.082   6.661  67.360  1.00  0.00    -0.320 A  
HETATM   26  C   UNL     1      -7.216   4.012  66.538  1.00  0.00    -0.068 A  
HETATM   27  C   UNL     1     -12.273   6.812  68.329  1.00  0.00     3.053 C  
HETATM   28  C   UNL     1     -12.147   9.586  71.220  1.00  0.00    -0.443 C  
HETATM   29  N   UNL     1     -10.293   5.601  67.686  1.00  0.00    -0.201 NA 
HETATM   30  C   UNL     1     -12.867   8.362  70.505  1.00  0.00     0.669 C  
HETATM   31  C   UNL     1     -11.901   7.333  69.790  1.00  0.00     0.231 C  
HETATM   32  C   UNL     1      -9.191   5.336  66.947  1.00  0.00    -0.121 A  
HETATM   33  C   UNL     1      -8.369   4.279  67.280  1.00  0.00    -0.100 A  
ENDROOT
BRANCH  10  34
HETATM   34  C   UNL     1     -11.956  14.696  65.214  1.00  0.00    -0.302 C  
HETATM   35  C   UNL     1     -11.420  13.579  64.276  1.00  0.00    -0.414 C  
HETATM   36  C   UNL     1     -10.992  15.917  65.047  1.00  0.00    -0.426 C  
HETATM   37  C   UNL     1     -13.272  15.174  64.552  1.00  0.00     1.365 C  
ENDBRANCH  10  34
BRANCH  22  38
HETATM   38  C   UNL     1      -9.689  10.363  68.515  1.00  0.00    -0.168 C  
HETATM   39  H   UNL     1      -8.471  10.572  70.016  1.00  0.00     0.000 HD 
HETATM   40  O   UNL     1      -9.327  10.853  69.715  1.00  0.00     0.213 OA 
BRANCH  38  41
HETATM   41  N   UNL     1      -8.855   9.685  67.785  1.00  0.00    -0.125 NA 
HETATM   42  H   UNL     1      -9.124   9.560  66.809  1.00  0.00     0.000 HD 
BRANCH  41  43
HETATM   43  C   UNL     1      -7.581   9.076  68.173  1.00  0.00    -0.092 C  
HETATM   44  C   UNL     1      -6.380   9.378  67.200  1.00  0.00    -0.066 C  
HETATM   45  C   UNL     1      -6.499  10.094  68.528  1.00  0.00    -0.049 C  
BRANCH  43  46
HETATM   46  C   UNL     1      -7.571   7.751  68.868  1.00  0.00    -0.101 C  
HETATM   47  H   UNL     1      -6.723   6.037  68.696  1.00  0.00     0.000 HD 
HETATM   48  O   UNL     1      -6.729   6.878  68.255  1.00  0.00    -0.062 OA 
BRANCH  46  49
HETATM   49  N   UNL     1      -8.321   7.514  69.874  1.00  0.00    -0.131 N  
HETATM   50  H   UNL     1      -9.223   7.061  69.724  1.00  0.00     0.000 HD 
BRANCH  49  51
HETATM   51  S   UNL     1      -7.885   7.908  71.370  1.00  0.00    -0.095 S  
HETATM   52  O   UNL     1      -6.520   7.480  71.595  1.00  0.00    -0.039 OA 
HETATM   53  O   UNL     1      -8.268   9.290  71.619  1.00  0.00    -0.312 OA 
BRANCH  51  54
HETATM   54  C   UNL     1      -8.953   6.953  72.507  1.00  0.00    -0.129 C  
HETATM   55  C   UNL     1      -8.418   6.731  73.845  1.00  0.00    -0.152 C  
HETATM   56  C   UNL     1      -9.542   7.756  73.684  1.00  0.00    -0.280 C  
ENDBRANCH  51  54
ENDBRANCH  49  51
ENDBRANCH  46  49
ENDBRANCH  43  46
BRANCH  44  57
HETATM   57  C   UNL     1      -5.208   8.494  67.048  1.00  0.00    -0.036 C  
HETATM   58  C   UNL     1      -5.146   7.346  66.334  1.00  0.00    -0.023 C  
ENDBRANCH  44  57
ENDBRANCH  41  43
ENDBRANCH  38  41
ENDBRANCH  22  38
BRANCH  24  59
HETATM   59  O   UNL     1      -5.724   4.422  64.805  1.00  0.00    -0.013 OA 
HETATM   60  C   UNL     1      -5.858   3.681  63.597  1.00  0.00    -0.014 C  
ENDBRANCH  24  59
TORSDOF 10
ENDMDL
MODEL       69
REMARK 921   NORMALIZED FREE ENERGY PREDICTED BY IDOCK:   24.52 KCAL/MOL
REMARK 922        TOTAL FREE ENERGY PREDICTED BY IDOCK:   36.21 KCAL/MOL
REMARK 923 INTER-LIGAND FREE ENERGY PREDICTED BY IDOCK:   26.28 KCAL/MOL
REMARK 924 INTRA-LIGAND FREE ENERGY PREDICTED BY IDOCK:    9.93 KCAL/MOL
REMARK 927      BINDING AFFINITY PREDICTED BY RF-SCORE:    0.00 PKD
ROOT
HETATM    1  C   UNL     1     -10.149  17.870  71.271  1.00  0.00     4.132 C  
HETATM    2  C   UNL     1      -8.733  17.518  71.574  1.00  0.00    10.535 C  
HETATM    3  C   UNL     1      -8.984  18.346  70.300  1.00  0.00     2.674 C  
HETATM    4  O   UNL     1      -8.408  17.702  69.116  1.00  0.00    -0.089 OA 
HETATM    5  C   UNL     1      -8.261  18.304  67.876  1.00  0.00    -0.253 C  
HETATM    6  N   UNL     1      -8.675  19.444  67.438  1.00  0.00    -0.295 NA 
HETATM    7  O   UNL     1      -7.702  17.440  66.998  1.00  0.00    -0.187 OA 
HETATM    8  H   UNL     1      -8.182  20.319  67.616  1.00  0.00     0.000 HD 
HETATM    9  H   UNL     1      -7.602  17.853  66.148  1.00  0.00     0.000 HD 
HETATM   10  C   UNL     1      -9.961  19.371  66.631  1.00  0.00    -0.390 C  
HETATM   11  C   UNL     1     -10.844  18.247  67.208  1.00  0.00    -0.238 C  
HETATM   12  N   UNL     1     -10.559  12.023  65.667  1.00  0.00    -0.255 NA 
HETATM   13  C   UNL     1     -10.183  10.781  65.973  1.00  0.00    -0.251 A  
HETATM   14  N   UNL     1     -10.532  16.916  66.858  1.00  0.00    -0.300 N  
HETATM   15  O   UNL     1     -11.713  18.497  68.055  1.00  0.00     1.069 OA 
HETATM   16  C   UNL     1      -9.329  10.085  65.119  1.00  0.00    -0.302 A  
HETATM   17  C   UNL     1     -11.329  16.867  71.379  1.00  0.00     0.565 C  
HETATM   18  C   UNL     1     -11.665  16.372  66.090  1.00  0.00     1.213 C  
HETATM   19  C   UNL     1     -12.059  15.031  66.698  1.00  0.00     0.148 C  
HETATM   20  O   UNL     1     -11.472  13.959  66.014  1.00  0.00    -0.325 OA 
HETATM   21  C   UNL     1     -11.524  15.197  68.079  1.00  0.00    -0.355 C  
HETATM   22  C   UNL     1     -10.301  16.046  68.051  1.00  0.00    -0.266 C  
HETATM   23  C   UNL     1     -11.358  12.713  66.516  1.00  0.00    -0.326 A  
HETATM   24  C   UNL     1      -8.905   8.797  65.429  1.00  0.00    -0.178 A  
HETATM   25  C   UNL     1     -11.832  12.117  67.728  1.00  0.00    -0.257 A  
HETATM   26  C   UNL     1      -9.339   8.220  66.615  1.00  0.00    -0.246 A  
HETATM   27  C   UNL     1     -12.731  12.715  68.831  1.00  0.00     1.088 C  
HETATM   28  C   UNL     1     -11.190  15.321  71.458  1.00  0.00    -0.369 C  
HETATM   29  N   UNL     1     -11.436  10.850  68.029  1.00  0.00    -0.458 NA 
HETATM   30  C   UNL     1     -12.398  14.427  70.940  1.00  0.00    -0.419 C  
HETATM   31  C   UNL     1     -11.982  13.100  70.186  1.00  0.00    -0.381 C  
HETATM   32  C   UNL     1     -10.625  10.183  67.175  1.00  0.00    -0.246 A  
HETATM   33  C   UNL     1     -10.196   8.907  67.478  1.00  0.00    -0.309 A  
ENDROOT
BRANCH  10  34
HETATM   34  C   UNL     1     -10.083  19.861  65.104  1.00  0.00     0.690 C  
HETATM   35  C   UNL     1     -10.303  18.610  64.209  1.00  0.00     6.275 C  
HETATM   36  C   UNL     1      -8.718  20.487  64.665  1.00  0.00     2.264 C  
HETATM   37  C   UNL     1     -11.133  20.891  64.615  1.00  0.00     2.114 C  
ENDBRANCH  10  34
BRANCH  22  38
HETATM   38  C   UNL     1      -9.050  15.081  68.403  1.00  0.00    -0.184 C  
HETATM   39  H   UNL     1      -8.657  13.276  69.010  1.00  0.00     0.000 HD 
HETATM   40  O   UNL     1      -9.392  13.842  68.803  1.00  0.00    -0.149 OA 
BRANCH  38  41
HETATM   41  N   UNL     1      -7.817  15.487  68.448  1.00  0.00    -0.123 NA 
HETATM   42  H   UNL     1      -7.681  16.495  68.365  1.00  0.00     0.000 HD 
BRANCH  41  43
HETATM   43  C   UNL     1      -6.595  14.694  68.602  1.00  0.00    -0.085 C  
HETATM   44  C   UNL     1      -6.025  14.091  67.263  1.00  0.00     0.489 C  
HETATM   45  C   UNL     1      -5.380  15.302  67.904  1.00  0.00    -0.125 C  
BRANCH  43  46
HETATM   46  C   UNL     1      -6.378  13.897  69.849  1.00  0.00    -0.115 C  
HETATM   47  H   UNL     1      -5.537  14.099  71.564  1.00  0.00     0.000 HD 
HETATM   48  O   UNL     1      -5.674  14.605  70.772  1.00  0.00    -0.148 OA 
BRANCH  46  49
HETATM   49  N   UNL     1      -6.781  12.690  69.954  1.00  0.00    -0.351 N  
HETATM   50  H   UNL     1      -6.406  12.106  70.702  1.00  0.00     0.000 HD 
BRANCH  49  51
HETATM   51  S   UNL     1      -7.860  12.064  68.941  1.00  0.00     0.124 S  
HETATM   52  O   UNL     1      -9.146  11.992  69.602  1.00  0.00     1.159 OA 
HETATM   53  O   UNL     1      -7.736  12.732  67.655  1.00  0.00    -0.136 OA 
BRANCH  51  54
HETATM   54  C   UNL     1      -7.330  10.349  68.588  1.00  0.00    -0.085 C  
HETATM   55  C   UNL     1      -6.028   9.965  69.119  1.00  0.00    -0.034 C  
HETATM   56  C   UNL     1      -7.275   9.413  69.812  1.00  0.00    -0.076 C  
ENDBRANCH  51  54
ENDBRANCH  49  51
ENDBRANCH  46  49
ENDBRANCH  43  46
BRANCH  44  57
HETATM   57  C   UNL     1      -5.193  12.874  67.203  1.00  0.00     0.239 C  
HETATM   58  C   UNL     1      -5.477  11.730  66.538  1.00  0.00     0.008 C  
ENDBRANCH  44  57
ENDBRANCH  41  43
ENDBRANCH  38  41
ENDBRANCH  22  38
BRANCH  24  59
HETATM   59  O   UNL     1      -8.077   8.014  64.676  1.00  0.00    -0.145 OA 
HETATM   60  C   UNL     1      -6.927   7.469  65.314  1.00  0.00    -0.059 C  
ENDBRANCH  24  59
TORSDOF 10
ENDMDL
MODEL       70
REMARK 921   NORMALIZED FREE ENERGY PREDICTED BY IDOCK:   26.95 KCAL/MOL
REMARK 922        TOTAL FREE ENERGY PREDICTED BY IDOCK:   40.06 KCAL/MOL
REMARK 923 INTER-LIGAND FREE ENERGY PREDICTED BY IDOCK:   36.28 KCAL/MOL
REMARK 924 INTRA-LIGAND FREE ENERGY PREDICTED BY IDOCK:    3.78 KCAL/MOL
REMARK 927      BINDING AFFINITY PREDICTED BY RF-SCORE:    0.00 PKD
ROOT
HETATM    1  C   UNL     1     -11.944   7.011  66.264  1.00  0.00     4.653 C  
HETATM    2  C   UNL     1     -10.741   6.736  65.427  1.00  0.00     3.565 C  
HETATM    3  C   UNL     1     -10.621   6.440  66.934  1.00  0.00    -0.309 C  
HETATM    4  O   UNL     1      -9.477   7.137  67.531  1.00  0.00    -0.123 OA 
HETATM    5  C   UNL     1      -8.969   6.890  68.797  1.00  0.00    -0.130 C  
HETATM    6  N   UNL     1      -9.408   6.142  69.751  1.00  0.00    -0.150 NA 
HETATM    7  O   UNL     1      -7.919   7.705  69.048  1.00  0.00    -0.117 OA 
HETATM    8  H   UNL     1      -9.242   5.136  69.787  1.00  0.00     0.000 HD 
HETATM    9  H   UNL     1      -7.571   7.536  69.916  1.00  0.00     0.000 HD 
HETATM   10  C   UNL     1     -10.192   6.888  70.818  1.00  0.00    -0.195 C  
HETATM   11  C   UNL     1     -10.959   8.047  70.148  1.00  0.00    -0.226 C  
HETATM   12  N   UNL     1      -8.676  13.926  68.958  1.00  0.00     0.120 NA 
HETATM   13  C   UNL     1      -8.193  14.816  68.090  1.00  0.00    -0.142 A  
HETATM   14  N   UNL     1     -10.241   9.220  69.834  1.00  0.00    -0.201 N  
HETATM   15  O   UNL     1     -12.132   7.899  69.780  1.00  0.00     0.624 OA 
HETATM   16  C   UNL     1      -6.930  15.369  68.295  1.00  0.00    -0.119 A  
HETATM   17  C   UNL     1     -12.805   8.296  66.140  1.00  0.00    15.983 C  
HETATM   18  C   UNL     1     -10.800  10.322  70.635  1.00  0.00    -0.140 C  
HETATM   19  C   UNL     1     -11.100  11.491  69.704  1.00  0.00    -0.143 C  
HETATM   20  O   UNL     1     -10.058  12.428  69.697  1.00  0.00     0.727 OA 
HETATM   21  C   UNL     1     -11.237  10.770  68.408  1.00  0.00    -0.345 C  
HETATM   22  C   UNL     1     -10.335   9.584  68.388  1.00  0.00    -0.206 C  
HETATM   23  C   UNL     1      -9.887  13.360  68.739  1.00  0.00    -0.021 A  
HETATM   24  C   UNL     1      -6.396  16.281  67.391  1.00  0.00    -0.173 A  
HETATM   25  C   UNL     1     -10.674  13.725  67.599  1.00  0.00    -0.249 A  
HETATM   26  C   UNL     1      -7.141  16.623  66.271  1.00  0.00     0.018 A  
HETATM   27  C   UNL     1     -12.058  13.206  67.154  1.00  0.00    -0.343 C  
HETATM   28  C   UNL     1     -12.369   9.605  65.423  1.00  0.00    10.469 C  
HETATM   29  N   UNL     1     -10.165  14.632  66.720  1.00  0.00    -0.264 NA 
HETATM   30  C   UNL     1     -13.020  10.976  65.894  1.00  0.00     6.858 C  
HETATM   31  C   UNL     1     -12.044  12.221  65.900  1.00  0.00    -0.261 C  
HETATM   32  C   UNL     1      -8.947  15.174  66.949  1.00  0.00    -0.252 A  
HETATM   33  C   UNL     1      -8.408  16.076  66.055  1.00  0.00     0.027 A  
ENDROOT
BRANCH  10  34
HETATM   34  C   UNL     1      -9.777   6.918  72.371  1.00  0.00    -0.168 C  
HETATM   35  C   UNL     1     -10.978   7.476  73.184  1.00  0.00    -0.420 C  
HETATM   36  C   UNL     1      -8.602   7.934  72.559  1.00  0.00    -0.205 C  
HETATM   37  C   UNL     1      -9.309   5.668  73.158  1.00  0.00    -0.139 C  
ENDBRANCH  10  34
BRANCH  22  38
HETATM   38  C   UNL     1      -9.162   9.902  67.319  1.00  0.00    -0.138 C  
HETATM   39  H   UNL     1      -8.687   9.592  65.460  1.00  0.00     0.000 HD 
HETATM   40  O   UNL     1      -9.375   9.405  66.087  1.00  0.00    -0.172 OA 
BRANCH  38  41
HETATM   41  N   UNL     1      -8.032  10.460  67.634  1.00  0.00    -0.106 NA 
HETATM   42  H   UNL     1      -7.793  11.299  67.106  1.00  0.00     0.000 HD 
BRANCH  41  43
HETATM   43  C   UNL     1      -7.055  10.047  68.643  1.00  0.00    -0.078 C  
HETATM   44  C   UNL     1      -6.958  10.997  69.896  1.00  0.00    -0.055 C  
HETATM   45  C   UNL     1      -7.682   9.670  69.984  1.00  0.00    -0.162 C  
BRANCH  43  46
HETATM   46  C   UNL     1      -5.798   9.353  68.222  1.00  0.00    -0.041 C  
HETATM   47  H   UNL     1      -4.478   8.176  68.971  1.00  0.00     0.000 HD 
HETATM   48  O   UNL     1      -5.276   8.616  69.239  1.00  0.00    -0.034 OA 
BRANCH  46  49
HETATM   49  N   UNL     1      -5.299   9.513  67.058  1.00  0.00    -0.038 N  
HETATM   50  H   UNL     1      -4.575  10.217  66.922  1.00  0.00     0.000 HD 
BRANCH  49  51
HETATM   51  S   UNL     1      -5.781   8.635  65.800  1.00  0.00    -0.047 S  
HETATM   52  O   UNL     1      -5.132   7.341  65.848  1.00  0.00    -0.023 OA 
HETATM   53  O   UNL     1      -7.230   8.723  65.697  1.00  0.00    -0.082 OA 
BRANCH  51  54
HETATM   54  C   UNL     1      -5.189   9.489  64.295  1.00  0.00    -0.060 C  
HETATM   55  C   UNL     1      -5.675   8.954  63.029  1.00  0.00    -0.081 C  
HETATM   56  C   UNL     1      -6.264  10.277  63.521  1.00  0.00    -0.127 C  
ENDBRANCH  51  54
ENDBRANCH  49  51
ENDBRANCH  46  49
ENDBRANCH  43  46
BRANCH  44  57
HETATM   57  C   UNL     1      -5.749  11.126  70.733  1.00  0.00    -0.089 C  
HETATM   58  C   UNL     1      -5.141  12.276  71.107  1.00  0.00    -0.143 C  
ENDBRANCH  44  57
ENDBRANCH  41  43
ENDBRANCH  38  41
ENDBRANCH  22  38
BRANCH  24  59
HETATM   59  O   UNL     1      -5.179  16.894  67.483  1.00  0.00    -0.113 OA 
HETATM   60  C   UNL     1      -5.163  18.316  67.556  1.00  0.00    -0.139 C  
ENDBRANCH  24  59
TORSDOF 10
ENDMDL
MODEL       71
REMARK 921   NORMALIZED FREE ENERGY PREDICTED BY IDOCK:   27.82 KCAL/MOL
REMARK 922        TOTAL FREE ENERGY PREDICTED BY IDOCK:   41.43 KCAL/MOL
REMARK 923 INTER-LIGAND FREE ENERGY PREDICTED BY IDOCK:   43.57 KCAL/MOL
REMARK 924 INTRA-LIGAND FREE ENERGY PREDICTED BY IDOCK:   -2.14 KCAL/MOL
REMARK 927      BINDING AFFINITY PREDICTED BY RF-SCORE:    0.00 PKD
ROOT
HETATM    1  C   UNL     1     -13.131  14.731  67.591  1.00  0.00     2.732 C  
HETATM    2  C   UNL     1     -11.923  15.579  67.802  1.00  0.00     0.184 C  
HETATM    3  C   UNL     1     -11.906  14.639  66.582  1.00  0.00    -0.310 C  
HETATM    4  O   UNL     1     -10.729  13.765  66.591  1.00  0.00    -0.276 OA 
HETATM    5  C   UNL     1     -10.310  12.986  65.524  1.00  0.00    -0.294 C  
HETATM    6  N   UNL     1     -10.868  12.742  64.387  1.00  0.00    -0.344 NA 
HETATM    7  O   UNL     1      -9.196  12.293  65.856  1.00  0.00    -0.401 OA 
HETATM    8  H   UNL     1     -10.807  13.379  63.592  1.00  0.00     0.000 HD 
HETATM    9  H   UNL     1      -8.910  11.759  65.125  1.00  0.00     0.000 HD 
HETATM   10  C   UNL     1     -11.623  11.425  64.333  1.00  0.00     0.003 C  
HETATM   11  C   UNL     1     -12.236  11.149  65.722  1.00  0.00     2.306 C  
HETATM   12  N   UNL     1      -9.318   8.265  70.656  1.00  0.00    -0.154 NA 
HETATM   13  C   UNL     1      -8.705   8.351  71.838  1.00  0.00    -0.195 A  
HETATM   14  N   UNL     1     -11.389  10.639  66.728  1.00  0.00     0.084 N  
HETATM   15  O   UNL     1     -13.399  11.490  65.978  1.00  0.00     4.750 OA 
HETATM   16  C   UNL     1      -7.405   7.872  71.982  1.00  0.00    -0.088 A  
HETATM   17  C   UNL     1     -13.850  13.958  68.728  1.00  0.00     6.966 C  
HETATM   18  C   UNL     1     -11.873   9.296  67.090  1.00  0.00     3.766 C  
HETATM   19  C   UNL     1     -12.008   9.225  68.606  1.00  0.00     1.859 C  
HETATM   20  O   UNL     1     -10.878   8.648  69.201  1.00  0.00    -0.165 OA 
HETATM   21  C   UNL     1     -12.153  10.672  68.929  1.00  0.00    -0.014 C  
HETATM   22  C   UNL     1     -11.376  11.490  67.956  1.00  0.00    -0.298 C  
HETATM   23  C   UNL     1     -10.567   8.766  70.507  1.00  0.00    -0.215 A  
HETATM   24  C   UNL     1      -6.738   7.973  73.198  1.00  0.00    -0.094 A  
HETATM   25  C   UNL     1     -11.257   9.363  71.610  1.00  0.00    -0.361 A  
HETATM   26  C   UNL     1      -7.390   8.573  74.267  1.00  0.00    -0.179 A  
HETATM   27  C   UNL     1     -12.662   9.999  71.661  1.00  0.00    -0.535 C  
HETATM   28  C   UNL     1     -13.251  13.655  70.129  1.00  0.00     0.625 C  
HETATM   29  N   UNL     1     -10.617   9.449  72.809  1.00  0.00     1.666 NA 
HETATM   30  C   UNL     1     -13.782  12.382  70.919  1.00  0.00     1.492 C  
HETATM   31  C   UNL     1     -12.687  11.592  71.743  1.00  0.00    -0.340 C  
HETATM   32  C   UNL     1      -9.363   8.957  72.934  1.00  0.00     0.606 A  
HETATM   33  C   UNL     1      -8.693   9.057  74.135  1.00  0.00     1.786 A  
ENDROOT
BRANCH  10  34
HETATM   34  C   UNL     1     -11.284  10.244  63.295  1.00  0.00     2.880 C  
HETATM   35  C   UNL     1     -10.113  10.717  62.389  1.00  0.00     0.314 C  
HETATM   36  C   UNL     1     -12.516  10.031  62.354  1.00  0.00     7.399 C  
HETATM   37  C   UNL     1     -10.899   8.807  63.727  1.00  0.00     9.522 C  
ENDBRANCH  10  34
BRANCH  22  38
HETATM   38  C   UNL     1     -10.127  12.123  68.766  1.00  0.00    -0.084 C  
HETATM   39  H   UNL     1      -9.632  13.700  69.790  1.00  0.00     0.000 HD 
HETATM   40  O   UNL     1     -10.365  13.329  69.314  1.00  0.00     0.060 OA 
BRANCH  38  41
HETATM   41  N   UNL     1      -8.936  11.603  68.777  1.00  0.00    -0.363 NA 
HETATM   42  H   UNL     1      -8.896  10.598  68.952  1.00  0.00     0.000 HD 
BRANCH  41  43
HETATM   43  C   UNL     1      -7.645  12.261  68.574  1.00  0.00    -0.118 C  
HETATM   44  C   UNL     1      -7.735  13.766  68.118  1.00  0.00    -0.140 C  
HETATM   45  C   UNL     1      -7.383  13.409  69.547  1.00  0.00     0.400 C  
BRANCH  43  46
HETATM   46  C   UNL     1      -6.478  11.471  68.071  1.00  0.00    -0.054 C  
HETATM   47  H   UNL     1      -4.692  11.024  68.621  1.00  0.00     0.000 HD 
HETATM   48  O   UNL     1      -5.433  11.526  68.940  1.00  0.00    -0.043 OA 
BRANCH  46  49
HETATM   49  N   UNL     1      -6.501  10.885  66.938  1.00  0.00    -0.087 N  
HETATM   50  H   UNL     1      -6.001  11.303  66.153  1.00  0.00     0.000 HD 
BRANCH  49  51
HETATM   51  S   UNL     1      -7.296   9.506  66.711  1.00  0.00    -0.091 S  
HETATM   52  O   UNL     1      -7.816   9.044  67.980  1.00  0.00    -0.099 OA 
HETATM   53  O   UNL     1      -8.185   9.662  65.570  1.00  0.00    -0.119 OA 
BRANCH  51  54
HETATM   54  C   UNL     1      -6.073   8.272  66.137  1.00  0.00    -0.045 C  
HETATM   55  C   UNL     1      -5.324   7.587  67.184  1.00  0.00    -0.030 C  
HETATM   56  C   UNL     1      -6.421   6.805  66.458  1.00  0.00    -0.043 C  
ENDBRANCH  51  54
ENDBRANCH  49  51
ENDBRANCH  46  49
ENDBRANCH  43  46
BRANCH  44  57
HETATM   57  C   UNL     1      -6.679  14.452  67.348  1.00  0.00    -0.002 C  
HETATM   58  C   UNL     1      -5.904  15.477  67.771  1.00  0.00    -0.157 C  
ENDBRANCH  44  57
ENDBRANCH  41  43
ENDBRANCH  38  41
ENDBRANCH  22  38
BRANCH  24  59
HETATM   59  O   UNL     1      -5.471   7.538  73.466  1.00  0.00    -0.045 OA 
HETATM   60  C   UNL     1      -5.321   6.509  74.438  1.00  0.00    -0.050 C  
ENDBRANCH  24  59
TORSDOF 10
ENDMDL
MODEL       72
REMARK 921   NORMALIZED FREE ENERGY PREDICTED BY IDOCK:   30.73 KCAL/MOL
REMARK 922        TOTAL FREE ENERGY PREDICTED BY IDOCK:   46.04 KCAL/MOL
REMARK 923 INTER-LIGAND FREE ENERGY PREDICTED BY IDOCK:   37.13 KCAL/MOL
REMARK 924 INTRA-LIGAND FREE ENERGY PREDICTED BY IDOCK:    8.91 KCAL/MOL
REMARK 927      BINDING AFFINITY PREDICTED BY RF-SCORE:    0.00 PKD
ROOT
HETATM    1  C   UNL     1     -12.859  15.124  71.239  1.00  0.00    -0.461 C  
HETATM    2  C   UNL     1     -11.680  14.952  72.136  1.00  0.00    -0.349 C  
HETATM    3  C   UNL     1     -11.571  16.035  71.046  1.00  0.00    -0.431 C  
HETATM    4  O   UNL     1     -10.383  15.840  70.209  1.00  0.00    -0.286 OA 
HETATM    5  C   UNL     1      -9.885  16.768  69.309  1.00  0.00    -0.168 C  
HETATM    6  N   UNL     1     -10.365  17.895  68.906  1.00  0.00    -0.400 NA 
HETATM    7  O   UNL     1      -8.783  16.280  68.692  1.00  0.00    -0.204 OA 
HETATM    8  H   UNL     1     -10.263  18.761  69.435  1.00  0.00     0.000 HD 
HETATM    9  H   UNL     1      -8.442  16.916  68.074  1.00  0.00     0.000 HD 
HETATM   10  C   UNL     1     -11.094  17.822  67.575  1.00  0.00     0.092 C  
HETATM   11  C   UNL     1     -11.790  16.449  67.467  1.00  0.00     0.730 C  
HETATM   12  N   UNL     1      -9.146  11.010  65.319  1.00  0.00    -0.203 NA 
HETATM   13  C   UNL     1      -8.612   9.814  65.573  1.00  0.00    -0.145 A  
HETATM   14  N   UNL     1     -11.001  15.335  67.113  1.00  0.00    -0.330 N  
HETATM   15  O   UNL     1     -12.972  16.311  67.810  1.00  0.00     2.509 OA 
HETATM   16  C   UNL     1      -7.316   9.530  65.148  1.00  0.00    -0.109 A  
HETATM   17  C   UNL     1     -13.637  13.941  70.603  1.00  0.00     0.343 C  
HETATM   18  C   UNL     1     -11.485  14.830  65.817  1.00  0.00    -0.322 C  
HETATM   19  C   UNL     1     -11.715  13.329  65.940  1.00  0.00    -0.365 C  
HETATM   20  O   UNL     1     -10.616  12.596  65.472  1.00  0.00    -0.266 OA 
HETATM   21  C   UNL     1     -11.904  13.208  67.413  1.00  0.00    -0.412 C  
HETATM   22  C   UNL     1     -11.080  14.230  68.116  1.00  0.00    -0.258 C  
HETATM   23  C   UNL     1     -10.392  11.300  65.766  1.00  0.00    -0.258 A  
HETATM   24  C   UNL     1      -6.730   8.299  65.422  1.00  0.00    -0.052 A  
HETATM   25  C   UNL     1     -11.159  10.329  66.485  1.00  0.00     0.225 A  
HETATM   26  C   UNL     1      -7.458   7.360  66.140  1.00  0.00    -0.083 A  
HETATM   27  C   UNL     1     -12.575  10.447  67.088  1.00  0.00     6.064 C  
HETATM   28  C   UNL     1     -13.123  12.478  70.499  1.00  0.00     0.418 C  
HETATM   29  N   UNL     1     -10.599   9.115  66.741  1.00  0.00    -0.191 NA 
HETATM   30  C   UNL     1     -13.684  11.562  69.327  1.00  0.00     4.999 C  
HETATM   31  C   UNL     1     -12.631  10.577  68.676  1.00  0.00     1.521 C  
HETATM   32  C   UNL     1      -9.348   8.850  66.299  1.00  0.00    -0.219 A  
HETATM   33  C   UNL     1      -8.758   7.633  66.571  1.00  0.00    -0.161 A  
ENDROOT
BRANCH  10  34
HETATM   34  C   UNL     1     -10.670  18.674  66.278  1.00  0.00    -0.278 C  
HETATM   35  C   UNL     1      -9.182  18.363  65.959  1.00  0.00     0.003 C  
HETATM   36  C   UNL     1     -10.741  20.196  66.631  1.00  0.00    -0.235 C  
HETATM   37  C   UNL     1     -11.399  18.579  64.915  1.00  0.00     2.452 C  
ENDBRANCH  10  34
BRANCH  22  38
HETATM   38  C   UNL     1      -9.894  13.435  68.879  1.00  0.00     0.087 C  
HETATM   39  H   UNL     1      -7.957  13.278  68.911  1.00  0.00     0.000 HD 
HETATM   40  O   UNL     1      -8.652  13.744  68.463  1.00  0.00    -0.171 OA 
BRANCH  38  41
HETATM   41  N   UNL     1     -10.101  12.469  69.722  1.00  0.00     0.679 NA 
HETATM   42  H   UNL     1     -10.670  12.707  70.535  1.00  0.00     0.000 HD 
BRANCH  41  43
HETATM   43  C   UNL     1      -9.629  11.084  69.664  1.00  0.00     0.430 C  
HETATM   44  C   UNL     1     -10.272  10.121  70.732  1.00  0.00     0.220 C  
HETATM   45  C   UNL     1     -10.717  10.081  69.286  1.00  0.00    -0.249 C  
BRANCH  43  46
HETATM   46  C   UNL     1      -8.219  10.796  69.256  1.00  0.00    -0.078 C  
HETATM   47  H   UNL     1      -7.266  10.130  67.727  1.00  0.00     0.000 HD 
HETATM   48  O   UNL     1      -8.161  10.313  67.986  1.00  0.00    -0.111 OA 
BRANCH  46  49
HETATM   49  N   UNL     1      -7.240  10.953  70.060  1.00  0.00    -0.330 N  
HETATM   50  H   UNL     1      -6.356  10.483  69.863  1.00  0.00     0.000 HD 
BRANCH  49  51
HETATM   51  S   UNL     1      -7.360  11.870  71.374  1.00  0.00     7.577 S  
HETATM   52  O   UNL     1      -8.611  11.581  72.043  1.00  0.00    12.281 OA 
HETATM   53  O   UNL     1      -6.105  11.800  72.109  1.00  0.00     1.123 OA 
BRANCH  51  54
HETATM   54  C   UNL     1      -7.431  13.609  70.808  1.00  0.00     2.880 C  
HETATM   55  C   UNL     1      -6.411  14.496  71.355  1.00  0.00     0.530 C  
HETATM   56  C   UNL     1      -6.268  14.050  69.898  1.00  0.00    -0.142 C  
ENDBRANCH  51  54
ENDBRANCH  49  51
ENDBRANCH  46  49
ENDBRANCH  43  46
BRANCH  44  57
HETATM   57  C   UNL     1      -9.612   8.901  71.236  1.00  0.00    -0.348 C  
HETATM   58  C   UNL     1      -9.958   8.186  72.332  1.00  0.00    -0.345 C  
ENDBRANCH  44  57
ENDBRANCH  41  43
ENDBRANCH  38  41
ENDBRANCH  22  38
BRANCH  24  59
HETATM   59  O   UNL     1      -5.476   7.900  65.056  1.00  0.00    -0.032 OA 
HETATM   60  C   UNL     1      -5.169   7.888  63.666  1.00  0.00    -0.041 C  
ENDBRANCH  24  59
TORSDOF 10
ENDMDL
MODEL       73
REMARK 921   NORMALIZED FREE ENERGY PREDICTED BY IDOCK:   33.04 KCAL/MOL
REMARK 922        TOTAL FREE ENERGY PREDICTED BY IDOCK:   49.70 KCAL/MOL
REMARK 923 INTER-LIGAND FREE ENERGY PREDICTED BY IDOCK:   50.59 KCAL/MOL
REMARK 924 INTRA-LIGAND FREE ENERGY PREDICTED BY IDOCK:   -0.89 KCAL/MOL
REMARK 927      BINDING AFFINITY PREDICTED BY RF-SCORE:    0.00 PKD
ROOT
HETATM    1  C   UNL     1     -12.462  12.365  72.554  1.00  0.00     1.460 C  
HETATM    2  C   UNL     1     -13.387  13.013  71.581  1.00  0.00    -0.379 C  
HETATM    3  C   UNL     1     -12.853  11.618  71.207  1.00  0.00    -0.328 C  
HETATM    4  O   UNL     1     -12.205  11.622  69.892  1.00  0.00    -0.283 OA 
HETATM    5  C   UNL     1     -11.840  10.490  69.182  1.00  0.00    -0.146 C  
HETATM    6  N   UNL     1     -11.853   9.244  69.516  1.00  0.00    -0.108 NA 
HETATM    7  O   UNL     1     -11.261  10.836  68.009  1.00  0.00    -0.269 OA 
HETATM    8  H   UNL     1     -12.693   8.667  69.473  1.00  0.00     0.000 HD 
HETATM    9  H   UNL     1     -11.011  10.060  67.523  1.00  0.00     0.000 HD 
HETATM   10  C   UNL     1     -10.507   8.710  69.978  1.00  0.00    -0.223 C  
HETATM   11  C   UNL     1      -9.753   9.838  70.710  1.00  0.00     0.016 C  
HETATM   12  N   UNL     1      -6.050  14.320  67.990  1.00  0.00    -0.136 NA 
HETATM   13  C   UNL     1      -5.885  15.577  67.578  1.00  0.00    -0.048 A  
HETATM   14  N   UNL     1      -9.110  10.820  69.927  1.00  0.00     0.443 N  
HETATM   15  O   UNL     1      -9.822   9.949  71.942  1.00  0.00     0.875 OA 
HETATM   16  C   UNL     1      -5.590  15.836  66.241  1.00  0.00     2.526 A  
HETATM   17  C   UNL     1     -11.293  13.106  73.255  1.00  0.00     7.505 C  
HETATM   18  C   UNL     1      -7.662  10.724  70.179  1.00  0.00     0.629 C  
HETATM   19  C   UNL     1      -7.137  12.116  70.506  1.00  0.00     2.239 C  
HETATM   20  O   UNL     1      -6.593  12.744  69.377  1.00  0.00    -0.110 OA 
HETATM   21  C   UNL     1      -8.389  12.768  70.981  1.00  0.00     9.679 C  
HETATM   22  C   UNL     1      -9.562  12.206  70.255  1.00  0.00     4.130 C  
HETATM   23  C   UNL     1      -6.375  14.071  69.282  1.00  0.00    -0.110 A  
HETATM   24  C   UNL     1      -5.437  17.140  65.784  1.00  0.00     0.603 A  
HETATM   25  C   UNL     1      -6.516  15.140  70.223  1.00  0.00    -0.065 A  
HETATM   26  C   UNL     1      -5.596  18.184  66.684  1.00  0.00    -0.177 A  
HETATM   27  C   UNL     1      -6.887  15.087  71.720  1.00  0.00     1.854 C  
HETATM   28  C   UNL     1     -10.695  14.469  72.808  1.00  0.00     2.931 C  
HETATM   29  N   UNL     1      -6.350  16.419  69.787  1.00  0.00    -0.211 NA 
HETATM   30  C   UNL     1      -9.182  14.788  73.180  1.00  0.00     8.541 C  
HETATM   31  C   UNL     1      -8.365  15.571  72.074  1.00  0.00     7.038 C  
HETATM   32  C   UNL     1      -6.040  16.647  68.489  1.00  0.00    -0.134 A  
HETATM   33  C   UNL     1      -5.892  17.938  68.027  1.00  0.00    -0.158 A  
ENDROOT
BRANCH  10  34
HETATM   34  C   UNL     1      -9.743   7.485  69.268  1.00  0.00    -0.163 C  
HETATM   35  C   UNL     1      -9.993   6.204  70.110  1.00  0.00    -0.218 C  
HETATM   36  C   UNL     1      -8.203   7.757  69.318  1.00  0.00    -0.129 C  
HETATM   37  C   UNL     1      -9.993   7.054  67.801  1.00  0.00    -0.186 C  
ENDBRANCH  10  34
BRANCH  22  38
HETATM   38  C   UNL     1     -10.118  13.373  69.282  1.00  0.00     0.398 C  
HETATM   39  H   UNL     1      -9.758  14.209  67.565  1.00  0.00     0.000 HD 
HETATM   40  O   UNL     1      -9.431  13.524  68.136  1.00  0.00    -0.204 OA 
BRANCH  38  41
HETATM   41  N   UNL     1     -11.056  14.207  69.620  1.00  0.00    -0.417 NA 
HETATM   42  H   UNL     1     -11.338  14.180  70.600  1.00  0.00     0.000 HD 
BRANCH  41  43
HETATM   43  C   UNL     1     -11.762  15.180  68.785  1.00  0.00    -0.342 C  
HETATM   44  C   UNL     1     -12.026  14.713  67.304  1.00  0.00    -0.312 C  
HETATM   45  C   UNL     1     -13.141  14.708  68.328  1.00  0.00     2.442 C  
BRANCH  43  46
HETATM   46  C   UNL     1     -11.544  16.644  69.003  1.00  0.00     0.130 C  
HETATM   47  H   UNL     1     -11.678  17.927  70.427  1.00  0.00     0.000 HD 
HETATM   48  O   UNL     1     -11.817  16.998  70.288  1.00  0.00     0.981 OA 
BRANCH  46  49
HETATM   49  N   UNL     1     -11.197  17.422  68.052  1.00  0.00    -0.020 N  
HETATM   50  H   UNL     1     -11.732  17.412  67.184  1.00  0.00     0.000 HD 
BRANCH  49  51
HETATM   51  S   UNL     1      -9.941  18.416  68.184  1.00  0.00    -0.384 S  
HETATM   52  O   UNL     1      -9.857  18.897  69.547  1.00  0.00    -0.107 OA 
HETATM   53  O   UNL     1      -8.785  17.794  67.556  1.00  0.00    -0.235 OA 
BRANCH  51  54
HETATM   54  C   UNL     1     -10.287  19.859  67.115  1.00  0.00    -0.446 C  
HETATM   55  C   UNL     1      -9.272  20.906  67.112  1.00  0.00    -0.261 C  
HETATM   56  C   UNL     1      -9.371  19.999  65.884  1.00  0.00    -0.243 C  
ENDBRANCH  51  54
ENDBRANCH  49  51
ENDBRANCH  46  49
ENDBRANCH  43  46
BRANCH  44  57
HETATM   57  C   UNL     1     -12.197  15.643  66.171  1.00  0.00     1.144 C  
HETATM   58  C   UNL     1     -13.058  15.509  65.136  1.00  0.00     1.483 C  
ENDBRANCH  44  57
ENDBRANCH  41  43
ENDBRANCH  38  41
ENDBRANCH  22  38
BRANCH  24  59
HETATM   59  O   UNL     1      -5.143  17.520  64.505  1.00  0.00     0.334 OA 
HETATM   60  C   UNL     1      -5.451  18.859  64.130  1.00  0.00    -0.237 C  
ENDBRANCH  24  59
TORSDOF 10
ENDMDL
MODEL       74
REMARK 921   NORMALIZED FREE ENERGY PREDICTED BY IDOCK:   36.55 KCAL/MOL
REMARK 922        TOTAL FREE ENERGY PREDICTED BY IDOCK:   55.27 KCAL/MOL
REMARK 923 INTER-LIGAND FREE ENERGY PREDICTED BY IDOCK:   32.26 KCAL/MOL
REMARK 924 INTRA-LIGAND FREE ENERGY PREDICTED BY IDOCK:   23.01 KCAL/MOL
REMARK 927      BINDING AFFINITY PREDICTED BY RF-SCORE:    0.00 PKD
ROOT
HETATM    1  C   UNL     1     -12.481  12.342  71.552  1.00  0.00    -0.123 C  
HETATM    2  C   UNL     1     -11.160  12.399  72.241  1.00  0.00     8.175 C  
HETATM    3  C   UNL     1     -11.240  13.034  70.840  1.00  0.00     1.980 C  
HETATM    4  O   UNL     1     -10.228  12.478  69.936  1.00  0.00     1.120 OA 
HETATM    5  C   UNL     1      -9.893  13.003  68.699  1.00  0.00    -0.068 C  
HETATM    6  N   UNL     1     -10.426  13.958  68.015  1.00  0.00    -0.238 NA 
HETATM    7  O   UNL     1      -8.928  12.254  68.116  1.00  0.00    -0.183 OA 
HETATM    8  H   UNL     1     -10.219  14.943  68.184  1.00  0.00     0.000 HD 
HETATM    9  H   UNL     1      -8.699  12.614  67.267  1.00  0.00     0.000 HD 
HETATM   10  C   UNL     1     -11.387  13.489  66.936  1.00  0.00    -0.326 C  
HETATM   11  C   UNL     1     -12.106  12.218  67.432  1.00  0.00     0.050 C  
HETATM   12  N   UNL     1      -9.963   6.192  66.906  1.00  0.00    -0.156 NA 
HETATM   13  C   UNL     1      -9.404   5.119  67.467  1.00  0.00    -0.121 A  
HETATM   14  N   UNL     1     -11.408  10.994  67.362  1.00  0.00    -0.288 N  
HETATM   15  O   UNL     1     -13.207  12.294  67.995  1.00  0.00     2.832 OA 
HETATM   16  C   UNL     1      -8.211   4.610  66.957  1.00  0.00    -0.106 A  
HETATM   17  C   UNL     1     -13.376  11.075  71.508  1.00  0.00    -0.261 C  
HETATM   18  C   UNL     1     -12.128  10.115  66.424  1.00  0.00     4.620 C  
HETATM   19  C   UNL     1     -12.348   8.768  67.100  1.00  0.00     8.288 C  
HETATM   20  O   UNL     1     -11.362   7.839  66.740  1.00  0.00     0.533 OA 
HETATM   21  C   UNL     1     -12.265   9.171  68.532  1.00  0.00     3.287 C  
HETATM   22  C   UNL     1     -11.314  10.307  68.685  1.00  0.00    -0.166 C  
HETATM   23  C   UNL     1     -11.102   6.709  67.425  1.00  0.00    -0.320 A  
HETATM   24  C   UNL     1      -7.599   3.507  67.541  1.00  0.00    -0.070 A  
HETATM   25  C   UNL     1     -11.736   6.101  68.556  1.00  0.00     1.043 A  
HETATM   26  C   UNL     1      -8.193   2.926  68.653  1.00  0.00    -0.080 A  
HETATM   27  C   UNL     1     -13.016   6.523  69.308  1.00  0.00     5.253 C  
HETATM   28  C   UNL     1     -12.906   9.630  71.837  1.00  0.00    -0.515 C  
HETATM   29  N   UNL     1     -11.151   5.009  69.122  1.00  0.00     0.920 NA 
HETATM   30  C   UNL     1     -13.682   8.414  71.170  1.00  0.00    -0.067 C  
HETATM   31  C   UNL     1     -12.778   7.190  70.737  1.00  0.00    -0.133 C  
HETATM   32  C   UNL     1     -10.005   4.517  68.597  1.00  0.00    -0.041 A  
HETATM   33  C   UNL     1      -9.389   3.426  69.173  1.00  0.00    -0.237 A  
ENDROOT
BRANCH  10  34
HETATM   34  C   UNL     1     -11.199  13.814  65.372  1.00  0.00    -0.306 C  
HETATM   35  C   UNL     1     -10.109  12.862  64.806  1.00  0.00    -0.242 C  
HETATM   36  C   UNL     1     -10.640  15.268  65.224  1.00  0.00    -0.438 C  
HETATM   37  C   UNL     1     -12.353  13.758  64.340  1.00  0.00    -0.389 C  
ENDBRANCH  10  34
BRANCH  22  38
HETATM   38  C   UNL     1     -10.018   9.735  69.467  1.00  0.00    -0.214 C  
HETATM   39  H   UNL     1      -8.556  10.325  70.604  1.00  0.00     0.000 HD 
HETATM   40  O   UNL     1      -9.316  10.661  70.145  1.00  0.00     0.386 OA 
BRANCH  38  41
HETATM   41  N   UNL     1      -9.584   8.516  69.348  1.00  0.00    -0.169 NA 
HETATM   42  H   UNL     1     -10.103   7.925  68.697  1.00  0.00     0.000 HD 
BRANCH  41  43
HETATM   43  C   UNL     1      -8.452   7.875  70.020  1.00  0.00    -0.134 C  
HETATM   44  C   UNL     1      -7.037   8.422  69.597  1.00  0.00    -0.052 C  
HETATM   45  C   UNL     1      -7.659   8.821  70.919  1.00  0.00    -0.109 C  
BRANCH  43  46
HETATM   46  C   UNL     1      -8.533   6.429  70.398  1.00  0.00    -0.131 C  
HETATM   47  H   UNL     1      -9.728   4.943  70.171  1.00  0.00     0.000 HD 
HETATM   48  O   UNL     1      -9.676   5.860  69.930  1.00  0.00    -0.156 OA 
BRANCH  46  49
HETATM   49  N   UNL     1      -7.638   5.871  71.116  1.00  0.00    -0.097 N  
HETATM   50  H   UNL     1      -7.415   6.268  72.028  1.00  0.00     0.000 HD 
BRANCH  49  51
HETATM   51  S   UNL     1      -6.850   4.559  70.622  1.00  0.00    -0.037 S  
HETATM   52  O   UNL     1      -7.580   3.951  69.529  1.00  0.00    -0.052 OA 
HETATM   53  O   UNL     1      -5.442   4.891  70.465  1.00  0.00    -0.007 OA 
BRANCH  51  54
HETATM   54  C   UNL     1      -6.861   3.373  72.015  1.00  0.00    -0.023 C  
HETATM   55  C   UNL     1      -6.226   3.833  73.244  1.00  0.00    -0.016 C  
HETATM   56  C   UNL     1      -7.754   3.769  73.207  1.00  0.00    -0.074 C  
ENDBRANCH  51  54
ENDBRANCH  49  51
ENDBRANCH  46  49
ENDBRANCH  43  46
BRANCH  44  57
HETATM   57  C   UNL     1      -5.795   7.630  69.684  1.00  0.00    -0.023 C  
HETATM   58  C   UNL     1      -5.319   6.765  68.758  1.00  0.00    -0.016 C  
ENDBRANCH  44  57
ENDBRANCH  41  43
ENDBRANCH  38  41
ENDBRANCH  22  38
BRANCH  24  59
HETATM   59  O   UNL     1      -6.438   2.915  67.132  1.00  0.00    -0.035 OA 
HETATM   60  C   UNL     1      -5.288   3.745  67.001  1.00  0.00    -0.013 C  
ENDBRANCH  24  59
TORSDOF 10
ENDMDL
MODEL       75
REMARK 921   NORMALIZED FREE ENERGY PREDICTED BY IDOCK:   36.70 KCAL/MOL
REMARK 922        TOTAL FREE ENERGY PREDICTED BY IDOCK:   55.51 KCAL/MOL
REMARK 923 INTER-LIGAND FREE ENERGY PREDICTED BY IDOCK:   34.59 KCAL/MOL
REMARK 924 INTRA-LIGAND FREE ENERGY PREDICTED BY IDOCK:   20.92 KCAL/MOL
REMARK 927      BINDING AFFINITY PREDICTED BY RF-SCORE:    0.00 PKD
ROOT
HETATM    1  C   UNL     1     -12.159  20.104  66.792  1.00  0.00     2.942 C  
HETATM    2  C   UNL     1     -12.900  19.769  68.041  1.00  0.00     5.929 C  
HETATM    3  C   UNL     1     -11.436  20.218  68.203  1.00  0.00     1.811 C  
HETATM    4  O   UNL     1     -10.649  19.234  68.953  1.00  0.00    -0.025 OA 
HETATM    5  C   UNL     1      -9.379  19.453  69.461  1.00  0.00     0.143 C  
HETATM    6  N   UNL     1      -8.569  20.446  69.311  1.00  0.00     0.728 NA 
HETATM    7  O   UNL     1      -8.929  18.345  70.095  1.00  0.00     1.594 OA 
HETATM    8  H   UNL     1      -8.639  21.305  69.856  1.00  0.00     0.000 HD 
HETATM    9  H   UNL     1      -8.058  18.496  70.443  1.00  0.00     0.000 HD 
HETATM   10  C   UNL     1      -7.503  20.224  68.251  1.00  0.00    -0.139 C  
HETATM   11  C   UNL     1      -8.100  19.362  67.121  1.00  0.00    -0.266 C  
HETATM   12  N   UNL     1      -8.343  12.951  66.959  1.00  0.00    -0.150 NA 
HETATM   13  C   UNL     1      -9.046  11.825  67.091  1.00  0.00    -0.175 A  
HETATM   14  N   UNL     1      -8.199  17.971  67.333  1.00  0.00    -0.222 N  
HETATM   15  O   UNL     1      -8.597  19.891  66.117  1.00  0.00    -0.362 OA 
HETATM   16  C   UNL     1      -8.653  10.868  68.025  1.00  0.00    -0.131 A  
HETATM   17  C   UNL     1     -12.211  19.243  65.502  1.00  0.00     5.717 C  
HETATM   18  C   UNL     1      -7.330  17.300  66.351  1.00  0.00    -0.301 C  
HETATM   19  C   UNL     1      -8.138  16.210  65.657  1.00  0.00     1.385 C  
HETATM   20  O   UNL     1      -7.930  14.956  66.246  1.00  0.00     0.477 OA 
HETATM   21  C   UNL     1      -9.519  16.727  65.871  1.00  0.00    -0.185 C  
HETATM   22  C   UNL     1      -9.593  17.459  67.166  1.00  0.00    -0.265 C  
HETATM   23  C   UNL     1      -8.747  13.898  66.079  1.00  0.00     0.771 A  
HETATM   24  C   UNL     1      -9.383   9.697  68.196  1.00  0.00    -0.132 A  
HETATM   25  C   UNL     1      -9.906  13.696  65.262  1.00  0.00    -0.107 A  
HETATM   26  C   UNL     1     -10.522   9.503  67.426  1.00  0.00    -0.336 A  
HETATM   27  C   UNL     1     -10.544  14.632  64.215  1.00  0.00     0.441 C  
HETATM   28  C   UNL     1     -12.719  17.776  65.419  1.00  0.00     9.278 C  
HETATM   29  N   UNL     1     -10.616  12.543  65.412  1.00  0.00    -0.274 NA 
HETATM   30  C   UNL     1     -12.153  16.846  64.262  1.00  0.00     2.323 C  
HETATM   31  C   UNL     1     -11.901  15.338  64.668  1.00  0.00    -0.267 C  
HETATM   32  C   UNL     1     -10.204  11.617  66.308  1.00  0.00    -0.227 A  
HETATM   33  C   UNL     1     -10.926  10.455  66.487  1.00  0.00    -0.016 A  
ENDROOT
BRANCH  10  34
HETATM   34  C   UNL     1      -5.924  20.271  68.553  1.00  0.00    -0.320 C  
HETATM   35  C   UNL     1      -5.227  21.014  67.380  1.00  0.00    -0.279 C  
HETATM   36  C   UNL     1      -5.367  18.808  68.546  1.00  0.00    -0.192 C  
HETATM   37  C   UNL     1      -5.314  20.889  69.836  1.00  0.00    -0.390 C  
ENDBRANCH  10  34
BRANCH  22  38
HETATM   38  C   UNL     1     -10.494  16.561  68.165  1.00  0.00    -0.313 C  
HETATM   39  H   UNL     1     -12.214  16.573  69.072  1.00  0.00     0.000 HD 
HETATM   40  O   UNL     1     -11.685  17.101  68.486  1.00  0.00     0.374 OA 
BRANCH  38  41
HETATM   41  N   UNL     1     -10.070  15.476  68.741  1.00  0.00    -0.204 NA 
HETATM   42  H   UNL     1     -10.693  14.671  68.678  1.00  0.00     0.000 HD 
BRANCH  41  43
HETATM   43  C   UNL     1      -8.819  15.253  69.468  1.00  0.00    -0.181 C  
HETATM   44  C   UNL     1      -7.858  16.499  69.528  1.00  0.00     0.160 C  
HETATM   45  C   UNL     1      -8.685  16.101  70.731  1.00  0.00     3.247 C  
BRANCH  43  46
HETATM   46  C   UNL     1      -8.175  13.903  69.442  1.00  0.00     0.555 C  
HETATM   47  H   UNL     1      -7.875  12.470  68.199  1.00  0.00     0.000 HD 
HETATM   48  O   UNL     1      -8.284  13.327  68.215  1.00  0.00    -0.148 OA 
BRANCH  46  49
HETATM   49  N   UNL     1      -7.652  13.387  70.486  1.00  0.00     1.894 N  
HETATM   50  H   UNL     1      -8.207  12.747  71.054  1.00  0.00     0.000 HD 
BRANCH  49  51
HETATM   51  S   UNL     1      -6.143  13.716  70.931  1.00  0.00     0.123 S  
HETATM   52  O   UNL     1      -5.473  14.416  69.856  1.00  0.00    -0.093 OA 
HETATM   53  O   UNL     1      -6.165  14.284  72.271  1.00  0.00    -0.031 OA 
BRANCH  51  54
HETATM   54  C   UNL     1      -5.290  12.113  71.157  1.00  0.00    -0.089 C  
HETATM   55  C   UNL     1      -6.005  11.120  71.949  1.00  0.00     1.266 C  
HETATM   56  C   UNL     1      -5.939  10.917  70.434  1.00  0.00    -0.134 C  
ENDBRANCH  51  54
ENDBRANCH  49  51
ENDBRANCH  46  49
ENDBRANCH  43  46
BRANCH  44  57
HETATM   57  C   UNL     1      -6.394  16.397  69.691  1.00  0.00    -0.211 C  
HETATM   58  C   UNL     1      -5.516  15.864  68.809  1.00  0.00    -0.104 C  
ENDBRANCH  44  57
ENDBRANCH  41  43
ENDBRANCH  38  41
ENDBRANCH  22  38
BRANCH  24  59
HETATM   59  O   UNL     1      -9.099   8.686  69.070  1.00  0.00    -0.144 OA 
HETATM   60  C   UNL     1      -9.788   7.452  68.895  1.00  0.00    -0.157 C  
ENDBRANCH  24  59
TORSDOF 10
ENDMDL
MODEL       76
REMARK 921   NORMALIZED FREE ENERGY PREDICTED BY IDOCK:   42.04 KCAL/MOL
REMARK 922        TOTAL FREE ENERGY PREDICTED BY IDOCK:   63.96 KCAL/MOL
REMARK 923 INTER-LIGAND FREE ENERGY PREDICTED BY IDOCK:   56.16 KCAL/MOL
REMARK 924 INTRA-LIGAND FREE ENERGY PREDICTED BY IDOCK:    7.80 KCAL/MOL
REMARK 927      BINDING AFFINITY PREDICTED BY RF-SCORE:    0.00 PKD
ROOT
HETATM    1  C   UNL     1      -7.857   8.309  68.649  1.00  0.00    -0.120 C  
HETATM    2  C   UNL     1      -6.709   8.811  69.457  1.00  0.00    -0.047 C  
HETATM    3  C   UNL     1      -8.109   8.945  70.084  1.00  0.00    -0.122 C  
HETATM    4  O   UNL     1      -8.395  10.328  70.476  1.00  0.00     0.112 OA 
HETATM    5  C   UNL     1      -9.459  10.725  71.271  1.00  0.00     5.178 C  
HETATM    6  N   UNL     1     -10.465  10.060  71.728  1.00  0.00     0.680 NA 
HETATM    7  O   UNL     1      -9.443  12.067  71.441  1.00  0.00     9.250 OA 
HETATM    8  H   UNL     1     -10.412   9.479  72.565  1.00  0.00     0.000 HD 
HETATM    9  H   UNL     1     -10.172  12.339  71.986  1.00  0.00     0.000 HD 
HETATM   10  C   UNL     1     -11.737  10.218  70.912  1.00  0.00    -0.379 C  
HETATM   11  C   UNL     1     -11.356  10.379  69.426  1.00  0.00    -0.250 C  
HETATM   12  N   UNL     1      -9.827  15.867  66.472  1.00  0.00    -0.246 NA 
HETATM   13  C   UNL     1      -8.898  16.677  65.963  1.00  0.00    -0.207 A  
HETATM   14  N   UNL     1     -10.904  11.643  68.994  1.00  0.00    -0.213 N  
HETATM   15  O   UNL     1     -11.321   9.396  68.673  1.00  0.00     0.088 OA 
HETATM   16  C   UNL     1      -8.768  17.976  66.450  1.00  0.00    -0.249 A  
HETATM   17  C   UNL     1      -8.030   8.586  67.132  1.00  0.00    -0.101 C  
HETATM   18  C   UNL     1     -11.875  12.160  68.013  1.00  0.00    -0.285 C  
HETATM   19  C   UNL     1     -11.113  12.609  66.773  1.00  0.00    -0.277 C  
HETATM   20  O   UNL     1     -10.857  13.986  66.791  1.00  0.00    -0.290 OA 
HETATM   21  C   UNL     1      -9.876  11.789  66.908  1.00  0.00    -0.221 C  
HETATM   22  C   UNL     1      -9.558  11.585  68.349  1.00  0.00    -0.195 C  
HETATM   23  C   UNL     1      -9.929  14.592  66.025  1.00  0.00    -0.316 A  
HETATM   24  C   UNL     1      -7.790  18.830  65.951  1.00  0.00    -0.070 A  
HETATM   25  C   UNL     1      -9.068  14.106  64.989  1.00  0.00     1.877 A  
HETATM   26  C   UNL     1      -6.936  18.360  64.963  1.00  0.00     0.689 A  
HETATM   27  C   UNL     1      -9.003  12.706  64.343  1.00  0.00     1.572 C  
HETATM   28  C   UNL     1      -7.276   9.680  66.326  1.00  0.00    -0.094 C  
HETATM   29  N   UNL     1      -8.121  14.943  64.482  1.00  0.00     8.233 NA 
HETATM   30  C   UNL     1      -7.966  10.265  65.019  1.00  0.00    -0.144 C  
HETATM   31  C   UNL     1      -7.753  11.814  64.777  1.00  0.00     2.185 C  
HETATM   32  C   UNL     1      -8.026  16.208  64.953  1.00  0.00     6.233 A  
HETATM   33  C   UNL     1      -7.056  17.060  64.467  1.00  0.00     6.967 A  
ENDROOT
BRANCH  10  34
HETATM   34  C   UNL     1     -13.115  10.791  71.512  1.00  0.00    -0.517 C  
HETATM   35  C   UNL     1     -14.081   9.596  71.738  1.00  0.00    -0.050 C  
HETATM   36  C   UNL     1     -13.787  11.710  70.438  1.00  0.00     2.909 C  
HETATM   37  C   UNL     1     -13.201  11.625  72.815  1.00  0.00     1.610 C  
ENDBRANCH  10  34
BRANCH  22  38
HETATM   38  C   UNL     1      -8.220  12.441  68.661  1.00  0.00    -0.002 C  
HETATM   39  H   UNL     1      -6.814  12.615  69.992  1.00  0.00     0.000 HD 
HETATM   40  O   UNL     1      -7.599  12.113  69.809  1.00  0.00     0.619 OA 
BRANCH  38  41
HETATM   41  N   UNL     1      -7.838  13.464  67.957  1.00  0.00    -0.133 NA 
HETATM   42  H   UNL     1      -7.574  13.261  66.993  1.00  0.00     0.000 HD 
BRANCH  41  43
HETATM   43  C   UNL     1      -7.733  14.868  68.360  1.00  0.00    -0.115 C  
HETATM   44  C   UNL     1      -6.260  15.405  68.510  1.00  0.00    -0.095 C  
HETATM   45  C   UNL     1      -7.095  15.763  67.299  1.00  0.00    -0.245 C  
BRANCH  43  46
HETATM   46  C   UNL     1      -8.765  15.459  69.268  1.00  0.00    -0.252 C  
HETATM   47  H   UNL     1      -9.765  17.089  69.448  1.00  0.00     0.000 HD 
HETATM   48  O   UNL     1      -9.110  16.714  68.872  1.00  0.00    -0.245 OA 
BRANCH  46  49
HETATM   49  N   UNL     1      -9.189  14.838  70.299  1.00  0.00     0.177 N  
HETATM   50  H   UNL     1      -8.696  14.002  70.612  1.00  0.00     0.000 HD 
BRANCH  49  51
HETATM   51  S   UNL     1     -10.479  15.336  71.119  1.00  0.00     0.743 S  
HETATM   52  O   UNL     1     -10.779  16.702  70.748  1.00  0.00     0.142 OA 
HETATM   53  O   UNL     1     -11.510  14.312  71.034  1.00  0.00    -0.146 OA 
BRANCH  51  54
HETATM   54  C   UNL     1     -10.019  15.337  72.890  1.00  0.00     5.422 C  
HETATM   55  C   UNL     1     -11.090  15.661  73.824  1.00  0.00     1.835 C  
HETATM   56  C   UNL     1     -10.637  14.202  73.729  1.00  0.00     5.426 C  
ENDBRANCH  51  54
ENDBRANCH  49  51
ENDBRANCH  46  49
ENDBRANCH  43  46
BRANCH  44  57
HETATM   57  C   UNL     1      -5.885  16.529  69.389  1.00  0.00    -0.167 C  
HETATM   58  C   UNL     1      -5.250  17.667  69.022  1.00  0.00    -0.170 C  
ENDBRANCH  44  57
ENDBRANCH  41  43
ENDBRANCH  38  41
ENDBRANCH  22  38
BRANCH  24  59
HETATM   59  O   UNL     1      -7.567  20.120  66.340  1.00  0.00    -0.282 OA 
HETATM   60  C   UNL     1      -7.225  21.062  65.329  1.00  0.00     0.458 C  
ENDBRANCH  24  59
TORSDOF 10
ENDMDL
MODEL       77
REMARK 921   NORMALIZED FREE ENERGY PREDICTED BY IDOCK:   43.28 KCAL/MOL
REMARK 922        TOTAL FREE ENERGY PREDICTED BY IDOCK:   65.93 KCAL/MOL
REMARK 923 INTER-LIGAND FREE ENERGY PREDICTED BY IDOCK:   26.23 KCAL/MOL
REMARK 924 INTRA-LIGAND FREE ENERGY PREDICTED BY IDOCK:   39.70 KCAL/MOL
REMARK 927      BINDING AFFINITY PREDICTED BY RF-SCORE:    0.00 PKD
ROOT
HETATM    1  C   UNL     1      -7.146   3.800  69.118  1.00  0.00    -0.046 C  
HETATM    2  C   UNL     1      -5.779   4.359  68.915  1.00  0.00    -0.017 C  
HETATM    3  C   UNL     1      -6.551   4.846  70.156  1.00  0.00    -0.036 C  
HETATM    4  O   UNL     1      -6.644   6.309  70.194  1.00  0.00    -0.042 OA 
HETATM    5  C   UNL     1      -7.063   7.050  71.287  1.00  0.00    -0.073 C  
HETATM    6  N   UNL     1      -7.563   6.679  72.416  1.00  0.00    -0.094 NA 
HETATM    7  O   UNL     1      -7.040   8.371  70.996  1.00  0.00    -0.051 OA 
HETATM    8  H   UNL     1      -6.991   6.359  73.198  1.00  0.00     0.000 HD 
HETATM    9  H   UNL     1      -7.328   8.879  71.745  1.00  0.00     0.000 HD 
HETATM   10  C   UNL     1      -9.079   6.759  72.482  1.00  0.00    -0.133 C  
HETATM   11  C   UNL     1      -9.653   6.439  71.087  1.00  0.00    -0.174 C  
HETATM   12  N   UNL     1     -10.517  10.610  66.286  1.00  0.00    -0.230 NA 
HETATM   13  C   UNL     1     -10.119  11.113  65.117  1.00  0.00    -0.281 A  
HETATM   14  N   UNL     1      -9.627   7.458  70.112  1.00  0.00    -0.165 N  
HETATM   15  O   UNL     1     -10.001   5.286  70.796  1.00  0.00    -0.185 OA 
HETATM   16  C   UNL     1      -9.815  12.469  65.014  1.00  0.00    -0.111 A  
HETATM   17  C   UNL     1      -8.194   3.652  67.982  1.00  0.00    -0.090 C  
HETATM   18  C   UNL     1     -11.019   7.794  69.769  1.00  0.00    -0.158 C  
HETATM   19  C   UNL     1     -11.162   7.767  68.252  1.00  0.00     0.536 C  
HETATM   20  O   UNL     1     -11.036   9.047  67.697  1.00  0.00    -0.152 OA 
HETATM   21  C   UNL     1     -10.029   6.868  67.894  1.00  0.00    -0.174 C  
HETATM   22  C   UNL     1      -8.914   7.045  68.865  1.00  0.00    -0.129 C  
HETATM   23  C   UNL     1     -10.776   9.284  66.396  1.00  0.00     0.189 A  
HETATM   24  C   UNL     1      -9.375  13.012  63.811  1.00  0.00     2.100 A  
HETATM   25  C   UNL     1     -10.657   8.416  65.264  1.00  0.00     3.888 A  
HETATM   26  C   UNL     1      -9.233  12.173  62.715  1.00  0.00     1.138 A  
HETATM   27  C   UNL     1     -10.888   6.893  65.166  1.00  0.00     5.489 C  
HETATM   28  C   UNL     1      -8.130   4.364  66.602  1.00  0.00    -0.102 C  
HETATM   29  N   UNL     1     -10.244   8.944  64.079  1.00  0.00     3.435 NA 
HETATM   30  C   UNL     1      -9.493   4.635  65.829  1.00  0.00    -0.176 C  
HETATM   31  C   UNL     1      -9.566   6.009  65.049  1.00  0.00     0.869 C  
HETATM   32  C   UNL     1      -9.976  10.267  63.994  1.00  0.00    -0.125 A  
HETATM   33  C   UNL     1      -9.535  10.812  62.806  1.00  0.00    -0.358 A  
ENDROOT
BRANCH  10  34
HETATM   34  C   UNL     1      -9.878   7.653  73.555  1.00  0.00    -0.357 C  
HETATM   35  C   UNL     1     -10.561   8.825  72.797  1.00  0.00     0.307 C  
HETATM   36  C   UNL     1      -8.848   8.300  74.539  1.00  0.00     0.635 C  
HETATM   37  C   UNL     1     -10.976   7.090  74.491  1.00  0.00     2.305 C  
ENDBRANCH  10  34
BRANCH  22  38
HETATM   38  C   UNL     1      -7.708   7.774  68.070  1.00  0.00    -0.126 C  
HETATM   39  H   UNL     1      -6.213   8.981  68.368  1.00  0.00     0.000 HD 
HETATM   40  O   UNL     1      -6.921   8.554  68.835  1.00  0.00    -0.060 OA 
BRANCH  38  41
HETATM   41  N   UNL     1      -7.575   7.746  66.778  1.00  0.00    -0.096 NA 
HETATM   42  H   UNL     1      -8.073   8.476  66.268  1.00  0.00     0.000 HD 
BRANCH  41  43
HETATM   43  C   UNL     1      -6.807   6.809  65.955  1.00  0.00    -0.056 C  
HETATM   44  C   UNL     1      -7.549   6.308  64.659  1.00  0.00    -0.098 C  
HETATM   45  C   UNL     1      -6.457   7.354  64.572  1.00  0.00    -0.040 C  
BRANCH  43  46
HETATM   46  C   UNL     1      -5.861   5.850  66.606  1.00  0.00    -0.018 C  
HETATM   47  H   UNL     1      -4.909   5.663  68.263  1.00  0.00     0.000 HD 
HETATM   48  O   UNL     1      -5.510   6.272  67.850  1.00  0.00    -0.004 OA 
BRANCH  46  49
HETATM   49  N   UNL     1      -5.431   4.813  65.999  1.00  0.00    -0.013 N  
HETATM   50  H   UNL     1      -4.498   4.830  65.587  1.00  0.00     0.000 HD 
BRANCH  49  51
HETATM   51  S   UNL     1      -6.318   3.479  65.866  1.00  0.00    -0.033 S  
HETATM   52  O   UNL     1      -5.579   2.361  66.411  1.00  0.00    -0.019 OA 
HETATM   53  O   UNL     1      -7.665   3.765  66.337  1.00  0.00    -0.087 OA 
BRANCH  51  54
HETATM   54  C   UNL     1      -6.546   3.165  64.078  1.00  0.00    -0.032 C  
HETATM   55  C   UNL     1      -5.774   2.059  63.524  1.00  0.00    -0.009 C  
HETATM   56  C   UNL     1      -7.276   1.854  63.729  1.00  0.00    -0.051 C  
ENDBRANCH  51  54
ENDBRANCH  49  51
ENDBRANCH  46  49
ENDBRANCH  43  46
BRANCH  44  57
HETATM   57  C   UNL     1      -7.260   5.021  63.997  1.00  0.00    -0.050 C  
HETATM   58  C   UNL     1      -7.084   4.813  62.671  1.00  0.00    -0.038 C  
ENDBRANCH  44  57
ENDBRANCH  41  43
ENDBRANCH  38  41
ENDBRANCH  22  38
BRANCH  24  59
HETATM   59  O   UNL     1      -9.053  14.319  63.583  1.00  0.00     5.456 OA 
HETATM   60  C   UNL     1      -8.801  15.142  64.718  1.00  0.00     4.167 C  
ENDBRANCH  24  59
TORSDOF 10
ENDMDL
MODEL       78
REMARK 921   NORMALIZED FREE ENERGY PREDICTED BY IDOCK:   47.47 KCAL/MOL
REMARK 922        TOTAL FREE ENERGY PREDICTED BY IDOCK:   72.56 KCAL/MOL
REMARK 923 INTER-LIGAND FREE ENERGY PREDICTED BY IDOCK:   72.29 KCAL/MOL
REMARK 924 INTRA-LIGAND FREE ENERGY PREDICTED BY IDOCK:    0.27 KCAL/MOL
REMARK 927      BINDING AFFINITY PREDICTED BY RF-SCORE:    0.00 PKD
ROOT
HETATM    1  C   UNL     1     -10.263   8.300  62.595  1.00  0.00     5.846 C  
HETATM    2  C   UNL     1      -8.985   9.041  62.393  1.00  0.00    -0.099 C  
HETATM    3  C   UNL     1      -8.978   7.923  63.452  1.00  0.00     1.084 C  
HETATM    4  O   UNL     1      -8.524   8.417  64.756  1.00  0.00    -0.162 OA 
HETATM    5  C   UNL     1      -8.186   7.615  65.834  1.00  0.00    -0.133 C  
HETATM    6  N   UNL     1      -8.297   6.342  66.008  1.00  0.00    -0.126 NA 
HETATM    7  O   UNL     1      -7.814   8.379  66.888  1.00  0.00    -0.094 OA 
HETATM    8  H   UNL     1      -7.617   5.673  65.648  1.00  0.00     0.000 HD 
HETATM    9  H   UNL     1      -7.582   7.830  67.628  1.00  0.00     0.000 HD 
HETATM   10  C   UNL     1      -9.528   5.926  66.795  1.00  0.00    -0.142 C  
HETATM   11  C   UNL     1     -10.678   6.900  66.467  1.00  0.00     0.104 C  
HETATM   12  N   UNL     1     -11.826  12.524  69.338  1.00  0.00    -0.316 NA 
HETATM   13  C   UNL     1     -11.770  13.857  69.316  1.00  0.00    -0.334 A  
HETATM   14  N   UNL     1     -10.679   8.159  67.104  1.00  0.00    -0.275 N  
HETATM   15  O   UNL     1     -11.496   6.635  65.576  1.00  0.00     3.528 OA 
HETATM   16  C   UNL     1     -11.073  14.538  70.312  1.00  0.00    -0.082 A  
HETATM   17  C   UNL     1     -11.651   8.987  62.695  1.00  0.00    12.524 C  
HETATM   18  C   UNL     1     -11.876   8.234  67.959  1.00  0.00     2.836 C  
HETATM   19  C   UNL     1     -12.604   9.537  67.655  1.00  0.00     7.674 C  
HETATM   20  O   UNL     1     -12.263  10.547  68.564  1.00  0.00    -0.279 OA 
HETATM   21  C   UNL     1     -12.103   9.807  66.278  1.00  0.00     6.080 C  
HETATM   22  C   UNL     1     -10.712   9.295  66.134  1.00  0.00     0.535 C  
HETATM   23  C   UNL     1     -12.471  11.861  68.349  1.00  0.00     0.870 A  
HETATM   24  C   UNL     1     -10.982  15.926  70.297  1.00  0.00    -0.362 A  
HETATM   25  C   UNL     1     -13.124  12.571  67.291  1.00  0.00     3.917 A  
HETATM   26  C   UNL     1     -11.591  16.622  69.261  1.00  0.00     0.222 A  
HETATM   27  C   UNL     1     -13.898  12.025  66.073  1.00  0.00     8.684 C  
HETATM   28  C   UNL     1     -11.889  10.500  62.958  1.00  0.00     3.137 C  
HETATM   29  N   UNL     1     -13.054  13.931  67.279  1.00  0.00     1.307 NA 
HETATM   30  C   UNL     1     -13.253  10.941  63.645  1.00  0.00     3.317 C  
HETATM   31  C   UNL     1     -13.136  12.135  64.676  1.00  0.00     0.377 C  
HETATM   32  C   UNL     1     -12.392  14.574  68.268  1.00  0.00     0.048 A  
HETATM   33  C   UNL     1     -12.293  15.950  68.258  1.00  0.00     0.764 A  
ENDROOT
BRANCH  10  34
HETATM   34  C   UNL     1      -9.466   5.104  68.176  1.00  0.00    -0.160 C  
HETATM   35  C   UNL     1      -8.300   5.675  69.029  1.00  0.00    -0.100 C  
HETATM   36  C   UNL     1      -9.100   3.616  67.861  1.00  0.00    -0.196 C  
HETATM   37  C   UNL     1     -10.659   4.988  69.158  1.00  0.00     0.056 C  
ENDBRANCH  10  34
BRANCH  22  38
HETATM   38  C   UNL     1      -9.744  10.587  66.017  1.00  0.00    -0.205 C  
HETATM   39  H   UNL     1      -9.820  12.521  65.832  1.00  0.00     0.000 HD 
HETATM   40  O   UNL     1     -10.388  11.763  65.900  1.00  0.00    -0.226 OA 
BRANCH  38  41
HETATM   41  N   UNL     1      -8.453  10.511  65.893  1.00  0.00    -0.157 NA 
HETATM   42  H   UNL     1      -8.006   9.745  66.397  1.00  0.00     0.000 HD 
BRANCH  41  43
HETATM   43  C   UNL     1      -7.552  11.377  65.130  1.00  0.00     0.957 C  
HETATM   44  C   UNL     1      -6.757  10.652  63.979  1.00  0.00     0.220 C  
HETATM   45  C   UNL     1      -7.948  11.530  63.663  1.00  0.00     1.323 C  
BRANCH  43  46
HETATM   46  C   UNL     1      -6.867  12.521  65.808  1.00  0.00     3.550 C  
HETATM   47  H   UNL     1      -5.080  13.100  66.210  1.00  0.00     0.000 HD 
HETATM   48  O   UNL     1      -5.515  12.374  65.780  1.00  0.00     1.424 OA 
BRANCH  46  49
HETATM   49  N   UNL     1      -7.523  13.460  66.371  1.00  0.00     0.914 N  
HETATM   50  H   UNL     1      -7.931  14.195  65.793  1.00  0.00     0.000 HD 
BRANCH  49  51
HETATM   51  S   UNL     1      -7.725  13.518  67.964  1.00  0.00    -0.161 S  
HETATM   52  O   UNL     1      -8.264  14.812  68.327  1.00  0.00    -0.130 OA 
HETATM   53  O   UNL     1      -8.396  12.300  68.394  1.00  0.00    -0.167 OA 
BRANCH  51  54
HETATM   54  C   UNL     1      -6.065  13.385  68.719  1.00  0.00    -0.086 C  
HETATM   55  C   UNL     1      -6.038  13.102  70.149  1.00  0.00    -0.099 C  
HETATM   56  C   UNL     1      -5.668  11.971  69.188  1.00  0.00    -0.064 C  
ENDBRANCH  51  54
ENDBRANCH  49  51
ENDBRANCH  46  49
ENDBRANCH  43  46
BRANCH  44  57
HETATM   57  C   UNL     1      -5.456  11.121  63.463  1.00  0.00     0.433 C  
HETATM   58  C   UNL     1      -5.247  11.865  62.352  1.00  0.00     0.695 C  
ENDBRANCH  44  57
ENDBRANCH  41  43
ENDBRANCH  38  41
ENDBRANCH  22  38
BRANCH  24  59
HETATM   59  O   UNL     1     -10.335  16.705  71.214  1.00  0.00     1.530 OA 
HETATM   60  C   UNL     1     -11.070  17.771  71.805  1.00  0.00     2.487 C  
ENDBRANCH  24  59
TORSDOF 10
ENDMDL
MODEL       79
REMARK 921   NORMALIZED FREE ENERGY PREDICTED BY IDOCK:   48.45 KCAL/MOL
REMARK 922        TOTAL FREE ENERGY PREDICTED BY IDOCK:   74.12 KCAL/MOL
REMARK 923 INTER-LIGAND FREE ENERGY PREDICTED BY IDOCK:   51.12 KCAL/MOL
REMARK 924 INTRA-LIGAND FREE ENERGY PREDICTED BY IDOCK:   23.01 KCAL/MOL
REMARK 927      BINDING AFFINITY PREDICTED BY RF-SCORE:    0.00 PKD
ROOT
HETATM    1  C   UNL     1     -13.117  14.381  67.171  1.00  0.00     2.114 C  
HETATM    2  C   UNL     1     -13.930  13.146  66.981  1.00  0.00     9.821 C  
HETATM    3  C   UNL     1     -13.655  13.579  68.433  1.00  0.00     6.185 C  
HETATM    4  O   UNL     1     -13.037  12.499  69.210  1.00  0.00     1.304 OA 
HETATM    5  C   UNL     1     -12.888  12.497  70.588  1.00  0.00     0.065 C  
HETATM    6  N   UNL     1     -13.113  13.418  71.462  1.00  0.00    -0.361 NA 
HETATM    7  O   UNL     1     -12.276  11.360  70.992  1.00  0.00    -0.346 OA 
HETATM    8  H   UNL     1     -14.042  13.611  71.837  1.00  0.00     0.000 HD 
HETATM    9  H   UNL     1     -12.174  11.359  71.937  1.00  0.00     0.000 HD 
HETATM   10  C   UNL     1     -11.875  14.189  71.887  1.00  0.00     0.378 C  
HETATM   11  C   UNL     1     -10.922  14.299  70.678  1.00  0.00     0.483 C  
HETATM   12  N   UNL     1      -6.537   9.966  68.894  1.00  0.00    -0.045 NA 
HETATM   13  C   UNL     1      -6.161   8.984  68.074  1.00  0.00    -0.050 A  
HETATM   14  N   UNL     1     -10.130  13.177  70.357  1.00  0.00     3.104 N  
HETATM   15  O   UNL     1     -10.951  15.292  69.939  1.00  0.00    -0.255 OA 
HETATM   16  C   UNL     1      -5.847   7.730  68.592  1.00  0.00    -0.031 A  
HETATM   17  C   UNL     1     -11.825  14.693  66.370  1.00  0.00    -0.304 C  
HETATM   18  C   UNL     1      -8.717  13.552  70.537  1.00  0.00     4.960 C  
HETATM   19  C   UNL     1      -7.952  13.162  69.279  1.00  0.00     0.596 C  
HETATM   20  O   UNL     1      -7.325  11.917  69.419  1.00  0.00     0.018 OA 
HETATM   21  C   UNL     1      -9.063  13.140  68.287  1.00  0.00    -0.181 C  
HETATM   22  C   UNL     1     -10.327  12.716  68.950  1.00  0.00    -0.031 C  
HETATM   23  C   UNL     1      -6.880  11.174  68.386  1.00  0.00    -0.066 A  
HETATM   24  C   UNL     1      -5.475   6.684  67.754  1.00  0.00    -0.011 A  
HETATM   25  C   UNL     1      -6.816  11.424  66.977  1.00  0.00    -0.137 A  
HETATM   26  C   UNL     1      -5.434   6.910  66.385  1.00  0.00    -0.022 A  
HETATM   27  C   UNL     1      -7.166  12.706  66.191  1.00  0.00     2.015 C  
HETATM   28  C   UNL     1     -11.005  13.661  65.548  1.00  0.00    -0.297 C  
HETATM   29  N   UNL     1      -6.435  10.411  66.152  1.00  0.00    -0.102 NA 
HETATM   30  C   UNL     1      -9.454  13.932  65.327  1.00  0.00     0.332 C  
HETATM   31  C   UNL     1      -8.530  12.648  65.367  1.00  0.00     1.768 C  
HETATM   32  C   UNL     1      -6.112   9.207  66.678  1.00  0.00    -0.064 A  
HETATM   33  C   UNL     1      -5.747   8.163  65.853  1.00  0.00    -0.037 A  
ENDROOT
BRANCH  10  34
HETATM   34  C   UNL     1     -11.348  14.265  73.405  1.00  0.00     1.734 C  
HETATM   35  C   UNL     1     -11.846  15.600  74.025  1.00  0.00    -0.243 C  
HETATM   36  C   UNL     1      -9.785  14.335  73.392  1.00  0.00     8.578 C  
HETATM   37  C   UNL     1     -11.659  13.188  74.474  1.00  0.00    10.170 C  
ENDBRANCH  10  34
BRANCH  22  38
HETATM   38  C   UNL     1     -10.687  11.244  68.380  1.00  0.00    -0.203 C  
HETATM   39  H   UNL     1     -12.103   9.912  68.420  1.00  0.00     0.000 HD 
HETATM   40  O   UNL     1     -11.892  10.776  68.755  1.00  0.00    -0.359 OA 
BRANCH  38  41
HETATM   41  N   UNL     1      -9.843  10.494  67.737  1.00  0.00    -0.163 NA 
HETATM   42  H   UNL     1      -9.570  10.830  66.813  1.00  0.00     0.000 HD 
BRANCH  41  43
HETATM   43  C   UNL     1      -9.231   9.232  68.159  1.00  0.00    -0.130 C  
HETATM   44  C   UNL     1      -8.908   8.231  66.987  1.00  0.00    -0.146 C  
HETATM   45  C   UNL     1      -7.807   9.040  67.640  1.00  0.00    -0.101 C  
BRANCH  43  46
HETATM   46  C   UNL     1      -9.598   8.632  69.479  1.00  0.00    -0.170 C  
HETATM   47  H   UNL     1     -11.065   8.657  70.718  1.00  0.00     0.000 HD 
HETATM   48  O   UNL     1     -10.833   9.038  69.880  1.00  0.00    -0.228 OA 
BRANCH  46  49
HETATM   49  N   UNL     1      -8.791   7.883  70.125  1.00  0.00    -0.143 N  
HETATM   50  H   UNL     1      -8.158   7.274  69.608  1.00  0.00     0.000 HD 
BRANCH  49  51
HETATM   51  S   UNL     1      -8.744   7.874  71.732  1.00  0.00    -0.133 S  
HETATM   52  O   UNL     1      -9.911   8.558  72.245  1.00  0.00    -0.290 OA 
HETATM   53  O   UNL     1      -8.429   6.526  72.181  1.00  0.00    -0.114 OA 
BRANCH  51  54
HETATM   54  C   UNL     1      -7.276   8.846  72.230  1.00  0.00     0.169 C  
HETATM   55  C   UNL     1      -6.391   9.258  71.148  1.00  0.00    -0.083 C  
HETATM   56  C   UNL     1      -7.286  10.322  71.786  1.00  0.00     2.491 C  
ENDBRANCH  51  54
ENDBRANCH  49  51
ENDBRANCH  46  49
ENDBRANCH  43  46
BRANCH  44  57
HETATM   57  C   UNL     1      -8.821   6.768  67.161  1.00  0.00    -0.119 C  
HETATM   58  C   UNL     1      -9.548   5.830  66.511  1.00  0.00    -0.175 C  
ENDBRANCH  44  57
ENDBRANCH  41  43
ENDBRANCH  38  41
ENDBRANCH  22  38
BRANCH  24  59
HETATM   59  O   UNL     1      -5.140   5.417  68.140  1.00  0.00    -0.003 OA 
HETATM   60  C   UNL     1      -6.041   4.733  69.003  1.00  0.00    -0.029 C  
ENDBRANCH  24  59
TORSDOF 10
ENDMDL
MODEL       80
REMARK 921   NORMALIZED FREE ENERGY PREDICTED BY IDOCK:   52.48 KCAL/MOL
REMARK 922        TOTAL FREE ENERGY PREDICTED BY IDOCK:   80.51 KCAL/MOL
REMARK 923 INTER-LIGAND FREE ENERGY PREDICTED BY IDOCK:   78.16 KCAL/MOL
REMARK 924 INTRA-LIGAND FREE ENERGY PREDICTED BY IDOCK:    2.35 KCAL/MOL
REMARK 927      BINDING AFFINITY PREDICTED BY RF-SCORE:    0.00 PKD
ROOT
HETATM    1  C   UNL     1      -7.284  16.920  69.320  1.00  0.00    -0.171 C  
HETATM    2  C   UNL     1      -7.168  16.593  67.870  1.00  0.00    -0.152 C  
HETATM    3  C   UNL     1      -8.591  16.652  68.456  1.00  0.00    -0.234 C  
HETATM    4  O   UNL     1      -9.330  15.410  68.205  1.00  0.00    -0.188 OA 
HETATM    5  C   UNL     1     -10.692  15.245  68.395  1.00  0.00    -0.250 C  
HETATM    6  N   UNL     1     -11.572  16.027  68.921  1.00  0.00    -0.374 NA 
HETATM    7  O   UNL     1     -11.060  13.982  68.079  1.00  0.00    -0.250 OA 
HETATM    8  H   UNL     1     -12.014  16.789  68.406  1.00  0.00     0.000 HD 
HETATM    9  H   UNL     1     -11.994  13.868  68.209  1.00  0.00     0.000 HD 
HETATM   10  C   UNL     1     -11.895  15.715  70.373  1.00  0.00    -0.370 C  
HETATM   11  C   UNL     1     -10.617  15.194  71.062  1.00  0.00     0.192 C  
HETATM   12  N   UNL     1      -8.550   9.119  71.133  1.00  0.00    -0.298 NA 
HETATM   13  C   UNL     1      -7.713   8.185  70.678  1.00  0.00    -0.085 A  
HETATM   14  N   UNL     1     -10.248  13.850  70.841  1.00  0.00     2.945 N  
HETATM   15  O   UNL     1      -9.872  15.966  71.680  1.00  0.00     2.314 OA 
HETATM   16  C   UNL     1      -8.219   7.037  70.072  1.00  0.00    -0.133 A  
HETATM   17  C   UNL     1      -6.385  16.294  70.419  1.00  0.00     0.326 C  
HETATM   18  C   UNL     1     -10.318  13.142  72.130  1.00  0.00    11.091 C  
HETATM   19  C   UNL     1      -9.010  12.389  72.338  1.00  0.00    23.615 C  
HETATM   20  O   UNL     1      -9.114  11.050  71.941  1.00  0.00     8.181 OA 
HETATM   21  C   UNL     1      -8.104  13.183  71.460  1.00  0.00    10.722 C  
HETATM   22  C   UNL     1      -8.864  13.715  70.295  1.00  0.00     3.538 C  
HETATM   23  C   UNL     1      -8.058  10.252  71.687  1.00  0.00     3.805 A  
HETATM   24  C   UNL     1      -7.365   6.061  69.568  1.00  0.00    -0.076 A  
HETATM   25  C   UNL     1      -6.646  10.453  71.820  1.00  0.00     1.531 A  
HETATM   26  C   UNL     1      -5.995   6.258  69.670  1.00  0.00    -0.018 A  
HETATM   27  C   UNL     1      -5.876  11.657  72.402  1.00  0.00     1.838 C  
HETATM   28  C   UNL     1      -5.514  15.018  70.249  1.00  0.00    -0.125 C  
HETATM   29  N   UNL     1      -5.804   9.494  71.346  1.00  0.00    -0.081 NA 
HETATM   30  C   UNL     1      -5.175  14.158  71.543  1.00  0.00    -0.175 C  
HETATM   31  C   UNL     1      -5.158  12.591  71.327  1.00  0.00    -0.148 C  
HETATM   32  C   UNL     1      -6.316   8.375  70.782  1.00  0.00    -0.037 A  
HETATM   33  C   UNL     1      -5.476   7.405  70.276  1.00  0.00    -0.023 A  
ENDROOT
BRANCH  10  34
HETATM   34  C   UNL     1     -13.368  15.340  70.897  1.00  0.00    -0.475 C  
HETATM   35  C   UNL     1     -13.244  14.136  71.872  1.00  0.00    -0.468 C  
HETATM   36  C   UNL     1     -14.223  14.844  69.684  1.00  0.00     4.026 C  
HETATM   37  C   UNL     1     -14.302  16.343  71.619  1.00  0.00     2.545 C  
ENDBRANCH  10  34
BRANCH  22  38
HETATM   38  C   UNL     1      -8.338  12.921  68.987  1.00  0.00     0.431 C  
HETATM   39  H   UNL     1      -7.055  13.084  67.534  1.00  0.00     0.000 HD 
HETATM   40  O   UNL     1      -7.364  13.550  68.302  1.00  0.00    -0.094 OA 
BRANCH  38  41
HETATM   41  N   UNL     1      -8.891  11.839  68.529  1.00  0.00    -0.278 NA 
HETATM   42  H   UNL     1      -9.528  11.364  69.169  1.00  0.00     0.000 HD 
BRANCH  41  43
HETATM   43  C   UNL     1      -8.725  11.207  67.218  1.00  0.00    -0.139 C  
HETATM   44  C   UNL     1      -7.260  10.726  66.897  1.00  0.00    -0.115 C  
HETATM   45  C   UNL     1      -8.332   9.733  67.295  1.00  0.00    -0.121 C  
BRANCH  43  46
HETATM   46  C   UNL     1      -9.555  11.666  66.061  1.00  0.00    -0.228 C  
HETATM   47  H   UNL     1      -9.455  11.718  64.144  1.00  0.00     0.000 HD 
HETATM   48  O   UNL     1      -8.928  11.426  64.878  1.00  0.00    -0.062 OA 
BRANCH  46  49
HETATM   49  N   UNL     1     -10.678  12.250  66.228  1.00  0.00    -0.252 N  
HETATM   50  H   UNL     1     -10.793  12.887  67.016  1.00  0.00     0.000 HD 
BRANCH  49  51
HETATM   51  S   UNL     1     -11.916  12.009  65.232  1.00  0.00    -0.003 S  
HETATM   52  O   UNL     1     -11.618  12.612  63.950  1.00  0.00    -0.378 OA 
HETATM   53  O   UNL     1     -12.312  10.611  65.308  1.00  0.00     2.485 OA 
BRANCH  51  54
HETATM   54  C   UNL     1     -13.350  12.902  65.936  1.00  0.00     2.004 C  
HETATM   55  C   UNL     1     -13.070  13.734  67.099  1.00  0.00     2.005 C  
HETATM   56  C   UNL     1     -13.320  14.433  65.761  1.00  0.00     0.735 C  
ENDBRANCH  51  54
ENDBRANCH  49  51
ENDBRANCH  46  49
ENDBRANCH  43  46
BRANCH  44  57
HETATM   57  C   UNL     1      -6.728  10.584  65.528  1.00  0.00    -0.092 C  
HETATM   58  C   UNL     1      -6.782   9.479  64.748  1.00  0.00    -0.096 C  
ENDBRANCH  44  57
ENDBRANCH  41  43
ENDBRANCH  38  41
ENDBRANCH  22  38
BRANCH  24  59
HETATM   59  O   UNL     1      -7.736   4.895  68.961  1.00  0.00    -0.071 OA 
HETATM   60  C   UNL     1      -8.715   4.974  67.930  1.00  0.00    -0.103 C  
ENDBRANCH  24  59
TORSDOF 10
ENDMDL
MODEL       81
REMARK 921   NORMALIZED FREE ENERGY PREDICTED BY IDOCK:   55.52 KCAL/MOL
REMARK 922        TOTAL FREE ENERGY PREDICTED BY IDOCK:   85.32 KCAL/MOL
REMARK 923 INTER-LIGAND FREE ENERGY PREDICTED BY IDOCK:   34.98 KCAL/MOL
REMARK 924 INTRA-LIGAND FREE ENERGY PREDICTED BY IDOCK:   50.35 KCAL/MOL
REMARK 927      BINDING AFFINITY PREDICTED BY RF-SCORE:    0.00 PKD
ROOT
HETATM    1  C   UNL     1     -10.641   8.738  63.485  1.00  0.00     7.751 C  
HETATM    2  C   UNL     1      -9.502   9.237  62.664  1.00  0.00     0.578 C  
HETATM    3  C   UNL     1      -9.155   8.289  63.827  1.00  0.00     1.099 C  
HETATM    4  O   UNL     1      -8.164   8.882  64.730  1.00  0.00    -0.145 OA 
HETATM    5  C   UNL     1      -7.482   8.196  65.721  1.00  0.00    -0.080 C  
HETATM    6  N   UNL     1      -7.619   6.992  66.162  1.00  0.00    -0.093 NA 
HETATM    7  O   UNL     1      -6.645   9.031  66.380  1.00  0.00    -0.065 OA 
HETATM    8  H   UNL     1      -7.208   6.182  65.699  1.00  0.00     0.000 HD 
HETATM    9  H   UNL     1      -6.177   8.561  67.060  1.00  0.00     0.000 HD 
HETATM   10  C   UNL     1      -8.448   6.884  67.431  1.00  0.00    -0.121 C  
HETATM   11  C   UNL     1      -9.543   7.970  67.401  1.00  0.00    -0.153 C  
HETATM   12  N   UNL     1      -8.922  14.047  69.368  1.00  0.00     0.473 NA 
HETATM   13  C   UNL     1      -8.767  15.339  69.075  1.00  0.00    -0.226 A  
HETATM   14  N   UNL     1      -9.174   9.290  67.736  1.00  0.00    -0.129 N  
HETATM   15  O   UNL     1     -10.675   7.714  66.968  1.00  0.00    -0.348 OA 
HETATM   16  C   UNL     1      -7.666  16.035  69.570  1.00  0.00    -0.080 A  
HETATM   17  C   UNL     1     -11.801   9.639  63.987  1.00  0.00     9.531 C  
HETATM   18  C   UNL     1      -9.902   9.668  68.960  1.00  0.00    -0.182 C  
HETATM   19  C   UNL     1     -10.576  11.013  68.723  1.00  0.00    -0.202 C  
HETATM   20  O   UNL     1      -9.806  12.073  69.217  1.00  0.00     0.212 OA 
HETATM   21  C   UNL     1     -10.666  11.008  67.236  1.00  0.00    -0.312 C  
HETATM   22  C   UNL     1      -9.506  10.272  66.660  1.00  0.00    -0.166 C  
HETATM   23  C   UNL     1      -9.972  13.361  68.856  1.00  0.00     0.046 A  
HETATM   24  C   UNL     1      -7.471  17.377  69.257  1.00  0.00    -0.026 A  
HETATM   25  C   UNL     1     -10.938  14.011  68.023  1.00  0.00    -0.251 A  
HETATM   26  C   UNL     1      -8.391  18.008  68.431  1.00  0.00    -0.305 A  
HETATM   27  C   UNL     1     -12.189  13.427  67.333  1.00  0.00    -0.262 C  
HETATM   28  C   UNL     1     -11.780  11.192  64.031  1.00  0.00     0.455 C  
HETATM   29  N   UNL     1     -10.764  15.328  67.728  1.00  0.00    -0.278 NA 
HETATM   30  C   UNL     1     -12.697  11.930  65.099  1.00  0.00     0.932 C  
HETATM   31  C   UNL     1     -12.064  13.223  65.756  1.00  0.00    -0.491 C  
HETATM   32  C   UNL     1      -9.701  15.992  68.238  1.00  0.00    -0.214 A  
HETATM   33  C   UNL     1      -9.498  17.321  67.929  1.00  0.00    -0.266 A  
ENDROOT
BRANCH  10  34
HETATM   34  C   UNL     1      -7.893   6.263  68.807  1.00  0.00    -0.101 C  
HETATM   35  C   UNL     1      -6.696   7.130  69.284  1.00  0.00    -0.049 C  
HETATM   36  C   UNL     1      -7.321   4.835  68.520  1.00  0.00    -0.065 C  
HETATM   37  C   UNL     1      -8.768   6.060  70.070  1.00  0.00    -0.135 C  
ENDBRANCH  10  34
BRANCH  22  38
HETATM   38  C   UNL     1      -8.566  11.369  65.931  1.00  0.00    -0.049 C  
HETATM   39  H   UNL     1      -6.820  12.209  66.090  1.00  0.00     0.000 HD 
HETATM   40  O   UNL     1      -7.372  11.565  66.519  1.00  0.00    -0.108 OA 
BRANCH  38  41
HETATM   41  N   UNL     1      -8.963  12.119  64.947  1.00  0.00    -0.024 NA 
HETATM   42  H   UNL     1      -8.576  11.887  64.032  1.00  0.00     0.000 HD 
BRANCH  41  43
HETATM   43  C   UNL     1      -9.891  13.252  64.973  1.00  0.00    -0.040 C  
HETATM   44  C   UNL     1     -11.339  12.933  64.440  1.00  0.00    -0.402 C  
HETATM   45  C   UNL     1     -11.070  13.056  65.924  1.00  0.00    -0.303 C  
BRANCH  43  46
HETATM   46  C   UNL     1      -9.378  14.639  64.747  1.00  0.00     1.747 C  
HETATM   47  H   UNL     1     -10.006  16.315  64.049  1.00  0.00     0.000 HD 
HETATM   48  O   UNL     1     -10.332  15.434  64.192  1.00  0.00     0.422 OA 
BRANCH  46  49
HETATM   49  N   UNL     1      -8.172  14.961  65.012  1.00  0.00     4.587 N  
HETATM   50  H   UNL     1      -7.482  14.224  65.156  1.00  0.00     0.000 HD 
BRANCH  49  51
HETATM   51  S   UNL     1      -7.709  16.496  65.128  1.00  0.00     5.044 S  
HETATM   52  O   UNL     1      -6.620  16.734  64.204  1.00  0.00     6.525 OA 
HETATM   53  O   UNL     1      -8.891  17.344  65.097  1.00  0.00     0.912 OA 
BRANCH  51  54
HETATM   54  C   UNL     1      -7.054  16.732  66.819  1.00  0.00    -0.235 C  
HETATM   55  C   UNL     1      -5.684  16.282  67.038  1.00  0.00     0.003 C  
HETATM   56  C   UNL     1      -5.939  17.788  66.950  1.00  0.00    -0.181 C  
ENDBRANCH  51  54
ENDBRANCH  49  51
ENDBRANCH  46  49
ENDBRANCH  43  46
BRANCH  44  57
HETATM   57  C   UNL     1     -12.240  13.949  63.863  1.00  0.00    -0.375 C  
HETATM   58  C   UNL     1     -13.359  14.455  64.431  1.00  0.00     1.522 C  
ENDBRANCH  44  57
ENDBRANCH  41  43
ENDBRANCH  38  41
ENDBRANCH  22  38
BRANCH  24  59
HETATM   59  O   UNL     1      -6.440  18.165  69.683  1.00  0.00    -0.226 OA 
HETATM   60  C   UNL     1      -5.130  17.834  69.234  1.00  0.00    -0.173 C  
ENDBRANCH  24  59
TORSDOF 10
ENDMDL
MODEL       82
REMARK 921   NORMALIZED FREE ENERGY PREDICTED BY IDOCK:   60.53 KCAL/MOL
REMARK 922        TOTAL FREE ENERGY PREDICTED BY IDOCK:   93.25 KCAL/MOL
REMARK 923 INTER-LIGAND FREE ENERGY PREDICTED BY IDOCK:   82.97 KCAL/MOL
REMARK 924 INTRA-LIGAND FREE ENERGY PREDICTED BY IDOCK:   10.28 KCAL/MOL
REMARK 927      BINDING AFFINITY PREDICTED BY RF-SCORE:    0.00 PKD
ROOT
HETATM    1  C   UNL     1     -12.906  15.139  71.252  1.00  0.00    -0.461 C  
HETATM    2  C   UNL     1     -11.839  14.942  72.274  1.00  0.00    -0.372 C  
HETATM    3  C   UNL     1     -11.516  15.898  71.110  1.00  0.00    -0.419 C  
HETATM    4  O   UNL     1     -10.284  15.507  70.417  1.00  0.00    -0.261 OA 
HETATM    5  C   UNL     1      -9.610  16.290  69.494  1.00  0.00    -0.102 C  
HETATM    6  N   UNL     1      -9.929  17.414  68.947  1.00  0.00    -0.316 NA 
HETATM    7  O   UNL     1      -8.515  15.639  69.037  1.00  0.00    -0.194 OA 
HETATM    8  H   UNL     1      -9.785  18.313  69.405  1.00  0.00     0.000 HD 
HETATM    9  H   UNL     1      -8.053  16.176  68.403  1.00  0.00     0.000 HD 
HETATM   10  C   UNL     1     -10.537  17.281  67.561  1.00  0.00    -0.329 C  
HETATM   11  C   UNL     1     -11.362  15.979  67.505  1.00  0.00    -0.047 C  
HETATM   12  N   UNL     1      -9.125  10.124  66.122  1.00  0.00    -0.151 NA 
HETATM   13  C   UNL     1      -8.746   8.913  66.533  1.00  0.00    -0.130 A  
HETATM   14  N   UNL     1     -10.667  14.764  67.331  1.00  0.00    -0.275 N  
HETATM   15  O   UNL     1     -12.578  15.990  67.737  1.00  0.00     1.245 OA 
HETATM   16  C   UNL     1      -7.454   8.464  66.267  1.00  0.00    -0.089 A  
HETATM   17  C   UNL     1     -13.743  13.981  70.647  1.00  0.00     0.431 C  
HETATM   18  C   UNL     1     -11.081  14.184  66.042  1.00  0.00    -0.314 C  
HETATM   19  C   UNL     1     -11.479  12.731  66.274  1.00  0.00    -0.354 C  
HETATM   20  O   UNL     1     -10.427  11.853  65.985  1.00  0.00    -0.231 OA 
HETATM   21  C   UNL     1     -11.814  12.775  67.725  1.00  0.00    -0.387 C  
HETATM   22  C   UNL     1     -10.953  13.775  68.415  1.00  0.00    -0.254 C  
HETATM   23  C   UNL     1     -10.368  10.577  66.414  1.00  0.00    -0.221 A  
HETATM   24  C   UNL     1      -7.029   7.215  66.707  1.00  0.00    -0.073 A  
HETATM   25  C   UNL     1     -11.297   9.759  67.134  1.00  0.00     0.697 A  
HETATM   26  C   UNL     1      -7.915   6.425  67.428  1.00  0.00    -0.116 A  
HETATM   27  C   UNL     1     -12.742  10.073  67.578  1.00  0.00     7.339 C  
HETATM   28  C   UNL     1     -13.380  12.472  70.725  1.00  0.00     0.600 C  
HETATM   29  N   UNL     1     -10.895   8.528  67.552  1.00  0.00    -0.124 NA 
HETATM   30  C   UNL     1     -13.925  11.505  69.588  1.00  0.00     5.426 C  
HETATM   31  C   UNL     1     -12.928  10.363  69.136  1.00  0.00     1.740 C  
HETATM   32  C   UNL     1      -9.643   8.101  67.263  1.00  0.00    -0.163 A  
HETATM   33  C   UNL     1      -9.213   6.865  67.700  1.00  0.00    -0.119 A  
ENDROOT
BRANCH  10  34
HETATM   34  C   UNL     1      -9.909  17.957  66.243  1.00  0.00    -0.307 C  
HETATM   35  C   UNL     1      -8.439  17.474  66.105  1.00  0.00    -0.177 C  
HETATM   36  C   UNL     1      -9.850  19.507  66.452  1.00  0.00    -0.507 C  
HETATM   37  C   UNL     1     -10.516  17.800  64.827  1.00  0.00     1.802 C  
ENDBRANCH  10  34
BRANCH  22  38
HETATM   38  C   UNL     1      -9.934  12.948  69.361  1.00  0.00     0.813 C  
HETATM   39  H   UNL     1      -9.738  11.215  70.219  1.00  0.00     0.000 HD 
HETATM   40  O   UNL     1     -10.336  11.700  69.665  1.00  0.00     0.174 OA 
BRANCH  38  41
HETATM   41  N   UNL     1      -8.881  13.470  69.915  1.00  0.00     1.450 NA 
HETATM   42  H   UNL     1      -8.233  13.935  69.280  1.00  0.00     0.000 HD 
BRANCH  41  43
HETATM   43  C   UNL     1      -8.498  13.480  71.328  1.00  0.00     9.065 C  
HETATM   44  C   UNL     1      -7.351  14.495  71.695  1.00  0.00     2.935 C  
HETATM   45  C   UNL     1      -8.795  14.802  72.034  1.00  0.00     6.009 C  
BRANCH  43  46
HETATM   46  C   UNL     1      -8.562  12.215  72.125  1.00  0.00    20.212 C  
HETATM   47  H   UNL     1      -9.682  11.404  73.459  1.00  0.00     0.000 HD 
HETATM   48  O   UNL     1      -9.641  12.207  72.953  1.00  0.00    19.528 OA 
BRANCH  46  49
HETATM   49  N   UNL     1      -7.660  11.317  72.035  1.00  0.00     7.732 N  
HETATM   50  H   UNL     1      -7.592  10.607  72.765  1.00  0.00     0.000 HD 
BRANCH  49  51
HETATM   51  S   UNL     1      -6.626  11.272  70.805  1.00  0.00     1.250 S  
HETATM   52  O   UNL     1      -6.112  12.604  70.568  1.00  0.00    -0.143 OA 
HETATM   53  O   UNL     1      -5.710  10.159  71.005  1.00  0.00    -0.082 OA 
BRANCH  51  54
HETATM   54  C   UNL     1      -7.581  10.782  69.323  1.00  0.00    -0.129 C  
HETATM   55  C   UNL     1      -7.100   9.599  68.620  1.00  0.00    -0.072 C  
HETATM   56  C   UNL     1      -8.373   9.467  69.457  1.00  0.00    -0.145 C  
ENDBRANCH  51  54
ENDBRANCH  49  51
ENDBRANCH  46  49
ENDBRANCH  43  46
BRANCH  44  57
HETATM   57  C   UNL     1      -6.444  14.323  72.846  1.00  0.00     1.527 C  
HETATM   58  C   UNL     1      -5.280  14.978  73.066  1.00  0.00     0.106 C  
ENDBRANCH  44  57
ENDBRANCH  41  43
ENDBRANCH  38  41
ENDBRANCH  22  38
BRANCH  24  59
HETATM   59  O   UNL     1      -5.796   6.662  66.506  1.00  0.00    -0.020 OA 
HETATM   60  C   UNL     1      -5.368   6.484  65.160  1.00  0.00    -0.021 C  
ENDBRANCH  24  59
TORSDOF 10
ENDMDL
MODEL       83
REMARK 921   NORMALIZED FREE ENERGY PREDICTED BY IDOCK:   61.10 KCAL/MOL
REMARK 922        TOTAL FREE ENERGY PREDICTED BY IDOCK:   94.17 KCAL/MOL
REMARK 923 INTER-LIGAND FREE ENERGY PREDICTED BY IDOCK:   43.81 KCAL/MOL
REMARK 924 INTRA-LIGAND FREE ENERGY PREDICTED BY IDOCK:   50.36 KCAL/MOL
REMARK 927      BINDING AFFINITY PREDICTED BY RF-SCORE:    0.00 PKD
ROOT
HETATM    1  C   UNL     1     -11.921   6.566  71.155  1.00  0.00    -0.365 C  
HETATM    2  C   UNL     1     -13.007   7.554  70.897  1.00  0.00    -0.061 C  
HETATM    3  C   UNL     1     -12.358   6.898  69.664  1.00  0.00     0.957 C  
HETATM    4  O   UNL     1     -11.851   7.902  68.723  1.00  0.00     1.325 OA 
HETATM    5  C   UNL     1     -11.434   7.638  67.428  1.00  0.00     1.113 C  
HETATM    6  N   UNL     1     -11.271   6.520  66.805  1.00  0.00    -0.759 NA 
HETATM    7  O   UNL     1     -11.019   8.776  66.827  1.00  0.00    -0.153 OA 
HETATM    8  H   UNL     1     -12.041   6.011  66.370  1.00  0.00     0.000 HD 
HETATM    9  H   UNL     1     -10.733   8.595  65.939  1.00  0.00     0.000 HD 
HETATM   10  C   UNL     1      -9.834   6.027  66.776  1.00  0.00    -0.163 C  
HETATM   11  C   UNL     1      -9.142   6.442  68.090  1.00  0.00    -0.113 C  
HETATM   12  N   UNL     1      -6.266  12.059  69.258  1.00  0.00    -0.087 NA 
HETATM   13  C   UNL     1      -6.287  13.262  69.834  1.00  0.00    -0.051 A  
HETATM   14  N   UNL     1      -8.698   7.776  68.210  1.00  0.00    -0.127 N  
HETATM   15  O   UNL     1      -9.099   5.666  69.055  1.00  0.00    -0.111 OA 
HETATM   16  C   UNL     1      -6.159  14.408  69.051  1.00  0.00    -0.091 A  
HETATM   17  C   UNL     1     -10.778   6.790  72.182  1.00  0.00    -0.249 C  
HETATM   18  C   UNL     1      -7.230   7.755  68.334  1.00  0.00    -0.093 C  
HETATM   19  C   UNL     1      -6.836   8.601  69.537  1.00  0.00    -0.044 C  
HETATM   20  O   UNL     1      -6.483   9.904  69.163  1.00  0.00    -0.047 OA 
HETATM   21  C   UNL     1      -8.100   8.549  70.325  1.00  0.00    -0.106 C  
HETATM   22  C   UNL     1      -9.268   8.469  69.405  1.00  0.00    -0.153 C  
HETATM   23  C   UNL     1      -6.428  10.947  70.014  1.00  0.00    -0.151 A  
HETATM   24  C   UNL     1      -6.202  15.674  69.626  1.00  0.00    -0.164 A  
HETATM   25  C   UNL     1      -6.594  11.041  71.433  1.00  0.00     1.966 A  
HETATM   26  C   UNL     1      -6.386  15.775  70.998  1.00  0.00     0.891 A  
HETATM   27  C   UNL     1      -6.802   9.921  72.474  1.00  0.00     1.769 C  
HETATM   28  C   UNL     1     -10.386   8.157  72.807  1.00  0.00    -0.384 C  
HETATM   29  N   UNL     1      -6.618  12.276  72.006  1.00  0.00     3.621 NA 
HETATM   30  C   UNL     1      -8.890   8.359  73.305  1.00  0.00    -0.196 C  
HETATM   31  C   UNL     1      -8.283   9.798  73.055  1.00  0.00     4.169 C  
HETATM   32  C   UNL     1      -6.469  13.375  71.231  1.00  0.00     1.342 A  
HETATM   33  C   UNL     1      -6.515  14.634  71.794  1.00  0.00     0.871 A  
ENDROOT
BRANCH  10  34
HETATM   34  C   UNL     1      -9.012   5.758  65.420  1.00  0.00    -0.047 C  
HETATM   35  C   UNL     1      -7.587   5.274  65.805  1.00  0.00    -0.083 C  
HETATM   36  C   UNL     1      -8.831   7.116  64.663  1.00  0.00     0.567 C  
HETATM   37  C   UNL     1      -9.481   4.781  64.313  1.00  0.00     0.090 C  
ENDBRANCH  10  34
BRANCH  22  38
HETATM   38  C   UNL     1     -10.049   9.882  69.510  1.00  0.00    -0.221 C  
HETATM   39  H   UNL     1     -11.662  10.666  70.261  1.00  0.00     0.000 HD 
HETATM   40  O   UNL     1     -11.204   9.836  70.199  1.00  0.00    -0.247 OA 
BRANCH  38  41
HETATM   41  N   UNL     1      -9.690  10.953  68.867  1.00  0.00    -0.223 NA 
HETATM   42  H   UNL     1      -9.757  10.901  67.851  1.00  0.00     0.000 HD 
BRANCH  41  43
HETATM   43  C   UNL     1      -9.204  12.226  69.404  1.00  0.00     1.168 C  
HETATM   44  C   UNL     1      -8.576  12.137  70.846  1.00  0.00     9.088 C  
HETATM   45  C   UNL     1      -7.692  12.260  69.623  1.00  0.00     1.008 C  
BRANCH  43  46
HETATM   46  C   UNL     1      -9.903  13.499  69.048  1.00  0.00     0.182 C  
HETATM   47  H   UNL     1     -11.649  14.283  69.217  1.00  0.00     0.000 HD 
HETATM   48  O   UNL     1     -11.205  13.475  69.443  1.00  0.00    -0.248 OA 
BRANCH  46  49
HETATM   49  N   UNL     1      -9.315  14.434  68.407  1.00  0.00    -0.202 N  
HETATM   50  H   UNL     1      -8.341  14.646  68.625  1.00  0.00     0.000 HD 
BRANCH  49  51
HETATM   51  S   UNL     1     -10.064  15.284  67.268  1.00  0.00    -0.238 S  
HETATM   52  O   UNL     1      -9.143  16.257  66.719  1.00  0.00    -0.204 OA 
HETATM   53  O   UNL     1     -10.769  14.366  66.387  1.00  0.00    -0.297 OA 
BRANCH  51  54
HETATM   54  C   UNL     1     -11.411  16.210  68.091  1.00  0.00    -0.270 C  
HETATM   55  C   UNL     1     -12.719  15.568  68.083  1.00  0.00     1.482 C  
HETATM   56  C   UNL     1     -11.936  15.582  69.397  1.00  0.00    -0.358 C  
ENDBRANCH  51  54
ENDBRANCH  49  51
ENDBRANCH  46  49
ENDBRANCH  43  46
BRANCH  44  57
HETATM   57  C   UNL     1      -8.530  13.272  71.789  1.00  0.00    13.592 C  
HETATM   58  C   UNL     1      -7.462  14.059  72.059  1.00  0.00     5.223 C  
ENDBRANCH  44  57
ENDBRANCH  41  43
ENDBRANCH  38  41
ENDBRANCH  22  38
BRANCH  24  59
HETATM   59  O   UNL     1      -6.084  16.866  68.970  1.00  0.00    -0.161 OA 
HETATM   60  C   UNL     1      -5.992  16.828  67.550  1.00  0.00    -0.152 C  
ENDBRANCH  24  59
TORSDOF 10
ENDMDL
MODEL       84
REMARK 921   NORMALIZED FREE ENERGY PREDICTED BY IDOCK:   68.91 KCAL/MOL
REMARK 922        TOTAL FREE ENERGY PREDICTED BY IDOCK:  106.54 KCAL/MOL
REMARK 923 INTER-LIGAND FREE ENERGY PREDICTED BY IDOCK:   36.97 KCAL/MOL
REMARK 924 INTRA-LIGAND FREE ENERGY PREDICTED BY IDOCK:   69.57 KCAL/MOL
REMARK 927      BINDING AFFINITY PREDICTED BY RF-SCORE:    0.00 PKD
ROOT
HETATM    1  C   UNL     1      -8.038   8.651  64.646  1.00  0.00    -0.156 C  
HETATM    2  C   UNL     1      -6.803   9.432  64.938  1.00  0.00    -0.093 C  
HETATM    3  C   UNL     1      -7.529   8.805  66.143  1.00  0.00    -0.090 C  
HETATM    4  O   UNL     1      -7.853   9.811  67.161  1.00  0.00    -0.098 OA 
HETATM    5  C   UNL     1      -8.287   9.529  68.446  1.00  0.00    -0.118 C  
HETATM    6  N   UNL     1      -8.619   8.412  68.999  1.00  0.00    -0.130 NA 
HETATM    7  O   UNL     1      -8.503  10.676  69.131  1.00  0.00    -0.163 OA 
HETATM    8  H   UNL     1      -7.935   7.757  69.380  1.00  0.00     0.000 HD 
HETATM    9  H   UNL     1      -8.801  10.482  70.012  1.00  0.00     0.000 HD 
HETATM   10  C   UNL     1     -10.116   8.155  69.034  1.00  0.00    -0.205 C  
HETATM   11  C   UNL     1     -10.752   8.765  67.768  1.00  0.00    -0.125 C  
HETATM   12  N   UNL     1     -12.699  14.838  67.045  1.00  0.00     0.656 NA 
HETATM   13  C   UNL     1     -12.492  16.058  66.548  1.00  0.00     2.418 A  
HETATM   14  N   UNL     1     -10.977  10.158  67.747  1.00  0.00    -0.294 N  
HETATM   15  O   UNL     1     -10.935   8.074  66.757  1.00  0.00    -0.092 OA 
HETATM   16  C   UNL     1     -12.420  17.153  67.407  1.00  0.00     3.740 A  
HETATM   17  C   UNL     1      -9.145   9.125  63.666  1.00  0.00     0.149 C  
HETATM   18  C   UNL     1     -12.430  10.381  67.661  1.00  0.00     4.014 C  
HETATM   19  C   UNL     1     -12.701  11.360  66.526  1.00  0.00     4.225 C  
HETATM   20  O   UNL     1     -12.832  12.674  66.994  1.00  0.00     0.563 OA 
HETATM   21  C   UNL     1     -11.474  11.160  65.704  1.00  0.00     0.288 C  
HETATM   22  C   UNL     1     -10.320  10.830  66.585  1.00  0.00    -0.241 C  
HETATM   23  C   UNL     1     -12.730  13.768  66.214  1.00  0.00    -0.207 A  
HETATM   24  C   UNL     1     -12.182  18.432  66.914  1.00  0.00     4.264 A  
HETATM   25  C   UNL     1     -12.574  13.932  64.800  1.00  0.00    -0.295 A  
HETATM   26  C   UNL     1     -12.005  18.596  65.547  1.00  0.00     4.659 A  
HETATM   27  C   UNL     1     -12.565  12.866  63.684  1.00  0.00    -0.325 C  
HETATM   28  C   UNL     1      -9.320  10.577  63.141  1.00  0.00    -0.344 C  
HETATM   29  N   UNL     1     -12.359  15.183  64.308  1.00  0.00    -0.602 NA 
HETATM   30  C   UNL     1     -10.771  11.050  62.698  1.00  0.00     0.669 C  
HETATM   31  C   UNL     1     -11.134  12.547  63.056  1.00  0.00     0.238 C  
HETATM   32  C   UNL     1     -12.315  16.236  65.157  1.00  0.00     1.837 A  
HETATM   33  C   UNL     1     -12.075  17.506  64.676  1.00  0.00     4.389 A  
ENDROOT
BRANCH  10  34
HETATM   34  C   UNL     1     -10.950   7.929  70.390  1.00  0.00    -0.251 C  
HETATM   35  C   UNL     1     -10.425   6.636  71.074  1.00  0.00    -0.246 C  
HETATM   36  C   UNL     1     -12.447   7.661  70.022  1.00  0.00     0.964 C  
HETATM   37  C   UNL     1     -11.034   8.976  71.529  1.00  0.00    -0.418 C  
ENDBRANCH  10  34
BRANCH  22  38
HETATM   38  C   UNL     1      -9.323  12.104  66.552  1.00  0.00    -0.228 C  
HETATM   39  H   UNL     1      -9.308  14.002  66.134  1.00  0.00     0.000 HD 
HETATM   40  O   UNL     1      -9.894  13.255  66.153  1.00  0.00    -0.283 OA 
BRANCH  38  41
HETATM   41  N   UNL     1      -8.041  12.021  66.747  1.00  0.00    -0.323 NA 
HETATM   42  H   UNL     1      -7.465  12.027  65.904  1.00  0.00     0.000 HD 
BRANCH  41  43
HETATM   43  C   UNL     1      -7.309  11.920  68.012  1.00  0.00    -0.100 C  
HETATM   44  C   UNL     1      -7.063  10.449  68.517  1.00  0.00    -0.074 C  
HETATM   45  C   UNL     1      -5.945  11.246  67.878  1.00  0.00    -0.046 C  
BRANCH  43  46
HETATM   46  C   UNL     1      -7.486  12.974  69.059  1.00  0.00     0.097 C  
HETATM   47  H   UNL     1      -6.606  13.587  70.652  1.00  0.00     0.000 HD 
HETATM   48  O   UNL     1      -6.494  12.918  69.988  1.00  0.00    -0.046 OA 
BRANCH  46  49
HETATM   49  N   UNL     1      -8.489  13.763  69.057  1.00  0.00    -0.346 N  
HETATM   50  H   UNL     1      -9.141  13.738  69.841  1.00  0.00     0.000 HD 
BRANCH  49  51
HETATM   51  S   UNL     1      -8.755  14.795  67.854  1.00  0.00    -0.174 S  
HETATM   52  O   UNL     1      -9.034  16.105  68.404  1.00  0.00    -0.185 OA 
HETATM   53  O   UNL     1      -7.708  14.630  66.856  1.00  0.00    -0.053 OA 
BRANCH  51  54
HETATM   54  C   UNL     1     -10.265  14.231  66.989  1.00  0.00    -0.260 C  
HETATM   55  C   UNL     1     -10.791  12.938  67.408  1.00  0.00    -0.272 C  
HETATM   56  C   UNL     1     -11.541  14.195  67.853  1.00  0.00    -0.370 C  
ENDBRANCH  51  54
ENDBRANCH  49  51
ENDBRANCH  46  49
ENDBRANCH  43  46
BRANCH  44  57
HETATM   57  C   UNL     1      -6.869  10.093  69.936  1.00  0.00    -0.124 C  
HETATM   58  C   UNL     1      -7.499  10.640  71.002  1.00  0.00     2.218 C  
ENDBRANCH  44  57
ENDBRANCH  41  43
ENDBRANCH  38  41
ENDBRANCH  22  38
BRANCH  24  59
HETATM   59  O   UNL     1     -12.096  19.580  67.649  1.00  0.00     1.602 OA 
HETATM   60  C   UNL     1     -12.282  19.474  69.057  1.00  0.00     7.356 C  
ENDBRANCH  24  59
TORSDOF 10
ENDMDL
MODEL       85
REMARK 921   NORMALIZED FREE ENERGY PREDICTED BY IDOCK:   70.55 KCAL/MOL
REMARK 922        TOTAL FREE ENERGY PREDICTED BY IDOCK:  109.13 KCAL/MOL
REMARK 923 INTER-LIGAND FREE ENERGY PREDICTED BY IDOCK:  109.74 KCAL/MOL
REMARK 924 INTRA-LIGAND FREE ENERGY PREDICTED BY IDOCK:   -0.61 KCAL/MOL
REMARK 927      BINDING AFFINITY PREDICTED BY RF-SCORE:    0.00 PKD
ROOT
HETATM    1  C   UNL     1      -7.082  16.935  70.012  1.00  0.00     0.818 C  
HETATM    2  C   UNL     1      -7.077  16.471  68.596  1.00  0.00    -0.175 C  
HETATM    3  C   UNL     1      -8.454  16.727  69.237  1.00  0.00     0.037 C  
HETATM    4  O   UNL     1      -9.323  15.550  69.137  1.00  0.00    -0.214 OA 
HETATM    5  C   UNL     1     -10.683  15.542  69.404  1.00  0.00    -0.251 C  
HETATM    6  N   UNL     1     -11.452  16.454  69.893  1.00  0.00    -0.359 NA 
HETATM    7  O   UNL     1     -11.189  14.300  69.223  1.00  0.00    -0.255 OA 
HETATM    8  H   UNL     1     -11.845  17.209  69.331  1.00  0.00     0.000 HD 
HETATM    9  H   UNL     1     -12.121  14.295  69.406  1.00  0.00     0.000 HD 
HETATM   10  C   UNL     1     -11.724  16.306  71.381  1.00  0.00    -0.368 C  
HETATM   11  C   UNL     1     -10.468  15.720  72.058  1.00  0.00     1.798 C  
HETATM   12  N   UNL     1      -9.003   9.495  72.601  1.00  0.00     1.614 NA 
HETATM   13  C   UNL     1      -8.288   8.444  72.197  1.00  0.00    -0.164 A  
HETATM   14  N   UNL     1     -10.245  14.331  71.946  1.00  0.00     3.940 N  
HETATM   15  O   UNL     1      -9.619  16.464  72.567  1.00  0.00     7.394 OA 
HETATM   16  C   UNL     1      -8.935   7.304  71.725  1.00  0.00    -0.136 A  
HETATM   17  C   UNL     1      -6.190  16.320  71.123  1.00  0.00     1.302 C  
HETATM   18  C   UNL     1     -10.313  13.750  73.298  1.00  0.00     8.821 C  
HETATM   19  C   UNL     1      -9.075  12.889  73.515  1.00  0.00    19.671 C  
HETATM   20  O   UNL     1      -9.331  11.537  73.250  1.00  0.00    18.125 OA 
HETATM   21  C   UNL     1      -8.145  13.505  72.527  1.00  0.00    11.795 C  
HETATM   22  C   UNL     1      -8.912  14.007  71.353  1.00  0.00     7.357 C  
HETATM   23  C   UNL     1      -8.373  10.617  73.024  1.00  0.00    11.906 A  
HETATM   24  C   UNL     1      -8.209   6.206  71.276  1.00  0.00    -0.123 A  
HETATM   25  C   UNL     1      -6.943  10.683  73.073  1.00  0.00     5.337 A  
HETATM   26  C   UNL     1      -6.823   6.270  71.297  1.00  0.00    -0.067 A  
HETATM   27  C   UNL     1      -6.029  11.849  73.505  1.00  0.00     2.713 C  
HETATM   28  C   UNL     1      -5.458  14.952  71.034  1.00  0.00    -0.115 C  
HETATM   29  N   UNL     1      -6.226   9.604  72.653  1.00  0.00    -0.113 NA 
HETATM   30  C   UNL     1      -5.135  14.179  72.385  1.00  0.00    -0.220 C  
HETATM   31  C   UNL     1      -5.282  12.606  72.316  1.00  0.00     0.205 C  
HETATM   32  C   UNL     1      -6.875   8.499  72.219  1.00  0.00    -0.077 A  
HETATM   33  C   UNL     1      -6.162   7.407  71.769  1.00  0.00    -0.036 A  
ENDROOT
BRANCH  10  34
HETATM   34  C   UNL     1     -13.196  16.131  72.005  1.00  0.00     0.079 C  
HETATM   35  C   UNL     1     -14.235  16.410  70.883  1.00  0.00     3.984 C  
HETATM   36  C   UNL     1     -13.414  17.230  73.097  1.00  0.00     3.509 C  
HETATM   37  C   UNL     1     -13.688  14.831  72.690  1.00  0.00    -0.547 C  
ENDBRANCH  10  34
BRANCH  22  38
HETATM   38  C   UNL     1      -8.538  13.052  70.102  1.00  0.00     3.920 C  
HETATM   39  H   UNL     1      -7.125  11.876  69.467  1.00  0.00     0.000 HD 
HETATM   40  O   UNL     1      -7.345  12.437  70.201  1.00  0.00     0.904 OA 
BRANCH  38  41
HETATM   41  N   UNL     1      -9.243  12.981  69.013  1.00  0.00    -0.242 NA 
HETATM   42  H   UNL     1      -9.949  13.708  68.897  1.00  0.00     0.000 HD 
BRANCH  41  43
HETATM   43  C   UNL     1      -9.161  11.999  67.929  1.00  0.00    -0.190 C  
HETATM   44  C   UNL     1      -9.592  10.537  68.328  1.00  0.00    -0.164 C  
HETATM   45  C   UNL     1     -10.516  11.424  67.521  1.00  0.00    -0.233 C  
BRANCH  43  46
HETATM   46  C   UNL     1      -8.097  12.130  66.886  1.00  0.00    -0.112 C  
HETATM   47  H   UNL     1      -6.798  13.419  66.303  1.00  0.00     0.000 HD 
HETATM   48  O   UNL     1      -7.473  13.336  66.965  1.00  0.00    -0.020 OA 
BRANCH  46  49
HETATM   49  N   UNL     1      -7.882  11.212  66.025  1.00  0.00    -0.336 N  
HETATM   50  H   UNL     1      -8.655  10.890  65.441  1.00  0.00     0.000 HD 
BRANCH  49  51
HETATM   51  S   UNL     1      -6.431  10.550  65.833  1.00  0.00    -0.123 S  
HETATM   52  O   UNL     1      -5.587  11.463  65.091  1.00  0.00     0.042 OA 
HETATM   53  O   UNL     1      -5.986  10.020  67.113  1.00  0.00    -0.050 OA 
BRANCH  51  54
HETATM   54  C   UNL     1      -6.657   9.055  64.803  1.00  0.00    -0.066 C  
HETATM   55  C   UNL     1      -7.969   8.901  64.188  1.00  0.00    -0.148 C  
HETATM   56  C   UNL     1      -6.801   9.315  63.291  1.00  0.00    -0.090 C  
ENDBRANCH  51  54
ENDBRANCH  49  51
ENDBRANCH  46  49
ENDBRANCH  43  46
BRANCH  44  57
HETATM   57  C   UNL     1      -9.103   9.325  67.643  1.00  0.00    -0.136 C  
HETATM   58  C   UNL     1      -9.666   8.095  67.671  1.00  0.00    -0.200 C  
ENDBRANCH  44  57
ENDBRANCH  41  43
ENDBRANCH  38  41
ENDBRANCH  22  38
BRANCH  24  59
HETATM   59  O   UNL     1      -8.725   5.035  70.798  1.00  0.00    -0.121 OA 
HETATM   60  C   UNL     1      -8.558   4.761  69.410  1.00  0.00    -0.082 C  
ENDBRANCH  24  59
TORSDOF 10
ENDMDL
MODEL       86
REMARK 921   NORMALIZED FREE ENERGY PREDICTED BY IDOCK:   71.38 KCAL/MOL
REMARK 922        TOTAL FREE ENERGY PREDICTED BY IDOCK:  110.46 KCAL/MOL
REMARK 923 INTER-LIGAND FREE ENERGY PREDICTED BY IDOCK:  111.57 KCAL/MOL
REMARK 924 INTRA-LIGAND FREE ENERGY PREDICTED BY IDOCK:   -1.11 KCAL/MOL
REMARK 927      BINDING AFFINITY PREDICTED BY RF-SCORE:    0.00 PKD
ROOT
HETATM    1  C   UNL     1      -7.076  16.273  70.338  1.00  0.00     1.258 C  
HETATM    2  C   UNL     1      -7.070  15.811  68.921  1.00  0.00    -0.139 C  
HETATM    3  C   UNL     1      -8.447  16.066  69.562  1.00  0.00    -0.024 C  
HETATM    4  O   UNL     1      -9.316  14.889  69.460  1.00  0.00    -0.107 OA 
HETATM    5  C   UNL     1     -10.676  14.880  69.725  1.00  0.00    -0.204 C  
HETATM    6  N   UNL     1     -11.446  15.791  70.215  1.00  0.00    -0.328 NA 
HETATM    7  O   UNL     1     -11.182  13.638  69.542  1.00  0.00    -0.373 OA 
HETATM    8  H   UNL     1     -11.838  16.546  69.653  1.00  0.00     0.000 HD 
HETATM    9  H   UNL     1     -12.114  13.632  69.724  1.00  0.00     0.000 HD 
HETATM   10  C   UNL     1     -11.719  15.641  71.702  1.00  0.00    -0.446 C  
HETATM   11  C   UNL     1     -10.464  15.054  72.379  1.00  0.00     2.269 C  
HETATM   12  N   UNL     1      -8.997   8.829  72.916  1.00  0.00    -0.272 NA 
HETATM   13  C   UNL     1      -8.281   7.779  72.512  1.00  0.00    -0.127 A  
HETATM   14  N   UNL     1     -10.240  13.666  72.266  1.00  0.00     8.016 N  
HETATM   15  O   UNL     1      -9.615  15.798  72.890  1.00  0.00     6.341 OA 
HETATM   16  C   UNL     1      -8.928   6.640  72.037  1.00  0.00    -0.139 A  
HETATM   17  C   UNL     1      -6.185  15.657  71.450  1.00  0.00     1.076 C  
HETATM   18  C   UNL     1     -10.309  13.083  73.617  1.00  0.00    15.769 C  
HETATM   19  C   UNL     1      -9.072  12.222  73.834  1.00  0.00    21.392 C  
HETATM   20  O   UNL     1      -9.327  10.871  73.567  1.00  0.00    13.403 OA 
HETATM   21  C   UNL     1      -8.141  12.840  72.848  1.00  0.00    17.376 C  
HETATM   22  C   UNL     1      -8.906  13.343  71.674  1.00  0.00    13.333 C  
HETATM   23  C   UNL     1      -8.368   9.951  73.342  1.00  0.00     5.616 A  
HETATM   24  C   UNL     1      -8.202   5.542  71.588  1.00  0.00    -0.119 A  
HETATM   25  C   UNL     1      -6.939  10.017  73.392  1.00  0.00     2.828 A  
HETATM   26  C   UNL     1      -6.815   5.607  71.611  1.00  0.00    -0.067 A  
HETATM   27  C   UNL     1      -6.025  11.182  73.827  1.00  0.00     2.185 C  
HETATM   28  C   UNL     1      -5.452  14.289  71.360  1.00  0.00    -0.193 C  
HETATM   29  N   UNL     1      -6.221   8.939  72.971  1.00  0.00    -0.275 NA 
HETATM   30  C   UNL     1      -5.130  13.515  72.710  1.00  0.00    -0.112 C  
HETATM   31  C   UNL     1      -5.278  11.941  72.639  1.00  0.00     0.551 C  
HETATM   32  C   UNL     1      -6.869   7.834  72.536  1.00  0.00    -0.069 A  
HETATM   33  C   UNL     1      -6.155   6.743  72.084  1.00  0.00    -0.038 A  
ENDROOT
BRANCH  10  34
HETATM   34  C   UNL     1     -13.192  15.465  72.324  1.00  0.00    -0.515 C  
HETATM   35  C   UNL     1     -13.309  14.024  72.893  1.00  0.00    -0.487 C  
HETATM   36  C   UNL     1     -14.242  15.574  71.170  1.00  0.00    -0.172 C  
HETATM   37  C   UNL     1     -13.769  16.380  73.433  1.00  0.00     0.247 C  
ENDBRANCH  10  34
BRANCH  22  38
HETATM   38  C   UNL     1      -8.531  12.389  70.422  1.00  0.00     5.429 C  
HETATM   39  H   UNL     1      -7.044  11.950  69.249  1.00  0.00     0.000 HD 
HETATM   40  O   UNL     1      -7.264  12.510  69.983  1.00  0.00     0.640 OA 
BRANCH  38  41
HETATM   41  N   UNL     1      -9.399  11.667  69.780  1.00  0.00     0.725 NA 
HETATM   42  H   UNL     1     -10.283  11.508  70.263  1.00  0.00     0.000 HD 
BRANCH  41  43
HETATM   43  C   UNL     1      -9.281  11.049  68.458  1.00  0.00    -0.177 C  
HETATM   44  C   UNL     1      -9.850  11.915  67.271  1.00  0.00    -0.197 C  
HETATM   45  C   UNL     1      -8.359  11.811  67.507  1.00  0.00    -0.154 C  
BRANCH  43  46
HETATM   46  C   UNL     1      -9.380   9.563  68.319  1.00  0.00    -0.133 C  
HETATM   47  H   UNL     1     -10.438   8.116  69.010  1.00  0.00     0.000 HD 
HETATM   48  O   UNL     1     -10.375   9.060  69.098  1.00  0.00    -0.210 OA 
BRANCH  46  49
HETATM   49  N   UNL     1      -8.571   8.900  67.587  1.00  0.00    -0.124 N  
HETATM   50  H   UNL     1      -7.772   9.379  67.172  1.00  0.00     0.000 HD 
BRANCH  49  51
HETATM   51  S   UNL     1      -8.775   7.331  67.302  1.00  0.00    -0.121 S  
HETATM   52  O   UNL     1      -8.282   6.575  68.433  1.00  0.00    -0.113 OA 
HETATM   53  O   UNL     1     -10.130   7.118  66.815  1.00  0.00    -0.214 OA 
BRANCH  51  54
HETATM   54  C   UNL     1      -7.729   6.909  65.862  1.00  0.00    -0.098 C  
HETATM   55  C   UNL     1      -7.058   5.617  65.921  1.00  0.00    -0.067 C  
HETATM   56  C   UNL     1      -8.257   5.759  64.981  1.00  0.00    -0.137 C  
ENDBRANCH  51  54
ENDBRANCH  49  51
ENDBRANCH  46  49
ENDBRANCH  43  46
BRANCH  44  57
HETATM   57  C   UNL     1     -10.343  11.341  66.003  1.00  0.00    -0.302 C  
HETATM   58  C   UNL     1     -11.163  11.939  65.108  1.00  0.00    -0.346 C  
ENDBRANCH  44  57
ENDBRANCH  41  43
ENDBRANCH  38  41
ENDBRANCH  22  38
BRANCH  24  59
HETATM   59  O   UNL     1      -8.717   4.372  71.108  1.00  0.00    -0.101 OA 
HETATM   60  C   UNL     1     -10.020   4.414  70.535  1.00  0.00    -0.185 C  
ENDBRANCH  24  59
TORSDOF 10
ENDMDL
MODEL       87
REMARK 921   NORMALIZED FREE ENERGY PREDICTED BY IDOCK:   79.17 KCAL/MOL
REMARK 922        TOTAL FREE ENERGY PREDICTED BY IDOCK:  122.80 KCAL/MOL
REMARK 923 INTER-LIGAND FREE ENERGY PREDICTED BY IDOCK:  119.70 KCAL/MOL
REMARK 924 INTRA-LIGAND FREE ENERGY PREDICTED BY IDOCK:    3.11 KCAL/MOL
REMARK 927      BINDING AFFINITY PREDICTED BY RF-SCORE:    0.00 PKD
ROOT
HETATM    1  C   UNL     1     -13.176  13.414  67.866  1.00  0.00     3.742 C  
HETATM    2  C   UNL     1     -11.909  14.200  67.845  1.00  0.00    -0.405 C  
HETATM    3  C   UNL     1     -12.081  13.131  66.750  1.00  0.00    -0.327 C  
HETATM    4  O   UNL     1     -10.957  12.189  66.734  1.00  0.00    -0.254 OA 
HETATM    5  C   UNL     1     -10.704  11.271  65.728  1.00  0.00    -0.223 C  
HETATM    6  N   UNL     1     -11.400  10.939  64.694  1.00  0.00     0.156 NA 
HETATM    7  O   UNL     1      -9.597  10.549  66.018  1.00  0.00    -0.177 OA 
HETATM    8  H   UNL     1     -11.397  11.477  63.828  1.00  0.00     0.000 HD 
HETATM    9  H   UNL     1      -9.423   9.920  65.328  1.00  0.00     0.000 HD 
HETATM   10  C   UNL     1     -12.223   9.675  64.878  1.00  0.00    10.464 C  
HETATM   11  C   UNL     1     -12.687   9.596  66.347  1.00  0.00    12.217 C  
HETATM   12  N   UNL     1      -9.376   7.098  71.244  1.00  0.00    -0.156 NA 
HETATM   13  C   UNL     1      -8.629   7.275  72.335  1.00  0.00    -0.115 A  
HETATM   14  N   UNL     1     -11.758   9.148  67.310  1.00  0.00     2.211 N  
HETATM   15  O   UNL     1     -13.794  10.037  66.685  1.00  0.00    16.604 OA 
HETATM   16  C   UNL     1      -7.347   6.732  72.393  1.00  0.00    -0.087 A  
HETATM   17  C   UNL     1     -13.799  12.821  69.157  1.00  0.00     6.772 C  
HETATM   18  C   UNL     1     -12.266   7.887  67.878  1.00  0.00     4.837 C  
HETATM   19  C   UNL     1     -12.229   7.994  69.397  1.00  0.00     2.081 C  
HETATM   20  O   UNL     1     -11.071   7.415  69.930  1.00  0.00    -0.251 OA 
HETATM   21  C   UNL     1     -12.263   9.475  69.560  1.00  0.00     0.862 C  
HETATM   22  C   UNL     1     -11.560  10.127  68.420  1.00  0.00     0.120 C  
HETATM   23  C   UNL     1     -10.607   7.658  71.172  1.00  0.00    -0.221 A  
HETATM   24  C   UNL     1      -6.541   6.925  73.510  1.00  0.00    -0.067 A  
HETATM   25  C   UNL     1     -11.134   8.418  72.265  1.00  0.00    -0.368 A  
HETATM   26  C   UNL     1      -7.034   7.681  74.565  1.00  0.00    -0.134 A  
HETATM   27  C   UNL     1     -12.490   9.144  72.392  1.00  0.00    -0.350 C  
HETATM   28  C   UNL     1     -13.060  12.638  70.512  1.00  0.00     0.395 C  
HETATM   29  N   UNL     1     -10.358   8.596  73.370  1.00  0.00     1.029 NA 
HETATM   30  C   UNL     1     -13.562  11.498  71.499  1.00  0.00     0.265 C  
HETATM   31  C   UNL     1     -12.423  10.735  72.287  1.00  0.00     0.583 C  
HETATM   32  C   UNL     1      -9.125   8.040  73.416  1.00  0.00    -0.273 A  
HETATM   33  C   UNL     1      -8.317   8.231  74.518  1.00  0.00    -0.059 A  
ENDROOT
BRANCH  10  34
HETATM   34  C   UNL     1     -12.066   8.367  63.956  1.00  0.00    21.174 C  
HETATM   35  C   UNL     1     -11.458   7.231  64.824  1.00  0.00    12.364 C  
HETATM   36  C   UNL     1     -11.026   8.669  62.826  1.00  0.00    10.465 C  
HETATM   37  C   UNL     1     -13.245   7.704  63.201  1.00  0.00    18.838 C  
ENDBRANCH  10  34
BRANCH  22  38
HETATM   38  C   UNL     1     -10.195  10.765  69.011  1.00  0.00    -0.213 C  
HETATM   39  H   UNL     1      -9.367  12.485  69.382  1.00  0.00     0.000 HD 
HETATM   40  O   UNL     1     -10.169  12.111  69.035  1.00  0.00    -0.093 OA 
BRANCH  38  41
HETATM   41  N   UNL     1      -9.141  10.065  69.305  1.00  0.00    -0.187 NA 
HETATM   42  H   UNL     1      -9.234   9.447  70.111  1.00  0.00     0.000 HD 
BRANCH  41  43
HETATM   43  C   UNL     1      -7.838  10.044  68.637  1.00  0.00    -0.091 C  
HETATM   44  C   UNL     1      -7.564   8.762  67.765  1.00  0.00    -0.097 C  
HETATM   45  C   UNL     1      -7.931  10.079  67.113  1.00  0.00    -0.109 C  
BRANCH  43  46
HETATM   46  C   UNL     1      -6.654  10.680  69.296  1.00  0.00    -0.068 C  
HETATM   47  H   UNL     1      -5.033  10.146  70.177  1.00  0.00     0.000 HD 
HETATM   48  O   UNL     1      -5.784   9.742  69.759  1.00  0.00    -0.036 OA 
BRANCH  46  49
HETATM   49  N   UNL     1      -6.555  11.946  69.424  1.00  0.00    -0.149 N  
HETATM   50  H   UNL     1      -6.286  12.333  70.329  1.00  0.00     0.000 HD 
BRANCH  49  51
HETATM   51  S   UNL     1      -6.843  12.948  68.201  1.00  0.00    -0.114 S  
HETATM   52  O   UNL     1      -6.227  12.422  67.001  1.00  0.00    -0.191 OA 
HETATM   53  O   UNL     1      -8.256  13.296  68.204  1.00  0.00    -0.144 OA 
BRANCH  51  54
HETATM   54  C   UNL     1      -6.009  14.528  68.597  1.00  0.00    -0.089 C  
HETATM   55  C   UNL     1      -6.813  15.505  69.320  1.00  0.00    -0.160 C  
HETATM   56  C   UNL     1      -5.722  14.761  70.093  1.00  0.00    -0.129 C  
ENDBRANCH  51  54
ENDBRANCH  49  51
ENDBRANCH  46  49
ENDBRANCH  43  46
BRANCH  44  57
HETATM   57  C   UNL     1      -6.212   8.251  67.465  1.00  0.00    -0.053 C  
HETATM   58  C   UNL     1      -5.813   7.635  66.327  1.00  0.00    -0.037 C  
ENDBRANCH  44  57
ENDBRANCH  41  43
ENDBRANCH  38  41
ENDBRANCH  22  38
BRANCH  24  59
HETATM   59  O   UNL     1      -5.276   6.442  73.689  1.00  0.00    -0.038 OA 
HETATM   60  C   UNL     1      -5.142   5.154  74.281  1.00  0.00    -0.017 C  
ENDBRANCH  24  59
TORSDOF 10
ENDMDL
MODEL       88
REMARK 921   NORMALIZED FREE ENERGY PREDICTED BY IDOCK:   79.29 KCAL/MOL
REMARK 922        TOTAL FREE ENERGY PREDICTED BY IDOCK:  122.99 KCAL/MOL
REMARK 923 INTER-LIGAND FREE ENERGY PREDICTED BY IDOCK:  119.78 KCAL/MOL
REMARK 924 INTRA-LIGAND FREE ENERGY PREDICTED BY IDOCK:    3.21 KCAL/MOL
REMARK 927      BINDING AFFINITY PREDICTED BY RF-SCORE:    0.00 PKD
ROOT
HETATM    1  C   UNL     1     -13.176  13.414  67.866  1.00  0.00     3.742 C  
HETATM    2  C   UNL     1     -11.909  14.200  67.845  1.00  0.00    -0.405 C  
HETATM    3  C   UNL     1     -12.081  13.131  66.750  1.00  0.00    -0.327 C  
HETATM    4  O   UNL     1     -10.957  12.189  66.734  1.00  0.00    -0.254 OA 
HETATM    5  C   UNL     1     -10.704  11.271  65.728  1.00  0.00    -0.223 C  
HETATM    6  N   UNL     1     -11.400  10.939  64.694  1.00  0.00     0.156 NA 
HETATM    7  O   UNL     1      -9.597  10.549  66.018  1.00  0.00    -0.177 OA 
HETATM    8  H   UNL     1     -11.397  11.477  63.828  1.00  0.00     0.000 HD 
HETATM    9  H   UNL     1      -9.423   9.920  65.328  1.00  0.00     0.000 HD 
HETATM   10  C   UNL     1     -12.223   9.675  64.878  1.00  0.00    10.464 C  
HETATM   11  C   UNL     1     -12.687   9.596  66.347  1.00  0.00    12.217 C  
HETATM   12  N   UNL     1      -9.376   7.098  71.244  1.00  0.00    -0.156 NA 
HETATM   13  C   UNL     1      -8.629   7.275  72.335  1.00  0.00    -0.115 A  
HETATM   14  N   UNL     1     -11.758   9.148  67.310  1.00  0.00     2.211 N  
HETATM   15  O   UNL     1     -13.794  10.037  66.685  1.00  0.00    16.604 OA 
HETATM   16  C   UNL     1      -7.347   6.732  72.393  1.00  0.00    -0.087 A  
HETATM   17  C   UNL     1     -13.799  12.821  69.157  1.00  0.00     6.772 C  
HETATM   18  C   UNL     1     -12.266   7.887  67.878  1.00  0.00     4.837 C  
HETATM   19  C   UNL     1     -12.229   7.994  69.397  1.00  0.00     2.081 C  
HETATM   20  O   UNL     1     -11.071   7.415  69.930  1.00  0.00    -0.251 OA 
HETATM   21  C   UNL     1     -12.263   9.475  69.560  1.00  0.00     0.862 C  
HETATM   22  C   UNL     1     -11.560  10.127  68.420  1.00  0.00     0.120 C  
HETATM   23  C   UNL     1     -10.607   7.658  71.172  1.00  0.00    -0.221 A  
HETATM   24  C   UNL     1      -6.541   6.925  73.510  1.00  0.00    -0.067 A  
HETATM   25  C   UNL     1     -11.134   8.418  72.265  1.00  0.00    -0.368 A  
HETATM   26  C   UNL     1      -7.034   7.681  74.565  1.00  0.00    -0.134 A  
HETATM   27  C   UNL     1     -12.490   9.144  72.392  1.00  0.00    -0.350 C  
HETATM   28  C   UNL     1     -13.060  12.638  70.512  1.00  0.00     0.395 C  
HETATM   29  N   UNL     1     -10.358   8.596  73.370  1.00  0.00     1.029 NA 
HETATM   30  C   UNL     1     -13.562  11.498  71.499  1.00  0.00     0.265 C  
HETATM   31  C   UNL     1     -12.423  10.735  72.287  1.00  0.00     0.583 C  
HETATM   32  C   UNL     1      -9.125   8.040  73.416  1.00  0.00    -0.273 A  
HETATM   33  C   UNL     1      -8.317   8.231  74.518  1.00  0.00    -0.059 A  
ENDROOT
BRANCH  10  34
HETATM   34  C   UNL     1     -12.066   8.367  63.956  1.00  0.00    21.174 C  
HETATM   35  C   UNL     1     -11.458   7.231  64.824  1.00  0.00    12.364 C  
HETATM   36  C   UNL     1     -11.026   8.669  62.826  1.00  0.00    10.465 C  
HETATM   37  C   UNL     1     -13.245   7.704  63.201  1.00  0.00    18.838 C  
ENDBRANCH  10  34
BRANCH  22  38
HETATM   38  C   UNL     1     -10.195  10.765  69.011  1.00  0.00    -0.213 C  
HETATM   39  H   UNL     1      -9.367  12.485  69.382  1.00  0.00     0.000 HD 
HETATM   40  O   UNL     1     -10.169  12.111  69.035  1.00  0.00    -0.093 OA 
BRANCH  38  41
HETATM   41  N   UNL     1      -9.141  10.065  69.305  1.00  0.00    -0.187 NA 
HETATM   42  H   UNL     1      -9.234   9.447  70.111  1.00  0.00     0.000 HD 
BRANCH  41  43
HETATM   43  C   UNL     1      -7.838  10.044  68.637  1.00  0.00    -0.091 C  
HETATM   44  C   UNL     1      -6.815  11.127  69.150  1.00  0.00    -0.102 C  
HETATM   45  C   UNL     1      -6.681   9.677  69.564  1.00  0.00    -0.051 C  
BRANCH  43  46
HETATM   46  C   UNL     1      -7.748   9.658  67.195  1.00  0.00    -0.091 C  
HETATM   47  H   UNL     1      -7.160  10.417  65.531  1.00  0.00     0.000 HD 
HETATM   48  O   UNL     1      -7.217  10.662  66.447  1.00  0.00    -0.120 OA 
BRANCH  46  49
HETATM   49  N   UNL     1      -8.180   8.534  66.771  1.00  0.00    -0.104 N  
HETATM   50  H   UNL     1      -8.658   8.494  65.870  1.00  0.00     0.000 HD 
BRANCH  49  51
HETATM   51  S   UNL     1      -7.994   7.179  67.616  1.00  0.00    -0.115 S  
HETATM   52  O   UNL     1      -6.846   7.318  68.487  1.00  0.00    -0.068 OA 
HETATM   53  O   UNL     1      -9.285   6.790  68.164  1.00  0.00    -0.124 OA 
BRANCH  51  54
HETATM   54  C   UNL     1      -7.615   5.850  66.418  1.00  0.00    -0.091 C  
HETATM   55  C   UNL     1      -8.764   5.122  65.894  1.00  0.00    -0.135 C  
HETATM   56  C   UNL     1      -8.067   6.123  64.970  1.00  0.00    -0.133 C  
ENDBRANCH  51  54
ENDBRANCH  49  51
ENDBRANCH  46  49
ENDBRANCH  43  46
BRANCH  44  57
HETATM   57  C   UNL     1      -5.714  11.665  68.328  1.00  0.00    -0.045 C  
HETATM   58  C   UNL     1      -5.763  12.746  67.516  1.00  0.00    -0.116 C  
ENDBRANCH  44  57
ENDBRANCH  41  43
ENDBRANCH  38  41
ENDBRANCH  22  38
BRANCH  24  59
HETATM   59  O   UNL     1      -5.276   6.442  73.689  1.00  0.00    -0.038 OA 
HETATM   60  C   UNL     1      -5.142   5.154  74.281  1.00  0.00    -0.017 C  
ENDBRANCH  24  59
TORSDOF 10
ENDMDL
MODEL       89
REMARK 921   NORMALIZED FREE ENERGY PREDICTED BY IDOCK:   90.17 KCAL/MOL
REMARK 922        TOTAL FREE ENERGY PREDICTED BY IDOCK:  140.23 KCAL/MOL
REMARK 923 INTER-LIGAND FREE ENERGY PREDICTED BY IDOCK:  102.12 KCAL/MOL
REMARK 924 INTRA-LIGAND FREE ENERGY PREDICTED BY IDOCK:   38.11 KCAL/MOL
REMARK 927      BINDING AFFINITY PREDICTED BY RF-SCORE:    0.00 PKD
ROOT
HETATM    1  C   UNL     1     -13.116  14.524  73.069  1.00  0.00    -0.611 C  
HETATM    2  C   UNL     1     -14.267  14.650  72.131  1.00  0.00    -0.608 C  
HETATM    3  C   UNL     1     -13.410  13.376  72.010  1.00  0.00    -0.479 C  
HETATM    4  O   UNL     1     -12.911  13.189  70.644  1.00  0.00    -0.163 OA 
HETATM    5  C   UNL     1     -12.318  12.031  70.166  1.00  0.00    -0.155 C  
HETATM    6  N   UNL     1     -11.960  10.953  70.777  1.00  0.00    -0.344 NA 
HETATM    7  O   UNL     1     -11.965  12.185  68.869  1.00  0.00    -0.299 OA 
HETATM    8  H   UNL     1     -12.612  10.201  71.001  1.00  0.00     0.000 HD 
HETATM    9  H   UNL     1     -11.558  11.391  68.542  1.00  0.00     0.000 HD 
HETATM   10  C   UNL     1     -10.484  10.899  71.132  1.00  0.00     2.769 C  
HETATM   11  C   UNL     1     -10.001  12.328  71.456  1.00  0.00    11.944 C  
HETATM   12  N   UNL     1      -7.924  16.686  67.227  1.00  0.00    -0.159 NA 
HETATM   13  C   UNL     1      -8.146  17.791  66.515  1.00  0.00    -0.272 A  
HETATM   14  N   UNL     1      -9.725  13.192  70.376  1.00  0.00     3.932 N  
HETATM   15  O   UNL     1      -9.985  12.739  72.624  1.00  0.00    14.487 OA 
HETATM   16  C   UNL     1      -8.056  17.751  65.125  1.00  0.00     2.438 A  
HETATM   17  C   UNL     1     -12.133  15.682  73.388  1.00  0.00    -0.603 C  
HETATM   18  C   UNL     1      -8.288  13.517  70.412  1.00  0.00     3.888 C  
HETATM   19  C   UNL     1      -8.135  15.030  70.322  1.00  0.00     0.757 C  
HETATM   20  O   UNL     1      -7.888  15.450  69.008  1.00  0.00    -0.159 OA 
HETATM   21  C   UNL     1      -9.468  15.464  70.825  1.00  0.00     1.406 C  
HETATM   22  C   UNL     1     -10.504  14.465  70.443  1.00  0.00     0.721 C  
HETATM   23  C   UNL     1      -8.049  16.716  68.576  1.00  0.00    -0.226 A  
HETATM   24  C   UNL     1      -8.306  18.886  64.361  1.00  0.00     6.091 A  
HETATM   25  C   UNL     1      -8.389  17.929  69.255  1.00  0.00     0.279 A  
HETATM   26  C   UNL     1      -8.660  20.061  65.010  1.00  0.00     1.491 A  
HETATM   27  C   UNL     1      -8.592  18.186  70.764  1.00  0.00     5.405 C  
HETATM   28  C   UNL     1     -11.972  16.981  72.550  1.00  0.00     0.567 C  
HETATM   29  N   UNL     1      -8.618  19.049  68.515  1.00  0.00    -0.348 NA 
HETATM   30  C   UNL     1     -10.576  17.740  72.595  1.00  0.00     4.171 C  
HETATM   31  C   UNL     1     -10.107  18.376  71.224  1.00  0.00     3.814 C  
HETATM   32  C   UNL     1      -8.502  18.994  67.168  1.00  0.00    -0.280 A  
HETATM   33  C   UNL     1      -8.754  20.114  66.403  1.00  0.00    -0.317 A  
ENDROOT
BRANCH  10  34
HETATM   34  C   UNL     1      -9.484   9.751  70.613  1.00  0.00    -0.065 C  
HETATM   35  C   UNL     1     -10.112   9.094  69.353  1.00  0.00    -0.198 C  
HETATM   36  C   UNL     1      -9.395   8.631  71.701  1.00  0.00    -0.333 C  
HETATM   37  C   UNL     1      -8.005  10.011  70.232  1.00  0.00    -0.039 C  
ENDBRANCH  10  34
BRANCH  22  38
HETATM   38  C   UNL     1     -11.445  15.165  69.327  1.00  0.00    -0.311 C  
HETATM   39  H   UNL     1     -12.226  14.824  67.580  1.00  0.00     0.000 HD 
HETATM   40  O   UNL     1     -11.674  14.414  68.234  1.00  0.00    -0.310 OA 
BRANCH  38  41
HETATM   41  N   UNL     1     -11.837  16.402  69.387  1.00  0.00    -0.193 NA 
HETATM   42  H   UNL     1     -12.699  16.566  69.907  1.00  0.00     0.000 HD 
BRANCH  41  43
HETATM   43  C   UNL     1     -11.209  17.593  68.811  1.00  0.00     0.701 C  
HETATM   44  C   UNL     1     -11.312  18.890  69.699  1.00  0.00     3.835 C  
HETATM   45  C   UNL     1     -10.018  18.108  69.618  1.00  0.00     0.381 C  
BRANCH  43  46
HETATM   46  C   UNL     1     -11.205  17.788  67.328  1.00  0.00     0.386 C  
HETATM   47  H   UNL     1      -9.956  18.206  65.930  1.00  0.00     0.000 HD 
HETATM   48  O   UNL     1      -9.958  18.082  66.872  1.00  0.00    -0.308 OA 
BRANCH  46  49
HETATM   49  N   UNL     1     -12.277  17.725  66.638  1.00  0.00     3.878 N  
HETATM   50  H   UNL     1     -12.777  18.587  66.419  1.00  0.00     0.000 HD 
BRANCH  49  51
HETATM   51  S   UNL     1     -12.864  16.326  66.106  1.00  0.00     4.833 S  
HETATM   52  O   UNL     1     -13.194  15.488  67.239  1.00  0.00     2.899 OA 
HETATM   53  O   UNL     1     -13.862  16.598  65.083  1.00  0.00     5.462 OA 
BRANCH  51  54
HETATM   54  C   UNL     1     -11.518  15.498  65.186  1.00  0.00    -0.156 C  
HETATM   55  C   UNL     1     -10.325  15.176  65.958  1.00  0.00    -0.326 C  
HETATM   56  C   UNL     1     -11.263  14.029  65.577  1.00  0.00    -0.311 C  
ENDBRANCH  51  54
ENDBRANCH  49  51
ENDBRANCH  46  49
ENDBRANCH  43  46
BRANCH  44  57
HETATM   57  C   UNL     1     -11.271  20.260  69.153  1.00  0.00     1.826 C  
HETATM   58  C   UNL     1     -10.370  21.225  69.452  1.00  0.00     1.297 C  
ENDBRANCH  44  57
ENDBRANCH  41  43
ENDBRANCH  38  41
ENDBRANCH  22  38
BRANCH  24  59
HETATM   59  O   UNL     1      -8.245  18.974  62.999  1.00  0.00    11.766 OA 
HETATM   60  C   UNL     1      -8.250  20.277  62.425  1.00  0.00     8.261 C  
ENDBRANCH  24  59
TORSDOF 10
ENDMDL
MODEL       90
REMARK 921   NORMALIZED FREE ENERGY PREDICTED BY IDOCK:   93.28 KCAL/MOL
REMARK 922        TOTAL FREE ENERGY PREDICTED BY IDOCK:  145.15 KCAL/MOL
REMARK 923 INTER-LIGAND FREE ENERGY PREDICTED BY IDOCK:  118.22 KCAL/MOL
REMARK 924 INTRA-LIGAND FREE ENERGY PREDICTED BY IDOCK:   26.93 KCAL/MOL
REMARK 927      BINDING AFFINITY PREDICTED BY RF-SCORE:    0.00 PKD
ROOT
HETATM    1  C   UNL     1      -7.904   8.369  68.734  1.00  0.00    -0.115 C  
HETATM    2  C   UNL     1      -6.878   9.384  69.106  1.00  0.00    -0.050 C  
HETATM    3  C   UNL     1      -7.934   9.042  70.173  1.00  0.00    -0.114 C  
HETATM    4  O   UNL     1      -8.628  10.242  70.650  1.00  0.00     0.303 OA 
HETATM    5  C   UNL     1      -9.453  10.293  71.763  1.00  0.00     4.569 C  
HETATM    6  N   UNL     1      -9.896   9.356  72.529  1.00  0.00     0.884 NA 
HETATM    7  O   UNL     1      -9.941  11.544  71.928  1.00  0.00     8.403 OA 
HETATM    8  H   UNL     1      -9.348   8.960  73.293  1.00  0.00     0.000 HD 
HETATM    9  H   UNL     1     -10.507  11.580  72.690  1.00  0.00     0.000 HD 
HETATM   10  C   UNL     1     -11.304   8.892  72.196  1.00  0.00    -0.299 C  
HETATM   11  C   UNL     1     -11.509   8.989  70.670  1.00  0.00    -0.248 C  
HETATM   12  N   UNL     1     -13.395  14.188  67.415  1.00  0.00     2.610 NA 
HETATM   13  C   UNL     1     -13.095  15.221  66.627  1.00  0.00     2.754 A  
HETATM   14  N   UNL     1     -11.781  10.259  70.120  1.00  0.00    -0.278 N  
HETATM   15  O   UNL     1     -11.309   8.007  69.942  1.00  0.00    -0.114 OA 
HETATM   16  C   UNL     1     -13.368  16.520  67.051  1.00  0.00     6.863 A  
HETATM   17  C   UNL     1      -8.641   8.351  67.368  1.00  0.00    -0.124 C  
HETATM   18  C   UNL     1     -13.131  10.218  69.532  1.00  0.00     1.286 C  
HETATM   19  C   UNL     1     -13.054  10.759  68.110  1.00  0.00     5.550 C  
HETATM   20  O   UNL     1     -13.398  12.115  68.051  1.00  0.00     3.683 OA 
HETATM   21  C   UNL     1     -11.614  10.515  67.810  1.00  0.00     0.043 C  
HETATM   22  C   UNL     1     -10.807  10.647  69.055  1.00  0.00    -0.235 C  
HETATM   23  C   UNL     1     -13.095  12.928  67.019  1.00  0.00     3.003 A  
HETATM   24  C   UNL     1     -13.041  17.613  66.256  1.00  0.00    10.620 A  
HETATM   25  C   UNL     1     -12.482  12.683  65.749  1.00  0.00    -0.086 A  
HETATM   26  C   UNL     1     -12.425  17.387  65.033  1.00  0.00     6.126 A  
HETATM   27  C   UNL     1     -12.049  11.347  65.109  1.00  0.00     0.813 C  
HETATM   28  C   UNL     1      -8.701   9.534  66.362  1.00  0.00    -0.149 C  
HETATM   29  N   UNL     1     -12.176  13.748  64.957  1.00  0.00    -0.401 NA 
HETATM   30  C   UNL     1      -9.942   9.621  65.372  1.00  0.00    -0.230 C  
HETATM   31  C   UNL     1     -10.476  11.082  65.084  1.00  0.00    -0.329 C  
HETATM   32  C   UNL     1     -12.471  15.000  65.377  1.00  0.00     0.231 A  
HETATM   33  C   UNL     1     -12.146  16.090  64.597  1.00  0.00     0.322 A  
ENDROOT
BRANCH  10  34
HETATM   34  C   UNL     1     -12.532   8.955  73.233  1.00  0.00     1.449 C  
HETATM   35  C   UNL     1     -12.812   7.514  73.743  1.00  0.00     4.639 C  
HETATM   36  C   UNL     1     -13.816   9.413  72.465  1.00  0.00    -0.385 C  
HETATM   37  C   UNL     1     -12.532   9.836  74.507  1.00  0.00    15.144 C  
ENDBRANCH  10  34
BRANCH  22  38
HETATM   38  C   UNL     1      -9.920  11.991  68.901  1.00  0.00     0.023 C  
HETATM   39  H   UNL     1      -8.426  12.920  69.730  1.00  0.00     0.000 HD 
HETATM   40  O   UNL     1      -8.947  12.131  69.821  1.00  0.00     1.615 OA 
BRANCH  38  41
HETATM   41  N   UNL     1     -10.194  12.944  68.061  1.00  0.00    -0.223 NA 
HETATM   42  H   UNL     1      -9.841  12.811  67.113  1.00  0.00     0.000 HD 
BRANCH  41  43
HETATM   43  C   UNL     1     -10.941  14.182  68.290  1.00  0.00    -0.251 C  
HETATM   44  C   UNL     1     -10.090  15.501  68.159  1.00  0.00    -0.218 C  
HETATM   45  C   UNL     1     -11.037  15.077  67.056  1.00  0.00    -0.334 C  
BRANCH  43  46
HETATM   46  C   UNL     1     -12.068  14.200  69.274  1.00  0.00    -0.324 C  
HETATM   47  H   UNL     1     -13.817  14.974  69.453  1.00  0.00     0.000 HD 
HETATM   48  O   UNL     1     -13.101  14.963  68.828  1.00  0.00     1.004 OA 
BRANCH  46  49
HETATM   49  N   UNL     1     -11.990  13.598  70.397  1.00  0.00    -0.446 N  
HETATM   50  H   UNL     1     -11.081  13.266  70.720  1.00  0.00     0.000 HD 
BRANCH  49  51
HETATM   51  S   UNL     1     -13.283  13.348  71.319  1.00  0.00    -0.104 S  
HETATM   52  O   UNL     1     -14.323  14.281  70.940  1.00  0.00     0.098 OA 
HETATM   53  O   UNL     1     -13.560  11.920  71.356  1.00  0.00     0.130 OA 
BRANCH  51  54
HETATM   54  C   UNL     1     -12.797  13.738  73.039  1.00  0.00     0.102 C  
HETATM   55  C   UNL     1     -13.781  13.415  74.065  1.00  0.00     6.815 C  
HETATM   56  C   UNL     1     -12.549  12.515  73.944  1.00  0.00     9.125 C  
ENDBRANCH  51  54
ENDBRANCH  49  51
ENDBRANCH  46  49
ENDBRANCH  43  46
BRANCH  44  57
HETATM   57  C   UNL     1     -10.427  16.763  68.845  1.00  0.00    -0.332 C  
HETATM   58  C   UNL     1     -11.271  17.725  68.404  1.00  0.00     0.506 C  
ENDBRANCH  44  57
ENDBRANCH  41  43
ENDBRANCH  38  41
ENDBRANCH  22  38
BRANCH  24  59
HETATM   59  O   UNL     1     -13.262  18.927  66.556  1.00  0.00     8.179 OA 
HETATM   60  C   UNL     1     -13.720  19.774  65.507  1.00  0.00    16.714 C  
ENDBRANCH  24  59
TORSDOF 10
ENDMDL
MODEL       91
REMARK 921   NORMALIZED FREE ENERGY PREDICTED BY IDOCK:  108.94 KCAL/MOL
REMARK 922        TOTAL FREE ENERGY PREDICTED BY IDOCK:  169.97 KCAL/MOL
REMARK 923 INTER-LIGAND FREE ENERGY PREDICTED BY IDOCK:  133.01 KCAL/MOL
REMARK 924 INTRA-LIGAND FREE ENERGY PREDICTED BY IDOCK:   36.96 KCAL/MOL
REMARK 927      BINDING AFFINITY PREDICTED BY RF-SCORE:    0.00 PKD
ROOT
HETATM    1  C   UNL     1     -13.176  13.414  67.866  1.00  0.00     3.742 C  
HETATM    2  C   UNL     1     -11.883  14.155  67.822  1.00  0.00    -0.414 C  
HETATM    3  C   UNL     1     -12.108  13.087  66.735  1.00  0.00    -0.300 C  
HETATM    4  O   UNL     1     -11.019  12.106  66.707  1.00  0.00    -0.254 OA 
HETATM    5  C   UNL     1     -10.814  11.175  65.702  1.00  0.00    -0.138 C  
HETATM    6  N   UNL     1     -11.537  10.863  64.680  1.00  0.00     0.434 NA 
HETATM    7  O   UNL     1      -9.729  10.416  65.979  1.00  0.00    -0.189 OA 
HETATM    8  H   UNL     1     -11.528  11.398  63.811  1.00  0.00     0.000 HD 
HETATM    9  H   UNL     1      -9.589   9.777  65.290  1.00  0.00     0.000 HD 
HETATM   10  C   UNL     1     -12.402   9.630  64.882  1.00  0.00    11.341 C  
HETATM   11  C   UNL     1     -12.846   9.574  66.359  1.00  0.00    14.084 C  
HETATM   12  N   UNL     1      -9.552   6.981  71.218  1.00  0.00    -0.165 NA 
HETATM   13  C   UNL     1      -8.783   7.137  72.297  1.00  0.00    -0.120 A  
HETATM   14  N   UNL     1     -11.919   9.098  67.310  1.00  0.00     3.687 N  
HETATM   15  O   UNL     1     -13.931  10.056  66.711  1.00  0.00    17.376 OA 
HETATM   16  C   UNL     1      -7.520   6.549  72.339  1.00  0.00    -0.094 A  
HETATM   17  C   UNL     1     -13.801  12.849  69.169  1.00  0.00     6.669 C  
HETATM   18  C   UNL     1     -12.463   7.858  67.891  1.00  0.00     6.858 C  
HETATM   19  C   UNL     1     -12.399   7.971  69.409  1.00  0.00     2.429 C  
HETATM   20  O   UNL     1     -11.254   7.353  69.928  1.00  0.00    -0.228 OA 
HETATM   21  C   UNL     1     -12.378   9.453  69.566  1.00  0.00     1.230 C  
HETATM   22  C   UNL     1     -11.670  10.074  68.412  1.00  0.00     0.439 C  
HETATM   23  C   UNL     1     -10.763   7.585  71.162  1.00  0.00    -0.227 A  
HETATM   24  C   UNL     1      -6.691   6.718  73.443  1.00  0.00    -0.071 A  
HETATM   25  C   UNL     1     -11.246   8.368  72.259  1.00  0.00    -0.376 A  
HETATM   26  C   UNL     1      -7.141   7.496  74.501  1.00  0.00    -0.132 A  
HETATM   27  C   UNL     1     -12.573   9.143  72.402  1.00  0.00    -0.381 C  
HETATM   28  C   UNL     1     -13.047  12.646  70.514  1.00  0.00     0.395 C  
HETATM   29  N   UNL     1     -10.448   8.523  73.351  1.00  0.00     0.815 NA 
HETATM   30  C   UNL     1     -13.575  11.529  71.514  1.00  0.00     0.265 C  
HETATM   31  C   UNL     1     -12.452  10.729  72.289  1.00  0.00     0.583 C  
HETATM   32  C   UNL     1      -9.235   7.924  73.381  1.00  0.00    -0.286 A  
HETATM   33  C   UNL     1      -8.405   8.090  74.470  1.00  0.00    -0.190 A  
ENDROOT
BRANCH  10  34
HETATM   34  C   UNL     1     -12.305   8.313  63.964  1.00  0.00    23.054 C  
HETATM   35  C   UNL     1     -11.358   8.622  62.772  1.00  0.00    13.549 C  
HETATM   36  C   UNL     1     -13.715   8.024  63.350  1.00  0.00    17.779 C  
HETATM   37  C   UNL     1     -11.845   6.932  64.493  1.00  0.00    13.957 C  
ENDBRANCH  10  34
BRANCH  22  38
HETATM   38  C   UNL     1     -10.274  10.666  68.979  1.00  0.00    -0.215 C  
HETATM   39  H   UNL     1      -9.121  12.224  68.829  1.00  0.00     0.000 HD 
HETATM   40  O   UNL     1      -9.940  11.877  68.497  1.00  0.00    -0.207 OA 
BRANCH  38  41
HETATM   41  N   UNL     1      -9.453   9.988  69.723  1.00  0.00    -0.293 NA 
HETATM   42  H   UNL     1      -9.605  10.063  70.729  1.00  0.00     0.000 HD 
BRANCH  41  43
HETATM   43  C   UNL     1      -8.339   9.130  69.313  1.00  0.00    -0.123 C  
HETATM   44  C   UNL     1      -8.744   7.907  68.408  1.00  0.00    -0.131 C  
HETATM   45  C   UNL     1      -8.087   9.132  67.807  1.00  0.00    -0.105 C  
BRANCH  43  46
HETATM   46  C   UNL     1      -7.174   8.935  70.232  1.00  0.00    -0.054 C  
HETATM   47  H   UNL     1      -6.083   9.976  71.421  1.00  0.00     0.000 HD 
HETATM   48  O   UNL     1      -6.822  10.101  70.838  1.00  0.00    -0.338 OA 
BRANCH  46  49
HETATM   49  N   UNL     1      -6.593   7.805  70.351  1.00  0.00    -0.038 N  
HETATM   50  H   UNL     1      -5.762   7.733  70.938  1.00  0.00     0.000 HD 
BRANCH  49  51
HETATM   51  S   UNL     1      -7.133   6.490  69.600  1.00  0.00    -0.074 S  
HETATM   52  O   UNL     1      -8.289   5.981  70.308  1.00  0.00    -0.119 OA 
HETATM   53  O   UNL     1      -7.212   6.766  68.174  1.00  0.00    -0.086 OA 
BRANCH  51  54
HETATM   54  C   UNL     1      -5.816   5.226  69.722  1.00  0.00    -0.017 C  
HETATM   55  C   UNL     1      -6.268   3.856  69.930  1.00  0.00    -0.027 C  
HETATM   56  C   UNL     1      -5.745   4.236  68.543  1.00  0.00    -0.024 C  
ENDBRANCH  51  54
ENDBRANCH  49  51
ENDBRANCH  46  49
ENDBRANCH  43  46
BRANCH  44  57
HETATM   57  C   UNL     1      -7.967   6.655  68.328  1.00  0.00    -0.111 C  
HETATM   58  C   UNL     1      -8.025   5.726  67.346  1.00  0.00    -0.102 C  
ENDBRANCH  44  57
ENDBRANCH  41  43
ENDBRANCH  38  41
ENDBRANCH  22  38
BRANCH  24  59
HETATM   59  O   UNL     1      -5.441   6.191  73.605  1.00  0.00    -0.038 OA 
HETATM   60  C   UNL     1      -5.350   4.826  73.999  1.00  0.00    -0.009 C  
ENDBRANCH  24  59
TORSDOF 10
ENDMDL
MODEL       92
REMARK 921   NORMALIZED FREE ENERGY PREDICTED BY IDOCK:  119.38 KCAL/MOL
REMARK 922        TOTAL FREE ENERGY PREDICTED BY IDOCK:  186.51 KCAL/MOL
REMARK 923 INTER-LIGAND FREE ENERGY PREDICTED BY IDOCK:  137.70 KCAL/MOL
REMARK 924 INTRA-LIGAND FREE ENERGY PREDICTED BY IDOCK:   48.81 KCAL/MOL
REMARK 927      BINDING AFFINITY PREDICTED BY RF-SCORE:    0.00 PKD
ROOT
HETATM    1  C   UNL     1     -13.176  13.414  67.866  1.00  0.00     3.742 C  
HETATM    2  C   UNL     1     -11.876  14.142  67.816  1.00  0.00    -0.414 C  
HETATM    3  C   UNL     1     -12.114  13.073  66.734  1.00  0.00    -0.300 C  
HETATM    4  O   UNL     1     -11.034  12.082  66.707  1.00  0.00    -0.256 OA 
HETATM    5  C   UNL     1     -10.840  11.145  65.704  1.00  0.00    -0.138 C  
HETATM    6  N   UNL     1     -11.569  10.836  64.686  1.00  0.00     0.663 NA 
HETATM    7  O   UNL     1      -9.762  10.377  65.981  1.00  0.00    -0.189 OA 
HETATM    8  H   UNL     1     -11.557  11.368  63.815  1.00  0.00     0.000 HD 
HETATM    9  H   UNL     1      -9.629   9.735  65.294  1.00  0.00     0.000 HD 
HETATM   10  C   UNL     1     -12.445   9.613  64.894  1.00  0.00    12.222 C  
HETATM   11  C   UNL     1     -12.885   9.566  66.372  1.00  0.00    14.084 C  
HETATM   12  N   UNL     1      -9.604   6.960  71.233  1.00  0.00    -0.165 NA 
HETATM   13  C   UNL     1      -8.831   7.112  72.309  1.00  0.00    -0.128 A  
HETATM   14  N   UNL     1     -11.961   9.084  67.322  1.00  0.00     3.806 N  
HETATM   15  O   UNL     1     -13.965  10.059  66.725  1.00  0.00    17.376 OA 
HETATM   16  C   UNL     1      -7.574   6.512  72.350  1.00  0.00    -0.095 A  
HETATM   17  C   UNL     1     -13.803  12.859  69.173  1.00  0.00     6.669 C  
HETATM   18  C   UNL     1     -12.515   7.852  67.910  1.00  0.00     6.858 C  
HETATM   19  C   UNL     1     -12.447   7.969  69.427  1.00  0.00     2.783 C  
HETATM   20  O   UNL     1     -11.306   7.343  69.945  1.00  0.00    -0.195 OA 
HETATM   21  C   UNL     1     -12.411   9.451  69.578  1.00  0.00     1.230 C  
HETATM   22  C   UNL     1     -11.700  10.062  68.421  1.00  0.00     0.439 C  
HETATM   23  C   UNL     1     -10.810   7.574  71.177  1.00  0.00    -0.238 A  
HETATM   24  C   UNL     1      -6.741   6.678  73.451  1.00  0.00    -0.076 A  
HETATM   25  C   UNL     1     -11.283   8.366  72.272  1.00  0.00    -0.376 A  
HETATM   26  C   UNL     1      -7.181   7.463  74.508  1.00  0.00    -0.137 A  
HETATM   27  C   UNL     1     -12.603   9.153  72.416  1.00  0.00    -0.381 C  
HETATM   28  C   UNL     1     -13.048  12.654  70.516  1.00  0.00     0.395 C  
HETATM   29  N   UNL     1     -10.481   8.517  73.362  1.00  0.00     0.815 NA 
HETATM   30  C   UNL     1     -13.584  11.546  71.522  1.00  0.00     0.265 C  
HETATM   31  C   UNL     1     -12.466  10.738  72.297  1.00  0.00     0.583 C  
HETATM   32  C   UNL     1      -9.273   7.907  73.391  1.00  0.00    -0.286 A  
HETATM   33  C   UNL     1      -8.439   8.070  74.478  1.00  0.00    -0.121 A  
ENDROOT
BRANCH  10  34
HETATM   34  C   UNL     1     -12.363   8.292  63.981  1.00  0.00    23.054 C  
HETATM   35  C   UNL     1     -11.415   8.587  62.785  1.00  0.00    15.273 C  
HETATM   36  C   UNL     1     -13.776   8.013  63.370  1.00  0.00    17.779 C  
HETATM   37  C   UNL     1     -11.914   6.908  64.513  1.00  0.00    14.312 C  
ENDBRANCH  10  34
BRANCH  22  38
HETATM   38  C   UNL     1     -10.298  10.643  68.982  1.00  0.00    -0.218 C  
HETATM   39  H   UNL     1      -9.593  12.040  70.136  1.00  0.00     0.000 HD 
HETATM   40  O   UNL     1     -10.417  11.700  69.807  1.00  0.00     0.214 OA 
BRANCH  38  41
HETATM   41  N   UNL     1      -9.133  10.237  68.572  1.00  0.00    -0.132 NA 
HETATM   42  H   UNL     1      -8.731   9.456  69.091  1.00  0.00     0.000 HD 
BRANCH  41  43
HETATM   43  C   UNL     1      -8.321  10.747  67.466  1.00  0.00    -0.115 C  
HETATM   44  C   UNL     1      -9.003  10.660  66.049  1.00  0.00    -0.189 C  
HETATM   45  C   UNL     1      -8.916  11.979  66.787  1.00  0.00    -0.198 C  
BRANCH  43  46
HETATM   46  C   UNL     1      -6.832  10.605  67.510  1.00  0.00    -0.078 C  
HETATM   47  H   UNL     1      -5.403  10.768  68.784  1.00  0.00     0.000 HD 
HETATM   48  O   UNL     1      -6.348  10.858  68.756  1.00  0.00    -0.046 OA 
BRANCH  46  49
HETATM   49  N   UNL     1      -6.151  10.331  66.466  1.00  0.00    -0.066 N  
HETATM   50  H   UNL     1      -5.133  10.309  66.529  1.00  0.00     0.000 HD 
BRANCH  49  51
HETATM   51  S   UNL     1      -6.852  10.019  65.053  1.00  0.00    -0.134 S  
HETATM   52  O   UNL     1      -7.382   8.672  65.073  1.00  0.00    -0.083 OA 
HETATM   53  O   UNL     1      -7.713  11.139  64.702  1.00  0.00     0.429 OA 
BRANCH  51  54
HETATM   54  C   UNL     1      -5.538  10.072  63.781  1.00  0.00    -0.116 C  
HETATM   55  C   UNL     1      -5.647   9.084  62.715  1.00  0.00    -0.078 C  
HETATM   56  C   UNL     1      -5.995  10.536  62.384  1.00  0.00    -0.140 C  
ENDBRANCH  51  54
ENDBRANCH  49  51
ENDBRANCH  46  49
ENDBRANCH  43  46
BRANCH  44  57
HETATM   57  C   UNL     1      -8.250  10.580  64.782  1.00  0.00    -0.100 C  
HETATM   58  C   UNL     1      -8.717  10.860  63.543  1.00  0.00    -0.046 C  
ENDBRANCH  44  57
ENDBRANCH  41  43
ENDBRANCH  38  41
ENDBRANCH  22  38
BRANCH  24  59
HETATM   59  O   UNL     1      -5.496   6.139  73.612  1.00  0.00    -0.038 OA 
HETATM   60  C   UNL     1      -5.416   4.775  74.011  1.00  0.00    -0.017 C  
ENDBRANCH  24  59
TORSDOF 10
ENDMDL
MODEL       93
REMARK 921   NORMALIZED FREE ENERGY PREDICTED BY IDOCK:  132.64 KCAL/MOL
REMARK 922        TOTAL FREE ENERGY PREDICTED BY IDOCK:  207.52 KCAL/MOL
REMARK 923 INTER-LIGAND FREE ENERGY PREDICTED BY IDOCK:   99.45 KCAL/MOL
REMARK 924 INTRA-LIGAND FREE ENERGY PREDICTED BY IDOCK:  108.07 KCAL/MOL
REMARK 927      BINDING AFFINITY PREDICTED BY RF-SCORE:    0.00 PKD
ROOT
HETATM    1  C   UNL     1     -12.756  19.683  66.031  1.00  0.00     7.260 C  
HETATM    2  C   UNL     1     -13.905  19.827  66.969  1.00  0.00     7.535 C  
HETATM    3  C   UNL     1     -12.500  20.056  67.555  1.00  0.00     4.035 C  
HETATM    4  O   UNL     1     -12.253  19.197  68.717  1.00  0.00     4.255 OA 
HETATM    5  C   UNL     1     -11.189  19.335  69.594  1.00  0.00     3.250 C  
HETATM    6  N   UNL     1     -10.154  20.103  69.552  1.00  0.00    -0.331 NA 
HETATM    7  O   UNL     1     -11.246  18.383  70.554  1.00  0.00     1.977 OA 
HETATM    8  H   UNL     1     -10.173  21.077  69.854  1.00  0.00     0.000 HD 
HETATM    9  H   UNL     1     -10.517  18.477  71.156  1.00  0.00     0.000 HD 
HETATM   10  C   UNL     1      -8.902  19.430  69.014  1.00  0.00    -0.219 C  
HETATM   11  C   UNL     1      -9.314  18.403  67.940  1.00  0.00    -0.280 C  
HETATM   12  N   UNL     1     -11.073  12.319  68.979  1.00  0.00    -0.244 NA 
HETATM   13  C   UNL     1     -12.037  11.402  69.070  1.00  0.00    -0.249 A  
HETATM   14  N   UNL     1      -9.814  17.157  68.374  1.00  0.00    -0.281 N  
HETATM   15  O   UNL     1      -9.330  18.714  66.741  1.00  0.00    -0.288 OA 
HETATM   16  C   UNL     1     -12.202  10.684  70.252  1.00  0.00    -0.417 A  
HETATM   17  C   UNL     1     -12.618  18.525  65.007  1.00  0.00    10.380 C  
HETATM   18  C   UNL     1      -8.879  16.112  67.926  1.00  0.00    -0.182 C  
HETATM   19  C   UNL     1      -9.676  15.023  67.219  1.00  0.00    -0.220 C  
HETATM   20  O   UNL     1      -9.977  13.959  68.079  1.00  0.00    -0.227 OA 
HETATM   21  C   UNL     1     -10.883  15.797  66.814  1.00  0.00    -0.254 C  
HETATM   22  C   UNL     1     -11.169  16.856  67.821  1.00  0.00     0.005 C  
HETATM   23  C   UNL     1     -10.938  13.044  67.843  1.00  0.00    -0.241 A  
HETATM   24  C   UNL     1     -13.215   9.740  70.378  1.00  0.00     0.255 A  
HETATM   25  C   UNL     1     -11.800  12.821  66.721  1.00  0.00    -0.382 A  
HETATM   26  C   UNL     1     -14.071   9.534  69.305  1.00  0.00     5.702 A  
HETATM   27  C   UNL     1     -11.830  13.530  65.350  1.00  0.00    -0.379 C  
HETATM   28  C   UNL     1     -13.422  17.195  65.040  1.00  0.00    10.018 C  
HETATM   29  N   UNL     1     -12.783  11.885  66.831  1.00  0.00     1.575 NA 
HETATM   30  C   UNL     1     -12.774  15.905  64.374  1.00  0.00     0.949 C  
HETATM   31  C   UNL     1     -13.042  14.545  65.135  1.00  0.00     0.230 C  
HETATM   32  C   UNL     1     -12.910  11.182  67.980  1.00  0.00     3.533 A  
HETATM   33  C   UNL     1     -13.916  10.248  68.114  1.00  0.00    12.831 A  
ENDROOT
BRANCH  10  34
HETATM   34  C   UNL     1      -7.533  19.297  69.849  1.00  0.00     0.335 C  
HETATM   35  C   UNL     1      -6.346  19.551  68.879  1.00  0.00    -0.306 C  
HETATM   36  C   UNL     1      -7.391  17.821  70.349  1.00  0.00     2.393 C  
HETATM   37  C   UNL     1      -7.210  20.143  71.106  1.00  0.00     0.920 C  
ENDBRANCH  10  34
BRANCH  22  38
HETATM   38  C   UNL     1     -12.528  16.423  68.586  1.00  0.00     1.407 C  
HETATM   39  H   UNL     1     -14.125  17.194  69.383  1.00  0.00     0.000 HD 
HETATM   40  O   UNL     1     -13.328  17.448  68.934  1.00  0.00     5.688 OA 
BRANCH  38  41
HETATM   41  N   UNL     1     -12.782  15.209  68.974  1.00  0.00    -0.290 NA 
HETATM   42  H   UNL     1     -13.765  14.936  68.951  1.00  0.00     0.000 HD 
BRANCH  41  43
HETATM   43  C   UNL     1     -11.850  14.182  69.441  1.00  0.00    -0.330 C  
HETATM   44  C   UNL     1     -11.632  14.145  71.000  1.00  0.00     0.001 C  
HETATM   45  C   UNL     1     -12.503  13.114  70.316  1.00  0.00    -0.233 C  
BRANCH  43  46
HETATM   46  C   UNL     1     -10.685  13.791  68.586  1.00  0.00    -0.256 C  
HETATM   47  H   UNL     1      -9.436  14.617  67.384  1.00  0.00     0.000 HD 
HETATM   48  O   UNL     1     -10.175  14.865  67.926  1.00  0.00    -0.226 OA 
BRANCH  46  49
HETATM   49  N   UNL     1     -10.300  12.578  68.489  1.00  0.00    -0.261 N  
HETATM   50  H   UNL     1     -10.561  12.040  67.662  1.00  0.00     0.000 HD 
BRANCH  49  51
HETATM   51  S   UNL     1      -9.414  11.874  69.630  1.00  0.00     1.802 S  
HETATM   52  O   UNL     1      -8.974  12.877  70.576  1.00  0.00     4.995 OA 
HETATM   53  O   UNL     1     -10.114  10.686  70.097  1.00  0.00     0.049 OA 
BRANCH  51  54
HETATM   54  C   UNL     1      -7.923  11.201  68.812  1.00  0.00    -0.144 C  
HETATM   55  C   UNL     1      -8.159  10.431  67.597  1.00  0.00    -0.107 C  
HETATM   56  C   UNL     1      -7.577  11.838  67.452  1.00  0.00    -0.143 C  
ENDBRANCH  51  54
ENDBRANCH  49  51
ENDBRANCH  46  49
ENDBRANCH  43  46
BRANCH  44  57
HETATM   57  C   UNL     1     -10.408  13.629  71.644  1.00  0.00     6.491 C  
HETATM   58  C   UNL     1      -9.199  13.454  71.062  1.00  0.00     8.673 C  
ENDBRANCH  44  57
ENDBRANCH  41  43
ENDBRANCH  38  41
ENDBRANCH  22  38
BRANCH  24  59
HETATM   59  O   UNL     1     -13.474   8.972  71.478  1.00  0.00    -0.355 OA 
HETATM   60  C   UNL     1     -13.462   7.558  71.309  1.00  0.00    -0.253 C  
ENDBRANCH  24  59
TORSDOF 10
ENDMDL
