MODEL        1
REMARK 921   NORMALIZED FREE ENERGY PREDICTED BY IDOCK:   -4.65 KCAL/MOL
REMARK 922        TOTAL FREE ENERGY PREDICTED BY IDOCK:   -4.96 KCAL/MOL
REMARK 923 INTER-LIGAND FREE ENERGY PREDICTED BY IDOCK:   -4.92 KCAL/MOL
REMARK 924 INTRA-LIGAND FREE ENERGY PREDICTED BY IDOCK:   -0.04 KCAL/MOL
REMARK 927      BINDING AFFINITY PREDICTED BY RF-SCORE:    0.00 PKD
ROOT
HETATM    1  C   UNL     1     -12.583  12.223  63.518  1.00  0.00    -0.476 C  
HETATM    2  O   UNL     1     -12.494  13.640  63.580  1.00  0.00    -0.736 OA 
ENDROOT
BRANCH   2   3
HETATM    3  C   UNL     1     -11.616  14.157  64.493  1.00  0.00    -0.389 A  
HETATM    4  C   UNL     1     -11.229  15.496  64.601  1.00  0.00    -0.371 A  
HETATM    5  O   UNL     1     -11.659  16.470  63.749  1.00  0.00    -1.617 OA 
HETATM    6  C   UNL     1     -10.298  15.896  65.562  1.00  0.00    -0.425 A  
HETATM    7  C   UNL     1      -9.708  14.950  66.395  1.00  0.00    -0.306 A  
HETATM    8  H   UNL     1     -11.395  17.381  63.821  1.00  0.00     0.000 HD 
HETATM    9  C   UNL     1     -10.062  13.607  66.279  1.00  0.00    -0.301 A  
HETATM   10  C   UNL     1     -11.011  13.216  65.332  1.00  0.00    -0.298 A  
ENDBRANCH   2   3
TORSDOF 1
ENDMDL
MODEL        2
REMARK 921   NORMALIZED FREE ENERGY PREDICTED BY IDOCK:   -4.44 KCAL/MOL
REMARK 922        TOTAL FREE ENERGY PREDICTED BY IDOCK:   -4.74 KCAL/MOL
REMARK 923 INTER-LIGAND FREE ENERGY PREDICTED BY IDOCK:   -4.70 KCAL/MOL
REMARK 924 INTRA-LIGAND FREE ENERGY PREDICTED BY IDOCK:   -0.04 KCAL/MOL
REMARK 927      BINDING AFFINITY PREDICTED BY RF-SCORE:    0.00 PKD
ROOT
HETATM    1  C   UNL     1      -8.269  16.297  66.418  1.00  0.00    -0.319 C  
HETATM    2  O   UNL     1      -9.552  16.641  65.914  1.00  0.00    -0.439 OA 
ENDROOT
BRANCH   2   3
HETATM    3  C   UNL     1     -10.439  15.612  65.746  1.00  0.00    -0.366 A  
HETATM    4  C   UNL     1     -11.387  15.498  64.726  1.00  0.00    -0.357 A  
HETATM    5  O   UNL     1     -11.580  16.453  63.771  1.00  0.00    -1.605 OA 
HETATM    6  C   UNL     1     -12.259  14.408  64.678  1.00  0.00    -0.479 A  
HETATM    7  C   UNL     1     -12.222  13.443  65.682  1.00  0.00    -0.510 A  
HETATM    8  H   UNL     1     -12.225  16.376  63.078  1.00  0.00     0.000 HD 
HETATM    9  C   UNL     1     -11.301  13.561  66.722  1.00  0.00    -0.351 A  
HETATM   10  C   UNL     1     -10.416  14.641  66.751  1.00  0.00    -0.277 A  
ENDBRANCH   2   3
TORSDOF 1
ENDMDL
MODEL        3
REMARK 921   NORMALIZED FREE ENERGY PREDICTED BY IDOCK:   -4.28 KCAL/MOL
REMARK 922        TOTAL FREE ENERGY PREDICTED BY IDOCK:   -4.57 KCAL/MOL
REMARK 923 INTER-LIGAND FREE ENERGY PREDICTED BY IDOCK:   -4.53 KCAL/MOL
REMARK 924 INTRA-LIGAND FREE ENERGY PREDICTED BY IDOCK:   -0.04 KCAL/MOL
REMARK 927      BINDING AFFINITY PREDICTED BY RF-SCORE:    0.00 PKD
ROOT
HETATM    1  C   UNL     1     -10.830  16.258  67.883  1.00  0.00    -0.330 C  
HETATM    2  O   UNL     1     -10.475  16.037  66.525  1.00  0.00    -0.297 OA 
ENDROOT
BRANCH   2   3
HETATM    3  C   UNL     1     -11.111  15.006  65.887  1.00  0.00    -0.334 A  
HETATM    4  C   UNL     1     -11.622  15.029  64.587  1.00  0.00    -0.386 A  
HETATM    5  O   UNL     1     -11.589  16.135  63.789  1.00  0.00    -1.390 OA 
HETATM    6  C   UNL     1     -12.279  13.917  64.057  1.00  0.00    -0.413 A  
HETATM    7  C   UNL     1     -12.473  12.783  64.843  1.00  0.00    -0.563 A  
HETATM    8  H   UNL     1     -11.937  16.151  62.904  1.00  0.00     0.000 HD 
HETATM    9  C   UNL     1     -11.996  12.758  66.151  1.00  0.00    -0.476 A  
HETATM   10  C   UNL     1     -11.318  13.865  66.668  1.00  0.00    -0.342 A  
ENDBRANCH   2   3
TORSDOF 1
ENDMDL
MODEL        4
REMARK 921   NORMALIZED FREE ENERGY PREDICTED BY IDOCK:   -4.18 KCAL/MOL
REMARK 922        TOTAL FREE ENERGY PREDICTED BY IDOCK:   -4.46 KCAL/MOL
REMARK 923 INTER-LIGAND FREE ENERGY PREDICTED BY IDOCK:   -4.42 KCAL/MOL
REMARK 924 INTRA-LIGAND FREE ENERGY PREDICTED BY IDOCK:   -0.04 KCAL/MOL
REMARK 927      BINDING AFFINITY PREDICTED BY RF-SCORE:    0.00 PKD
ROOT
HETATM    1  C   UNL     1     -10.518  17.086  65.552  1.00  0.00    -0.166 C  
HETATM    2  O   UNL     1     -10.992  16.126  64.617  1.00  0.00    -0.642 OA 
ENDROOT
BRANCH   2   3
HETATM    3  C   UNL     1     -11.336  14.900  65.121  1.00  0.00    -0.379 A  
HETATM    4  C   UNL     1     -11.975  13.871  64.425  1.00  0.00    -0.450 A  
HETATM    5  O   UNL     1     -12.388  13.987  63.130  1.00  0.00    -1.133 OA 
HETATM    6  C   UNL     1     -12.301  12.671  65.061  1.00  0.00    -0.561 A  
HETATM    7  C   UNL     1     -12.031  12.509  66.418  1.00  0.00    -0.386 A  
HETATM    8  H   UNL     1     -12.823  13.287  62.656  1.00  0.00     0.000 HD 
HETATM    9  C   UNL     1     -11.422  13.539  67.132  1.00  0.00    -0.368 A  
HETATM   10  C   UNL     1     -11.078  14.727  66.483  1.00  0.00    -0.334 A  
ENDBRANCH   2   3
TORSDOF 1
ENDMDL
MODEL        5
REMARK 921   NORMALIZED FREE ENERGY PREDICTED BY IDOCK:   -4.15 KCAL/MOL
REMARK 922        TOTAL FREE ENERGY PREDICTED BY IDOCK:   -4.44 KCAL/MOL
REMARK 923 INTER-LIGAND FREE ENERGY PREDICTED BY IDOCK:   -4.40 KCAL/MOL
REMARK 924 INTRA-LIGAND FREE ENERGY PREDICTED BY IDOCK:   -0.04 KCAL/MOL
REMARK 927      BINDING AFFINITY PREDICTED BY RF-SCORE:    0.00 PKD
ROOT
HETATM    1  C   UNL     1     -11.995  14.334  67.520  1.00  0.00    -0.376 C  
HETATM    2  O   UNL     1     -12.485  14.075  66.212  1.00  0.00    -0.465 OA 
ENDROOT
BRANCH   2   3
HETATM    3  C   UNL     1     -11.787  13.162  65.468  1.00  0.00    -0.380 A  
HETATM    4  C   UNL     1     -11.711  13.119  64.073  1.00  0.00    -0.439 A  
HETATM    5  O   UNL     1     -12.384  13.982  63.259  1.00  0.00    -1.133 OA 
HETATM    6  C   UNL     1     -10.985  12.116  63.427  1.00  0.00    -0.480 A  
HETATM    7  C   UNL     1     -10.366  11.115  64.173  1.00  0.00    -0.423 A  
HETATM    8  H   UNL     1     -12.333  13.952  62.311  1.00  0.00     0.000 HD 
HETATM    9  C   UNL     1     -10.460  11.129  65.563  1.00  0.00    -0.317 A  
HETATM   10  C   UNL     1     -11.167  12.149  66.204  1.00  0.00    -0.386 A  
ENDBRANCH   2   3
TORSDOF 1
ENDMDL
MODEL        6
REMARK 921   NORMALIZED FREE ENERGY PREDICTED BY IDOCK:   -4.15 KCAL/MOL
REMARK 922        TOTAL FREE ENERGY PREDICTED BY IDOCK:   -4.44 KCAL/MOL
REMARK 923 INTER-LIGAND FREE ENERGY PREDICTED BY IDOCK:   -4.38 KCAL/MOL
REMARK 924 INTRA-LIGAND FREE ENERGY PREDICTED BY IDOCK:   -0.06 KCAL/MOL
REMARK 927      BINDING AFFINITY PREDICTED BY RF-SCORE:    0.00 PKD
ROOT
HETATM    1  C   UNL     1      -9.794  11.532  63.094  1.00  0.00    -0.390 C  
HETATM    2  O   UNL     1     -11.154  11.435  63.495  1.00  0.00    -0.399 OA 
ENDROOT
BRANCH   2   3
HETATM    3  C   UNL     1     -11.541  12.231  64.540  1.00  0.00    -0.353 A  
HETATM    4  C   UNL     1     -12.199  13.459  64.442  1.00  0.00    -0.389 A  
HETATM    5  O   UNL     1     -12.503  14.053  63.252  1.00  0.00    -1.139 OA 
HETATM    6  C   UNL     1     -12.517  14.194  65.586  1.00  0.00    -0.490 A  
HETATM    7  C   UNL     1     -12.133  13.727  66.841  1.00  0.00    -0.454 A  
HETATM    8  H   UNL     1     -12.951  14.889  63.185  1.00  0.00     0.000 HD 
HETATM    9  C   UNL     1     -11.449  12.519  66.951  1.00  0.00    -0.416 A  
HETATM   10  C   UNL     1     -11.156  11.777  65.804  1.00  0.00    -0.351 A  
ENDBRANCH   2   3
TORSDOF 1
ENDMDL
MODEL        7
REMARK 921   NORMALIZED FREE ENERGY PREDICTED BY IDOCK:   -4.15 KCAL/MOL
REMARK 922        TOTAL FREE ENERGY PREDICTED BY IDOCK:   -4.43 KCAL/MOL
REMARK 923 INTER-LIGAND FREE ENERGY PREDICTED BY IDOCK:   -4.38 KCAL/MOL
REMARK 924 INTRA-LIGAND FREE ENERGY PREDICTED BY IDOCK:   -0.05 KCAL/MOL
REMARK 927      BINDING AFFINITY PREDICTED BY RF-SCORE:    0.00 PKD
ROOT
HETATM    1  C   UNL     1     -11.435   6.351  71.599  1.00  0.00    -0.303 C  
HETATM    2  O   UNL     1     -11.630   7.375  72.565  1.00  0.00    -0.298 OA 
ENDROOT
BRANCH   2   3
HETATM    3  C   UNL     1     -11.984   8.607  72.086  1.00  0.00    -0.379 A  
HETATM    4  C   UNL     1     -13.135   9.324  72.421  1.00  0.00    -0.406 A  
HETATM    5  O   UNL     1     -14.100   8.843  73.258  1.00  0.00    -1.211 OA 
HETATM    6  C   UNL     1     -13.400  10.566  71.840  1.00  0.00    -0.461 A  
HETATM    7  C   UNL     1     -12.535  11.081  70.878  1.00  0.00    -0.509 A  
HETATM    8  H   UNL     1     -14.883   9.330  73.486  1.00  0.00     0.000 HD 
HETATM    9  C   UNL     1     -11.399  10.363  70.511  1.00  0.00    -0.424 A  
HETATM   10  C   UNL     1     -11.128   9.133  71.114  1.00  0.00    -0.393 A  
ENDBRANCH   2   3
TORSDOF 1
ENDMDL
MODEL        8
REMARK 921   NORMALIZED FREE ENERGY PREDICTED BY IDOCK:   -4.03 KCAL/MOL
REMARK 922        TOTAL FREE ENERGY PREDICTED BY IDOCK:   -4.31 KCAL/MOL
REMARK 923 INTER-LIGAND FREE ENERGY PREDICTED BY IDOCK:   -4.27 KCAL/MOL
REMARK 924 INTRA-LIGAND FREE ENERGY PREDICTED BY IDOCK:   -0.04 KCAL/MOL
REMARK 927      BINDING AFFINITY PREDICTED BY RF-SCORE:    0.00 PKD
ROOT
HETATM    1  C   UNL     1     -12.485  12.863  64.410  1.00  0.00    -0.375 C  
HETATM    2  O   UNL     1     -11.175  13.352  64.156  1.00  0.00    -0.380 OA 
ENDROOT
BRANCH   2   3
HETATM    3  C   UNL     1     -10.726  14.350  64.979  1.00  0.00    -0.423 A  
HETATM    4  C   UNL     1     -10.988  15.715  64.840  1.00  0.00    -0.431 A  
HETATM    5  O   UNL     1     -11.707  16.238  63.806  1.00  0.00    -1.511 OA 
HETATM    6  C   UNL     1     -10.445  16.642  65.733  1.00  0.00    -0.324 A  
HETATM    7  C   UNL     1      -9.594  16.213  66.748  1.00  0.00    -0.256 A  
HETATM    8  H   UNL     1     -11.885  17.167  63.711  1.00  0.00     0.000 HD 
HETATM    9  C   UNL     1      -9.300  14.858  66.880  1.00  0.00    -0.258 A  
HETATM   10  C   UNL     1      -9.864  13.933  65.998  1.00  0.00    -0.306 A  
ENDBRANCH   2   3
TORSDOF 1
ENDMDL
MODEL        9
REMARK 921   NORMALIZED FREE ENERGY PREDICTED BY IDOCK:   -4.02 KCAL/MOL
REMARK 922        TOTAL FREE ENERGY PREDICTED BY IDOCK:   -4.30 KCAL/MOL
REMARK 923 INTER-LIGAND FREE ENERGY PREDICTED BY IDOCK:   -4.26 KCAL/MOL
REMARK 924 INTRA-LIGAND FREE ENERGY PREDICTED BY IDOCK:   -0.04 KCAL/MOL
REMARK 927      BINDING AFFINITY PREDICTED BY RF-SCORE:    0.00 PKD
ROOT
HETATM    1  C   UNL     1      -9.523  18.174  66.950  1.00  0.00    -0.286 C  
HETATM    2  O   UNL     1     -10.140  17.739  65.746  1.00  0.00    -0.555 OA 
ENDROOT
BRANCH   2   3
HETATM    3  C   UNL     1     -10.310  16.389  65.599  1.00  0.00    -0.350 A  
HETATM    4  C   UNL     1     -11.090  15.755  64.629  1.00  0.00    -0.361 A  
HETATM    5  O   UNL     1     -11.839  16.432  63.711  1.00  0.00    -1.455 OA 
HETATM    6  C   UNL     1     -11.206  14.364  64.600  1.00  0.00    -0.366 A  
HETATM    7  C   UNL     1     -10.577  13.594  65.576  1.00  0.00    -0.300 A  
HETATM    8  H   UNL     1     -12.371  16.001  63.051  1.00  0.00     0.000 HD 
HETATM    9  C   UNL     1      -9.820  14.214  66.567  1.00  0.00    -0.298 A  
HETATM   10  C   UNL     1      -9.689  15.605  66.576  1.00  0.00    -0.286 A  
ENDBRANCH   2   3
TORSDOF 1
ENDMDL
MODEL       10
REMARK 921   NORMALIZED FREE ENERGY PREDICTED BY IDOCK:   -3.99 KCAL/MOL
REMARK 922        TOTAL FREE ENERGY PREDICTED BY IDOCK:   -4.27 KCAL/MOL
REMARK 923 INTER-LIGAND FREE ENERGY PREDICTED BY IDOCK:   -4.22 KCAL/MOL
REMARK 924 INTRA-LIGAND FREE ENERGY PREDICTED BY IDOCK:   -0.05 KCAL/MOL
REMARK 927      BINDING AFFINITY PREDICTED BY RF-SCORE:    0.00 PKD
ROOT
HETATM    1  C   UNL     1     -12.534  15.907  74.507  1.00  0.00    -0.581 C  
HETATM    2  O   UNL     1     -13.258  15.936  73.285  1.00  0.00    -0.540 OA 
ENDROOT
BRANCH   2   3
HETATM    3  C   UNL     1     -12.905  15.006  72.344  1.00  0.00    -0.349 A  
HETATM    4  C   UNL     1     -12.127  15.237  71.206  1.00  0.00    -0.349 A  
HETATM    5  O   UNL     1     -11.650  16.468  70.862  1.00  0.00    -0.585 OA 
HETATM    6  C   UNL     1     -11.859  14.207  70.302  1.00  0.00    -0.373 A  
HETATM    7  C   UNL     1     -12.410  12.944  70.503  1.00  0.00    -0.362 A  
HETATM    8  H   UNL     1     -11.121  16.625  70.088  1.00  0.00     0.000 HD 
HETATM    9  C   UNL     1     -13.213  12.708  71.618  1.00  0.00    -0.394 A  
HETATM   10  C   UNL     1     -13.457  13.736  72.531  1.00  0.00    -0.682 A  
ENDBRANCH   2   3
TORSDOF 1
ENDMDL
MODEL       11
REMARK 921   NORMALIZED FREE ENERGY PREDICTED BY IDOCK:   -3.99 KCAL/MOL
REMARK 922        TOTAL FREE ENERGY PREDICTED BY IDOCK:   -4.26 KCAL/MOL
REMARK 923 INTER-LIGAND FREE ENERGY PREDICTED BY IDOCK:   -4.22 KCAL/MOL
REMARK 924 INTRA-LIGAND FREE ENERGY PREDICTED BY IDOCK:   -0.05 KCAL/MOL
REMARK 927      BINDING AFFINITY PREDICTED BY RF-SCORE:    0.00 PKD
ROOT
HETATM    1  C   UNL     1     -12.534  15.967  74.512  1.00  0.00    -0.581 C  
HETATM    2  O   UNL     1     -13.287  16.103  73.314  1.00  0.00    -0.563 OA 
ENDROOT
BRANCH   2   3
HETATM    3  C   UNL     1     -12.874  15.355  72.245  1.00  0.00    -0.380 A  
HETATM    4  C   UNL     1     -13.236  14.033  71.973  1.00  0.00    -0.412 A  
HETATM    5  O   UNL     1     -14.034  13.291  72.794  1.00  0.00    -0.717 OA 
HETATM    6  C   UNL     1     -12.722  13.365  70.859  1.00  0.00    -0.349 A  
HETATM    7  C   UNL     1     -11.801  14.001  70.031  1.00  0.00    -0.388 A  
HETATM    8  H   UNL     1     -14.280  12.392  72.609  1.00  0.00     0.000 HD 
HETATM    9  C   UNL     1     -11.407  15.308  70.308  1.00  0.00    -0.318 A  
HETATM   10  C   UNL     1     -11.943  15.979  71.410  1.00  0.00    -0.507 A  
ENDBRANCH   2   3
TORSDOF 1
ENDMDL
MODEL       12
REMARK 921   NORMALIZED FREE ENERGY PREDICTED BY IDOCK:   -3.93 KCAL/MOL
REMARK 922        TOTAL FREE ENERGY PREDICTED BY IDOCK:   -4.20 KCAL/MOL
REMARK 923 INTER-LIGAND FREE ENERGY PREDICTED BY IDOCK:   -4.16 KCAL/MOL
REMARK 924 INTRA-LIGAND FREE ENERGY PREDICTED BY IDOCK:   -0.04 KCAL/MOL
REMARK 927      BINDING AFFINITY PREDICTED BY RF-SCORE:    0.00 PKD
ROOT
HETATM    1  C   UNL     1     -11.770  12.084  69.971  1.00  0.00    -0.267 C  
HETATM    2  O   UNL     1     -12.658  13.194  69.967  1.00  0.00    -0.117 OA 
ENDROOT
BRANCH   2   3
HETATM    3  C   UNL     1     -12.565  14.056  71.026  1.00  0.00    -0.366 A  
HETATM    4  C   UNL     1     -13.167  13.895  72.277  1.00  0.00    -0.473 A  
HETATM    5  O   UNL     1     -13.986  12.848  72.585  1.00  0.00    -0.727 OA 
HETATM    6  C   UNL     1     -13.018  14.864  73.272  1.00  0.00    -0.635 A  
HETATM    7  C   UNL     1     -12.303  16.029  73.007  1.00  0.00    -0.625 A  
HETATM    8  H   UNL     1     -14.395  12.739  73.435  1.00  0.00     0.000 HD 
HETATM    9  C   UNL     1     -11.723  16.216  71.754  1.00  0.00    -0.568 A  
HETATM   10  C   UNL     1     -11.855  15.232  70.771  1.00  0.00    -0.381 A  
ENDBRANCH   2   3
TORSDOF 1
ENDMDL
MODEL       13
REMARK 921   NORMALIZED FREE ENERGY PREDICTED BY IDOCK:   -3.92 KCAL/MOL
REMARK 922        TOTAL FREE ENERGY PREDICTED BY IDOCK:   -4.19 KCAL/MOL
REMARK 923 INTER-LIGAND FREE ENERGY PREDICTED BY IDOCK:   -4.15 KCAL/MOL
REMARK 924 INTRA-LIGAND FREE ENERGY PREDICTED BY IDOCK:   -0.04 KCAL/MOL
REMARK 927      BINDING AFFINITY PREDICTED BY RF-SCORE:    0.00 PKD
ROOT
HETATM    1  C   UNL     1     -11.866  12.210  68.665  1.00  0.00    -0.306 C  
HETATM    2  O   UNL     1     -12.151  12.070  67.279  1.00  0.00    -0.572 OA 
ENDROOT
BRANCH   2   3
HETATM    3  C   UNL     1     -11.901  13.161  66.491  1.00  0.00    -0.400 A  
HETATM    4  C   UNL     1     -12.439  13.405  65.225  1.00  0.00    -0.483 A  
HETATM    5  O   UNL     1     -13.269  12.533  64.583  1.00  0.00    -0.848 OA 
HETATM    6  C   UNL     1     -12.082  14.547  64.504  1.00  0.00    -0.501 A  
HETATM    7  C   UNL     1     -11.143  15.433  65.025  1.00  0.00    -0.428 A  
HETATM    8  H   UNL     1     -13.635  12.699  63.721  1.00  0.00     0.000 HD 
HETATM    9  C   UNL     1     -10.575  15.186  66.273  1.00  0.00    -0.312 A  
HETATM   10  C   UNL     1     -10.954  14.055  67.000  1.00  0.00    -0.302 A  
ENDBRANCH   2   3
TORSDOF 1
ENDMDL
MODEL       14
REMARK 921   NORMALIZED FREE ENERGY PREDICTED BY IDOCK:   -3.91 KCAL/MOL
REMARK 922        TOTAL FREE ENERGY PREDICTED BY IDOCK:   -4.18 KCAL/MOL
REMARK 923 INTER-LIGAND FREE ENERGY PREDICTED BY IDOCK:   -4.14 KCAL/MOL
REMARK 924 INTRA-LIGAND FREE ENERGY PREDICTED BY IDOCK:   -0.04 KCAL/MOL
REMARK 927      BINDING AFFINITY PREDICTED BY RF-SCORE:    0.00 PKD
ROOT
HETATM    1  C   UNL     1     -10.546  15.990  65.221  1.00  0.00    -0.402 C  
HETATM    2  O   UNL     1     -10.681  17.404  65.151  1.00  0.00    -0.684 OA 
ENDROOT
BRANCH   2   3
HETATM    3  C   UNL     1     -10.465  18.097  66.312  1.00  0.00    -0.361 A  
HETATM    4  C   UNL     1     -10.184  19.461  66.418  1.00  0.00    -0.465 A  
HETATM    5  O   UNL     1     -10.041  20.283  65.339  1.00  0.00    -0.433 OA 
HETATM    6  C   UNL     1      -9.953  20.049  67.664  1.00  0.00    -0.566 A  
HETATM    7  C   UNL     1      -9.954  19.263  68.814  1.00  0.00    -0.511 A  
HETATM    8  H   UNL     1      -9.850  21.211  65.411  1.00  0.00     0.000 HD 
HETATM    9  C   UNL     1     -10.202  17.895  68.719  1.00  0.00    -0.362 A  
HETATM   10  C   UNL     1     -10.456  17.318  67.473  1.00  0.00    -0.356 A  
ENDBRANCH   2   3
TORSDOF 1
ENDMDL
MODEL       15
REMARK 921   NORMALIZED FREE ENERGY PREDICTED BY IDOCK:   -3.91 KCAL/MOL
REMARK 922        TOTAL FREE ENERGY PREDICTED BY IDOCK:   -4.18 KCAL/MOL
REMARK 923 INTER-LIGAND FREE ENERGY PREDICTED BY IDOCK:   -4.13 KCAL/MOL
REMARK 924 INTRA-LIGAND FREE ENERGY PREDICTED BY IDOCK:   -0.04 KCAL/MOL
REMARK 927      BINDING AFFINITY PREDICTED BY RF-SCORE:    0.00 PKD
ROOT
HETATM    1  C   UNL     1     -12.564  11.866  63.528  1.00  0.00    -0.459 C  
HETATM    2  O   UNL     1     -13.111  12.589  64.622  1.00  0.00    -0.845 OA 
ENDROOT
BRANCH   2   3
HETATM    3  C   UNL     1     -12.274  13.471  65.252  1.00  0.00    -0.441 A  
HETATM    4  C   UNL     1     -11.796  13.364  66.560  1.00  0.00    -0.396 A  
HETATM    5  O   UNL     1     -12.157  12.360  67.410  1.00  0.00    -0.505 OA 
HETATM    6  C   UNL     1     -10.965  14.349  67.101  1.00  0.00    -0.305 A  
HETATM    7  C   UNL     1     -10.644  15.477  66.350  1.00  0.00    -0.312 A  
HETATM    8  H   UNL     1     -11.832  12.288  68.300  1.00  0.00     0.000 HD 
HETATM    9  C   UNL     1     -11.138  15.610  65.054  1.00  0.00    -0.399 A  
HETATM   10  C   UNL     1     -11.949  14.611  64.511  1.00  0.00    -0.473 A  
ENDBRANCH   2   3
TORSDOF 1
ENDMDL
MODEL       16
REMARK 921   NORMALIZED FREE ENERGY PREDICTED BY IDOCK:   -3.90 KCAL/MOL
REMARK 922        TOTAL FREE ENERGY PREDICTED BY IDOCK:   -4.17 KCAL/MOL
REMARK 923 INTER-LIGAND FREE ENERGY PREDICTED BY IDOCK:   -4.12 KCAL/MOL
REMARK 924 INTRA-LIGAND FREE ENERGY PREDICTED BY IDOCK:   -0.06 KCAL/MOL
REMARK 927      BINDING AFFINITY PREDICTED BY RF-SCORE:    0.00 PKD
ROOT
HETATM    1  C   UNL     1     -11.320  13.194  69.183  1.00  0.00    -0.281 C  
HETATM    2  O   UNL     1     -12.355  14.147  69.388  1.00  0.00    -0.326 OA 
ENDROOT
BRANCH   2   3
HETATM    3  C   UNL     1     -12.493  14.635  70.659  1.00  0.00    -0.344 A  
HETATM    4  C   UNL     1     -11.959  15.830  71.147  1.00  0.00    -0.423 A  
HETATM    5  O   UNL     1     -11.170  16.657  70.402  1.00  0.00    -0.488 OA 
HETATM    6  C   UNL     1     -12.147  16.207  72.479  1.00  0.00    -0.644 A  
HETATM    7  C   UNL     1     -12.833  15.364  73.349  1.00  0.00    -0.662 A  
HETATM    8  H   UNL     1     -10.806  17.470  70.734  1.00  0.00     0.000 HD 
HETATM    9  C   UNL     1     -13.345  14.155  72.884  1.00  0.00    -0.532 A  
HETATM   10  C   UNL     1     -13.174  13.795  71.545  1.00  0.00    -0.417 A  
ENDBRANCH   2   3
TORSDOF 1
ENDMDL
MODEL       17
REMARK 921   NORMALIZED FREE ENERGY PREDICTED BY IDOCK:   -3.86 KCAL/MOL
REMARK 922        TOTAL FREE ENERGY PREDICTED BY IDOCK:   -4.13 KCAL/MOL
REMARK 923 INTER-LIGAND FREE ENERGY PREDICTED BY IDOCK:   -4.09 KCAL/MOL
REMARK 924 INTRA-LIGAND FREE ENERGY PREDICTED BY IDOCK:   -0.04 KCAL/MOL
REMARK 927      BINDING AFFINITY PREDICTED BY RF-SCORE:    0.00 PKD
ROOT
HETATM    1  C   UNL     1     -13.160  11.393  71.806  1.00  0.00    -0.418 C  
HETATM    2  O   UNL     1     -13.643  12.666  72.215  1.00  0.00    -0.547 OA 
ENDROOT
BRANCH   2   3
HETATM    3  C   UNL     1     -12.916  13.754  71.814  1.00  0.00    -0.355 A  
HETATM    4  C   UNL     1     -12.699  14.919  72.553  1.00  0.00    -0.364 A  
HETATM    5  O   UNL     1     -13.243  15.138  73.784  1.00  0.00    -0.609 OA 
HETATM    6  C   UNL     1     -11.959  15.977  72.019  1.00  0.00    -0.622 A  
HETATM    7  C   UNL     1     -11.468  15.896  70.718  1.00  0.00    -0.437 A  
HETATM    8  H   UNL     1     -13.095  15.931  74.287  1.00  0.00     0.000 HD 
HETATM    9  C   UNL     1     -11.704  14.751  69.959  1.00  0.00    -0.344 A  
HETATM   10  C   UNL     1     -12.424  13.688  70.507  1.00  0.00    -0.394 A  
ENDBRANCH   2   3
TORSDOF 1
ENDMDL
MODEL       18
REMARK 921   NORMALIZED FREE ENERGY PREDICTED BY IDOCK:   -3.86 KCAL/MOL
REMARK 922        TOTAL FREE ENERGY PREDICTED BY IDOCK:   -4.13 KCAL/MOL
REMARK 923 INTER-LIGAND FREE ENERGY PREDICTED BY IDOCK:   -4.09 KCAL/MOL
REMARK 924 INTRA-LIGAND FREE ENERGY PREDICTED BY IDOCK:   -0.04 KCAL/MOL
REMARK 927      BINDING AFFINITY PREDICTED BY RF-SCORE:    0.00 PKD
ROOT
HETATM    1  C   UNL     1     -10.829  15.657  68.388  1.00  0.00    -0.290 C  
HETATM    2  O   UNL     1     -10.058  16.167  67.309  1.00  0.00    -0.254 OA 
ENDROOT
BRANCH   2   3
HETATM    3  C   UNL     1     -10.054  17.527  67.151  1.00  0.00    -0.321 A  
HETATM    4  C   UNL     1     -10.533  18.230  66.043  1.00  0.00    -0.361 A  
HETATM    5  O   UNL     1     -11.036  17.622  64.930  1.00  0.00    -0.886 OA 
HETATM    6  C   UNL     1     -10.447  19.623  65.987  1.00  0.00    -0.622 A  
HETATM    7  C   UNL     1      -9.834  20.324  67.023  1.00  0.00    -0.607 A  
HETATM    8  H   UNL     1     -11.362  18.100  64.176  1.00  0.00     0.000 HD 
HETATM    9  C   UNL     1      -9.324  19.632  68.120  1.00  0.00    -0.433 A  
HETATM   10  C   UNL     1      -9.435  18.241  68.180  1.00  0.00    -0.313 A  
ENDBRANCH   2   3
TORSDOF 1
ENDMDL
MODEL       19
REMARK 921   NORMALIZED FREE ENERGY PREDICTED BY IDOCK:   -3.85 KCAL/MOL
REMARK 922        TOTAL FREE ENERGY PREDICTED BY IDOCK:   -4.12 KCAL/MOL
REMARK 923 INTER-LIGAND FREE ENERGY PREDICTED BY IDOCK:   -4.07 KCAL/MOL
REMARK 924 INTRA-LIGAND FREE ENERGY PREDICTED BY IDOCK:   -0.05 KCAL/MOL
REMARK 927      BINDING AFFINITY PREDICTED BY RF-SCORE:    0.00 PKD
ROOT
HETATM    1  C   UNL     1     -11.237  13.531  68.304  1.00  0.00    -0.274 C  
HETATM    2  O   UNL     1     -11.913  12.462  67.655  1.00  0.00    -0.454 OA 
ENDROOT
BRANCH   2   3
HETATM    3  C   UNL     1     -11.654  12.295  66.321  1.00  0.00    -0.385 A  
HETATM    4  C   UNL     1     -12.323  12.920  65.265  1.00  0.00    -0.490 A  
HETATM    5  O   UNL     1     -13.381  13.762  65.442  1.00  0.00    -0.669 OA 
HETATM    6  C   UNL     1     -11.982  12.643  63.939  1.00  0.00    -0.558 A  
HETATM    7  C   UNL     1     -10.997  11.700  63.657  1.00  0.00    -0.507 A  
HETATM    8  H   UNL     1     -13.836  14.186  64.724  1.00  0.00     0.000 HD 
HETATM    9  C   UNL     1     -10.343  11.047  64.700  1.00  0.00    -0.410 A  
HETATM   10  C   UNL     1     -10.672  11.346  66.024  1.00  0.00    -0.318 A  
ENDBRANCH   2   3
TORSDOF 1
ENDMDL
MODEL       20
REMARK 921   NORMALIZED FREE ENERGY PREDICTED BY IDOCK:   -3.85 KCAL/MOL
REMARK 922        TOTAL FREE ENERGY PREDICTED BY IDOCK:   -4.11 KCAL/MOL
REMARK 923 INTER-LIGAND FREE ENERGY PREDICTED BY IDOCK:   -4.07 KCAL/MOL
REMARK 924 INTRA-LIGAND FREE ENERGY PREDICTED BY IDOCK:   -0.05 KCAL/MOL
REMARK 927      BINDING AFFINITY PREDICTED BY RF-SCORE:    0.00 PKD
ROOT
HETATM    1  C   UNL     1      -9.118  10.681  63.184  1.00  0.00    -0.269 C  
HETATM    2  O   UNL     1      -9.664  11.954  62.866  1.00  0.00    -0.349 OA 
ENDROOT
BRANCH   2   3
HETATM    3  C   UNL     1     -10.624  12.437  63.714  1.00  0.00    -0.452 A  
HETATM    4  C   UNL     1     -11.987  12.134  63.675  1.00  0.00    -0.534 A  
HETATM    5  O   UNL     1     -12.550  11.332  62.726  1.00  0.00    -0.912 OA 
HETATM    6  C   UNL     1     -12.875  12.717  64.583  1.00  0.00    -0.361 A  
HETATM    7  C   UNL     1     -12.411  13.647  65.510  1.00  0.00    -0.544 A  
HETATM    8  H   UNL     1     -13.477  11.127  62.700  1.00  0.00     0.000 HD 
HETATM    9  C   UNL     1     -11.059  13.981  65.539  1.00  0.00    -0.309 A  
HETATM   10  C   UNL     1     -10.172  13.377  64.644  1.00  0.00    -0.338 A  
ENDBRANCH   2   3
TORSDOF 1
ENDMDL
MODEL       21
REMARK 921   NORMALIZED FREE ENERGY PREDICTED BY IDOCK:   -3.80 KCAL/MOL
REMARK 922        TOTAL FREE ENERGY PREDICTED BY IDOCK:   -4.06 KCAL/MOL
REMARK 923 INTER-LIGAND FREE ENERGY PREDICTED BY IDOCK:   -4.02 KCAL/MOL
REMARK 924 INTRA-LIGAND FREE ENERGY PREDICTED BY IDOCK:   -0.05 KCAL/MOL
REMARK 927      BINDING AFFINITY PREDICTED BY RF-SCORE:    0.00 PKD
ROOT
HETATM    1  C   UNL     1     -11.281  15.157  67.488  1.00  0.00    -0.330 C  
HETATM    2  O   UNL     1     -11.031  15.262  66.093  1.00  0.00    -0.327 OA 
ENDROOT
BRANCH   2   3
HETATM    3  C   UNL     1     -11.022  14.090  65.384  1.00  0.00    -0.321 A  
HETATM    4  C   UNL     1     -11.758  13.819  64.228  1.00  0.00    -0.395 A  
HETATM    5  O   UNL     1     -12.640  14.702  63.677  1.00  0.00    -1.017 OA 
HETATM    6  C   UNL     1     -11.684  12.569  63.610  1.00  0.00    -0.594 A  
HETATM    7  C   UNL     1     -10.906  11.560  64.172  1.00  0.00    -0.435 A  
HETATM    8  H   UNL     1     -13.141  14.517  62.891  1.00  0.00     0.000 HD 
HETATM    9  C   UNL     1     -10.190  11.808  65.341  1.00  0.00    -0.301 A  
HETATM   10  C   UNL     1     -10.250  13.067  65.942  1.00  0.00    -0.298 A  
ENDBRANCH   2   3
TORSDOF 1
ENDMDL
MODEL       22
REMARK 921   NORMALIZED FREE ENERGY PREDICTED BY IDOCK:   -3.72 KCAL/MOL
REMARK 922        TOTAL FREE ENERGY PREDICTED BY IDOCK:   -3.98 KCAL/MOL
REMARK 923 INTER-LIGAND FREE ENERGY PREDICTED BY IDOCK:   -3.94 KCAL/MOL
REMARK 924 INTRA-LIGAND FREE ENERGY PREDICTED BY IDOCK:   -0.04 KCAL/MOL
REMARK 927      BINDING AFFINITY PREDICTED BY RF-SCORE:    0.00 PKD
ROOT
HETATM    1  C   UNL     1     -10.772  15.872  69.270  1.00  0.00    -0.259 C  
HETATM    2  O   UNL     1     -11.532  14.672  69.207  1.00  0.00    -0.260 OA 
ENDROOT
BRANCH   2   3
HETATM    3  C   UNL     1     -12.315  14.387  70.294  1.00  0.00    -0.348 A  
HETATM    4  C   UNL     1     -12.412  13.152  70.940  1.00  0.00    -0.323 A  
HETATM    5  O   UNL     1     -11.753  12.033  70.521  1.00  0.00    -0.510 OA 
HETATM    6  C   UNL     1     -13.273  12.979  72.026  1.00  0.00    -0.543 A  
HETATM    7  C   UNL     1     -14.082  14.032  72.447  1.00  0.00    -0.576 A  
HETATM    8  H   UNL     1     -11.820  11.193  70.960  1.00  0.00     0.000 HD 
HETATM    9  C   UNL     1     -14.016  15.260  71.792  1.00  0.00    -0.638 A  
HETATM   10  C   UNL     1     -13.136  15.433  70.722  1.00  0.00    -0.479 A  
ENDBRANCH   2   3
TORSDOF 1
ENDMDL
MODEL       23
REMARK 921   NORMALIZED FREE ENERGY PREDICTED BY IDOCK:   -3.71 KCAL/MOL
REMARK 922        TOTAL FREE ENERGY PREDICTED BY IDOCK:   -3.97 KCAL/MOL
REMARK 923 INTER-LIGAND FREE ENERGY PREDICTED BY IDOCK:   -3.92 KCAL/MOL
REMARK 924 INTRA-LIGAND FREE ENERGY PREDICTED BY IDOCK:   -0.06 KCAL/MOL
REMARK 927      BINDING AFFINITY PREDICTED BY RF-SCORE:    0.00 PKD
ROOT
HETATM    1  C   UNL     1     -12.286  14.835  64.464  1.00  0.00    -0.428 C  
HETATM    2  O   UNL     1     -12.839  13.544  64.677  1.00  0.00    -0.667 OA 
ENDROOT
BRANCH   2   3
HETATM    3  C   UNL     1     -11.950  12.530  64.916  1.00  0.00    -0.412 A  
HETATM    4  C   UNL     1     -11.629  11.992  66.164  1.00  0.00    -0.304 A  
HETATM    5  O   UNL     1     -12.145  12.459  67.337  1.00  0.00    -0.505 OA 
HETATM    6  C   UNL     1     -10.680  10.974  66.282  1.00  0.00    -0.273 A  
HETATM    7  C   UNL     1     -10.006  10.518  65.151  1.00  0.00    -0.375 A  
HETATM    8  H   UNL     1     -11.927  12.093  68.187  1.00  0.00     0.000 HD 
HETATM    9  C   UNL     1     -10.295  11.068  63.904  1.00  0.00    -0.436 A  
HETATM   10  C   UNL     1     -11.262  12.069  63.790  1.00  0.00    -0.516 A  
ENDBRANCH   2   3
TORSDOF 1
ENDMDL
MODEL       24
REMARK 921   NORMALIZED FREE ENERGY PREDICTED BY IDOCK:   -3.63 KCAL/MOL
REMARK 922        TOTAL FREE ENERGY PREDICTED BY IDOCK:   -3.88 KCAL/MOL
REMARK 923 INTER-LIGAND FREE ENERGY PREDICTED BY IDOCK:   -3.84 KCAL/MOL
REMARK 924 INTRA-LIGAND FREE ENERGY PREDICTED BY IDOCK:   -0.05 KCAL/MOL
REMARK 927      BINDING AFFINITY PREDICTED BY RF-SCORE:    0.00 PKD
ROOT
HETATM    1  C   UNL     1     -12.591  12.946  65.079  1.00  0.00    -0.472 C  
HETATM    2  O   UNL     1     -11.595  12.375  65.916  1.00  0.00    -0.359 OA 
ENDROOT
BRANCH   2   3
HETATM    3  C   UNL     1     -11.687  12.651  67.253  1.00  0.00    -0.370 A  
HETATM    4  C   UNL     1     -11.765  11.714  68.287  1.00  0.00    -0.304 A  
HETATM    5  O   UNL     1     -11.808  10.367  68.075  1.00  0.00    -0.746 OA 
HETATM    6  C   UNL     1     -11.886  12.124  69.616  1.00  0.00    -0.391 A  
HETATM    7  C   UNL     1     -11.979  13.480  69.920  1.00  0.00    -0.416 A  
HETATM    8  H   UNL     1     -11.861   9.730  68.778  1.00  0.00     0.000 HD 
HETATM    9  C   UNL     1     -11.933  14.424  68.897  1.00  0.00    -0.337 A  
HETATM   10  C   UNL     1     -11.788  14.009  67.571  1.00  0.00    -0.442 A  
ENDBRANCH   2   3
TORSDOF 1
ENDMDL
MODEL       25
REMARK 921   NORMALIZED FREE ENERGY PREDICTED BY IDOCK:   -3.62 KCAL/MOL
REMARK 922        TOTAL FREE ENERGY PREDICTED BY IDOCK:   -3.87 KCAL/MOL
REMARK 923 INTER-LIGAND FREE ENERGY PREDICTED BY IDOCK:   -3.83 KCAL/MOL
REMARK 924 INTRA-LIGAND FREE ENERGY PREDICTED BY IDOCK:   -0.04 KCAL/MOL
REMARK 927      BINDING AFFINITY PREDICTED BY RF-SCORE:    0.00 PKD
ROOT
HETATM    1  C   UNL     1     -11.210   6.233  69.396  1.00  0.00    -0.420 C  
HETATM    2  O   UNL     1     -11.649   6.399  70.738  1.00  0.00    -0.344 OA 
ENDROOT
BRANCH   2   3
HETATM    3  C   UNL     1     -12.083   7.650  71.088  1.00  0.00    -0.298 A  
HETATM    4  C   UNL     1     -13.276   7.955  71.747  1.00  0.00    -0.329 A  
HETATM    5  O   UNL     1     -14.204   7.015  72.090  1.00  0.00    -0.601 OA 
HETATM    6  C   UNL     1     -13.622   9.279  72.024  1.00  0.00    -0.519 A  
HETATM    7  C   UNL     1     -12.795  10.317  71.600  1.00  0.00    -0.568 A  
HETATM    8  H   UNL     1     -15.016   7.223  72.538  1.00  0.00     0.000 HD 
HETATM    9  C   UNL     1     -11.617  10.028  70.914  1.00  0.00    -0.463 A  
HETATM   10  C   UNL     1     -11.266   8.700  70.661  1.00  0.00    -0.284 A  
ENDBRANCH   2   3
TORSDOF 1
ENDMDL
MODEL       26
REMARK 921   NORMALIZED FREE ENERGY PREDICTED BY IDOCK:   -3.56 KCAL/MOL
REMARK 922        TOTAL FREE ENERGY PREDICTED BY IDOCK:   -3.81 KCAL/MOL
REMARK 923 INTER-LIGAND FREE ENERGY PREDICTED BY IDOCK:   -3.77 KCAL/MOL
REMARK 924 INTRA-LIGAND FREE ENERGY PREDICTED BY IDOCK:   -0.04 KCAL/MOL
REMARK 927      BINDING AFFINITY PREDICTED BY RF-SCORE:    0.00 PKD
ROOT
HETATM    1  C   UNL     1     -12.557  12.318  64.173  1.00  0.00    -0.394 C  
HETATM    2  O   UNL     1     -12.916  12.974  65.382  1.00  0.00    -0.626 OA 
ENDROOT
BRANCH   2   3
HETATM    3  C   UNL     1     -12.090  13.984  65.797  1.00  0.00    -0.427 A  
HETATM    4  C   UNL     1     -11.818  14.336  67.121  1.00  0.00    -0.425 A  
HETATM    5  O   UNL     1     -12.399  13.725  68.194  1.00  0.00    -0.436 OA 
HETATM    6  C   UNL     1     -10.976  15.410  67.417  1.00  0.00    -0.312 A  
HETATM    7  C   UNL     1     -10.435  16.174  66.386  1.00  0.00    -0.304 A  
HETATM    8  H   UNL     1     -12.214  13.964  69.094  1.00  0.00     0.000 HD 
HETATM    9  C   UNL     1     -10.723  15.853  65.061  1.00  0.00    -0.426 A  
HETATM   10  C   UNL     1     -11.547  14.763  64.772  1.00  0.00    -0.418 A  
ENDBRANCH   2   3
TORSDOF 1
ENDMDL
MODEL       27
REMARK 921   NORMALIZED FREE ENERGY PREDICTED BY IDOCK:   -3.56 KCAL/MOL
REMARK 922        TOTAL FREE ENERGY PREDICTED BY IDOCK:   -3.80 KCAL/MOL
REMARK 923 INTER-LIGAND FREE ENERGY PREDICTED BY IDOCK:   -3.76 KCAL/MOL
REMARK 924 INTRA-LIGAND FREE ENERGY PREDICTED BY IDOCK:   -0.04 KCAL/MOL
REMARK 927      BINDING AFFINITY PREDICTED BY RF-SCORE:    0.00 PKD
ROOT
HETATM    1  C   UNL     1     -11.976  13.739  67.959  1.00  0.00    -0.355 C  
HETATM    2  O   UNL     1     -12.047  14.291  66.651  1.00  0.00    -0.426 OA 
ENDROOT
BRANCH   2   3
HETATM    3  C   UNL     1     -11.675  13.469  65.621  1.00  0.00    -0.339 A  
HETATM    4  C   UNL     1     -10.369  13.229  65.187  1.00  0.00    -0.323 A  
HETATM    5  O   UNL     1      -9.276  13.843  65.726  1.00  0.00    -0.489 OA 
HETATM    6  C   UNL     1     -10.119  12.388  64.101  1.00  0.00    -0.322 A  
HETATM    7  C   UNL     1     -11.181  11.815  63.406  1.00  0.00    -0.440 A  
HETATM    8  H   UNL     1      -8.387  13.680  65.431  1.00  0.00     0.000 HD 
HETATM    9  C   UNL     1     -12.491  12.070  63.810  1.00  0.00    -0.594 A  
HETATM   10  C   UNL     1     -12.732  12.893  64.912  1.00  0.00    -0.474 A  
ENDBRANCH   2   3
TORSDOF 1
ENDMDL
MODEL       28
REMARK 921   NORMALIZED FREE ENERGY PREDICTED BY IDOCK:   -3.53 KCAL/MOL
REMARK 922        TOTAL FREE ENERGY PREDICTED BY IDOCK:   -3.78 KCAL/MOL
REMARK 923 INTER-LIGAND FREE ENERGY PREDICTED BY IDOCK:   -3.76 KCAL/MOL
REMARK 924 INTRA-LIGAND FREE ENERGY PREDICTED BY IDOCK:   -0.02 KCAL/MOL
REMARK 927      BINDING AFFINITY PREDICTED BY RF-SCORE:    0.00 PKD
ROOT
HETATM    1  C   UNL     1     -13.136  11.543  71.832  1.00  0.00    -0.387 C  
HETATM    2  O   UNL     1     -13.934  12.689  72.100  1.00  0.00    -0.281 OA 
ENDROOT
BRANCH   2   3
HETATM    3  C   UNL     1     -13.285  13.894  72.120  1.00  0.00    -0.444 A  
HETATM    4  C   UNL     1     -12.894  14.640  71.005  1.00  0.00    -0.348 A  
HETATM    5  O   UNL     1     -13.076  14.218  69.720  1.00  0.00    -0.350 OA 
HETATM    6  C   UNL     1     -12.209  15.847  71.156  1.00  0.00    -0.447 A  
HETATM    7  C   UNL     1     -11.866  16.297  72.429  1.00  0.00    -0.606 A  
HETATM    8  H   UNL     1     -12.810  14.725  68.962  1.00  0.00     0.000 HD 
HETATM    9  C   UNL     1     -12.223  15.548  73.548  1.00  0.00    -0.651 A  
HETATM   10  C   UNL     1     -12.929  14.353  73.391  1.00  0.00    -0.246 A  
ENDBRANCH   2   3
TORSDOF 1
ENDMDL
MODEL       29
REMARK 921   NORMALIZED FREE ENERGY PREDICTED BY IDOCK:   -3.52 KCAL/MOL
REMARK 922        TOTAL FREE ENERGY PREDICTED BY IDOCK:   -3.77 KCAL/MOL
REMARK 923 INTER-LIGAND FREE ENERGY PREDICTED BY IDOCK:   -3.82 KCAL/MOL
REMARK 924 INTRA-LIGAND FREE ENERGY PREDICTED BY IDOCK:    0.05 KCAL/MOL
REMARK 927      BINDING AFFINITY PREDICTED BY RF-SCORE:    0.00 PKD
ROOT
HETATM    1  C   UNL     1     -10.576  17.282  65.820  1.00  0.00    -0.194 C  
HETATM    2  O   UNL     1     -10.675  16.346  64.755  1.00  0.00    -0.700 OA 
ENDROOT
BRANCH   2   3
HETATM    3  C   UNL     1     -10.939  15.048  65.104  1.00  0.00    -0.406 A  
HETATM    4  C   UNL     1     -10.083  14.191  65.800  1.00  0.00    -0.333 A  
HETATM    5  O   UNL     1      -8.822  14.541  66.185  1.00  0.00    -0.480 OA 
HETATM    6  C   UNL     1     -10.457  12.873  66.073  1.00  0.00    -0.290 A  
HETATM    7  C   UNL     1     -11.677  12.386  65.608  1.00  0.00    -0.468 A  
HETATM    8  H   UNL     1      -8.240  13.958  66.658  1.00  0.00     0.000 HD 
HETATM    9  C   UNL     1     -12.527  13.222  64.887  1.00  0.00    -0.465 A  
HETATM   10  C   UNL     1     -12.157  14.546  64.638  1.00  0.00    -0.486 A  
ENDBRANCH   2   3
TORSDOF 1
ENDMDL
MODEL       30
REMARK 921   NORMALIZED FREE ENERGY PREDICTED BY IDOCK:   -3.51 KCAL/MOL
REMARK 922        TOTAL FREE ENERGY PREDICTED BY IDOCK:   -3.75 KCAL/MOL
REMARK 923 INTER-LIGAND FREE ENERGY PREDICTED BY IDOCK:   -3.70 KCAL/MOL
REMARK 924 INTRA-LIGAND FREE ENERGY PREDICTED BY IDOCK:   -0.06 KCAL/MOL
REMARK 927      BINDING AFFINITY PREDICTED BY RF-SCORE:    0.00 PKD
ROOT
HETATM    1  C   UNL     1      -5.994  20.789  68.345  1.00  0.00    -0.354 C  
HETATM    2  O   UNL     1      -6.517  19.553  67.876  1.00  0.00    -0.215 OA 
ENDROOT
BRANCH   2   3
HETATM    3  C   UNL     1      -7.850  19.533  67.565  1.00  0.00    -0.264 A  
HETATM    4  C   UNL     1      -8.411  19.814  66.317  1.00  0.00    -0.357 A  
HETATM    5  O   UNL     1      -7.675  20.201  65.235  1.00  0.00    -0.438 OA 
HETATM    6  C   UNL     1      -9.795  19.787  66.132  1.00  0.00    -0.544 A  
HETATM    7  C   UNL     1     -10.635  19.525  67.211  1.00  0.00    -0.610 A  
HETATM    8  H   UNL     1      -8.057  20.393  64.386  1.00  0.00     0.000 HD 
HETATM    9  C   UNL     1     -10.090  19.273  68.469  1.00  0.00    -0.513 A  
HETATM   10  C   UNL     1      -8.704  19.278  68.641  1.00  0.00    -0.402 A  
ENDBRANCH   2   3
TORSDOF 1
ENDMDL
MODEL       31
REMARK 921   NORMALIZED FREE ENERGY PREDICTED BY IDOCK:   -3.49 KCAL/MOL
REMARK 922        TOTAL FREE ENERGY PREDICTED BY IDOCK:   -3.74 KCAL/MOL
REMARK 923 INTER-LIGAND FREE ENERGY PREDICTED BY IDOCK:   -3.70 KCAL/MOL
REMARK 924 INTRA-LIGAND FREE ENERGY PREDICTED BY IDOCK:   -0.04 KCAL/MOL
REMARK 927      BINDING AFFINITY PREDICTED BY RF-SCORE:    0.00 PKD
ROOT
HETATM    1  C   UNL     1     -10.975  10.245  67.440  1.00  0.00    -0.252 C  
HETATM    2  O   UNL     1     -11.795  11.400  67.562  1.00  0.00    -0.614 OA 
ENDROOT
BRANCH   2   3
HETATM    3  C   UNL     1     -11.517  12.438  66.715  1.00  0.00    -0.362 A  
HETATM    4  C   UNL     1     -11.731  13.795  66.973  1.00  0.00    -0.390 A  
HETATM    5  O   UNL     1     -12.306  14.257  68.121  1.00  0.00    -0.581 OA 
HETATM    6  C   UNL     1     -11.431  14.762  66.012  1.00  0.00    -0.316 A  
HETATM    7  C   UNL     1     -10.957  14.376  64.761  1.00  0.00    -0.409 A  
HETATM    8  H   UNL     1     -12.453  15.179  68.297  1.00  0.00     0.000 HD 
HETATM    9  C   UNL     1     -10.767  13.025  64.479  1.00  0.00    -0.404 A  
HETATM   10  C   UNL     1     -11.047  12.063  65.453  1.00  0.00    -0.369 A  
ENDBRANCH   2   3
TORSDOF 1
ENDMDL
MODEL       32
REMARK 921   NORMALIZED FREE ENERGY PREDICTED BY IDOCK:   -3.48 KCAL/MOL
REMARK 922        TOTAL FREE ENERGY PREDICTED BY IDOCK:   -3.72 KCAL/MOL
REMARK 923 INTER-LIGAND FREE ENERGY PREDICTED BY IDOCK:   -3.68 KCAL/MOL
REMARK 924 INTRA-LIGAND FREE ENERGY PREDICTED BY IDOCK:   -0.04 KCAL/MOL
REMARK 927      BINDING AFFINITY PREDICTED BY RF-SCORE:    0.00 PKD
ROOT
HETATM    1  C   UNL     1     -12.067  11.709  70.305  1.00  0.00    -0.358 C  
HETATM    2  O   UNL     1     -12.291  10.896  71.449  1.00  0.00    -0.346 OA 
ENDROOT
BRANCH   2   3
HETATM    3  C   UNL     1     -12.181   9.544  71.270  1.00  0.00    -0.348 A  
HETATM    4  C   UNL     1     -12.825   8.556  72.019  1.00  0.00    -0.374 A  
HETATM    5  O   UNL     1     -13.631   8.831  73.085  1.00  0.00    -0.970 OA 
HETATM    6  C   UNL     1     -12.608   7.202  71.755  1.00  0.00    -0.381 A  
HETATM    7  C   UNL     1     -11.703   6.823  70.766  1.00  0.00    -0.439 A  
HETATM    8  H   UNL     1     -14.069   8.159  73.595  1.00  0.00     0.000 HD 
HETATM    9  C   UNL     1     -11.030   7.797  70.032  1.00  0.00    -0.218 A  
HETATM   10  C   UNL     1     -11.270   9.150  70.285  1.00  0.00    -0.249 A  
ENDBRANCH   2   3
TORSDOF 1
ENDMDL
MODEL       33
REMARK 921   NORMALIZED FREE ENERGY PREDICTED BY IDOCK:   -3.48 KCAL/MOL
REMARK 922        TOTAL FREE ENERGY PREDICTED BY IDOCK:   -3.72 KCAL/MOL
REMARK 923 INTER-LIGAND FREE ENERGY PREDICTED BY IDOCK:   -3.67 KCAL/MOL
REMARK 924 INTRA-LIGAND FREE ENERGY PREDICTED BY IDOCK:   -0.05 KCAL/MOL
REMARK 927      BINDING AFFINITY PREDICTED BY RF-SCORE:    0.00 PKD
ROOT
HETATM    1  C   UNL     1     -12.027  14.442  67.180  1.00  0.00    -0.389 C  
HETATM    2  O   UNL     1     -10.857  14.942  66.546  1.00  0.00    -0.310 OA 
ENDROOT
BRANCH   2   3
HETATM    3  C   UNL     1     -10.660  16.295  66.607  1.00  0.00    -0.252 A  
HETATM    4  C   UNL     1     -10.838  17.203  65.560  1.00  0.00    -0.055 A  
HETATM    5  O   UNL     1     -11.195  16.830  64.297  1.00  0.00    -1.334 OA 
HETATM    6  C   UNL     1     -10.576  18.563  65.740  1.00  0.00    -0.265 A  
HETATM    7  C   UNL     1     -10.086  19.021  66.960  1.00  0.00    -0.433 A  
HETATM    8  H   UNL     1     -11.316  17.447  63.585  1.00  0.00     0.000 HD 
HETATM    9  C   UNL     1      -9.875  18.122  68.004  1.00  0.00    -0.331 A  
HETATM   10  C   UNL     1     -10.162  16.767  67.825  1.00  0.00    -0.303 A  
ENDBRANCH   2   3
TORSDOF 1
ENDMDL
MODEL       34
REMARK 921   NORMALIZED FREE ENERGY PREDICTED BY IDOCK:   -3.44 KCAL/MOL
REMARK 922        TOTAL FREE ENERGY PREDICTED BY IDOCK:   -3.69 KCAL/MOL
REMARK 923 INTER-LIGAND FREE ENERGY PREDICTED BY IDOCK:   -3.63 KCAL/MOL
REMARK 924 INTRA-LIGAND FREE ENERGY PREDICTED BY IDOCK:   -0.05 KCAL/MOL
REMARK 927      BINDING AFFINITY PREDICTED BY RF-SCORE:    0.00 PKD
ROOT
HETATM    1  C   UNL     1     -10.084   9.307  66.687  1.00  0.00    -0.271 C  
HETATM    2  O   UNL     1      -9.906  10.717  66.663  1.00  0.00    -0.188 OA 
ENDROOT
BRANCH   2   3
HETATM    3  C   UNL     1     -10.642  11.410  65.741  1.00  0.00    -0.260 A  
HETATM    4  C   UNL     1     -11.734  12.239  66.010  1.00  0.00    -0.388 A  
HETATM    5  O   UNL     1     -12.243  12.425  67.262  1.00  0.00    -0.478 OA 
HETATM    6  C   UNL     1     -12.425  12.872  64.974  1.00  0.00    -0.553 A  
HETATM    7  C   UNL     1     -12.056  12.642  63.650  1.00  0.00    -0.632 A  
HETATM    8  H   UNL     1     -12.986  12.988  67.445  1.00  0.00     0.000 HD 
HETATM    9  C   UNL     1     -10.988  11.793  63.366  1.00  0.00    -0.458 A  
HETATM   10  C   UNL     1     -10.287  11.182  64.408  1.00  0.00    -0.407 A  
ENDBRANCH   2   3
TORSDOF 1
ENDMDL
MODEL       35
REMARK 921   NORMALIZED FREE ENERGY PREDICTED BY IDOCK:   -3.43 KCAL/MOL
REMARK 922        TOTAL FREE ENERGY PREDICTED BY IDOCK:   -3.67 KCAL/MOL
REMARK 923 INTER-LIGAND FREE ENERGY PREDICTED BY IDOCK:   -3.63 KCAL/MOL
REMARK 924 INTRA-LIGAND FREE ENERGY PREDICTED BY IDOCK:   -0.04 KCAL/MOL
REMARK 927      BINDING AFFINITY PREDICTED BY RF-SCORE:    0.00 PKD
ROOT
HETATM    1  C   UNL     1     -10.377  17.327  66.115  1.00  0.00    -0.317 C  
HETATM    2  O   UNL     1     -10.617  16.236  66.994  1.00  0.00    -0.314 OA 
ENDROOT
BRANCH   2   3
HETATM    3  C   UNL     1     -10.970  15.048  66.411  1.00  0.00    -0.336 A  
HETATM    4  C   UNL     1     -11.789  14.065  66.972  1.00  0.00    -0.428 A  
HETATM    5  O   UNL     1     -12.314  14.154  68.228  1.00  0.00    -0.574 OA 
HETATM    6  C   UNL     1     -12.054  12.878  66.285  1.00  0.00    -0.433 A  
HETATM    7  C   UNL     1     -11.459  12.643  65.048  1.00  0.00    -0.366 A  
HETATM    8  H   UNL     1     -12.871  13.485  68.609  1.00  0.00     0.000 HD 
HETATM    9  C   UNL     1     -10.616  13.602  64.491  1.00  0.00    -0.428 A  
HETATM   10  C   UNL     1     -10.375  14.797  65.172  1.00  0.00    -0.439 A  
ENDBRANCH   2   3
TORSDOF 1
ENDMDL
MODEL       36
REMARK 921   NORMALIZED FREE ENERGY PREDICTED BY IDOCK:   -3.41 KCAL/MOL
REMARK 922        TOTAL FREE ENERGY PREDICTED BY IDOCK:   -3.65 KCAL/MOL
REMARK 923 INTER-LIGAND FREE ENERGY PREDICTED BY IDOCK:   -3.61 KCAL/MOL
REMARK 924 INTRA-LIGAND FREE ENERGY PREDICTED BY IDOCK:   -0.04 KCAL/MOL
REMARK 927      BINDING AFFINITY PREDICTED BY RF-SCORE:    0.00 PKD
ROOT
HETATM    1  C   UNL     1     -11.656  15.329  68.757  1.00  0.00    -0.362 C  
HETATM    2  O   UNL     1     -12.264  14.188  68.167  1.00  0.00    -0.306 OA 
ENDROOT
BRANCH   2   3
HETATM    3  C   UNL     1     -11.759  13.783  66.960  1.00  0.00    -0.390 A  
HETATM    4  C   UNL     1     -11.576  12.462  66.544  1.00  0.00    -0.387 A  
HETATM    5  O   UNL     1     -11.842  11.383  67.336  1.00  0.00    -0.609 OA 
HETATM    6  C   UNL     1     -11.022  12.175  65.294  1.00  0.00    -0.349 A  
HETATM    7  C   UNL     1     -10.602  13.213  64.466  1.00  0.00    -0.425 A  
HETATM    8  H   UNL     1     -11.717  10.484  67.053  1.00  0.00     0.000 HD 
HETATM    9  C   UNL     1     -10.751  14.535  64.881  1.00  0.00    -0.448 A  
HETATM   10  C   UNL     1     -11.327  14.815  66.123  1.00  0.00    -0.330 A  
ENDBRANCH   2   3
TORSDOF 1
ENDMDL
MODEL       37
REMARK 921   NORMALIZED FREE ENERGY PREDICTED BY IDOCK:   -3.39 KCAL/MOL
REMARK 922        TOTAL FREE ENERGY PREDICTED BY IDOCK:   -3.63 KCAL/MOL
REMARK 923 INTER-LIGAND FREE ENERGY PREDICTED BY IDOCK:   -3.57 KCAL/MOL
REMARK 924 INTRA-LIGAND FREE ENERGY PREDICTED BY IDOCK:   -0.05 KCAL/MOL
REMARK 927      BINDING AFFINITY PREDICTED BY RF-SCORE:    0.00 PKD
ROOT
HETATM    1  C   UNL     1     -10.866  10.203  67.822  1.00  0.00    -0.292 C  
HETATM    2  O   UNL     1     -12.006  11.023  68.042  1.00  0.00    -0.623 OA 
ENDROOT
BRANCH   2   3
HETATM    3  C   UNL     1     -11.842  12.366  67.832  1.00  0.00    -0.308 A  
HETATM    4  C   UNL     1     -12.026  13.042  66.623  1.00  0.00    -0.387 A  
HETATM    5  O   UNL     1     -12.357  12.415  65.458  1.00  0.00    -0.621 OA 
HETATM    6  C   UNL     1     -11.798  14.416  66.530  1.00  0.00    -0.406 A  
HETATM    7  C   UNL     1     -11.335  15.121  67.639  1.00  0.00    -0.327 A  
HETATM    8  H   UNL     1     -12.482  12.874  64.635  1.00  0.00     0.000 HD 
HETATM    9  C   UNL     1     -11.118  14.454  68.843  1.00  0.00    -0.277 A  
HETATM   10  C   UNL     1     -11.371  13.083  68.935  1.00  0.00    -0.333 A  
ENDBRANCH   2   3
TORSDOF 1
ENDMDL
MODEL       38
REMARK 921   NORMALIZED FREE ENERGY PREDICTED BY IDOCK:   -3.38 KCAL/MOL
REMARK 922        TOTAL FREE ENERGY PREDICTED BY IDOCK:   -3.62 KCAL/MOL
REMARK 923 INTER-LIGAND FREE ENERGY PREDICTED BY IDOCK:   -3.58 KCAL/MOL
REMARK 924 INTRA-LIGAND FREE ENERGY PREDICTED BY IDOCK:   -0.04 KCAL/MOL
REMARK 927      BINDING AFFINITY PREDICTED BY RF-SCORE:    0.00 PKD
ROOT
HETATM    1  C   UNL     1     -13.361  13.533  72.368  1.00  0.00    -0.540 C  
HETATM    2  O   UNL     1     -12.862  13.133  71.099  1.00  0.00    -0.330 OA 
ENDROOT
BRANCH   2   3
HETATM    3  C   UNL     1     -12.421  11.841  70.996  1.00  0.00    -0.309 A  
HETATM    4  C   UNL     1     -11.420  11.377  70.139  1.00  0.00    -0.214 A  
HETATM    5  O   UNL     1     -10.775  12.174  69.239  1.00  0.00    -0.417 OA 
HETATM    6  C   UNL     1     -11.077  10.023  70.106  1.00  0.00    -0.371 A  
HETATM    7  C   UNL     1     -11.768   9.111  70.900  1.00  0.00    -0.341 A  
HETATM    8  H   UNL     1     -10.094  11.858  68.656  1.00  0.00     0.000 HD 
HETATM    9  C   UNL     1     -12.790   9.556  71.737  1.00  0.00    -0.496 A  
HETATM   10  C   UNL     1     -13.112  10.915  71.782  1.00  0.00    -0.564 A  
ENDBRANCH   2   3
TORSDOF 1
ENDMDL
MODEL       39
REMARK 921   NORMALIZED FREE ENERGY PREDICTED BY IDOCK:   -3.38 KCAL/MOL
REMARK 922        TOTAL FREE ENERGY PREDICTED BY IDOCK:   -3.62 KCAL/MOL
REMARK 923 INTER-LIGAND FREE ENERGY PREDICTED BY IDOCK:   -3.58 KCAL/MOL
REMARK 924 INTRA-LIGAND FREE ENERGY PREDICTED BY IDOCK:   -0.04 KCAL/MOL
REMARK 927      BINDING AFFINITY PREDICTED BY RF-SCORE:    0.00 PKD
ROOT
HETATM    1  C   UNL     1     -11.934  12.437  63.485  1.00  0.00    -0.538 C  
HETATM    2  O   UNL     1     -10.979  13.362  63.988  1.00  0.00    -0.358 OA 
ENDROOT
BRANCH   2   3
HETATM    3  C   UNL     1     -11.182  13.816  65.264  1.00  0.00    -0.307 A  
HETATM    4  C   UNL     1     -10.860  15.086  65.750  1.00  0.00    -0.350 A  
HETATM    5  O   UNL     1     -10.240  16.040  64.997  1.00  0.00    -0.513 OA 
HETATM    6  C   UNL     1     -11.091  15.421  67.086  1.00  0.00    -0.291 A  
HETATM    7  C   UNL     1     -11.604  14.468  67.962  1.00  0.00    -0.364 A  
HETATM    8  H   UNL     1     -10.021  16.904  65.328  1.00  0.00     0.000 HD 
HETATM    9  C   UNL     1     -11.902  13.188  67.498  1.00  0.00    -0.409 A  
HETATM   10  C   UNL     1     -11.691  12.867  66.155  1.00  0.00    -0.451 A  
ENDBRANCH   2   3
TORSDOF 1
ENDMDL
MODEL       40
REMARK 921   NORMALIZED FREE ENERGY PREDICTED BY IDOCK:   -3.37 KCAL/MOL
REMARK 922        TOTAL FREE ENERGY PREDICTED BY IDOCK:   -3.61 KCAL/MOL
REMARK 923 INTER-LIGAND FREE ENERGY PREDICTED BY IDOCK:   -3.57 KCAL/MOL
REMARK 924 INTRA-LIGAND FREE ENERGY PREDICTED BY IDOCK:   -0.04 KCAL/MOL
REMARK 927      BINDING AFFINITY PREDICTED BY RF-SCORE:    0.00 PKD
ROOT
HETATM    1  C   UNL     1     -10.742  13.792  68.101  1.00  0.00    -0.248 C  
HETATM    2  O   UNL     1     -11.599  14.434  69.035  1.00  0.00    -0.261 OA 
ENDROOT
BRANCH   2   3
HETATM    3  C   UNL     1     -12.155  13.638  70.000  1.00  0.00    -0.348 A  
HETATM    4  C   UNL     1     -12.896  14.072  71.103  1.00  0.00    -0.357 A  
HETATM    5  O   UNL     1     -13.120  15.388  71.383  1.00  0.00    -0.419 OA 
HETATM    6  C   UNL     1     -13.388  13.159  72.038  1.00  0.00    -0.587 A  
HETATM    7  C   UNL     1     -13.102  11.802  71.903  1.00  0.00    -0.482 A  
HETATM    8  H   UNL     1     -13.623  15.683  72.133  1.00  0.00     0.000 HD 
HETATM    9  C   UNL     1     -12.339  11.359  70.825  1.00  0.00    -0.483 A  
HETATM   10  C   UNL     1     -11.869  12.275  69.880  1.00  0.00    -0.383 A  
ENDBRANCH   2   3
TORSDOF 1
ENDMDL
MODEL       41
REMARK 921   NORMALIZED FREE ENERGY PREDICTED BY IDOCK:   -3.37 KCAL/MOL
REMARK 922        TOTAL FREE ENERGY PREDICTED BY IDOCK:   -3.61 KCAL/MOL
REMARK 923 INTER-LIGAND FREE ENERGY PREDICTED BY IDOCK:   -3.55 KCAL/MOL
REMARK 924 INTRA-LIGAND FREE ENERGY PREDICTED BY IDOCK:   -0.06 KCAL/MOL
REMARK 927      BINDING AFFINITY PREDICTED BY RF-SCORE:    0.00 PKD
ROOT
HETATM    1  C   UNL     1     -10.690  14.691  65.864  1.00  0.00    -0.309 C  
HETATM    2  O   UNL     1     -11.949  14.362  66.435  1.00  0.00    -0.404 OA 
ENDROOT
BRANCH   2   3
HETATM    3  C   UNL     1     -11.924  13.602  67.574  1.00  0.00    -0.358 A  
HETATM    4  C   UNL     1     -12.112  14.064  68.879  1.00  0.00    -0.316 A  
HETATM    5  O   UNL     1     -12.303  15.379  69.188  1.00  0.00    -0.588 OA 
HETATM    6  C   UNL     1     -12.034  13.190  69.965  1.00  0.00    -0.391 A  
HETATM    7  C   UNL     1     -11.717  11.849  69.758  1.00  0.00    -0.403 A  
HETATM    8  H   UNL     1     -12.431  15.693  70.076  1.00  0.00     0.000 HD 
HETATM    9  C   UNL     1     -11.497  11.381  68.464  1.00  0.00    -0.361 A  
HETATM   10  C   UNL     1     -11.601  12.256  67.380  1.00  0.00    -0.425 A  
ENDBRANCH   2   3
TORSDOF 1
ENDMDL
MODEL       42
REMARK 921   NORMALIZED FREE ENERGY PREDICTED BY IDOCK:   -3.36 KCAL/MOL
REMARK 922        TOTAL FREE ENERGY PREDICTED BY IDOCK:   -3.60 KCAL/MOL
REMARK 923 INTER-LIGAND FREE ENERGY PREDICTED BY IDOCK:   -3.54 KCAL/MOL
REMARK 924 INTRA-LIGAND FREE ENERGY PREDICTED BY IDOCK:   -0.06 KCAL/MOL
REMARK 927      BINDING AFFINITY PREDICTED BY RF-SCORE:    0.00 PKD
ROOT
HETATM    1  C   UNL     1     -11.281  11.488  67.094  1.00  0.00    -0.301 C  
HETATM    2  O   UNL     1     -12.140  12.512  66.612  1.00  0.00    -0.562 OA 
ENDROOT
BRANCH   2   3
HETATM    3  C   UNL     1     -11.586  13.755  66.463  1.00  0.00    -0.365 A  
HETATM    4  C   UNL     1     -10.993  14.261  65.304  1.00  0.00    -0.343 A  
HETATM    5  O   UNL     1     -10.849  13.534  64.158  1.00  0.00    -0.534 OA 
HETATM    6  C   UNL     1     -10.434  15.541  65.286  1.00  0.00    -0.437 A  
HETATM    7  C   UNL     1     -10.421  16.310  66.447  1.00  0.00    -0.297 A  
HETATM    8  H   UNL     1     -10.445  13.878  63.369  1.00  0.00     0.000 HD 
HETATM    9  C   UNL     1     -10.982  15.806  67.618  1.00  0.00    -0.302 A  
HETATM   10  C   UNL     1     -11.561  14.534  67.623  1.00  0.00    -0.402 A  
ENDBRANCH   2   3
TORSDOF 1
ENDMDL
MODEL       43
REMARK 921   NORMALIZED FREE ENERGY PREDICTED BY IDOCK:   -3.35 KCAL/MOL
REMARK 922        TOTAL FREE ENERGY PREDICTED BY IDOCK:   -3.59 KCAL/MOL
REMARK 923 INTER-LIGAND FREE ENERGY PREDICTED BY IDOCK:   -3.54 KCAL/MOL
REMARK 924 INTRA-LIGAND FREE ENERGY PREDICTED BY IDOCK:   -0.04 KCAL/MOL
REMARK 927      BINDING AFFINITY PREDICTED BY RF-SCORE:    0.00 PKD
ROOT
HETATM    1  C   UNL     1      -8.198  15.923  66.450  1.00  0.00    -0.228 C  
HETATM    2  O   UNL     1      -8.334  17.185  65.811  1.00  0.00    -0.519 OA 
ENDROOT
BRANCH   2   3
HETATM    3  C   UNL     1      -8.992  18.159  66.514  1.00  0.00    -0.275 A  
HETATM    4  C   UNL     1      -8.927  19.534  66.278  1.00  0.00    -0.364 A  
HETATM    5  O   UNL     1      -8.138  20.093  65.315  1.00  0.00    -0.404 OA 
HETATM    6  C   UNL     1      -9.626  20.433  67.087  1.00  0.00    -0.587 A  
HETATM    7  C   UNL     1     -10.360  19.964  68.174  1.00  0.00    -0.533 A  
HETATM    8  H   UNL     1      -8.094  21.029  65.155  1.00  0.00     0.000 HD 
HETATM    9  C   UNL     1     -10.408  18.597  68.439  1.00  0.00    -0.356 A  
HETATM   10  C   UNL     1      -9.726  17.702  67.612  1.00  0.00    -0.277 A  
ENDBRANCH   2   3
TORSDOF 1
ENDMDL
MODEL       44
REMARK 921   NORMALIZED FREE ENERGY PREDICTED BY IDOCK:   -3.33 KCAL/MOL
REMARK 922        TOTAL FREE ENERGY PREDICTED BY IDOCK:   -3.57 KCAL/MOL
REMARK 923 INTER-LIGAND FREE ENERGY PREDICTED BY IDOCK:   -3.53 KCAL/MOL
REMARK 924 INTRA-LIGAND FREE ENERGY PREDICTED BY IDOCK:   -0.04 KCAL/MOL
REMARK 927      BINDING AFFINITY PREDICTED BY RF-SCORE:    0.00 PKD
ROOT
HETATM    1  C   UNL     1     -11.336   6.466  70.046  1.00  0.00    -0.430 C  
HETATM    2  O   UNL     1     -10.705   7.720  70.270  1.00  0.00    -0.228 OA 
ENDROOT
BRANCH   2   3
HETATM    3  C   UNL     1     -11.506   8.735  70.721  1.00  0.00    -0.270 A  
HETATM    4  C   UNL     1     -11.297  10.102  70.522  1.00  0.00    -0.338 A  
HETATM    5  O   UNL     1     -10.208  10.607  69.874  1.00  0.00    -0.430 OA 
HETATM    6  C   UNL     1     -12.176  11.046  71.060  1.00  0.00    -0.456 A  
HETATM    7  C   UNL     1     -13.248  10.629  71.844  1.00  0.00    -0.528 A  
HETATM    8  H   UNL     1     -10.066  11.537  69.739  1.00  0.00     0.000 HD 
HETATM    9  C   UNL     1     -13.451   9.270  72.076  1.00  0.00    -0.519 A  
HETATM   10  C   UNL     1     -12.583   8.331  71.515  1.00  0.00    -0.333 A  
ENDBRANCH   2   3
TORSDOF 1
ENDMDL
MODEL       45
REMARK 921   NORMALIZED FREE ENERGY PREDICTED BY IDOCK:   -3.32 KCAL/MOL
REMARK 922        TOTAL FREE ENERGY PREDICTED BY IDOCK:   -3.56 KCAL/MOL
REMARK 923 INTER-LIGAND FREE ENERGY PREDICTED BY IDOCK:   -3.51 KCAL/MOL
REMARK 924 INTRA-LIGAND FREE ENERGY PREDICTED BY IDOCK:   -0.05 KCAL/MOL
REMARK 927      BINDING AFFINITY PREDICTED BY RF-SCORE:    0.00 PKD
ROOT
HETATM    1  C   UNL     1     -10.944  10.255  68.665  1.00  0.00    -0.244 C  
HETATM    2  O   UNL     1     -12.078  11.065  68.389  1.00  0.00    -0.594 OA 
ENDROOT
BRANCH   2   3
HETATM    3  C   UNL     1     -11.860  12.414  68.306  1.00  0.00    -0.309 A  
HETATM    4  C   UNL     1     -11.805  13.309  69.377  1.00  0.00    -0.329 A  
HETATM    5  O   UNL     1     -12.016  12.940  70.673  1.00  0.00    -0.508 OA 
HETATM    6  C   UNL     1     -11.603  14.674  69.160  1.00  0.00    -0.331 A  
HETATM    7  C   UNL     1     -11.503  15.163  67.860  1.00  0.00    -0.344 A  
HETATM    8  H   UNL     1     -11.978  13.549  71.402  1.00  0.00     0.000 HD 
HETATM    9  C   UNL     1     -11.587  14.286  66.780  1.00  0.00    -0.407 A  
HETATM   10  C   UNL     1     -11.765  12.919  67.006  1.00  0.00    -0.447 A  
ENDBRANCH   2   3
TORSDOF 1
ENDMDL
MODEL       46
REMARK 921   NORMALIZED FREE ENERGY PREDICTED BY IDOCK:   -3.30 KCAL/MOL
REMARK 922        TOTAL FREE ENERGY PREDICTED BY IDOCK:   -3.54 KCAL/MOL
REMARK 923 INTER-LIGAND FREE ENERGY PREDICTED BY IDOCK:   -3.49 KCAL/MOL
REMARK 924 INTRA-LIGAND FREE ENERGY PREDICTED BY IDOCK:   -0.04 KCAL/MOL
REMARK 927      BINDING AFFINITY PREDICTED BY RF-SCORE:    0.00 PKD
ROOT
HETATM    1  C   UNL     1      -9.946  12.836  67.961  1.00  0.00    -0.225 C  
HETATM    2  O   UNL     1      -9.884  11.744  67.052  1.00  0.00    -0.195 OA 
ENDROOT
BRANCH   2   3
HETATM    3  C   UNL     1     -10.552  11.897  65.868  1.00  0.00    -0.266 A  
HETATM    4  C   UNL     1     -10.063  11.585  64.597  1.00  0.00    -0.271 A  
HETATM    5  O   UNL     1      -8.800  11.120  64.374  1.00  0.00    -0.369 OA 
HETATM    6  C   UNL     1     -10.835  11.814  63.456  1.00  0.00    -0.496 A  
HETATM    7  C   UNL     1     -12.091  12.405  63.574  1.00  0.00    -0.651 A  
HETATM    8  H   UNL     1      -8.466  10.908  63.510  1.00  0.00     0.000 HD 
HETATM    9  C   UNL     1     -12.579  12.749  64.833  1.00  0.00    -0.541 A  
HETATM   10  C   UNL     1     -11.811  12.495  65.972  1.00  0.00    -0.478 A  
ENDBRANCH   2   3
TORSDOF 1
ENDMDL
MODEL       47
REMARK 921   NORMALIZED FREE ENERGY PREDICTED BY IDOCK:   -3.29 KCAL/MOL
REMARK 922        TOTAL FREE ENERGY PREDICTED BY IDOCK:   -3.52 KCAL/MOL
REMARK 923 INTER-LIGAND FREE ENERGY PREDICTED BY IDOCK:   -3.46 KCAL/MOL
REMARK 924 INTRA-LIGAND FREE ENERGY PREDICTED BY IDOCK:   -0.06 KCAL/MOL
REMARK 927      BINDING AFFINITY PREDICTED BY RF-SCORE:    0.00 PKD
ROOT
HETATM    1  C   UNL     1     -11.181  16.006  68.516  1.00  0.00    -0.374 C  
HETATM    2  O   UNL     1     -10.770  14.669  68.261  1.00  0.00    -0.232 OA 
ENDROOT
BRANCH   2   3
HETATM    3  C   UNL     1     -10.978  14.198  66.993  1.00  0.00    -0.300 A  
HETATM    4  C   UNL     1     -10.051  14.209  65.947  1.00  0.00    -0.321 A  
HETATM    5  O   UNL     1      -8.804  14.751  66.056  1.00  0.00    -0.465 OA 
HETATM    6  C   UNL     1     -10.394  13.722  64.683  1.00  0.00    -0.393 A  
HETATM    7  C   UNL     1     -11.686  13.264  64.441  1.00  0.00    -0.433 A  
HETATM    8  H   UNL     1      -8.174  14.758  65.344  1.00  0.00     0.000 HD 
HETATM    9  C   UNL     1     -12.629  13.276  65.467  1.00  0.00    -0.505 A  
HETATM   10  C   UNL     1     -12.273  13.742  66.735  1.00  0.00    -0.440 A  
ENDBRANCH   2   3
TORSDOF 1
ENDMDL
MODEL       48
REMARK 921   NORMALIZED FREE ENERGY PREDICTED BY IDOCK:   -3.27 KCAL/MOL
REMARK 922        TOTAL FREE ENERGY PREDICTED BY IDOCK:   -3.51 KCAL/MOL
REMARK 923 INTER-LIGAND FREE ENERGY PREDICTED BY IDOCK:   -3.46 KCAL/MOL
REMARK 924 INTRA-LIGAND FREE ENERGY PREDICTED BY IDOCK:   -0.05 KCAL/MOL
REMARK 927      BINDING AFFINITY PREDICTED BY RF-SCORE:    0.00 PKD
ROOT
HETATM    1  C   UNL     1      -9.272  10.694  64.223  1.00  0.00    -0.233 C  
HETATM    2  O   UNL     1     -10.691  10.743  64.167  1.00  0.00    -0.295 OA 
ENDROOT
BRANCH   2   3
HETATM    3  C   UNL     1     -11.283  11.871  64.669  1.00  0.00    -0.305 A  
HETATM    4  C   UNL     1     -11.639  12.092  66.002  1.00  0.00    -0.358 A  
HETATM    5  O   UNL     1     -11.476  11.161  66.986  1.00  0.00    -0.442 OA 
HETATM    6  C   UNL     1     -12.267  13.279  66.387  1.00  0.00    -0.419 A  
HETATM    7  C   UNL     1     -12.589  14.237  65.430  1.00  0.00    -0.422 A  
HETATM    8  H   UNL     1     -11.718  11.312  67.892  1.00  0.00     0.000 HD 
HETATM    9  C   UNL     1     -12.268  14.016  64.092  1.00  0.00    -0.433 A  
HETATM   10  C   UNL     1     -11.618  12.838  63.717  1.00  0.00    -0.548 A  
ENDBRANCH   2   3
TORSDOF 1
ENDMDL
MODEL       49
REMARK 921   NORMALIZED FREE ENERGY PREDICTED BY IDOCK:   -3.26 KCAL/MOL
REMARK 922        TOTAL FREE ENERGY PREDICTED BY IDOCK:   -3.49 KCAL/MOL
REMARK 923 INTER-LIGAND FREE ENERGY PREDICTED BY IDOCK:   -3.45 KCAL/MOL
REMARK 924 INTRA-LIGAND FREE ENERGY PREDICTED BY IDOCK:   -0.04 KCAL/MOL
REMARK 927      BINDING AFFINITY PREDICTED BY RF-SCORE:    0.00 PKD
ROOT
HETATM    1  C   UNL     1     -12.021  10.769  70.142  1.00  0.00    -0.349 C  
HETATM    2  O   UNL     1     -11.939  12.183  70.025  1.00  0.00    -0.329 OA 
ENDROOT
BRANCH   2   3
HETATM    3  C   UNL     1     -11.771  12.682  68.761  1.00  0.00    -0.323 A  
HETATM    4  C   UNL     1     -11.944  14.012  68.370  1.00  0.00    -0.343 A  
HETATM    5  O   UNL     1     -12.360  14.995  69.219  1.00  0.00    -0.544 OA 
HETATM    6  C   UNL     1     -11.770  14.394  67.037  1.00  0.00    -0.420 A  
HETATM    7  C   UNL     1     -11.468  13.436  66.073  1.00  0.00    -0.351 A  
HETATM    8  H   UNL     1     -12.478  15.900  68.953  1.00  0.00     0.000 HD 
HETATM    9  C   UNL     1     -11.323  12.101  66.445  1.00  0.00    -0.411 A  
HETATM   10  C   UNL     1     -11.474  11.729  67.783  1.00  0.00    -0.381 A  
ENDBRANCH   2   3
TORSDOF 1
ENDMDL
MODEL       50
REMARK 921   NORMALIZED FREE ENERGY PREDICTED BY IDOCK:   -3.24 KCAL/MOL
REMARK 922        TOTAL FREE ENERGY PREDICTED BY IDOCK:   -3.47 KCAL/MOL
REMARK 923 INTER-LIGAND FREE ENERGY PREDICTED BY IDOCK:   -3.43 KCAL/MOL
REMARK 924 INTRA-LIGAND FREE ENERGY PREDICTED BY IDOCK:   -0.04 KCAL/MOL
REMARK 927      BINDING AFFINITY PREDICTED BY RF-SCORE:    0.00 PKD
ROOT
HETATM    1  C   UNL     1     -12.649  14.083  65.577  1.00  0.00    -0.516 C  
HETATM    2  O   UNL     1     -11.353  13.843  66.108  1.00  0.00    -0.310 OA 
ENDROOT
BRANCH   2   3
HETATM    3  C   UNL     1     -10.835  12.590  65.914  1.00  0.00    -0.269 A  
HETATM    4  C   UNL     1     -10.169  12.140  64.771  1.00  0.00    -0.281 A  
HETATM    5  O   UNL     1      -9.991  12.906  63.657  1.00  0.00    -0.708 OA 
HETATM    6  C   UNL     1      -9.711  10.823  64.682  1.00  0.00    -0.344 A  
HETATM    7  C   UNL     1      -9.958   9.929  65.721  1.00  0.00    -0.347 A  
HETATM    8  H   UNL     1      -9.538  12.600  62.880  1.00  0.00     0.000 HD 
HETATM    9  C   UNL     1     -10.648  10.357  66.854  1.00  0.00    -0.293 A  
HETATM   10  C   UNL     1     -11.083  11.681  66.947  1.00  0.00    -0.365 A  
ENDBRANCH   2   3
TORSDOF 1
ENDMDL
MODEL       51
REMARK 921   NORMALIZED FREE ENERGY PREDICTED BY IDOCK:   -3.23 KCAL/MOL
REMARK 922        TOTAL FREE ENERGY PREDICTED BY IDOCK:   -3.46 KCAL/MOL
REMARK 923 INTER-LIGAND FREE ENERGY PREDICTED BY IDOCK:   -3.41 KCAL/MOL
REMARK 924 INTRA-LIGAND FREE ENERGY PREDICTED BY IDOCK:   -0.05 KCAL/MOL
REMARK 927      BINDING AFFINITY PREDICTED BY RF-SCORE:    0.00 PKD
ROOT
HETATM    1  C   UNL     1     -10.795  16.141  68.081  1.00  0.00    -0.329 C  
HETATM    2  O   UNL     1     -11.989  15.411  68.331  1.00  0.00    -0.301 OA 
ENDROOT
BRANCH   2   3
HETATM    3  C   UNL     1     -11.877  14.047  68.359  1.00  0.00    -0.362 A  
HETATM    4  C   UNL     1     -11.844  13.245  69.503  1.00  0.00    -0.327 A  
HETATM    5  O   UNL     1     -11.874  13.747  70.771  1.00  0.00    -0.486 OA 
HETATM    6  C   UNL     1     -11.697  11.860  69.401  1.00  0.00    -0.401 A  
HETATM    7  C   UNL     1     -11.532  11.268  68.152  1.00  0.00    -0.376 A  
HETATM    8  H   UNL     1     -11.852  13.202  71.549  1.00  0.00     0.000 HD 
HETATM    9  C   UNL     1     -11.532  12.059  67.005  1.00  0.00    -0.402 A  
HETATM   10  C   UNL     1     -11.704  13.441  67.112  1.00  0.00    -0.424 A  
ENDBRANCH   2   3
TORSDOF 1
ENDMDL
MODEL       52
REMARK 921   NORMALIZED FREE ENERGY PREDICTED BY IDOCK:   -3.23 KCAL/MOL
REMARK 922        TOTAL FREE ENERGY PREDICTED BY IDOCK:   -3.46 KCAL/MOL
REMARK 923 INTER-LIGAND FREE ENERGY PREDICTED BY IDOCK:   -3.41 KCAL/MOL
REMARK 924 INTRA-LIGAND FREE ENERGY PREDICTED BY IDOCK:   -0.05 KCAL/MOL
REMARK 927      BINDING AFFINITY PREDICTED BY RF-SCORE:    0.00 PKD
ROOT
HETATM    1  C   UNL     1      -9.404   7.901  73.385  1.00  0.00    -0.282 C  
HETATM    2  O   UNL     1     -10.197   7.574  72.252  1.00  0.00    -0.191 OA 
ENDROOT
BRANCH   2   3
HETATM    3  C   UNL     1     -11.108   8.515  71.852  1.00  0.00    -0.325 A  
HETATM    4  C   UNL     1     -10.865   9.586  70.988  1.00  0.00    -0.353 A  
HETATM    5  O   UNL     1      -9.636   9.858  70.460  1.00  0.00    -0.357 OA 
HETATM    6  C   UNL     1     -11.875  10.499  70.678  1.00  0.00    -0.458 A  
HETATM    7  C   UNL     1     -13.130  10.374  71.269  1.00  0.00    -0.494 A  
HETATM    8  H   UNL     1      -9.470  10.586  69.873  1.00  0.00     0.000 HD 
HETATM    9  C   UNL     1     -13.378   9.329  72.156  1.00  0.00    -0.537 A  
HETATM   10  C   UNL     1     -12.370   8.405  72.444  1.00  0.00    -0.412 A  
ENDBRANCH   2   3
TORSDOF 1
ENDMDL
MODEL       53
REMARK 921   NORMALIZED FREE ENERGY PREDICTED BY IDOCK:   -3.21 KCAL/MOL
REMARK 922        TOTAL FREE ENERGY PREDICTED BY IDOCK:   -3.44 KCAL/MOL
REMARK 923 INTER-LIGAND FREE ENERGY PREDICTED BY IDOCK:   -3.39 KCAL/MOL
REMARK 924 INTRA-LIGAND FREE ENERGY PREDICTED BY IDOCK:   -0.05 KCAL/MOL
REMARK 927      BINDING AFFINITY PREDICTED BY RF-SCORE:    0.00 PKD
ROOT
HETATM    1  C   UNL     1     -13.722   7.871  71.696  1.00  0.00    -0.360 C  
HETATM    2  O   UNL     1     -13.037   9.066  72.047  1.00  0.00    -0.352 OA 
ENDROOT
BRANCH   2   3
HETATM    3  C   UNL     1     -11.813   9.262  71.467  1.00  0.00    -0.374 A  
HETATM    4  C   UNL     1     -11.568   9.908  70.253  1.00  0.00    -0.250 A  
HETATM    5  O   UNL     1     -12.559  10.396  69.451  1.00  0.00    -0.687 OA 
HETATM    6  C   UNL     1     -10.270  10.020  69.750  1.00  0.00    -0.286 A  
HETATM    7  C   UNL     1      -9.206   9.441  70.438  1.00  0.00    -0.305 A  
HETATM    8  H   UNL     1     -12.393  10.836  68.625  1.00  0.00     0.000 HD 
HETATM    9  C   UNL     1      -9.439   8.767  71.635  1.00  0.00    -0.358 A  
HETATM   10  C   UNL     1     -10.737   8.680  72.144  1.00  0.00    -0.417 A  
ENDBRANCH   2   3
TORSDOF 1
ENDMDL
MODEL       54
REMARK 921   NORMALIZED FREE ENERGY PREDICTED BY IDOCK:   -3.21 KCAL/MOL
REMARK 922        TOTAL FREE ENERGY PREDICTED BY IDOCK:   -3.44 KCAL/MOL
REMARK 923 INTER-LIGAND FREE ENERGY PREDICTED BY IDOCK:   -3.40 KCAL/MOL
REMARK 924 INTRA-LIGAND FREE ENERGY PREDICTED BY IDOCK:   -0.04 KCAL/MOL
REMARK 927      BINDING AFFINITY PREDICTED BY RF-SCORE:    0.00 PKD
ROOT
HETATM    1  C   UNL     1     -12.121   9.415  71.577  1.00  0.00    -0.379 C  
HETATM    2  O   UNL     1     -12.769  10.609  71.994  1.00  0.00    -0.366 OA 
ENDROOT
BRANCH   2   3
HETATM    3  C   UNL     1     -12.586  11.712  71.204  1.00  0.00    -0.335 A  
HETATM    4  C   UNL     1     -12.865  13.035  71.556  1.00  0.00    -0.290 A  
HETATM    5  O   UNL     1     -13.416  13.392  72.752  1.00  0.00    -0.607 OA 
HETATM    6  C   UNL     1     -12.660  14.075  70.648  1.00  0.00    -0.414 A  
HETATM    7  C   UNL     1     -12.219  13.794  69.357  1.00  0.00    -0.325 A  
HETATM    8  H   UNL     1     -13.605  14.291  72.992  1.00  0.00     0.000 HD 
HETATM    9  C   UNL     1     -11.966  12.476  68.983  1.00  0.00    -0.280 A  
HETATM   10  C   UNL     1     -12.150  11.443  69.904  1.00  0.00    -0.404 A  
ENDBRANCH   2   3
TORSDOF 1
ENDMDL
MODEL       55
REMARK 921   NORMALIZED FREE ENERGY PREDICTED BY IDOCK:   -3.21 KCAL/MOL
REMARK 922        TOTAL FREE ENERGY PREDICTED BY IDOCK:   -3.44 KCAL/MOL
REMARK 923 INTER-LIGAND FREE ENERGY PREDICTED BY IDOCK:   -3.41 KCAL/MOL
REMARK 924 INTRA-LIGAND FREE ENERGY PREDICTED BY IDOCK:   -0.03 KCAL/MOL
REMARK 927      BINDING AFFINITY PREDICTED BY RF-SCORE:    0.00 PKD
ROOT
HETATM    1  C   UNL     1     -10.420  15.892  65.733  1.00  0.00    -0.370 C  
HETATM    2  O   UNL     1     -10.156  17.264  65.472  1.00  0.00    -0.581 OA 
ENDROOT
BRANCH   2   3
HETATM    3  C   UNL     1      -9.600  17.984  66.495  1.00  0.00    -0.315 A  
HETATM    4  C   UNL     1      -8.250  17.998  66.856  1.00  0.00    -0.242 A  
HETATM    5  O   UNL     1      -7.302  17.234  66.241  1.00  0.00    -0.270 OA 
HETATM    6  C   UNL     1      -7.808  18.756  67.943  1.00  0.00    -0.284 A  
HETATM    7  C   UNL     1      -8.724  19.471  68.711  1.00  0.00    -0.342 A  
HETATM    8  H   UNL     1      -6.384  17.243  66.487  1.00  0.00     0.000 HD 
HETATM    9  C   UNL     1     -10.077  19.441  68.380  1.00  0.00    -0.538 A  
HETATM   10  C   UNL     1     -10.509  18.701  67.278  1.00  0.00    -0.468 A  
ENDBRANCH   2   3
TORSDOF 1
ENDMDL
MODEL       56
REMARK 921   NORMALIZED FREE ENERGY PREDICTED BY IDOCK:   -3.20 KCAL/MOL
REMARK 922        TOTAL FREE ENERGY PREDICTED BY IDOCK:   -3.43 KCAL/MOL
REMARK 923 INTER-LIGAND FREE ENERGY PREDICTED BY IDOCK:   -3.38 KCAL/MOL
REMARK 924 INTRA-LIGAND FREE ENERGY PREDICTED BY IDOCK:   -0.05 KCAL/MOL
REMARK 927      BINDING AFFINITY PREDICTED BY RF-SCORE:    0.00 PKD
ROOT
HETATM    1  C   UNL     1     -10.306  19.481  66.183  1.00  0.00    -0.520 C  
HETATM    2  O   UNL     1      -9.515  18.372  66.589  1.00  0.00    -0.293 OA 
ENDROOT
BRANCH   2   3
HETATM    3  C   UNL     1     -10.190  17.223  66.905  1.00  0.00    -0.322 A  
HETATM    4  C   UNL     1     -10.700  16.884  68.160  1.00  0.00    -0.375 A  
HETATM    5  O   UNL     1     -10.538  17.663  69.269  1.00  0.00    -0.410 OA 
HETATM    6  C   UNL     1     -11.348  15.664  68.364  1.00  0.00    -0.365 A  
HETATM    7  C   UNL     1     -11.449  14.748  67.320  1.00  0.00    -0.378 A  
HETATM    8  H   UNL     1     -10.885  17.432  70.124  1.00  0.00     0.000 HD 
HETATM    9  C   UNL     1     -10.918  15.061  66.070  1.00  0.00    -0.334 A  
HETATM   10  C   UNL     1     -10.292  16.293  65.867  1.00  0.00    -0.381 A  
ENDBRANCH   2   3
TORSDOF 1
ENDMDL
MODEL       57
REMARK 921   NORMALIZED FREE ENERGY PREDICTED BY IDOCK:   -3.17 KCAL/MOL
REMARK 922        TOTAL FREE ENERGY PREDICTED BY IDOCK:   -3.40 KCAL/MOL
REMARK 923 INTER-LIGAND FREE ENERGY PREDICTED BY IDOCK:   -3.35 KCAL/MOL
REMARK 924 INTRA-LIGAND FREE ENERGY PREDICTED BY IDOCK:   -0.05 KCAL/MOL
REMARK 927      BINDING AFFINITY PREDICTED BY RF-SCORE:    0.00 PKD
ROOT
HETATM    1  C   UNL     1     -10.478   9.283  68.246  1.00  0.00    -0.215 C  
HETATM    2  O   UNL     1     -10.201   9.582  69.608  1.00  0.00    -0.193 OA 
ENDROOT
BRANCH   2   3
HETATM    3  C   UNL     1     -11.277   9.639  70.452  1.00  0.00    -0.283 A  
HETATM    4  C   UNL     1     -12.037  10.774  70.745  1.00  0.00    -0.372 A  
HETATM    5  O   UNL     1     -11.758  12.012  70.244  1.00  0.00    -0.487 OA 
HETATM    6  C   UNL     1     -13.099  10.711  71.650  1.00  0.00    -0.555 A  
HETATM    7  C   UNL     1     -13.380   9.516  72.308  1.00  0.00    -0.526 A  
HETATM    8  H   UNL     1     -12.274  12.785  70.443  1.00  0.00     0.000 HD 
HETATM    9  C   UNL     1     -12.611   8.384  72.048  1.00  0.00    -0.400 A  
HETATM   10  C   UNL     1     -11.566   8.449  71.125  1.00  0.00    -0.317 A  
ENDBRANCH   2   3
TORSDOF 1
ENDMDL
MODEL       58
REMARK 921   NORMALIZED FREE ENERGY PREDICTED BY IDOCK:   -3.17 KCAL/MOL
REMARK 922        TOTAL FREE ENERGY PREDICTED BY IDOCK:   -3.40 KCAL/MOL
REMARK 923 INTER-LIGAND FREE ENERGY PREDICTED BY IDOCK:   -3.36 KCAL/MOL
REMARK 924 INTRA-LIGAND FREE ENERGY PREDICTED BY IDOCK:   -0.04 KCAL/MOL
REMARK 927      BINDING AFFINITY PREDICTED BY RF-SCORE:    0.00 PKD
ROOT
HETATM    1  C   UNL     1     -10.939  11.970  68.605  1.00  0.00    -0.240 C  
HETATM    2  O   UNL     1     -10.205  13.007  67.968  1.00  0.00    -0.220 OA 
ENDROOT
BRANCH   2   3
HETATM    3  C   UNL     1     -10.743  13.518  66.818  1.00  0.00    -0.278 A  
HETATM    4  C   UNL     1     -10.118  14.404  65.936  1.00  0.00    -0.325 A  
HETATM    5  O   UNL     1      -8.873  14.919  66.149  1.00  0.00    -0.474 OA 
HETATM    6  C   UNL     1     -10.786  14.878  64.805  1.00  0.00    -0.382 A  
HETATM    7  C   UNL     1     -12.108  14.506  64.571  1.00  0.00    -0.501 A  
HETATM    8  H   UNL     1      -8.448  15.522  65.550  1.00  0.00     0.000 HD 
HETATM    9  C   UNL     1     -12.754  13.647  65.458  1.00  0.00    -0.514 A  
HETATM   10  C   UNL     1     -12.072  13.158  66.575  1.00  0.00    -0.423 A  
ENDBRANCH   2   3
TORSDOF 1
ENDMDL
MODEL       59
REMARK 921   NORMALIZED FREE ENERGY PREDICTED BY IDOCK:   -3.17 KCAL/MOL
REMARK 922        TOTAL FREE ENERGY PREDICTED BY IDOCK:   -3.40 KCAL/MOL
REMARK 923 INTER-LIGAND FREE ENERGY PREDICTED BY IDOCK:   -3.34 KCAL/MOL
REMARK 924 INTRA-LIGAND FREE ENERGY PREDICTED BY IDOCK:   -0.05 KCAL/MOL
REMARK 927      BINDING AFFINITY PREDICTED BY RF-SCORE:    0.00 PKD
ROOT
HETATM    1  C   UNL     1     -10.555  12.451  63.932  1.00  0.00    -0.437 C  
HETATM    2  O   UNL     1     -10.103  12.251  65.265  1.00  0.00    -0.273 OA 
ENDROOT
BRANCH   2   3
HETATM    3  C   UNL     1     -10.608  13.097  66.215  1.00  0.00    -0.284 A  
HETATM    4  C   UNL     1     -11.497  12.755  67.236  1.00  0.00    -0.337 A  
HETATM    5  O   UNL     1     -12.023  11.504  67.384  1.00  0.00    -0.623 OA 
HETATM    6  C   UNL     1     -11.965  13.719  68.132  1.00  0.00    -0.394 A  
HETATM    7  C   UNL     1     -11.582  15.050  67.982  1.00  0.00    -0.356 A  
HETATM    8  H   UNL     1     -12.628  11.271  68.079  1.00  0.00     0.000 HD 
HETATM    9  C   UNL     1     -10.719  15.411  66.949  1.00  0.00    -0.314 A  
HETATM   10  C   UNL     1     -10.237  14.437  66.072  1.00  0.00    -0.328 A  
ENDBRANCH   2   3
TORSDOF 1
ENDMDL
MODEL       60
REMARK 921   NORMALIZED FREE ENERGY PREDICTED BY IDOCK:   -3.17 KCAL/MOL
REMARK 922        TOTAL FREE ENERGY PREDICTED BY IDOCK:   -3.39 KCAL/MOL
REMARK 923 INTER-LIGAND FREE ENERGY PREDICTED BY IDOCK:   -3.34 KCAL/MOL
REMARK 924 INTRA-LIGAND FREE ENERGY PREDICTED BY IDOCK:   -0.06 KCAL/MOL
REMARK 927      BINDING AFFINITY PREDICTED BY RF-SCORE:    0.00 PKD
ROOT
HETATM    1  C   UNL     1     -10.122  15.641  66.257  1.00  0.00    -0.299 C  
HETATM    2  O   UNL     1      -9.216  16.293  67.137  1.00  0.00    -0.208 OA 
ENDROOT
BRANCH   2   3
HETATM    3  C   UNL     1      -9.400  17.638  67.316  1.00  0.00    -0.249 A  
HETATM    4  C   UNL     1     -10.093  18.243  68.368  1.00  0.00    -0.391 A  
HETATM    5  O   UNL     1     -10.731  17.540  69.347  1.00  0.00    -0.383 OA 
HETATM    6  C   UNL     1     -10.237  19.631  68.425  1.00  0.00    -0.553 A  
HETATM    7  C   UNL     1      -9.727  20.425  67.401  1.00  0.00    -0.597 A  
HETATM    8  H   UNL     1     -11.203  17.951  70.062  1.00  0.00     0.000 HD 
HETATM    9  C   UNL     1      -9.060  19.832  66.331  1.00  0.00    -0.452 A  
HETATM   10  C   UNL     1      -8.899  18.446  66.292  1.00  0.00    -0.204 A  
ENDBRANCH   2   3
TORSDOF 1
ENDMDL
MODEL       61
REMARK 921   NORMALIZED FREE ENERGY PREDICTED BY IDOCK:   -3.15 KCAL/MOL
REMARK 922        TOTAL FREE ENERGY PREDICTED BY IDOCK:   -3.38 KCAL/MOL
REMARK 923 INTER-LIGAND FREE ENERGY PREDICTED BY IDOCK:   -3.33 KCAL/MOL
REMARK 924 INTRA-LIGAND FREE ENERGY PREDICTED BY IDOCK:   -0.04 KCAL/MOL
REMARK 927      BINDING AFFINITY PREDICTED BY RF-SCORE:    0.00 PKD
ROOT
HETATM    1  C   UNL     1      -6.362  18.764  69.438  1.00  0.00    -0.272 C  
HETATM    2  O   UNL     1      -7.447  19.624  69.118  1.00  0.00    -0.357 OA 
ENDROOT
BRANCH   2   3
HETATM    3  C   UNL     1      -8.414  19.108  68.297  1.00  0.00    -0.332 A  
HETATM    4  C   UNL     1      -9.795  19.226  68.472  1.00  0.00    -0.424 A  
HETATM    5  O   UNL     1     -10.363  19.849  69.544  1.00  0.00    -0.631 OA 
HETATM    6  C   UNL     1     -10.683  18.627  67.576  1.00  0.00    -0.447 A  
HETATM    7  C   UNL     1     -10.195  17.862  66.520  1.00  0.00    -0.379 A  
HETATM    8  H   UNL     1     -11.303  19.929  69.664  1.00  0.00     0.000 HD 
HETATM    9  C   UNL     1      -8.820  17.711  66.351  1.00  0.00    -0.263 A  
HETATM   10  C   UNL     1      -7.937  18.332  67.237  1.00  0.00    -0.229 A  
ENDBRANCH   2   3
TORSDOF 1
ENDMDL
MODEL       62
REMARK 921   NORMALIZED FREE ENERGY PREDICTED BY IDOCK:   -3.15 KCAL/MOL
REMARK 922        TOTAL FREE ENERGY PREDICTED BY IDOCK:   -3.38 KCAL/MOL
REMARK 923 INTER-LIGAND FREE ENERGY PREDICTED BY IDOCK:   -3.34 KCAL/MOL
REMARK 924 INTRA-LIGAND FREE ENERGY PREDICTED BY IDOCK:   -0.04 KCAL/MOL
REMARK 927      BINDING AFFINITY PREDICTED BY RF-SCORE:    0.00 PKD
ROOT
HETATM    1  C   UNL     1      -9.939  15.558  68.099  1.00  0.00    -0.217 C  
HETATM    2  O   UNL     1      -9.558  16.656  68.917  1.00  0.00    -0.240 OA 
ENDROOT
BRANCH   2   3
HETATM    3  C   UNL     1      -9.479  17.877  68.304  1.00  0.00    -0.300 A  
HETATM    4  C   UNL     1      -8.372  18.730  68.302  1.00  0.00    -0.330 A  
HETATM    5  O   UNL     1      -7.216  18.459  68.974  1.00  0.00    -0.282 OA 
HETATM    6  C   UNL     1      -8.425  19.970  67.660  1.00  0.00    -0.378 A  
HETATM    7  C   UNL     1      -9.607  20.388  67.053  1.00  0.00    -0.571 A  
HETATM    8  H   UNL     1      -6.464  19.040  68.973  1.00  0.00     0.000 HD 
HETATM    9  C   UNL     1     -10.727  19.560  67.073  1.00  0.00    -0.592 A  
HETATM   10  C   UNL     1     -10.660  18.312  67.696  1.00  0.00    -0.427 A  
ENDBRANCH   2   3
TORSDOF 1
ENDMDL
MODEL       63
REMARK 921   NORMALIZED FREE ENERGY PREDICTED BY IDOCK:   -3.15 KCAL/MOL
REMARK 922        TOTAL FREE ENERGY PREDICTED BY IDOCK:   -3.37 KCAL/MOL
REMARK 923 INTER-LIGAND FREE ENERGY PREDICTED BY IDOCK:   -3.32 KCAL/MOL
REMARK 924 INTRA-LIGAND FREE ENERGY PREDICTED BY IDOCK:   -0.05 KCAL/MOL
REMARK 927      BINDING AFFINITY PREDICTED BY RF-SCORE:    0.00 PKD
ROOT
HETATM    1  C   UNL     1      -9.109  13.412  68.311  1.00  0.00    -0.181 C  
HETATM    2  O   UNL     1      -9.291  12.858  67.015  1.00  0.00    -0.219 OA 
ENDROOT
BRANCH   2   3
HETATM    3  C   UNL     1     -10.335  13.353  66.280  1.00  0.00    -0.291 A  
HETATM    4  C   UNL     1     -11.579  12.744  66.099  1.00  0.00    -0.379 A  
HETATM    5  O   UNL     1     -11.896  11.520  66.611  1.00  0.00    -0.470 OA 
HETATM    6  C   UNL     1     -12.557  13.339  65.298  1.00  0.00    -0.528 A  
HETATM    7  C   UNL     1     -12.279  14.529  64.631  1.00  0.00    -0.474 A  
HETATM    8  H   UNL     1     -12.742  11.106  66.487  1.00  0.00     0.000 HD 
HETATM    9  C   UNL     1     -11.031  15.132  64.779  1.00  0.00    -0.394 A  
HETATM   10  C   UNL     1     -10.066  14.544  65.600  1.00  0.00    -0.384 A  
ENDBRANCH   2   3
TORSDOF 1
ENDMDL
MODEL       64
REMARK 921   NORMALIZED FREE ENERGY PREDICTED BY IDOCK:   -3.14 KCAL/MOL
REMARK 922        TOTAL FREE ENERGY PREDICTED BY IDOCK:   -3.37 KCAL/MOL
REMARK 923 INTER-LIGAND FREE ENERGY PREDICTED BY IDOCK:   -3.33 KCAL/MOL
REMARK 924 INTRA-LIGAND FREE ENERGY PREDICTED BY IDOCK:   -0.04 KCAL/MOL
REMARK 927      BINDING AFFINITY PREDICTED BY RF-SCORE:    0.00 PKD
ROOT
HETATM    1  C   UNL     1     -11.663  11.077  68.808  1.00  0.00    -0.314 C  
HETATM    2  O   UNL     1     -11.985  11.171  70.189  1.00  0.00    -0.303 OA 
ENDROOT
BRANCH   2   3
HETATM    3  C   UNL     1     -11.622  10.110  70.975  1.00  0.00    -0.376 A  
HETATM    4  C   UNL     1     -12.427   9.467  71.918  1.00  0.00    -0.384 A  
HETATM    5  O   UNL     1     -13.700   9.863  72.211  1.00  0.00    -0.528 OA 
HETATM    6  C   UNL     1     -11.929   8.409  72.682  1.00  0.00    -0.346 A  
HETATM    7  C   UNL     1     -10.601   8.016  72.542  1.00  0.00    -0.397 A  
HETATM    8  H   UNL     1     -14.247   9.426  72.853  1.00  0.00     0.000 HD 
HETATM    9  C   UNL     1      -9.777   8.669  71.627  1.00  0.00    -0.348 A  
HETATM   10  C   UNL     1     -10.289   9.710  70.849  1.00  0.00    -0.334 A  
ENDBRANCH   2   3
TORSDOF 1
ENDMDL
MODEL       65
REMARK 921   NORMALIZED FREE ENERGY PREDICTED BY IDOCK:   -3.14 KCAL/MOL
REMARK 922        TOTAL FREE ENERGY PREDICTED BY IDOCK:   -3.36 KCAL/MOL
REMARK 923 INTER-LIGAND FREE ENERGY PREDICTED BY IDOCK:   -3.31 KCAL/MOL
REMARK 924 INTRA-LIGAND FREE ENERGY PREDICTED BY IDOCK:   -0.06 KCAL/MOL
REMARK 927      BINDING AFFINITY PREDICTED BY RF-SCORE:    0.00 PKD
ROOT
HETATM    1  C   UNL     1      -9.883  15.820  65.759  1.00  0.00    -0.348 C  
HETATM    2  O   UNL     1     -11.100  15.105  65.587  1.00  0.00    -0.336 OA 
ENDROOT
BRANCH   2   3
HETATM    3  C   UNL     1     -11.202  13.907  66.242  1.00  0.00    -0.309 A  
HETATM    4  C   UNL     1     -11.824  13.690  67.474  1.00  0.00    -0.381 A  
HETATM    5  O   UNL     1     -12.380  14.689  68.219  1.00  0.00    -0.594 OA 
HETATM    6  C   UNL     1     -11.838  12.420  68.055  1.00  0.00    -0.376 A  
HETATM    7  C   UNL     1     -11.185  11.362  67.427  1.00  0.00    -0.370 A  
HETATM    8  H   UNL     1     -12.802  14.542  69.057  1.00  0.00     0.000 HD 
HETATM    9  C   UNL     1     -10.535  11.571  66.212  1.00  0.00    -0.294 A  
HETATM   10  C   UNL     1     -10.546  12.839  65.626  1.00  0.00    -0.297 A  
ENDBRANCH   2   3
TORSDOF 1
ENDMDL
MODEL       66
REMARK 921   NORMALIZED FREE ENERGY PREDICTED BY IDOCK:   -3.13 KCAL/MOL
REMARK 922        TOTAL FREE ENERGY PREDICTED BY IDOCK:   -3.35 KCAL/MOL
REMARK 923 INTER-LIGAND FREE ENERGY PREDICTED BY IDOCK:   -3.30 KCAL/MOL
REMARK 924 INTRA-LIGAND FREE ENERGY PREDICTED BY IDOCK:   -0.05 KCAL/MOL
REMARK 927      BINDING AFFINITY PREDICTED BY RF-SCORE:    0.00 PKD
ROOT
HETATM    1  C   UNL     1     -10.221  16.750  68.854  1.00  0.00    -0.304 C  
HETATM    2  O   UNL     1     -11.476  16.209  68.463  1.00  0.00    -0.376 OA 
ENDROOT
BRANCH   2   3
HETATM    3  C   UNL     1     -11.539  14.848  68.327  1.00  0.00    -0.334 A  
HETATM    4  C   UNL     1     -11.553  14.139  67.123  1.00  0.00    -0.377 A  
HETATM    5  O   UNL     1     -11.554  14.741  65.899  1.00  0.00    -0.348 OA 
HETATM    6  C   UNL     1     -11.649  12.745  67.115  1.00  0.00    -0.426 A  
HETATM    7  C   UNL     1     -11.780  12.051  68.315  1.00  0.00    -0.396 A  
HETATM    8  H   UNL     1     -11.564  14.258  65.080  1.00  0.00     0.000 HD 
HETATM    9  C   UNL     1     -11.797  12.748  69.521  1.00  0.00    -0.379 A  
HETATM   10  C   UNL     1     -11.677  14.139  69.523  1.00  0.00    -0.364 A  
ENDBRANCH   2   3
TORSDOF 1
ENDMDL
MODEL       67
REMARK 921   NORMALIZED FREE ENERGY PREDICTED BY IDOCK:   -3.13 KCAL/MOL
REMARK 922        TOTAL FREE ENERGY PREDICTED BY IDOCK:   -3.35 KCAL/MOL
REMARK 923 INTER-LIGAND FREE ENERGY PREDICTED BY IDOCK:   -3.31 KCAL/MOL
REMARK 924 INTRA-LIGAND FREE ENERGY PREDICTED BY IDOCK:   -0.04 KCAL/MOL
REMARK 927      BINDING AFFINITY PREDICTED BY RF-SCORE:    0.00 PKD
ROOT
HETATM    1  C   UNL     1      -6.283  19.393  69.152  1.00  0.00    -0.276 C  
HETATM    2  O   UNL     1      -7.072  18.313  68.672  1.00  0.00    -0.257 OA 
ENDROOT
BRANCH   2   3
HETATM    3  C   UNL     1      -8.322  18.627  68.210  1.00  0.00    -0.324 A  
HETATM    4  C   UNL     1      -9.392  17.742  68.056  1.00  0.00    -0.276 A  
HETATM    5  O   UNL     1      -9.301  16.405  68.311  1.00  0.00    -0.202 OA 
HETATM    6  C   UNL     1     -10.615  18.181  67.545  1.00  0.00    -0.419 A  
HETATM    7  C   UNL     1     -10.764  19.505  67.137  1.00  0.00    -0.599 A  
HETATM    8  H   UNL     1     -10.029  15.803  68.206  1.00  0.00     0.000 HD 
HETATM    9  C   UNL     1      -9.695  20.391  67.257  1.00  0.00    -0.602 A  
HETATM   10  C   UNL     1      -8.482  19.951  67.791  1.00  0.00    -0.356 A  
ENDBRANCH   2   3
TORSDOF 1
ENDMDL
MODEL       68
REMARK 921   NORMALIZED FREE ENERGY PREDICTED BY IDOCK:   -3.11 KCAL/MOL
REMARK 922        TOTAL FREE ENERGY PREDICTED BY IDOCK:   -3.33 KCAL/MOL
REMARK 923 INTER-LIGAND FREE ENERGY PREDICTED BY IDOCK:   -3.28 KCAL/MOL
REMARK 924 INTRA-LIGAND FREE ENERGY PREDICTED BY IDOCK:   -0.05 KCAL/MOL
REMARK 927      BINDING AFFINITY PREDICTED BY RF-SCORE:    0.00 PKD
ROOT
HETATM    1  C   UNL     1     -13.129  11.434  71.703  1.00  0.00    -0.393 C  
HETATM    2  O   UNL     1     -12.928  10.195  71.036  1.00  0.00    -0.364 OA 
ENDROOT
BRANCH   2   3
HETATM    3  C   UNL     1     -11.805   9.491  71.381  1.00  0.00    -0.389 A  
HETATM    4  C   UNL     1     -10.525   9.667  70.850  1.00  0.00    -0.289 A  
HETATM    5  O   UNL     1     -10.242  10.558  69.857  1.00  0.00    -0.405 OA 
HETATM    6  C   UNL     1      -9.462   8.862  71.265  1.00  0.00    -0.343 A  
HETATM    7  C   UNL     1      -9.681   7.840  72.185  1.00  0.00    -0.240 A  
HETATM    8  H   UNL     1      -9.371  10.678  69.495  1.00  0.00     0.000 HD 
HETATM    9  C   UNL     1     -10.960   7.634  72.700  1.00  0.00    -0.405 A  
HETATM   10  C   UNL     1     -12.014   8.457  72.298  1.00  0.00    -0.455 A  
ENDBRANCH   2   3
TORSDOF 1
ENDMDL
MODEL       69
REMARK 921   NORMALIZED FREE ENERGY PREDICTED BY IDOCK:   -3.09 KCAL/MOL
REMARK 922        TOTAL FREE ENERGY PREDICTED BY IDOCK:   -3.31 KCAL/MOL
REMARK 923 INTER-LIGAND FREE ENERGY PREDICTED BY IDOCK:   -3.27 KCAL/MOL
REMARK 924 INTRA-LIGAND FREE ENERGY PREDICTED BY IDOCK:   -0.04 KCAL/MOL
REMARK 927      BINDING AFFINITY PREDICTED BY RF-SCORE:    0.00 PKD
ROOT
HETATM    1  C   UNL     1     -13.709   9.244  71.497  1.00  0.00    -0.316 C  
HETATM    2  O   UNL     1     -12.907   8.511  72.414  1.00  0.00    -0.359 OA 
ENDROOT
BRANCH   2   3
HETATM    3  C   UNL     1     -11.558   8.510  72.181  1.00  0.00    -0.377 A  
HETATM    4  C   UNL     1     -10.584   7.904  72.978  1.00  0.00    -0.339 A  
HETATM    5  O   UNL     1     -10.866   7.259  74.146  1.00  0.00    -0.536 OA 
HETATM    6  C   UNL     1      -9.230   7.998  72.647  1.00  0.00    -0.304 A  
HETATM    7  C   UNL     1      -8.835   8.743  71.539  1.00  0.00    -0.295 A  
HETATM    8  H   UNL     1     -10.203   6.847  74.688  1.00  0.00     0.000 HD 
HETATM    9  C   UNL     1      -9.794   9.379  70.754  1.00  0.00    -0.348 A  
HETATM   10  C   UNL     1     -11.148   9.260  71.076  1.00  0.00    -0.396 A  
ENDBRANCH   2   3
TORSDOF 1
ENDMDL
MODEL       70
REMARK 921   NORMALIZED FREE ENERGY PREDICTED BY IDOCK:   -3.09 KCAL/MOL
REMARK 922        TOTAL FREE ENERGY PREDICTED BY IDOCK:   -3.31 KCAL/MOL
REMARK 923 INTER-LIGAND FREE ENERGY PREDICTED BY IDOCK:   -3.26 KCAL/MOL
REMARK 924 INTRA-LIGAND FREE ENERGY PREDICTED BY IDOCK:   -0.05 KCAL/MOL
REMARK 927      BINDING AFFINITY PREDICTED BY RF-SCORE:    0.00 PKD
ROOT
HETATM    1  C   UNL     1     -10.332  15.860  65.789  1.00  0.00    -0.376 C  
HETATM    2  O   UNL     1      -9.840  17.180  65.599  1.00  0.00    -0.552 OA 
ENDROOT
BRANCH   2   3
HETATM    3  C   UNL     1      -9.231  17.766  66.676  1.00  0.00    -0.269 A  
HETATM    4  C   UNL     1      -9.787  18.738  67.510  1.00  0.00    -0.320 A  
HETATM    5  O   UNL     1     -11.028  19.272  67.316  1.00  0.00    -0.483 OA 
HETATM    6  C   UNL     1      -9.051  19.283  68.565  1.00  0.00    -0.425 A  
HETATM    7  C   UNL     1      -7.729  18.891  68.765  1.00  0.00    -0.366 A  
HETATM    8  H   UNL     1     -11.406  19.934  67.883  1.00  0.00     0.000 HD 
HETATM    9  C   UNL     1      -7.152  17.944  67.921  1.00  0.00    -0.210 A  
HETATM   10  C   UNL     1      -7.902  17.387  66.883  1.00  0.00    -0.258 A  
ENDBRANCH   2   3
TORSDOF 1
ENDMDL
MODEL       71
REMARK 921   NORMALIZED FREE ENERGY PREDICTED BY IDOCK:   -3.08 KCAL/MOL
REMARK 922        TOTAL FREE ENERGY PREDICTED BY IDOCK:   -3.30 KCAL/MOL
REMARK 923 INTER-LIGAND FREE ENERGY PREDICTED BY IDOCK:   -3.44 KCAL/MOL
REMARK 924 INTRA-LIGAND FREE ENERGY PREDICTED BY IDOCK:    0.14 KCAL/MOL
REMARK 927      BINDING AFFINITY PREDICTED BY RF-SCORE:    0.00 PKD
ROOT
HETATM    1  C   UNL     1     -12.611  12.132  63.421  1.00  0.00    -0.463 C  
HETATM    2  O   UNL     1     -12.877  12.309  64.806  1.00  0.00    -0.661 OA 
ENDROOT
BRANCH   2   3
HETATM    3  C   UNL     1     -11.915  12.953  65.536  1.00  0.00    -0.436 A  
HETATM    4  C   UNL     1     -10.586  12.549  65.688  1.00  0.00    -0.269 A  
HETATM    5  O   UNL     1     -10.086  11.400  65.148  1.00  0.00    -0.244 OA 
HETATM    6  C   UNL     1      -9.703  13.280  66.486  1.00  0.00    -0.273 A  
HETATM    7  C   UNL     1     -10.156  14.399  67.180  1.00  0.00    -0.253 A  
HETATM    8  H   UNL     1      -9.182  11.125  65.252  1.00  0.00     0.000 HD 
HETATM    9  C   UNL     1     -11.487  14.796  67.061  1.00  0.00    -0.362 A  
HETATM   10  C   UNL     1     -12.359  14.074  66.242  1.00  0.00    -0.482 A  
ENDBRANCH   2   3
TORSDOF 1
ENDMDL
MODEL       72
REMARK 921   NORMALIZED FREE ENERGY PREDICTED BY IDOCK:   -3.06 KCAL/MOL
REMARK 922        TOTAL FREE ENERGY PREDICTED BY IDOCK:   -3.28 KCAL/MOL
REMARK 923 INTER-LIGAND FREE ENERGY PREDICTED BY IDOCK:   -3.23 KCAL/MOL
REMARK 924 INTRA-LIGAND FREE ENERGY PREDICTED BY IDOCK:   -0.05 KCAL/MOL
REMARK 927      BINDING AFFINITY PREDICTED BY RF-SCORE:    0.00 PKD
ROOT
HETATM    1  C   UNL     1     -10.473  19.156  66.073  1.00  0.00    -0.467 C  
HETATM    2  O   UNL     1      -9.840  20.220  66.771  1.00  0.00    -0.427 OA 
ENDROOT
BRANCH   2   3
HETATM    3  C   UNL     1      -8.557  19.995  67.194  1.00  0.00    -0.335 A  
HETATM    4  C   UNL     1      -7.395  20.190  66.443  1.00  0.00    -0.281 A  
HETATM    5  O   UNL     1      -7.403  20.595  65.141  1.00  0.00    -0.513 OA 
HETATM    6  C   UNL     1      -6.139  19.896  66.980  1.00  0.00    -0.192 A  
HETATM    7  C   UNL     1      -6.039  19.357  68.260  1.00  0.00    -0.245 A  
HETATM    8  H   UNL     1      -6.612  20.728  64.630  1.00  0.00     0.000 HD 
HETATM    9  C   UNL     1      -7.192  19.129  69.008  1.00  0.00    -0.370 A  
HETATM   10  C   UNL     1      -8.443  19.448  68.475  1.00  0.00    -0.397 A  
ENDBRANCH   2   3
TORSDOF 1
ENDMDL
MODEL       73
REMARK 921   NORMALIZED FREE ENERGY PREDICTED BY IDOCK:   -3.04 KCAL/MOL
REMARK 922        TOTAL FREE ENERGY PREDICTED BY IDOCK:   -3.26 KCAL/MOL
REMARK 923 INTER-LIGAND FREE ENERGY PREDICTED BY IDOCK:   -3.21 KCAL/MOL
REMARK 924 INTRA-LIGAND FREE ENERGY PREDICTED BY IDOCK:   -0.05 KCAL/MOL
REMARK 927      BINDING AFFINITY PREDICTED BY RF-SCORE:    0.00 PKD
ROOT
HETATM    1  C   UNL     1     -11.275  10.976  67.910  1.00  0.00    -0.310 C  
HETATM    2  O   UNL     1     -10.622  10.882  69.169  1.00  0.00    -0.203 OA 
ENDROOT
BRANCH   2   3
HETATM    3  C   UNL     1     -11.338  10.314  70.188  1.00  0.00    -0.316 A  
HETATM    4  C   UNL     1     -11.185   9.015  70.680  1.00  0.00    -0.270 A  
HETATM    5  O   UNL     1     -10.306   8.114  70.155  1.00  0.00    -0.206 OA 
HETATM    6  C   UNL     1     -12.000   8.540  71.710  1.00  0.00    -0.393 A  
HETATM    7  C   UNL     1     -13.011   9.347  72.225  1.00  0.00    -0.479 A  
HETATM    8  H   UNL     1     -10.202   7.230  70.489  1.00  0.00     0.000 HD 
HETATM    9  C   UNL     1     -13.195  10.633  71.722  1.00  0.00    -0.526 A  
HETATM   10  C   UNL     1     -12.361  11.111  70.709  1.00  0.00    -0.504 A  
ENDBRANCH   2   3
TORSDOF 1
ENDMDL
MODEL       74
REMARK 921   NORMALIZED FREE ENERGY PREDICTED BY IDOCK:   -3.03 KCAL/MOL
REMARK 922        TOTAL FREE ENERGY PREDICTED BY IDOCK:   -3.25 KCAL/MOL
REMARK 923 INTER-LIGAND FREE ENERGY PREDICTED BY IDOCK:   -3.21 KCAL/MOL
REMARK 924 INTRA-LIGAND FREE ENERGY PREDICTED BY IDOCK:   -0.04 KCAL/MOL
REMARK 927      BINDING AFFINITY PREDICTED BY RF-SCORE:    0.00 PKD
ROOT
HETATM    1  C   UNL     1     -12.123  14.688  69.185  1.00  0.00    -0.248 C  
HETATM    2  O   UNL     1     -11.646  13.370  68.950  1.00  0.00    -0.269 OA 
ENDROOT
BRANCH   2   3
HETATM    3  C   UNL     1     -12.020  12.414  69.856  1.00  0.00    -0.299 A  
HETATM    4  C   UNL     1     -11.792  11.040  69.749  1.00  0.00    -0.347 A  
HETATM    5  O   UNL     1     -11.191  10.463  68.669  1.00  0.00    -0.273 OA 
HETATM    6  C   UNL     1     -12.250  10.160  70.732  1.00  0.00    -0.434 A  
HETATM    7  C   UNL     1     -12.986  10.644  71.811  1.00  0.00    -0.577 A  
HETATM    8  H   UNL     1     -11.035   9.528  68.596  1.00  0.00     0.000 HD 
HETATM    9  C   UNL     1     -13.247  12.009  71.914  1.00  0.00    -0.469 A  
HETATM   10  C   UNL     1     -12.766  12.887  70.940  1.00  0.00    -0.291 A  
ENDBRANCH   2   3
TORSDOF 1
ENDMDL
MODEL       75
REMARK 921   NORMALIZED FREE ENERGY PREDICTED BY IDOCK:   -3.02 KCAL/MOL
REMARK 922        TOTAL FREE ENERGY PREDICTED BY IDOCK:   -3.24 KCAL/MOL
REMARK 923 INTER-LIGAND FREE ENERGY PREDICTED BY IDOCK:   -3.19 KCAL/MOL
REMARK 924 INTRA-LIGAND FREE ENERGY PREDICTED BY IDOCK:   -0.05 KCAL/MOL
REMARK 927      BINDING AFFINITY PREDICTED BY RF-SCORE:    0.00 PKD
ROOT
HETATM    1  C   UNL     1     -10.032   9.620  69.080  1.00  0.00    -0.185 C  
HETATM    2  O   UNL     1     -10.109   8.807  70.243  1.00  0.00    -0.181 OA 
ENDROOT
BRANCH   2   3
HETATM    3  C   UNL     1     -11.344   8.686  70.823  1.00  0.00    -0.263 A  
HETATM    4  C   UNL     1     -12.194   7.582  70.731  1.00  0.00    -0.122 A  
HETATM    5  O   UNL     1     -11.906   6.474  69.988  1.00  0.00    -0.574 OA 
HETATM    6  C   UNL     1     -13.448   7.590  71.347  1.00  0.00    -0.386 A  
HETATM    7  C   UNL     1     -13.882   8.728  72.024  1.00  0.00    -0.504 A  
HETATM    8  H   UNL     1     -12.485   5.723  69.925  1.00  0.00     0.000 HD 
HETATM    9  C   UNL     1     -13.056   9.848  72.097  1.00  0.00    -0.497 A  
HETATM   10  C   UNL     1     -11.794   9.824  71.499  1.00  0.00    -0.476 A  
ENDBRANCH   2   3
TORSDOF 1
ENDMDL
MODEL       76
REMARK 921   NORMALIZED FREE ENERGY PREDICTED BY IDOCK:   -3.02 KCAL/MOL
REMARK 922        TOTAL FREE ENERGY PREDICTED BY IDOCK:   -3.23 KCAL/MOL
REMARK 923 INTER-LIGAND FREE ENERGY PREDICTED BY IDOCK:   -3.19 KCAL/MOL
REMARK 924 INTRA-LIGAND FREE ENERGY PREDICTED BY IDOCK:   -0.04 KCAL/MOL
REMARK 927      BINDING AFFINITY PREDICTED BY RF-SCORE:    0.00 PKD
ROOT
HETATM    1  C   UNL     1     -13.288   9.791  71.843  1.00  0.00    -0.436 C  
HETATM    2  O   UNL     1     -13.256   8.449  71.375  1.00  0.00    -0.300 OA 
ENDROOT
BRANCH   2   3
HETATM    3  C   UNL     1     -12.085   7.765  71.560  1.00  0.00    -0.309 A  
HETATM    4  C   UNL     1     -11.478   6.903  70.642  1.00  0.00    -0.336 A  
HETATM    5  O   UNL     1     -12.024   6.594  69.431  1.00  0.00    -0.611 OA 
HETATM    6  C   UNL     1     -10.292   6.239  70.961  1.00  0.00    -0.258 A  
HETATM    7  C   UNL     1      -9.726   6.394  72.224  1.00  0.00    -0.158 A  
HETATM    8  H   UNL     1     -11.612   6.008  68.807  1.00  0.00     0.000 HD 
HETATM    9  C   UNL     1     -10.337   7.227  73.160  1.00  0.00    -0.359 A  
HETATM   10  C   UNL     1     -11.510   7.907  72.826  1.00  0.00    -0.428 A  
ENDBRANCH   2   3
TORSDOF 1
ENDMDL
MODEL       77
REMARK 921   NORMALIZED FREE ENERGY PREDICTED BY IDOCK:   -3.01 KCAL/MOL
REMARK 922        TOTAL FREE ENERGY PREDICTED BY IDOCK:   -3.23 KCAL/MOL
REMARK 923 INTER-LIGAND FREE ENERGY PREDICTED BY IDOCK:   -3.18 KCAL/MOL
REMARK 924 INTRA-LIGAND FREE ENERGY PREDICTED BY IDOCK:   -0.04 KCAL/MOL
REMARK 927      BINDING AFFINITY PREDICTED BY RF-SCORE:    0.00 PKD
ROOT
HETATM    1  C   UNL     1     -12.714  13.642  65.129  1.00  0.00    -0.395 C  
HETATM    2  O   UNL     1     -11.569  13.586  65.969  1.00  0.00    -0.318 OA 
ENDROOT
BRANCH   2   3
HETATM    3  C   UNL     1     -11.276  14.720  66.678  1.00  0.00    -0.346 A  
HETATM    4  C   UNL     1     -10.577  15.833  66.203  1.00  0.00    -0.313 A  
HETATM    5  O   UNL     1     -10.044  15.903  64.949  1.00  0.00    -0.412 OA 
HETATM    6  C   UNL     1     -10.314  16.922  67.036  1.00  0.00    -0.307 A  
HETATM    7  C   UNL     1     -10.710  16.888  68.371  1.00  0.00    -0.368 A  
HETATM    8  H   UNL     1      -9.568  16.660  64.626  1.00  0.00     0.000 HD 
HETATM    9  C   UNL     1     -11.381  15.771  68.866  1.00  0.00    -0.356 A  
HETATM   10  C   UNL     1     -11.661  14.695  68.021  1.00  0.00    -0.371 A  
ENDBRANCH   2   3
TORSDOF 1
ENDMDL
MODEL       78
REMARK 921   NORMALIZED FREE ENERGY PREDICTED BY IDOCK:   -2.97 KCAL/MOL
REMARK 922        TOTAL FREE ENERGY PREDICTED BY IDOCK:   -3.18 KCAL/MOL
REMARK 923 INTER-LIGAND FREE ENERGY PREDICTED BY IDOCK:   -3.14 KCAL/MOL
REMARK 924 INTRA-LIGAND FREE ENERGY PREDICTED BY IDOCK:   -0.04 KCAL/MOL
REMARK 927      BINDING AFFINITY PREDICTED BY RF-SCORE:    0.00 PKD
ROOT
HETATM    1  C   UNL     1     -11.441  12.064  66.507  1.00  0.00    -0.349 C  
HETATM    2  O   UNL     1     -11.964  12.201  67.822  1.00  0.00    -0.506 OA 
ENDROOT
BRANCH   2   3
HETATM    3  C   UNL     1     -11.675  11.193  68.702  1.00  0.00    -0.320 A  
HETATM    4  C   UNL     1     -11.942  11.193  70.074  1.00  0.00    -0.367 A  
HETATM    5  O   UNL     1     -12.497  12.253  70.729  1.00  0.00    -0.346 OA 
HETATM    6  C   UNL     1     -11.571  10.111  70.875  1.00  0.00    -0.459 A  
HETATM    7  C   UNL     1     -10.884   9.036  70.316  1.00  0.00    -0.269 A  
HETATM    8  H   UNL     1     -12.678  12.253  71.662  1.00  0.00     0.000 HD 
HETATM    9  C   UNL     1     -10.585   9.036  68.955  1.00  0.00    -0.209 A  
HETATM   10  C   UNL     1     -10.980  10.111  68.156  1.00  0.00    -0.313 A  
ENDBRANCH   2   3
TORSDOF 1
ENDMDL
MODEL       79
REMARK 921   NORMALIZED FREE ENERGY PREDICTED BY IDOCK:   -2.96 KCAL/MOL
REMARK 922        TOTAL FREE ENERGY PREDICTED BY IDOCK:   -3.18 KCAL/MOL
REMARK 923 INTER-LIGAND FREE ENERGY PREDICTED BY IDOCK:   -3.13 KCAL/MOL
REMARK 924 INTRA-LIGAND FREE ENERGY PREDICTED BY IDOCK:   -0.05 KCAL/MOL
REMARK 927      BINDING AFFINITY PREDICTED BY RF-SCORE:    0.00 PKD
ROOT
HETATM    1  C   UNL     1      -8.232  17.569  68.348  1.00  0.00    -0.278 C  
HETATM    2  O   UNL     1      -9.551  17.710  67.838  1.00  0.00    -0.269 OA 
ENDROOT
BRANCH   2   3
HETATM    3  C   UNL     1     -10.257  16.554  67.642  1.00  0.00    -0.279 A  
HETATM    4  C   UNL     1     -10.543  15.960  66.410  1.00  0.00    -0.297 A  
HETATM    5  O   UNL     1     -10.181  16.506  65.213  1.00  0.00    -0.588 OA 
HETATM    6  C   UNL     1     -11.301  14.789  66.339  1.00  0.00    -0.339 A  
HETATM    7  C   UNL     1     -11.823  14.227  67.502  1.00  0.00    -0.429 A  
HETATM    8  H   UNL     1     -10.375  16.102  64.375  1.00  0.00     0.000 HD 
HETATM    9  C   UNL     1     -11.571  14.826  68.734  1.00  0.00    -0.347 A  
HETATM   10  C   UNL     1     -10.792  15.983  68.801  1.00  0.00    -0.302 A  
ENDBRANCH   2   3
TORSDOF 1
ENDMDL
MODEL       80
REMARK 921   NORMALIZED FREE ENERGY PREDICTED BY IDOCK:   -2.96 KCAL/MOL
REMARK 922        TOTAL FREE ENERGY PREDICTED BY IDOCK:   -3.17 KCAL/MOL
REMARK 923 INTER-LIGAND FREE ENERGY PREDICTED BY IDOCK:   -3.12 KCAL/MOL
REMARK 924 INTRA-LIGAND FREE ENERGY PREDICTED BY IDOCK:   -0.05 KCAL/MOL
REMARK 927      BINDING AFFINITY PREDICTED BY RF-SCORE:    0.00 PKD
ROOT
HETATM    1  C   UNL     1     -10.647  19.657  65.738  1.00  0.00    -0.438 C  
HETATM    2  O   UNL     1     -10.225  20.242  66.963  1.00  0.00    -0.435 OA 
ENDROOT
BRANCH   2   3
HETATM    3  C   UNL     1      -9.044  19.786  67.483  1.00  0.00    -0.330 A  
HETATM    4  C   UNL     1      -8.885  18.695  68.341  1.00  0.00    -0.339 A  
HETATM    5  O   UNL     1      -9.931  17.958  68.817  1.00  0.00    -0.359 OA 
HETATM    6  C   UNL     1      -7.624  18.344  68.828  1.00  0.00    -0.295 A  
HETATM    7  C   UNL     1      -6.513  19.115  68.497  1.00  0.00    -0.273 A  
HETATM    8  H   UNL     1      -9.823  17.216  69.400  1.00  0.00     0.000 HD 
HETATM    9  C   UNL     1      -6.661  20.225  67.667  1.00  0.00    -0.287 A  
HETATM   10  C   UNL     1      -7.921  20.555  67.164  1.00  0.00    -0.361 A  
ENDBRANCH   2   3
TORSDOF 1
ENDMDL
MODEL       81
REMARK 921   NORMALIZED FREE ENERGY PREDICTED BY IDOCK:   -2.94 KCAL/MOL
REMARK 922        TOTAL FREE ENERGY PREDICTED BY IDOCK:   -3.16 KCAL/MOL
REMARK 923 INTER-LIGAND FREE ENERGY PREDICTED BY IDOCK:   -3.10 KCAL/MOL
REMARK 924 INTRA-LIGAND FREE ENERGY PREDICTED BY IDOCK:   -0.06 KCAL/MOL
REMARK 927      BINDING AFFINITY PREDICTED BY RF-SCORE:    0.00 PKD
ROOT
HETATM    1  C   UNL     1      -9.688  19.538  68.305  1.00  0.00    -0.404 C  
HETATM    2  O   UNL     1      -8.971  18.318  68.436  1.00  0.00    -0.297 OA 
ENDROOT
BRANCH   2   3
HETATM    3  C   UNL     1      -9.455  17.247  67.735  1.00  0.00    -0.255 A  
HETATM    4  C   UNL     1      -8.993  16.793  66.497  1.00  0.00    -0.273 A  
HETATM    5  O   UNL     1      -8.002  17.413  65.794  1.00  0.00    -0.538 OA 
HETATM    6  C   UNL     1      -9.592  15.700  65.866  1.00  0.00    -0.385 A  
HETATM    7  C   UNL     1     -10.694  15.079  66.449  1.00  0.00    -0.322 A  
HETATM    8  H   UNL     1      -7.687  17.105  64.952  1.00  0.00     0.000 HD 
HETATM    9  C   UNL     1     -11.185  15.541  67.669  1.00  0.00    -0.291 A  
HETATM   10  C   UNL     1     -10.566  16.619  68.306  1.00  0.00    -0.338 A  
ENDBRANCH   2   3
TORSDOF 1
ENDMDL
MODEL       82
REMARK 921   NORMALIZED FREE ENERGY PREDICTED BY IDOCK:   -2.94 KCAL/MOL
REMARK 922        TOTAL FREE ENERGY PREDICTED BY IDOCK:   -3.16 KCAL/MOL
REMARK 923 INTER-LIGAND FREE ENERGY PREDICTED BY IDOCK:   -3.10 KCAL/MOL
REMARK 924 INTRA-LIGAND FREE ENERGY PREDICTED BY IDOCK:   -0.05 KCAL/MOL
REMARK 927      BINDING AFFINITY PREDICTED BY RF-SCORE:    0.00 PKD
ROOT
HETATM    1  C   UNL     1     -12.206  14.248  66.009  1.00  0.00    -0.404 C  
HETATM    2  O   UNL     1     -11.135  14.636  65.159  1.00  0.00    -0.336 OA 
ENDROOT
BRANCH   2   3
HETATM    3  C   UNL     1     -10.256  15.555  65.665  1.00  0.00    -0.376 A  
HETATM    4  C   UNL     1     -10.290  16.936  65.451  1.00  0.00    -0.104 A  
HETATM    5  O   UNL     1     -11.208  17.546  64.646  1.00  0.00    -0.934 OA 
HETATM    6  C   UNL     1      -9.315  17.770  66.001  1.00  0.00    -0.059 A  
HETATM    7  C   UNL     1      -8.265  17.223  66.734  1.00  0.00    -0.279 A  
HETATM    8  H   UNL     1     -11.231  18.484  64.500  1.00  0.00     0.000 HD 
HETATM    9  C   UNL     1      -8.201  15.844  66.930  1.00  0.00    -0.283 A  
HETATM   10  C   UNL     1      -9.193  15.018  66.397  1.00  0.00    -0.328 A  
ENDBRANCH   2   3
TORSDOF 1
ENDMDL
MODEL       83
REMARK 921   NORMALIZED FREE ENERGY PREDICTED BY IDOCK:   -2.91 KCAL/MOL
REMARK 922        TOTAL FREE ENERGY PREDICTED BY IDOCK:   -3.13 KCAL/MOL
REMARK 923 INTER-LIGAND FREE ENERGY PREDICTED BY IDOCK:   -3.07 KCAL/MOL
REMARK 924 INTRA-LIGAND FREE ENERGY PREDICTED BY IDOCK:   -0.05 KCAL/MOL
REMARK 927      BINDING AFFINITY PREDICTED BY RF-SCORE:    0.00 PKD
ROOT
HETATM    1  C   UNL     1     -10.657  19.666  66.837  1.00  0.00    -0.484 C  
HETATM    2  O   UNL     1      -9.520  19.182  67.539  1.00  0.00    -0.300 OA 
ENDROOT
BRANCH   2   3
HETATM    3  C   UNL     1      -8.298  19.453  66.983  1.00  0.00    -0.282 A  
HETATM    4  C   UNL     1      -7.563  18.604  66.152  1.00  0.00    -0.246 A  
HETATM    5  O   UNL     1      -7.967  17.343  65.823  1.00  0.00    -0.538 OA 
HETATM    6  C   UNL     1      -6.309  18.986  65.669  1.00  0.00    -0.286 A  
HETATM    7  C   UNL     1      -5.757  20.205  66.054  1.00  0.00    -0.190 A  
HETATM    8  H   UNL     1      -7.466  16.766  65.258  1.00  0.00     0.000 HD 
HETATM    9  C   UNL     1      -6.467  21.048  66.907  1.00  0.00    -0.393 A  
HETATM   10  C   UNL     1      -7.730  20.671  67.368  1.00  0.00    -0.355 A  
ENDBRANCH   2   3
TORSDOF 1
ENDMDL
MODEL       84
REMARK 921   NORMALIZED FREE ENERGY PREDICTED BY IDOCK:   -2.86 KCAL/MOL
REMARK 922        TOTAL FREE ENERGY PREDICTED BY IDOCK:   -3.07 KCAL/MOL
REMARK 923 INTER-LIGAND FREE ENERGY PREDICTED BY IDOCK:   -3.03 KCAL/MOL
REMARK 924 INTRA-LIGAND FREE ENERGY PREDICTED BY IDOCK:   -0.04 KCAL/MOL
REMARK 927      BINDING AFFINITY PREDICTED BY RF-SCORE:    0.00 PKD
ROOT
HETATM    1  C   UNL     1     -10.145   6.018  67.561  1.00  0.00    -0.159 C  
HETATM    2  O   UNL     1     -11.233   6.321  68.423  1.00  0.00    -0.335 OA 
ENDROOT
BRANCH   2   3
HETATM    3  C   UNL     1     -11.084   5.975  69.740  1.00  0.00    -0.406 A  
HETATM    4  C   UNL     1     -11.742   6.557  70.826  1.00  0.00    -0.366 A  
HETATM    5  O   UNL     1     -12.605   7.607  70.704  1.00  0.00    -0.529 OA 
HETATM    6  C   UNL     1     -11.482   6.134  72.131  1.00  0.00    -0.361 A  
HETATM    7  C   UNL     1     -10.522   5.153  72.365  1.00  0.00    -0.272 A  
HETATM    8  H   UNL     1     -13.053   8.003  71.443  1.00  0.00     0.000 HD 
HETATM    9  C   UNL     1      -9.836   4.585  71.293  1.00  0.00    -0.260 A  
HETATM   10  C   UNL     1     -10.118   4.996  69.989  1.00  0.00    -0.342 A  
ENDBRANCH   2   3
TORSDOF 1
ENDMDL
MODEL       85
REMARK 921   NORMALIZED FREE ENERGY PREDICTED BY IDOCK:   -2.86 KCAL/MOL
REMARK 922        TOTAL FREE ENERGY PREDICTED BY IDOCK:   -3.07 KCAL/MOL
REMARK 923 INTER-LIGAND FREE ENERGY PREDICTED BY IDOCK:   -3.03 KCAL/MOL
REMARK 924 INTRA-LIGAND FREE ENERGY PREDICTED BY IDOCK:   -0.04 KCAL/MOL
REMARK 927      BINDING AFFINITY PREDICTED BY RF-SCORE:    0.00 PKD
ROOT
HETATM    1  C   UNL     1     -12.652  14.036  65.544  1.00  0.00    -0.516 C  
HETATM    2  O   UNL     1     -12.240  14.291  66.880  1.00  0.00    -0.438 OA 
ENDROOT
BRANCH   2   3
HETATM    3  C   UNL     1     -10.963  14.755  67.049  1.00  0.00    -0.324 A  
HETATM    4  C   UNL     1     -10.145  14.537  68.160  1.00  0.00    -0.227 A  
HETATM    5  O   UNL     1     -10.552  13.851  69.267  1.00  0.00    -0.407 OA 
HETATM    6  C   UNL     1      -8.865  15.091  68.225  1.00  0.00    -0.172 A  
HETATM    7  C   UNL     1      -8.409  15.911  67.196  1.00  0.00    -0.231 A  
HETATM    8  H   UNL     1      -9.996  13.703  70.023  1.00  0.00     0.000 HD 
HETATM    9  C   UNL     1      -9.226  16.162  66.096  1.00  0.00    -0.382 A  
HETATM   10  C   UNL     1     -10.496  15.586  66.026  1.00  0.00    -0.335 A  
ENDBRANCH   2   3
TORSDOF 1
ENDMDL
MODEL       86
REMARK 921   NORMALIZED FREE ENERGY PREDICTED BY IDOCK:   -2.86 KCAL/MOL
REMARK 922        TOTAL FREE ENERGY PREDICTED BY IDOCK:   -3.07 KCAL/MOL
REMARK 923 INTER-LIGAND FREE ENERGY PREDICTED BY IDOCK:   -3.03 KCAL/MOL
REMARK 924 INTRA-LIGAND FREE ENERGY PREDICTED BY IDOCK:   -0.04 KCAL/MOL
REMARK 927      BINDING AFFINITY PREDICTED BY RF-SCORE:    0.00 PKD
ROOT
HETATM    1  C   UNL     1     -14.322   7.743  71.500  1.00  0.00    -0.447 C  
HETATM    2  O   UNL     1     -13.097   7.214  71.011  1.00  0.00    -0.305 OA 
ENDROOT
BRANCH   2   3
HETATM    3  C   UNL     1     -12.089   7.062  71.925  1.00  0.00    -0.323 A  
HETATM    4  C   UNL     1     -11.221   8.062  72.371  1.00  0.00    -0.369 A  
HETATM    5  O   UNL     1     -11.247   9.342  71.898  1.00  0.00    -0.370 OA 
HETATM    6  C   UNL     1     -10.209   7.774  73.290  1.00  0.00    -0.367 A  
HETATM    7  C   UNL     1     -10.025   6.468  73.735  1.00  0.00    -0.274 A  
HETATM    8  H   UNL     1     -10.657  10.022  72.201  1.00  0.00     0.000 HD 
HETATM    9  C   UNL     1     -10.864   5.454  73.274  1.00  0.00    -0.345 A  
HETATM   10  C   UNL     1     -11.889   5.753  72.374  1.00  0.00    -0.227 A  
ENDBRANCH   2   3
TORSDOF 1
ENDMDL
MODEL       87
REMARK 921   NORMALIZED FREE ENERGY PREDICTED BY IDOCK:   -2.85 KCAL/MOL
REMARK 922        TOTAL FREE ENERGY PREDICTED BY IDOCK:   -3.06 KCAL/MOL
REMARK 923 INTER-LIGAND FREE ENERGY PREDICTED BY IDOCK:   -3.01 KCAL/MOL
REMARK 924 INTRA-LIGAND FREE ENERGY PREDICTED BY IDOCK:   -0.05 KCAL/MOL
REMARK 927      BINDING AFFINITY PREDICTED BY RF-SCORE:    0.00 PKD
ROOT
HETATM    1  C   UNL     1     -14.351   7.952  72.027  1.00  0.00    -0.379 C  
HETATM    2  O   UNL     1     -13.243   7.294  71.426  1.00  0.00    -0.380 OA 
ENDROOT
BRANCH   2   3
HETATM    3  C   UNL     1     -12.000   7.710  71.820  1.00  0.00    -0.299 A  
HETATM    4  C   UNL     1     -11.158   8.576  71.118  1.00  0.00    -0.260 A  
HETATM    5  O   UNL     1     -11.467   9.091  69.893  1.00  0.00    -0.441 OA 
HETATM    6  C   UNL     1      -9.894   8.903  71.613  1.00  0.00    -0.387 A  
HETATM    7  C   UNL     1      -9.440   8.326  72.797  1.00  0.00    -0.343 A  
HETATM    8  H   UNL     1     -10.894   9.680  69.415  1.00  0.00     0.000 HD 
HETATM    9  C   UNL     1     -10.257   7.436  73.491  1.00  0.00    -0.400 A  
HETATM   10  C   UNL     1     -11.530   7.132  73.003  1.00  0.00    -0.121 A  
ENDBRANCH   2   3
TORSDOF 1
ENDMDL
MODEL       88
REMARK 921   NORMALIZED FREE ENERGY PREDICTED BY IDOCK:   -2.84 KCAL/MOL
REMARK 922        TOTAL FREE ENERGY PREDICTED BY IDOCK:   -3.05 KCAL/MOL
REMARK 923 INTER-LIGAND FREE ENERGY PREDICTED BY IDOCK:   -3.47 KCAL/MOL
REMARK 924 INTRA-LIGAND FREE ENERGY PREDICTED BY IDOCK:    0.42 KCAL/MOL
REMARK 927      BINDING AFFINITY PREDICTED BY RF-SCORE:    0.00 PKD
ROOT
HETATM    1  C   UNL     1     -13.429  13.905  72.567  1.00  0.00    -0.572 C  
HETATM    2  O   UNL     1     -13.338  13.710  71.162  1.00  0.00    -0.238 OA 
ENDROOT
BRANCH   2   3
HETATM    3  C   UNL     1     -12.646  12.606  70.742  1.00  0.00    -0.217 A  
HETATM    4  C   UNL     1     -12.703  11.331  71.309  1.00  0.00    -0.405 A  
HETATM    5  O   UNL     1     -13.444  11.035  72.416  1.00  0.00    -0.591 OA 
HETATM    6  C   UNL     1     -11.923  10.288  70.805  1.00  0.00    -0.456 A  
HETATM    7  C   UNL     1     -11.040  10.526  69.754  1.00  0.00    -0.354 A  
HETATM    8  H   UNL     1     -13.482  10.168  72.802  1.00  0.00     0.000 HD 
HETATM    9  C   UNL     1     -10.951  11.801  69.199  1.00  0.00    -0.261 A  
HETATM   10  C   UNL     1     -11.751  12.833  69.693  1.00  0.00    -0.372 A  
ENDBRANCH   2   3
TORSDOF 1
ENDMDL
MODEL       89
REMARK 921   NORMALIZED FREE ENERGY PREDICTED BY IDOCK:   -2.84 KCAL/MOL
REMARK 922        TOTAL FREE ENERGY PREDICTED BY IDOCK:   -3.04 KCAL/MOL
REMARK 923 INTER-LIGAND FREE ENERGY PREDICTED BY IDOCK:   -2.99 KCAL/MOL
REMARK 924 INTRA-LIGAND FREE ENERGY PREDICTED BY IDOCK:   -0.05 KCAL/MOL
REMARK 927      BINDING AFFINITY PREDICTED BY RF-SCORE:    0.00 PKD
ROOT
HETATM    1  C   UNL     1     -10.660  19.613  66.452  1.00  0.00    -0.486 C  
HETATM    2  O   UNL     1     -10.502  19.386  67.846  1.00  0.00    -0.410 OA 
ENDROOT
BRANCH   2   3
HETATM    3  C   UNL     1      -9.625  18.399  68.209  1.00  0.00    -0.334 A  
HETATM    4  C   UNL     1      -9.952  17.073  68.503  1.00  0.00    -0.293 A  
HETATM    5  O   UNL     1     -11.231  16.600  68.511  1.00  0.00    -0.344 OA 
HETATM    6  C   UNL     1      -8.966  16.163  68.891  1.00  0.00    -0.247 A  
HETATM    7  C   UNL     1      -7.647  16.586  69.034  1.00  0.00    -0.233 A  
HETATM    8  H   UNL     1     -11.454  15.698  68.711  1.00  0.00     0.000 HD 
HETATM    9  C   UNL     1      -7.312  17.913  68.773  1.00  0.00    -0.271 A  
HETATM   10  C   UNL     1      -8.299  18.812  68.362  1.00  0.00    -0.373 A  
ENDBRANCH   2   3
TORSDOF 1
ENDMDL
MODEL       90
REMARK 921   NORMALIZED FREE ENERGY PREDICTED BY IDOCK:   -2.84 KCAL/MOL
REMARK 922        TOTAL FREE ENERGY PREDICTED BY IDOCK:   -3.04 KCAL/MOL
REMARK 923 INTER-LIGAND FREE ENERGY PREDICTED BY IDOCK:   -2.99 KCAL/MOL
REMARK 924 INTRA-LIGAND FREE ENERGY PREDICTED BY IDOCK:   -0.05 KCAL/MOL
REMARK 927      BINDING AFFINITY PREDICTED BY RF-SCORE:    0.00 PKD
ROOT
HETATM    1  C   UNL     1      -8.645   7.955  73.762  1.00  0.00    -0.265 C  
HETATM    2  O   UNL     1      -9.249   8.686  72.703  1.00  0.00    -0.299 OA 
ENDROOT
BRANCH   2   3
HETATM    3  C   UNL     1     -10.054   7.977  71.853  1.00  0.00    -0.203 A  
HETATM    4  C   UNL     1     -11.412   7.704  72.037  1.00  0.00    -0.283 A  
HETATM    5  O   UNL     1     -12.109   8.085  73.147  1.00  0.00    -0.656 OA 
HETATM    6  C   UNL     1     -12.121   6.942  71.106  1.00  0.00    -0.428 A  
HETATM    7  C   UNL     1     -11.464   6.403  70.003  1.00  0.00    -0.496 A  
HETATM    8  H   UNL     1     -13.032   7.899  73.272  1.00  0.00     0.000 HD 
HETATM    9  C   UNL     1     -10.103   6.642  69.823  1.00  0.00    -0.204 A  
HETATM   10  C   UNL     1      -9.405   7.425  70.745  1.00  0.00    -0.159 A  
ENDBRANCH   2   3
TORSDOF 1
ENDMDL
MODEL       91
REMARK 921   NORMALIZED FREE ENERGY PREDICTED BY IDOCK:   -2.82 KCAL/MOL
REMARK 922        TOTAL FREE ENERGY PREDICTED BY IDOCK:   -3.03 KCAL/MOL
REMARK 923 INTER-LIGAND FREE ENERGY PREDICTED BY IDOCK:   -2.98 KCAL/MOL
REMARK 924 INTRA-LIGAND FREE ENERGY PREDICTED BY IDOCK:   -0.04 KCAL/MOL
REMARK 927      BINDING AFFINITY PREDICTED BY RF-SCORE:    0.00 PKD
ROOT
HETATM    1  C   UNL     1      -8.119  15.991  69.088  1.00  0.00    -0.238 C  
HETATM    2  O   UNL     1      -9.473  16.389  69.257  1.00  0.00    -0.246 OA 
ENDROOT
BRANCH   2   3
HETATM    3  C   UNL     1     -10.387  15.386  69.440  1.00  0.00    -0.258 A  
HETATM    4  C   UNL     1     -11.440  15.386  70.358  1.00  0.00    -0.330 A  
HETATM    5  O   UNL     1     -11.662  16.400  71.244  1.00  0.00    -0.621 OA 
HETATM    6  C   UNL     1     -12.292  14.285  70.470  1.00  0.00    -0.430 A  
HETATM    7  C   UNL     1     -12.067  13.150  69.694  1.00  0.00    -0.317 A  
HETATM    8  H   UNL     1     -12.378  16.400  71.868  1.00  0.00     0.000 HD 
HETATM    9  C   UNL     1     -11.002  13.125  68.796  1.00  0.00    -0.298 A  
HETATM   10  C   UNL     1     -10.168  14.239  68.673  1.00  0.00    -0.246 A  
ENDBRANCH   2   3
TORSDOF 1
ENDMDL
MODEL       92
REMARK 921   NORMALIZED FREE ENERGY PREDICTED BY IDOCK:   -2.80 KCAL/MOL
REMARK 922        TOTAL FREE ENERGY PREDICTED BY IDOCK:   -3.01 KCAL/MOL
REMARK 923 INTER-LIGAND FREE ENERGY PREDICTED BY IDOCK:   -2.97 KCAL/MOL
REMARK 924 INTRA-LIGAND FREE ENERGY PREDICTED BY IDOCK:   -0.03 KCAL/MOL
REMARK 927      BINDING AFFINITY PREDICTED BY RF-SCORE:    0.00 PKD
ROOT
HETATM    1  C   UNL     1     -13.997   8.418  71.583  1.00  0.00    -0.399 C  
HETATM    2  O   UNL     1     -13.557   7.069  71.665  1.00  0.00    -0.358 OA 
ENDROOT
BRANCH   2   3
HETATM    3  C   UNL     1     -12.225   6.846  71.446  1.00  0.00    -0.372 A  
HETATM    4  C   UNL     1     -11.197   7.006  72.378  1.00  0.00    -0.268 A  
HETATM    5  O   UNL     1     -11.401   7.464  73.647  1.00  0.00    -0.564 OA 
HETATM    6  C   UNL     1      -9.866   6.773  72.023  1.00  0.00    -0.166 A  
HETATM    7  C   UNL     1      -9.547   6.423  70.714  1.00  0.00    -0.193 A  
HETATM    8  H   UNL     1     -10.702   7.573  74.281  1.00  0.00     0.000 HD 
HETATM    9  C   UNL     1     -10.559   6.290  69.766  1.00  0.00    -0.323 A  
HETATM   10  C   UNL     1     -11.890   6.501  70.133  1.00  0.00    -0.331 A  
ENDBRANCH   2   3
TORSDOF 1
ENDMDL
MODEL       93
REMARK 921   NORMALIZED FREE ENERGY PREDICTED BY IDOCK:   -2.80 KCAL/MOL
REMARK 922        TOTAL FREE ENERGY PREDICTED BY IDOCK:   -3.00 KCAL/MOL
REMARK 923 INTER-LIGAND FREE ENERGY PREDICTED BY IDOCK:   -2.96 KCAL/MOL
REMARK 924 INTRA-LIGAND FREE ENERGY PREDICTED BY IDOCK:   -0.04 KCAL/MOL
REMARK 927      BINDING AFFINITY PREDICTED BY RF-SCORE:    0.00 PKD
ROOT
HETATM    1  C   UNL     1     -11.565  15.373  71.239  1.00  0.00    -0.386 C  
HETATM    2  O   UNL     1     -11.625  16.327  70.186  1.00  0.00    -0.289 OA 
ENDROOT
BRANCH   2   3
HETATM    3  C   UNL     1     -11.304  15.876  68.934  1.00  0.00    -0.377 A  
HETATM    4  C   UNL     1     -10.405  16.472  68.047  1.00  0.00    -0.294 A  
HETATM    5  O   UNL     1      -9.753  17.641  68.313  1.00  0.00    -0.286 OA 
HETATM    6  C   UNL     1     -10.184  15.929  66.779  1.00  0.00    -0.283 A  
HETATM    7  C   UNL     1     -10.899  14.807  66.369  1.00  0.00    -0.322 A  
HETATM    8  H   UNL     1      -9.142  18.047  67.710  1.00  0.00     0.000 HD 
HETATM    9  C   UNL     1     -11.822  14.219  67.233  1.00  0.00    -0.444 A  
HETATM   10  C   UNL     1     -12.021  14.754  68.508  1.00  0.00    -0.284 A  
ENDBRANCH   2   3
TORSDOF 1
ENDMDL
MODEL       94
REMARK 921   NORMALIZED FREE ENERGY PREDICTED BY IDOCK:   -2.79 KCAL/MOL
REMARK 922        TOTAL FREE ENERGY PREDICTED BY IDOCK:   -2.99 KCAL/MOL
REMARK 923 INTER-LIGAND FREE ENERGY PREDICTED BY IDOCK:   -2.97 KCAL/MOL
REMARK 924 INTRA-LIGAND FREE ENERGY PREDICTED BY IDOCK:   -0.03 KCAL/MOL
REMARK 927      BINDING AFFINITY PREDICTED BY RF-SCORE:    0.00 PKD
ROOT
HETATM    1  C   UNL     1     -10.654  19.658  66.254  1.00  0.00    -0.482 C  
HETATM    2  O   UNL     1     -10.766  19.267  67.616  1.00  0.00    -0.452 OA 
ENDROOT
BRANCH   2   3
HETATM    3  C   UNL     1      -9.916  18.281  68.040  1.00  0.00    -0.347 A  
HETATM    4  C   UNL     1      -8.577  18.445  68.404  1.00  0.00    -0.325 A  
HETATM    5  O   UNL     1      -7.922  19.640  68.331  1.00  0.00    -0.328 OA 
HETATM    6  C   UNL     1      -7.802  17.351  68.794  1.00  0.00    -0.250 A  
HETATM    7  C   UNL     1      -8.350  16.070  68.779  1.00  0.00    -0.216 A  
HETATM    8  H   UNL     1      -7.011  19.751  68.577  1.00  0.00     0.000 HD 
HETATM    9  C   UNL     1      -9.676  15.889  68.390  1.00  0.00    -0.214 A  
HETATM   10  C   UNL     1     -10.452  16.990  68.023  1.00  0.00    -0.353 A  
ENDBRANCH   2   3
TORSDOF 1
ENDMDL
MODEL       95
REMARK 921   NORMALIZED FREE ENERGY PREDICTED BY IDOCK:   -2.79 KCAL/MOL
REMARK 922        TOTAL FREE ENERGY PREDICTED BY IDOCK:   -2.99 KCAL/MOL
REMARK 923 INTER-LIGAND FREE ENERGY PREDICTED BY IDOCK:   -2.97 KCAL/MOL
REMARK 924 INTRA-LIGAND FREE ENERGY PREDICTED BY IDOCK:   -0.02 KCAL/MOL
REMARK 927      BINDING AFFINITY PREDICTED BY RF-SCORE:    0.00 PKD
ROOT
HETATM    1  C   UNL     1      -9.742  14.652  66.497  1.00  0.00    -0.280 C  
HETATM    2  O   UNL     1     -11.100  14.318  66.753  1.00  0.00    -0.301 OA 
ENDROOT
BRANCH   2   3
HETATM    3  C   UNL     1     -11.323  13.320  67.663  1.00  0.00    -0.296 A  
HETATM    4  C   UNL     1     -11.175  11.949  67.438  1.00  0.00    -0.305 A  
HETATM    5  O   UNL     1     -10.825  11.422  66.230  1.00  0.00    -0.272 OA 
HETATM    6  C   UNL     1     -11.462  11.024  68.444  1.00  0.00    -0.378 A  
HETATM    7  C   UNL     1     -11.948  11.462  69.674  1.00  0.00    -0.416 A  
HETATM    8  H   UNL     1     -10.725  10.490  66.076  1.00  0.00     0.000 HD 
HETATM    9  C   UNL     1     -12.129  12.825  69.902  1.00  0.00    -0.329 A  
HETATM   10  C   UNL     1     -11.817  13.747  68.899  1.00  0.00    -0.396 A  
ENDBRANCH   2   3
TORSDOF 1
ENDMDL
MODEL       96
REMARK 921   NORMALIZED FREE ENERGY PREDICTED BY IDOCK:   -2.79 KCAL/MOL
REMARK 922        TOTAL FREE ENERGY PREDICTED BY IDOCK:   -2.99 KCAL/MOL
REMARK 923 INTER-LIGAND FREE ENERGY PREDICTED BY IDOCK:   -3.01 KCAL/MOL
REMARK 924 INTRA-LIGAND FREE ENERGY PREDICTED BY IDOCK:    0.01 KCAL/MOL
REMARK 927      BINDING AFFINITY PREDICTED BY RF-SCORE:    0.00 PKD
ROOT
HETATM    1  C   UNL     1     -12.093  14.833  65.489  1.00  0.00    -0.137 C  
HETATM    2  O   UNL     1     -11.141  14.293  66.395  1.00  0.00    -0.313 OA 
ENDROOT
BRANCH   2   3
HETATM    3  C   UNL     1     -11.452  14.368  67.726  1.00  0.00    -0.336 A  
HETATM    4  C   UNL     1     -11.456  15.525  68.509  1.00  0.00    -0.361 A  
HETATM    5  O   UNL     1     -11.092  16.751  68.035  1.00  0.00    -0.336 OA 
HETATM    6  C   UNL     1     -11.766  15.466  69.870  1.00  0.00    -0.357 A  
HETATM    7  C   UNL     1     -12.028  14.238  70.471  1.00  0.00    -0.402 A  
HETATM    8  H   UNL     1     -11.095  17.538  68.568  1.00  0.00     0.000 HD 
HETATM    9  C   UNL     1     -11.997  13.072  69.708  1.00  0.00    -0.377 A  
HETATM   10  C   UNL     1     -11.710  13.140  68.343  1.00  0.00    -0.386 A  
ENDBRANCH   2   3
TORSDOF 1
ENDMDL
MODEL       97
REMARK 921   NORMALIZED FREE ENERGY PREDICTED BY IDOCK:   -2.78 KCAL/MOL
REMARK 922        TOTAL FREE ENERGY PREDICTED BY IDOCK:   -2.98 KCAL/MOL
REMARK 923 INTER-LIGAND FREE ENERGY PREDICTED BY IDOCK:   -2.94 KCAL/MOL
REMARK 924 INTRA-LIGAND FREE ENERGY PREDICTED BY IDOCK:   -0.04 KCAL/MOL
REMARK 927      BINDING AFFINITY PREDICTED BY RF-SCORE:    0.00 PKD
ROOT
HETATM    1  C   UNL     1     -11.921   8.867  71.443  1.00  0.00    -0.311 C  
HETATM    2  O   UNL     1     -11.414  10.187  71.295  1.00  0.00    -0.353 OA 
ENDROOT
BRANCH   2   3
HETATM    3  C   UNL     1     -11.395  10.694  70.024  1.00  0.00    -0.324 A  
HETATM    4  C   UNL     1     -11.825  11.966  69.636  1.00  0.00    -0.337 A  
HETATM    5  O   UNL     1     -12.377  12.866  70.500  1.00  0.00    -0.342 OA 
HETATM    6  C   UNL     1     -11.781  12.358  68.296  1.00  0.00    -0.398 A  
HETATM    7  C   UNL     1     -11.349  11.461  67.323  1.00  0.00    -0.347 A  
HETATM    8  H   UNL     1     -12.670  13.730  70.236  1.00  0.00     0.000 HD 
HETATM    9  C   UNL     1     -10.946  10.179  67.692  1.00  0.00    -0.331 A  
HETATM   10  C   UNL     1     -10.970   9.801  69.036  1.00  0.00    -0.193 A  
ENDBRANCH   2   3
TORSDOF 1
ENDMDL
MODEL       98
REMARK 921   NORMALIZED FREE ENERGY PREDICTED BY IDOCK:   -2.76 KCAL/MOL
REMARK 922        TOTAL FREE ENERGY PREDICTED BY IDOCK:   -2.96 KCAL/MOL
REMARK 923 INTER-LIGAND FREE ENERGY PREDICTED BY IDOCK:   -2.91 KCAL/MOL
REMARK 924 INTRA-LIGAND FREE ENERGY PREDICTED BY IDOCK:   -0.05 KCAL/MOL
REMARK 927      BINDING AFFINITY PREDICTED BY RF-SCORE:    0.00 PKD
ROOT
HETATM    1  C   UNL     1     -10.618   6.657  66.886  1.00  0.00    -0.306 C  
HETATM    2  O   UNL     1     -10.230   7.764  67.689  1.00  0.00    -0.187 OA 
ENDROOT
BRANCH   2   3
HETATM    3  C   UNL     1     -10.330   9.002  67.112  1.00  0.00    -0.272 A  
HETATM    4  C   UNL     1     -11.021  10.100  67.630  1.00  0.00    -0.268 A  
HETATM    5  O   UNL     1     -11.742  10.053  68.787  1.00  0.00    -0.501 OA 
HETATM    6  C   UNL     1     -11.073  11.307  66.930  1.00  0.00    -0.339 A  
HETATM    7  C   UNL     1     -10.472  11.412  65.678  1.00  0.00    -0.316 A  
HETATM    8  H   UNL     1     -12.213  10.800  69.139  1.00  0.00     0.000 HD 
HETATM    9  C   UNL     1      -9.805  10.315  65.136  1.00  0.00    -0.389 A  
HETATM   10  C   UNL     1      -9.736   9.117  65.852  1.00  0.00    -0.336 A  
ENDBRANCH   2   3
TORSDOF 1
ENDMDL
MODEL       99
REMARK 921   NORMALIZED FREE ENERGY PREDICTED BY IDOCK:   -2.75 KCAL/MOL
REMARK 922        TOTAL FREE ENERGY PREDICTED BY IDOCK:   -2.95 KCAL/MOL
REMARK 923 INTER-LIGAND FREE ENERGY PREDICTED BY IDOCK:   -2.89 KCAL/MOL
REMARK 924 INTRA-LIGAND FREE ENERGY PREDICTED BY IDOCK:   -0.05 KCAL/MOL
REMARK 927      BINDING AFFINITY PREDICTED BY RF-SCORE:    0.00 PKD
ROOT
HETATM    1  C   UNL     1      -9.550  10.442  68.284  1.00  0.00    -0.144 C  
HETATM    2  O   UNL     1      -9.159  11.670  67.684  1.00  0.00    -0.166 OA 
ENDROOT
BRANCH   2   3
HETATM    3  C   UNL     1     -10.169  12.503  67.284  1.00  0.00    -0.216 A  
HETATM    4  C   UNL     1     -10.574  13.676  67.926  1.00  0.00    -0.249 A  
HETATM    5  O   UNL     1     -10.024  14.120  69.093  1.00  0.00    -0.412 OA 
HETATM    6  C   UNL     1     -11.642  14.429  67.434  1.00  0.00    -0.398 A  
HETATM    7  C   UNL     1     -12.348  13.987  66.318  1.00  0.00    -0.482 A  
HETATM    8  H   UNL     1     -10.299  14.918  69.530  1.00  0.00     0.000 HD 
HETATM    9  C   UNL     1     -11.974  12.803  65.685  1.00  0.00    -0.503 A  
HETATM   10  C   UNL     1     -10.890  12.068  66.169  1.00  0.00    -0.325 A  
ENDBRANCH   2   3
TORSDOF 1
ENDMDL
MODEL      100
REMARK 921   NORMALIZED FREE ENERGY PREDICTED BY IDOCK:   -2.74 KCAL/MOL
REMARK 922        TOTAL FREE ENERGY PREDICTED BY IDOCK:   -2.94 KCAL/MOL
REMARK 923 INTER-LIGAND FREE ENERGY PREDICTED BY IDOCK:   -2.90 KCAL/MOL
REMARK 924 INTRA-LIGAND FREE ENERGY PREDICTED BY IDOCK:   -0.04 KCAL/MOL
REMARK 927      BINDING AFFINITY PREDICTED BY RF-SCORE:    0.00 PKD
ROOT
HETATM    1  C   UNL     1      -9.461  16.165  66.746  1.00  0.00    -0.238 C  
HETATM    2  O   UNL     1      -9.517  17.446  66.132  1.00  0.00    -0.409 OA 
ENDROOT
BRANCH   2   3
HETATM    3  C   UNL     1      -8.560  18.348  66.512  1.00  0.00    -0.273 A  
HETATM    4  C   UNL     1      -8.664  19.740  66.443  1.00  0.00    -0.368 A  
HETATM    5  O   UNL     1      -9.750  20.385  65.928  1.00  0.00    -0.652 OA 
HETATM    6  C   UNL     1      -7.601  20.557  66.836  1.00  0.00    -0.327 A  
HETATM    7  C   UNL     1      -6.404  19.985  67.258  1.00  0.00    -0.224 A  
HETATM    8  H   UNL     1      -9.820  21.332  65.881  1.00  0.00     0.000 HD 
HETATM    9  C   UNL     1      -6.276  18.598  67.303  1.00  0.00    -0.183 A  
HETATM   10  C   UNL     1      -7.351  17.787  66.931  1.00  0.00    -0.229 A  
ENDBRANCH   2   3
TORSDOF 1
ENDMDL
MODEL      101
REMARK 921   NORMALIZED FREE ENERGY PREDICTED BY IDOCK:   -2.72 KCAL/MOL
REMARK 922        TOTAL FREE ENERGY PREDICTED BY IDOCK:   -2.92 KCAL/MOL
REMARK 923 INTER-LIGAND FREE ENERGY PREDICTED BY IDOCK:   -2.88 KCAL/MOL
REMARK 924 INTRA-LIGAND FREE ENERGY PREDICTED BY IDOCK:   -0.04 KCAL/MOL
REMARK 927      BINDING AFFINITY PREDICTED BY RF-SCORE:    0.00 PKD
ROOT
HETATM    1  C   UNL     1     -12.649  14.079  65.616  1.00  0.00    -0.512 C  
HETATM    2  O   UNL     1     -11.230  14.047  65.701  1.00  0.00    -0.303 OA 
ENDROOT
BRANCH   2   3
HETATM    3  C   UNL     1     -10.694  13.206  66.640  1.00  0.00    -0.279 A  
HETATM    4  C   UNL     1      -9.375  13.216  67.099  1.00  0.00    -0.235 A  
HETATM    5  O   UNL     1      -8.419  14.061  66.615  1.00  0.00    -0.429 OA 
HETATM    6  C   UNL     1      -8.939  12.283  68.043  1.00  0.00    -0.190 A  
HETATM    7  C   UNL     1      -9.811  11.300  68.503  1.00  0.00    -0.198 A  
HETATM    8  H   UNL     1      -7.522  14.067  66.926  1.00  0.00     0.000 HD 
HETATM    9  C   UNL     1     -11.121  11.260  68.031  1.00  0.00    -0.325 A  
HETATM   10  C   UNL     1     -11.557  12.210  67.104  1.00  0.00    -0.405 A  
ENDBRANCH   2   3
TORSDOF 1
ENDMDL
MODEL      102
REMARK 921   NORMALIZED FREE ENERGY PREDICTED BY IDOCK:   -2.71 KCAL/MOL
REMARK 922        TOTAL FREE ENERGY PREDICTED BY IDOCK:   -2.92 KCAL/MOL
REMARK 923 INTER-LIGAND FREE ENERGY PREDICTED BY IDOCK:   -2.86 KCAL/MOL
REMARK 924 INTRA-LIGAND FREE ENERGY PREDICTED BY IDOCK:   -0.05 KCAL/MOL
REMARK 927      BINDING AFFINITY PREDICTED BY RF-SCORE:    0.00 PKD
ROOT
HETATM    1  C   UNL     1      -9.424  10.386  66.719  1.00  0.00    -0.166 C  
HETATM    2  O   UNL     1      -9.666  11.140  67.900  1.00  0.00    -0.168 OA 
ENDROOT
BRANCH   2   3
HETATM    3  C   UNL     1     -10.006  10.429  69.020  1.00  0.00    -0.214 A  
HETATM    4  C   UNL     1     -11.299  10.228  69.509  1.00  0.00    -0.241 A  
HETATM    5  O   UNL     1     -12.410  10.775  68.937  1.00  0.00    -0.788 OA 
HETATM    6  C   UNL     1     -11.515   9.505  70.684  1.00  0.00    -0.362 A  
HETATM    7  C   UNL     1     -10.431   9.014  71.408  1.00  0.00    -0.395 A  
HETATM    8  H   UNL     1     -13.290  10.639  69.270  1.00  0.00     0.000 HD 
HETATM    9  C   UNL     1      -9.134   9.233  70.947  1.00  0.00    -0.288 A  
HETATM   10  C   UNL     1      -8.926   9.938  69.759  1.00  0.00    -0.242 A  
ENDBRANCH   2   3
TORSDOF 1
ENDMDL
MODEL      103
REMARK 921   NORMALIZED FREE ENERGY PREDICTED BY IDOCK:   -2.71 KCAL/MOL
REMARK 922        TOTAL FREE ENERGY PREDICTED BY IDOCK:   -2.91 KCAL/MOL
REMARK 923 INTER-LIGAND FREE ENERGY PREDICTED BY IDOCK:   -2.86 KCAL/MOL
REMARK 924 INTRA-LIGAND FREE ENERGY PREDICTED BY IDOCK:   -0.06 KCAL/MOL
REMARK 927      BINDING AFFINITY PREDICTED BY RF-SCORE:    0.00 PKD
ROOT
HETATM    1  C   UNL     1      -9.077   7.260  68.772  1.00  0.00    -0.127 C  
HETATM    2  O   UNL     1     -10.372   7.839  68.679  1.00  0.00    -0.199 OA 
ENDROOT
BRANCH   2   3
HETATM    3  C   UNL     1     -11.029   8.058  69.859  1.00  0.00    -0.172 A  
HETATM    4  C   UNL     1     -11.026   9.243  70.599  1.00  0.00    -0.276 A  
HETATM    5  O   UNL     1     -10.304  10.345  70.245  1.00  0.00    -0.434 OA 
HETATM    6  C   UNL     1     -11.717   9.333  71.809  1.00  0.00    -0.456 A  
HETATM    7  C   UNL     1     -12.380   8.219  72.316  1.00  0.00    -0.410 A  
HETATM    8  H   UNL     1     -10.301  11.151  70.748  1.00  0.00     0.000 HD 
HETATM    9  C   UNL     1     -12.367   7.021  71.603  1.00  0.00    -0.407 A  
HETATM   10  C   UNL     1     -11.694   6.945  70.382  1.00  0.00    -0.377 A  
ENDBRANCH   2   3
TORSDOF 1
ENDMDL
MODEL      104
REMARK 921   NORMALIZED FREE ENERGY PREDICTED BY IDOCK:   -2.69 KCAL/MOL
REMARK 922        TOTAL FREE ENERGY PREDICTED BY IDOCK:   -2.89 KCAL/MOL
REMARK 923 INTER-LIGAND FREE ENERGY PREDICTED BY IDOCK:   -2.84 KCAL/MOL
REMARK 924 INTRA-LIGAND FREE ENERGY PREDICTED BY IDOCK:   -0.05 KCAL/MOL
REMARK 927      BINDING AFFINITY PREDICTED BY RF-SCORE:    0.00 PKD
ROOT
HETATM    1  C   UNL     1      -9.771   5.602  70.594  1.00  0.00    -0.180 C  
HETATM    2  O   UNL     1     -10.054   6.325  71.785  1.00  0.00    -0.185 OA 
ENDROOT
BRANCH   2   3
HETATM    3  C   UNL     1     -10.951   7.354  71.677  1.00  0.00    -0.225 A  
HETATM    4  C   UNL     1     -10.641   8.713  71.588  1.00  0.00    -0.303 A  
HETATM    5  O   UNL     1      -9.366   9.196  71.648  1.00  0.00    -0.302 OA 
HETATM    6  C   UNL     1     -11.652   9.674  71.510  1.00  0.00    -0.451 A  
HETATM    7  C   UNL     1     -12.987   9.285  71.569  1.00  0.00    -0.429 A  
HETATM    8  H   UNL     1      -9.155  10.121  71.588  1.00  0.00     0.000 HD 
HETATM    9  C   UNL     1     -13.311   7.935  71.688  1.00  0.00    -0.374 A  
HETATM   10  C   UNL     1     -12.295   6.977  71.742  1.00  0.00    -0.391 A  
ENDBRANCH   2   3
TORSDOF 1
ENDMDL
MODEL      105
REMARK 921   NORMALIZED FREE ENERGY PREDICTED BY IDOCK:   -2.63 KCAL/MOL
REMARK 922        TOTAL FREE ENERGY PREDICTED BY IDOCK:   -2.83 KCAL/MOL
REMARK 923 INTER-LIGAND FREE ENERGY PREDICTED BY IDOCK:   -2.77 KCAL/MOL
REMARK 924 INTRA-LIGAND FREE ENERGY PREDICTED BY IDOCK:   -0.06 KCAL/MOL
REMARK 927      BINDING AFFINITY PREDICTED BY RF-SCORE:    0.00 PKD
ROOT
HETATM    1  C   UNL     1     -11.236   6.341  68.902  1.00  0.00    -0.309 C  
HETATM    2  O   UNL     1     -10.810   5.609  70.044  1.00  0.00    -0.325 OA 
ENDROOT
BRANCH   2   3
HETATM    3  C   UNL     1     -10.445   6.344  71.139  1.00  0.00    -0.221 A  
HETATM    4  C   UNL     1     -11.246   6.627  72.249  1.00  0.00    -0.267 A  
HETATM    5  O   UNL     1     -12.547   6.231  72.354  1.00  0.00    -0.549 OA 
HETATM    6  C   UNL     1     -10.765   7.417  73.296  1.00  0.00    -0.441 A  
HETATM    7  C   UNL     1      -9.490   7.972  73.219  1.00  0.00    -0.336 A  
HETATM    8  H   UNL     1     -13.092   6.423  73.108  1.00  0.00     0.000 HD 
HETATM    9  C   UNL     1      -8.692   7.723  72.104  1.00  0.00    -0.169 A  
HETATM   10  C   UNL     1      -9.170   6.913  71.072  1.00  0.00    -0.156 A  
ENDBRANCH   2   3
TORSDOF 1
ENDMDL
MODEL      106
REMARK 921   NORMALIZED FREE ENERGY PREDICTED BY IDOCK:   -2.63 KCAL/MOL
REMARK 922        TOTAL FREE ENERGY PREDICTED BY IDOCK:   -2.82 KCAL/MOL
REMARK 923 INTER-LIGAND FREE ENERGY PREDICTED BY IDOCK:   -2.78 KCAL/MOL
REMARK 924 INTRA-LIGAND FREE ENERGY PREDICTED BY IDOCK:   -0.05 KCAL/MOL
REMARK 927      BINDING AFFINITY PREDICTED BY RF-SCORE:    0.00 PKD
ROOT
HETATM    1  C   UNL     1      -9.006   4.330  70.888  1.00  0.00    -0.109 C  
HETATM    2  O   UNL     1      -9.229   5.629  70.356  1.00  0.00    -0.147 OA 
ENDROOT
BRANCH   2   3
HETATM    3  C   UNL     1     -10.138   6.411  71.015  1.00  0.00    -0.182 A  
HETATM    4  C   UNL     1     -11.393   6.799  70.538  1.00  0.00    -0.343 A  
HETATM    5  O   UNL     1     -11.857   6.471  69.298  1.00  0.00    -0.608 OA 
HETATM    6  C   UNL     1     -12.223   7.627  71.297  1.00  0.00    -0.339 A  
HETATM    7  C   UNL     1     -11.782   8.116  72.525  1.00  0.00    -0.457 A  
HETATM    8  H   UNL     1     -12.710   6.735  68.973  1.00  0.00     0.000 HD 
HETATM    9  C   UNL     1     -10.520   7.762  72.999  1.00  0.00    -0.432 A  
HETATM   10  C   UNL     1      -9.705   6.914  72.245  1.00  0.00    -0.159 A  
ENDBRANCH   2   3
TORSDOF 1
ENDMDL
MODEL      107
REMARK 921   NORMALIZED FREE ENERGY PREDICTED BY IDOCK:   -2.61 KCAL/MOL
REMARK 922        TOTAL FREE ENERGY PREDICTED BY IDOCK:   -2.81 KCAL/MOL
REMARK 923 INTER-LIGAND FREE ENERGY PREDICTED BY IDOCK:   -2.76 KCAL/MOL
REMARK 924 INTRA-LIGAND FREE ENERGY PREDICTED BY IDOCK:   -0.05 KCAL/MOL
REMARK 927      BINDING AFFINITY PREDICTED BY RF-SCORE:    0.00 PKD
ROOT
HETATM    1  C   UNL     1     -10.337  17.478  67.112  1.00  0.00    -0.330 C  
HETATM    2  O   UNL     1     -10.766  16.289  66.461  1.00  0.00    -0.284 OA 
ENDROOT
BRANCH   2   3
HETATM    3  C   UNL     1     -10.475  15.109  67.091  1.00  0.00    -0.280 A  
HETATM    4  C   UNL     1     -11.242  14.491  68.082  1.00  0.00    -0.284 A  
HETATM    5  O   UNL     1     -12.385  15.034  68.591  1.00  0.00    -0.585 OA 
HETATM    6  C   UNL     1     -10.822  13.297  68.671  1.00  0.00    -0.285 A  
HETATM    7  C   UNL     1      -9.602  12.732  68.305  1.00  0.00    -0.211 A  
HETATM    8  H   UNL     1     -12.907  14.614  69.266  1.00  0.00     0.000 HD 
HETATM    9  C   UNL     1      -8.813  13.354  67.339  1.00  0.00    -0.214 A  
HETATM   10  C   UNL     1      -9.250  14.536  66.737  1.00  0.00    -0.286 A  
ENDBRANCH   2   3
TORSDOF 1
ENDMDL
MODEL      108
REMARK 921   NORMALIZED FREE ENERGY PREDICTED BY IDOCK:   -2.61 KCAL/MOL
REMARK 922        TOTAL FREE ENERGY PREDICTED BY IDOCK:   -2.80 KCAL/MOL
REMARK 923 INTER-LIGAND FREE ENERGY PREDICTED BY IDOCK:   -2.77 KCAL/MOL
REMARK 924 INTRA-LIGAND FREE ENERGY PREDICTED BY IDOCK:   -0.03 KCAL/MOL
REMARK 927      BINDING AFFINITY PREDICTED BY RF-SCORE:    0.00 PKD
ROOT
HETATM    1  C   UNL     1     -11.716  15.733  70.594  1.00  0.00    -0.385 C  
HETATM    2  O   UNL     1     -11.399  15.967  69.228  1.00  0.00    -0.308 OA 
ENDROOT
BRANCH   2   3
HETATM    3  C   UNL     1     -11.105  14.865  68.471  1.00  0.00    -0.266 A  
HETATM    4  C   UNL     1      -9.889  14.177  68.453  1.00  0.00    -0.231 A  
HETATM    5  O   UNL     1      -8.798  14.564  69.175  1.00  0.00    -0.350 OA 
HETATM    6  C   UNL     1      -9.702  13.078  67.612  1.00  0.00    -0.212 A  
HETATM    7  C   UNL     1     -10.718  12.685  66.744  1.00  0.00    -0.261 A  
HETATM    8  H   UNL     1      -7.971  14.096  69.162  1.00  0.00     0.000 HD 
HETATM    9  C   UNL     1     -11.925  13.381  66.730  1.00  0.00    -0.447 A  
HETATM   10  C   UNL     1     -12.114  14.465  67.591  1.00  0.00    -0.312 A  
ENDBRANCH   2   3
TORSDOF 1
ENDMDL
MODEL      109
REMARK 921   NORMALIZED FREE ENERGY PREDICTED BY IDOCK:   -2.60 KCAL/MOL
REMARK 922        TOTAL FREE ENERGY PREDICTED BY IDOCK:   -2.80 KCAL/MOL
REMARK 923 INTER-LIGAND FREE ENERGY PREDICTED BY IDOCK:   -2.76 KCAL/MOL
REMARK 924 INTRA-LIGAND FREE ENERGY PREDICTED BY IDOCK:   -0.04 KCAL/MOL
REMARK 927      BINDING AFFINITY PREDICTED BY RF-SCORE:    0.00 PKD
ROOT
HETATM    1  C   UNL     1      -8.866   7.414  69.910  1.00  0.00    -0.141 C  
HETATM    2  O   UNL     1     -10.235   7.417  70.292  1.00  0.00    -0.196 OA 
ENDROOT
BRANCH   2   3
HETATM    3  C   UNL     1     -10.857   8.636  70.330  1.00  0.00    -0.235 A  
HETATM    4  C   UNL     1     -11.595   9.153  71.397  1.00  0.00    -0.341 A  
HETATM    5  O   UNL     1     -11.831   8.462  72.549  1.00  0.00    -0.391 OA 
HETATM    6  C   UNL     1     -12.208  10.405  71.303  1.00  0.00    -0.491 A  
HETATM    7  C   UNL     1     -12.128  11.131  70.117  1.00  0.00    -0.443 A  
HETATM    8  H   UNL     1     -12.334   8.814  73.275  1.00  0.00     0.000 HD 
HETATM    9  C   UNL     1     -11.420  10.613  69.034  1.00  0.00    -0.342 A  
HETATM   10  C   UNL     1     -10.789   9.371  69.143  1.00  0.00    -0.176 A  
ENDBRANCH   2   3
TORSDOF 1
ENDMDL
MODEL      110
REMARK 921   NORMALIZED FREE ENERGY PREDICTED BY IDOCK:   -2.60 KCAL/MOL
REMARK 922        TOTAL FREE ENERGY PREDICTED BY IDOCK:   -2.79 KCAL/MOL
REMARK 923 INTER-LIGAND FREE ENERGY PREDICTED BY IDOCK:   -2.74 KCAL/MOL
REMARK 924 INTRA-LIGAND FREE ENERGY PREDICTED BY IDOCK:   -0.05 KCAL/MOL
REMARK 927      BINDING AFFINITY PREDICTED BY RF-SCORE:    0.00 PKD
ROOT
HETATM    1  C   UNL     1     -11.569  15.479  70.988  1.00  0.00    -0.382 C  
HETATM    2  O   UNL     1     -11.678  16.031  69.683  1.00  0.00    -0.328 OA 
ENDROOT
BRANCH   2   3
HETATM    3  C   UNL     1     -10.899  15.462  68.712  1.00  0.00    -0.252 A  
HETATM    4  C   UNL     1     -11.342  14.626  67.683  1.00  0.00    -0.336 A  
HETATM    5  O   UNL     1     -12.639  14.227  67.548  1.00  0.00    -0.513 OA 
HETATM    6  C   UNL     1     -10.440  14.081  66.766  1.00  0.00    -0.277 A  
HETATM    7  C   UNL     1      -9.076  14.331  66.899  1.00  0.00    -0.268 A  
HETATM    8  H   UNL     1     -12.940  13.658  66.849  1.00  0.00     0.000 HD 
HETATM    9  C   UNL     1      -8.618  15.138  67.939  1.00  0.00    -0.154 A  
HETATM   10  C   UNL     1      -9.528  15.699  68.838  1.00  0.00    -0.228 A  
ENDBRANCH   2   3
TORSDOF 1
ENDMDL
MODEL      111
REMARK 921   NORMALIZED FREE ENERGY PREDICTED BY IDOCK:   -2.58 KCAL/MOL
REMARK 922        TOTAL FREE ENERGY PREDICTED BY IDOCK:   -2.78 KCAL/MOL
REMARK 923 INTER-LIGAND FREE ENERGY PREDICTED BY IDOCK:   -2.74 KCAL/MOL
REMARK 924 INTRA-LIGAND FREE ENERGY PREDICTED BY IDOCK:   -0.04 KCAL/MOL
REMARK 927      BINDING AFFINITY PREDICTED BY RF-SCORE:    0.00 PKD
ROOT
HETATM    1  C   UNL     1     -12.307  13.816  70.888  1.00  0.00    -0.380 C  
HETATM    2  O   UNL     1     -12.515  13.929  69.486  1.00  0.00    -0.286 OA 
ENDROOT
BRANCH   2   3
HETATM    3  C   UNL     1     -11.704  13.171  68.685  1.00  0.00    -0.326 A  
HETATM    4  C   UNL     1     -10.990  13.621  67.572  1.00  0.00    -0.268 A  
HETATM    5  O   UNL     1     -11.056  14.902  67.107  1.00  0.00    -0.316 OA 
HETATM    6  C   UNL     1     -10.216  12.739  66.814  1.00  0.00    -0.245 A  
HETATM    7  C   UNL     1     -10.187  11.385  67.138  1.00  0.00    -0.234 A  
HETATM    8  H   UNL     1     -10.571  15.208  66.349  1.00  0.00     0.000 HD 
HETATM    9  C   UNL     1     -10.919  10.917  68.227  1.00  0.00    -0.293 A  
HETATM   10  C   UNL     1     -11.673  11.808  68.995  1.00  0.00    -0.390 A  
ENDBRANCH   2   3
TORSDOF 1
ENDMDL
MODEL      112
REMARK 921   NORMALIZED FREE ENERGY PREDICTED BY IDOCK:   -2.57 KCAL/MOL
REMARK 922        TOTAL FREE ENERGY PREDICTED BY IDOCK:   -2.76 KCAL/MOL
REMARK 923 INTER-LIGAND FREE ENERGY PREDICTED BY IDOCK:   -2.72 KCAL/MOL
REMARK 924 INTRA-LIGAND FREE ENERGY PREDICTED BY IDOCK:   -0.04 KCAL/MOL
REMARK 927      BINDING AFFINITY PREDICTED BY RF-SCORE:    0.00 PKD
ROOT
HETATM    1  C   UNL     1     -13.844   7.048  71.988  1.00  0.00    -0.056 C  
HETATM    2  O   UNL     1     -12.854   7.379  71.023  1.00  0.00    -0.282 OA 
ENDROOT
BRANCH   2   3
HETATM    3  C   UNL     1     -11.839   6.476  70.855  1.00  0.00    -0.331 A  
HETATM    4  C   UNL     1     -11.188   6.179  69.655  1.00  0.00    -0.418 A  
HETATM    5  O   UNL     1     -11.531   6.737  68.459  1.00  0.00    -0.556 OA 
HETATM    6  C   UNL     1     -10.181   5.212  69.608  1.00  0.00    -0.337 A  
HETATM    7  C   UNL     1      -9.848   4.498  70.757  1.00  0.00    -0.280 A  
HETATM    8  H   UNL     1     -11.089   6.535  67.642  1.00  0.00     0.000 HD 
HETATM    9  C   UNL     1     -10.510   4.763  71.954  1.00  0.00    -0.201 A  
HETATM   10  C   UNL     1     -11.500   5.748  71.999  1.00  0.00    -0.260 A  
ENDBRANCH   2   3
TORSDOF 1
ENDMDL
MODEL      113
REMARK 921   NORMALIZED FREE ENERGY PREDICTED BY IDOCK:   -2.57 KCAL/MOL
REMARK 922        TOTAL FREE ENERGY PREDICTED BY IDOCK:   -2.76 KCAL/MOL
REMARK 923 INTER-LIGAND FREE ENERGY PREDICTED BY IDOCK:   -2.72 KCAL/MOL
REMARK 924 INTRA-LIGAND FREE ENERGY PREDICTED BY IDOCK:   -0.04 KCAL/MOL
REMARK 927      BINDING AFFINITY PREDICTED BY RF-SCORE:    0.00 PKD
ROOT
HETATM    1  C   UNL     1     -10.072   8.425  66.802  1.00  0.00    -0.303 C  
HETATM    2  O   UNL     1      -9.661   9.755  66.514  1.00  0.00    -0.183 OA 
ENDROOT
BRANCH   2   3
HETATM    3  C   UNL     1     -10.347  10.757  67.147  1.00  0.00    -0.224 A  
HETATM    4  C   UNL     1     -10.331  12.112  66.805  1.00  0.00    -0.213 A  
HETATM    5  O   UNL     1      -9.567  12.621  65.796  1.00  0.00    -0.389 OA 
HETATM    6  C   UNL     1     -11.055  13.046  67.549  1.00  0.00    -0.297 A  
HETATM    7  C   UNL     1     -11.767  12.637  68.675  1.00  0.00    -0.364 A  
HETATM    8  H   UNL     1      -9.556  13.543  65.564  1.00  0.00     0.000 HD 
HETATM    9  C   UNL     1     -11.767  11.294  69.045  1.00  0.00    -0.410 A  
HETATM   10  C   UNL     1     -11.060  10.361  68.282  1.00  0.00    -0.338 A  
ENDBRANCH   2   3
TORSDOF 1
ENDMDL
MODEL      114
REMARK 921   NORMALIZED FREE ENERGY PREDICTED BY IDOCK:   -2.57 KCAL/MOL
REMARK 922        TOTAL FREE ENERGY PREDICTED BY IDOCK:   -2.76 KCAL/MOL
REMARK 923 INTER-LIGAND FREE ENERGY PREDICTED BY IDOCK:   -2.71 KCAL/MOL
REMARK 924 INTRA-LIGAND FREE ENERGY PREDICTED BY IDOCK:   -0.05 KCAL/MOL
REMARK 927      BINDING AFFINITY PREDICTED BY RF-SCORE:    0.00 PKD
ROOT
HETATM    1  C   UNL     1     -12.269  14.200  71.048  1.00  0.00    -0.358 C  
HETATM    2  O   UNL     1     -12.497  13.969  69.665  1.00  0.00    -0.311 OA 
ENDROOT
BRANCH   2   3
HETATM    3  C   UNL     1     -11.494  13.341  68.977  1.00  0.00    -0.302 A  
HETATM    4  C   UNL     1     -11.496  12.011  68.546  1.00  0.00    -0.293 A  
HETATM    5  O   UNL     1     -12.512  11.140  68.810  1.00  0.00    -0.619 OA 
HETATM    6  C   UNL     1     -10.395  11.476  67.875  1.00  0.00    -0.203 A  
HETATM    7  C   UNL     1      -9.259  12.255  67.670  1.00  0.00    -0.183 A  
HETATM    8  H   UNL     1     -12.513  10.235  68.517  1.00  0.00     0.000 HD 
HETATM    9  C   UNL     1      -9.232  13.573  68.122  1.00  0.00    -0.208 A  
HETATM   10  C   UNL     1     -10.346  14.110  68.771  1.00  0.00    -0.230 A  
ENDBRANCH   2   3
TORSDOF 1
ENDMDL
MODEL      115
REMARK 921   NORMALIZED FREE ENERGY PREDICTED BY IDOCK:   -2.55 KCAL/MOL
REMARK 922        TOTAL FREE ENERGY PREDICTED BY IDOCK:   -2.74 KCAL/MOL
REMARK 923 INTER-LIGAND FREE ENERGY PREDICTED BY IDOCK:   -2.69 KCAL/MOL
REMARK 924 INTRA-LIGAND FREE ENERGY PREDICTED BY IDOCK:   -0.04 KCAL/MOL
REMARK 927      BINDING AFFINITY PREDICTED BY RF-SCORE:    0.00 PKD
ROOT
HETATM    1  C   UNL     1      -8.874   9.514  70.191  1.00  0.00    -0.235 C  
HETATM    2  O   UNL     1      -9.371   9.457  71.521  1.00  0.00    -0.271 OA 
ENDROOT
BRANCH   2   3
HETATM    3  C   UNL     1     -10.209   8.415  71.817  1.00  0.00    -0.253 A  
HETATM    4  C   UNL     1     -10.217   7.673  73.000  1.00  0.00    -0.320 A  
HETATM    5  O   UNL     1      -9.329   7.874  74.017  1.00  0.00    -0.373 OA 
HETATM    6  C   UNL     1     -11.106   6.609  73.172  1.00  0.00    -0.204 A  
HETATM    7  C   UNL     1     -11.965   6.248  72.137  1.00  0.00    -0.338 A  
HETATM    8  H   UNL     1      -9.334   7.368  74.822  1.00  0.00     0.000 HD 
HETATM    9  C   UNL     1     -11.947   6.961  70.940  1.00  0.00    -0.430 A  
HETATM   10  C   UNL     1     -11.072   8.039  70.784  1.00  0.00    -0.269 A  
ENDBRANCH   2   3
TORSDOF 1
ENDMDL
MODEL      116
REMARK 921   NORMALIZED FREE ENERGY PREDICTED BY IDOCK:   -2.52 KCAL/MOL
REMARK 922        TOTAL FREE ENERGY PREDICTED BY IDOCK:   -2.71 KCAL/MOL
REMARK 923 INTER-LIGAND FREE ENERGY PREDICTED BY IDOCK:   -2.67 KCAL/MOL
REMARK 924 INTRA-LIGAND FREE ENERGY PREDICTED BY IDOCK:   -0.05 KCAL/MOL
REMARK 927      BINDING AFFINITY PREDICTED BY RF-SCORE:    0.00 PKD
ROOT
HETATM    1  C   UNL     1     -10.012   7.697  73.089  1.00  0.00    -0.304 C  
HETATM    2  O   UNL     1     -10.991   8.247  72.217  1.00  0.00    -0.298 OA 
ENDROOT
BRANCH   2   3
HETATM    3  C   UNL     1     -10.800   8.041  70.877  1.00  0.00    -0.230 A  
HETATM    4  C   UNL     1     -10.446   9.010  69.935  1.00  0.00    -0.215 A  
HETATM    5  O   UNL     1     -10.290  10.331  70.241  1.00  0.00    -0.413 OA 
HETATM    6  C   UNL     1     -10.309   8.679  68.585  1.00  0.00    -0.219 A  
HETATM    7  C   UNL     1     -10.572   7.380  68.158  1.00  0.00    -0.216 A  
HETATM    8  H   UNL     1     -10.050  10.990  69.600  1.00  0.00     0.000 HD 
HETATM    9  C   UNL     1     -10.955   6.410  69.082  1.00  0.00    -0.416 A  
HETATM   10  C   UNL     1     -11.068   6.743  70.434  1.00  0.00    -0.357 A  
ENDBRANCH   2   3
TORSDOF 1
ENDMDL
MODEL      117
REMARK 921   NORMALIZED FREE ENERGY PREDICTED BY IDOCK:   -2.52 KCAL/MOL
REMARK 922        TOTAL FREE ENERGY PREDICTED BY IDOCK:   -2.70 KCAL/MOL
REMARK 923 INTER-LIGAND FREE ENERGY PREDICTED BY IDOCK:   -2.76 KCAL/MOL
REMARK 924 INTRA-LIGAND FREE ENERGY PREDICTED BY IDOCK:    0.05 KCAL/MOL
REMARK 927      BINDING AFFINITY PREDICTED BY RF-SCORE:    0.00 PKD
ROOT
HETATM    1  C   UNL     1     -12.407  10.405  70.362  1.00  0.00    -0.286 C  
HETATM    2  O   UNL     1     -11.549  11.537  70.408  1.00  0.00    -0.281 OA 
ENDROOT
BRANCH   2   3
HETATM    3  C   UNL     1     -11.703  12.462  69.411  1.00  0.00    -0.322 A  
HETATM    4  C   UNL     1     -11.417  12.272  68.057  1.00  0.00    -0.321 A  
HETATM    5  O   UNL     1     -10.887  11.119  67.558  1.00  0.00    -0.219 OA 
HETATM    6  C   UNL     1     -11.591  13.308  67.136  1.00  0.00    -0.402 A  
HETATM    7  C   UNL     1     -12.010  14.563  67.573  1.00  0.00    -0.358 A  
HETATM    8  H   UNL     1     -10.692  10.990  66.637  1.00  0.00     0.000 HD 
HETATM    9  C   UNL     1     -12.270  14.775  68.926  1.00  0.00    -0.157 A  
HETATM   10  C   UNL     1     -12.116  13.728  69.837  1.00  0.00    -0.412 A  
ENDBRANCH   2   3
TORSDOF 1
ENDMDL
MODEL      118
REMARK 921   NORMALIZED FREE ENERGY PREDICTED BY IDOCK:   -2.51 KCAL/MOL
REMARK 922        TOTAL FREE ENERGY PREDICTED BY IDOCK:   -2.69 KCAL/MOL
REMARK 923 INTER-LIGAND FREE ENERGY PREDICTED BY IDOCK:   -2.64 KCAL/MOL
REMARK 924 INTRA-LIGAND FREE ENERGY PREDICTED BY IDOCK:   -0.05 KCAL/MOL
REMARK 927      BINDING AFFINITY PREDICTED BY RF-SCORE:    0.00 PKD
ROOT
HETATM    1  C   UNL     1     -10.477   4.418  65.510  1.00  0.00    -0.199 C  
HETATM    2  O   UNL     1      -9.611   5.136  66.379  1.00  0.00    -0.141 OA 
ENDROOT
BRANCH   2   3
HETATM    3  C   UNL     1     -10.067   5.355  67.651  1.00  0.00    -0.175 A  
HETATM    4  C   UNL     1     -10.863   6.424  68.070  1.00  0.00    -0.316 A  
HETATM    5  O   UNL     1     -11.254   7.436  67.244  1.00  0.00    -0.554 OA 
HETATM    6  C   UNL     1     -11.241   6.553  69.409  1.00  0.00    -0.418 A  
HETATM    7  C   UNL     1     -10.784   5.635  70.352  1.00  0.00    -0.352 A  
HETATM    8  H   UNL     1     -11.795   8.164  67.529  1.00  0.00     0.000 HD 
HETATM    9  C   UNL     1      -9.965   4.581  69.952  1.00  0.00    -0.273 A  
HETATM   10  C   UNL     1      -9.610   4.445  68.608  1.00  0.00    -0.216 A  
ENDBRANCH   2   3
TORSDOF 1
ENDMDL
MODEL      119
REMARK 921   NORMALIZED FREE ENERGY PREDICTED BY IDOCK:   -2.49 KCAL/MOL
REMARK 922        TOTAL FREE ENERGY PREDICTED BY IDOCK:   -2.68 KCAL/MOL
REMARK 923 INTER-LIGAND FREE ENERGY PREDICTED BY IDOCK:   -2.64 KCAL/MOL
REMARK 924 INTRA-LIGAND FREE ENERGY PREDICTED BY IDOCK:   -0.04 KCAL/MOL
REMARK 927      BINDING AFFINITY PREDICTED BY RF-SCORE:    0.00 PKD
ROOT
HETATM    1  C   UNL     1     -11.816  12.158  69.091  1.00  0.00    -0.305 C  
HETATM    2  O   UNL     1     -11.658  13.434  69.697  1.00  0.00    -0.285 OA 
ENDROOT
BRANCH   2   3
HETATM    3  C   UNL     1     -11.037  14.395  68.945  1.00  0.00    -0.259 A  
HETATM    4  C   UNL     1     -11.431  15.729  68.822  1.00  0.00    -0.388 A  
HETATM    5  O   UNL     1     -12.547  16.239  69.419  1.00  0.00    -0.378 OA 
HETATM    6  C   UNL     1     -10.727  16.610  67.997  1.00  0.00    -0.350 A  
HETATM    7  C   UNL     1      -9.647  16.149  67.249  1.00  0.00    -0.231 A  
HETATM    8  H   UNL     1     -12.815  17.146  69.335  1.00  0.00     0.000 HD 
HETATM    9  C   UNL     1      -9.262  14.813  67.339  1.00  0.00    -0.200 A  
HETATM   10  C   UNL     1      -9.955  13.943  68.184  1.00  0.00    -0.240 A  
ENDBRANCH   2   3
TORSDOF 1
ENDMDL
MODEL      120
REMARK 921   NORMALIZED FREE ENERGY PREDICTED BY IDOCK:   -2.49 KCAL/MOL
REMARK 922        TOTAL FREE ENERGY PREDICTED BY IDOCK:   -2.67 KCAL/MOL
REMARK 923 INTER-LIGAND FREE ENERGY PREDICTED BY IDOCK:   -2.62 KCAL/MOL
REMARK 924 INTRA-LIGAND FREE ENERGY PREDICTED BY IDOCK:   -0.05 KCAL/MOL
REMARK 927      BINDING AFFINITY PREDICTED BY RF-SCORE:    0.00 PKD
ROOT
HETATM    1  C   UNL     1      -9.158   8.372  71.584  1.00  0.00    -0.205 C  
HETATM    2  O   UNL     1     -10.474   8.087  71.130  1.00  0.00    -0.197 OA 
ENDROOT
BRANCH   2   3
HETATM    3  C   UNL     1     -10.605   7.743  69.811  1.00  0.00    -0.241 A  
HETATM    4  C   UNL     1     -10.807   6.454  69.311  1.00  0.00    -0.327 A  
HETATM    5  O   UNL     1     -10.853   5.342  70.100  1.00  0.00    -0.281 OA 
HETATM    6  C   UNL     1     -10.896   6.227  67.935  1.00  0.00    -0.417 A  
HETATM    7  C   UNL     1     -10.734   7.285  67.044  1.00  0.00    -0.406 A  
HETATM    8  H   UNL     1     -10.991   4.466  69.759  1.00  0.00     0.000 HD 
HETATM    9  C   UNL     1     -10.501   8.570  67.529  1.00  0.00    -0.328 A  
HETATM   10  C   UNL     1     -10.437   8.794  68.906  1.00  0.00    -0.217 A  
ENDBRANCH   2   3
TORSDOF 1
ENDMDL
MODEL      121
REMARK 921   NORMALIZED FREE ENERGY PREDICTED BY IDOCK:   -2.48 KCAL/MOL
REMARK 922        TOTAL FREE ENERGY PREDICTED BY IDOCK:   -2.66 KCAL/MOL
REMARK 923 INTER-LIGAND FREE ENERGY PREDICTED BY IDOCK:   -2.62 KCAL/MOL
REMARK 924 INTRA-LIGAND FREE ENERGY PREDICTED BY IDOCK:   -0.04 KCAL/MOL
REMARK 927      BINDING AFFINITY PREDICTED BY RF-SCORE:    0.00 PKD
ROOT
HETATM    1  C   UNL     1      -8.117  11.425  68.666  1.00  0.00    -0.141 C  
HETATM    2  O   UNL     1      -8.280  11.460  67.255  1.00  0.00    -0.138 OA 
ENDROOT
BRANCH   2   3
HETATM    3  C   UNL     1      -9.497  11.880  66.790  1.00  0.00    -0.201 A  
HETATM    4  C   UNL     1      -9.928  11.853  65.461  1.00  0.00    -0.238 A  
HETATM    5  O   UNL     1      -9.142  11.433  64.428  1.00  0.00    -0.392 OA 
HETATM    6  C   UNL     1     -11.188  12.339  65.107  1.00  0.00    -0.369 A  
HETATM    7  C   UNL     1     -12.013  12.904  66.077  1.00  0.00    -0.505 A  
HETATM    8  H   UNL     1      -9.435  11.414  63.524  1.00  0.00     0.000 HD 
HETATM    9  C   UNL     1     -11.583  12.966  67.402  1.00  0.00    -0.414 A  
HETATM   10  C   UNL     1     -10.331  12.456  67.752  1.00  0.00    -0.222 A  
ENDBRANCH   2   3
TORSDOF 1
ENDMDL
MODEL      122
REMARK 921   NORMALIZED FREE ENERGY PREDICTED BY IDOCK:   -2.47 KCAL/MOL
REMARK 922        TOTAL FREE ENERGY PREDICTED BY IDOCK:   -2.66 KCAL/MOL
REMARK 923 INTER-LIGAND FREE ENERGY PREDICTED BY IDOCK:   -2.61 KCAL/MOL
REMARK 924 INTRA-LIGAND FREE ENERGY PREDICTED BY IDOCK:   -0.05 KCAL/MOL
REMARK 927      BINDING AFFINITY PREDICTED BY RF-SCORE:    0.00 PKD
ROOT
HETATM    1  C   UNL     1     -11.866  11.075  69.963  1.00  0.00    -0.355 C  
HETATM    2  O   UNL     1     -10.749  10.215  70.142  1.00  0.00    -0.273 OA 
ENDROOT
BRANCH   2   3
HETATM    3  C   UNL     1     -10.994   8.871  70.067  1.00  0.00    -0.206 A  
HETATM    4  C   UNL     1     -11.374   8.041  71.125  1.00  0.00    -0.266 A  
HETATM    5  O   UNL     1     -11.503   8.478  72.411  1.00  0.00    -0.369 OA 
HETATM    6  C   UNL     1     -11.568   6.672  70.927  1.00  0.00    -0.416 A  
HETATM    7  C   UNL     1     -11.336   6.111  69.673  1.00  0.00    -0.442 A  
HETATM    8  H   UNL     1     -11.761   7.914  73.131  1.00  0.00     0.000 HD 
HETATM    9  C   UNL     1     -10.927   6.923  68.616  1.00  0.00    -0.203 A  
HETATM   10  C   UNL     1     -10.758   8.295  68.816  1.00  0.00    -0.076 A  
ENDBRANCH   2   3
TORSDOF 1
ENDMDL
MODEL      123
REMARK 921   NORMALIZED FREE ENERGY PREDICTED BY IDOCK:   -2.47 KCAL/MOL
REMARK 922        TOTAL FREE ENERGY PREDICTED BY IDOCK:   -2.66 KCAL/MOL
REMARK 923 INTER-LIGAND FREE ENERGY PREDICTED BY IDOCK:   -2.60 KCAL/MOL
REMARK 924 INTRA-LIGAND FREE ENERGY PREDICTED BY IDOCK:   -0.06 KCAL/MOL
REMARK 927      BINDING AFFINITY PREDICTED BY RF-SCORE:    0.00 PKD
ROOT
HETATM    1  C   UNL     1      -7.210  20.142  67.284  1.00  0.00    -0.270 C  
HETATM    2  O   UNL     1      -7.413  18.863  66.697  1.00  0.00    -0.215 OA 
ENDROOT
BRANCH   2   3
HETATM    3  C   UNL     1      -8.425  18.104  67.220  1.00  0.00    -0.242 A  
HETATM    4  C   UNL     1      -9.742  18.050  66.755  1.00  0.00    -0.323 A  
HETATM    5  O   UNL     1     -10.202  18.810  65.720  1.00  0.00    -0.541 OA 
HETATM    6  C   UNL     1     -10.694  17.254  67.396  1.00  0.00    -0.247 A  
HETATM    7  C   UNL     1     -10.348  16.540  68.539  1.00  0.00    -0.289 A  
HETATM    8  H   UNL     1     -11.098  18.773  65.404  1.00  0.00     0.000 HD 
HETATM    9  C   UNL     1      -9.046  16.608  69.031  1.00  0.00    -0.209 A  
HETATM   10  C   UNL     1      -8.092  17.387  68.372  1.00  0.00    -0.264 A  
ENDBRANCH   2   3
TORSDOF 1
ENDMDL
MODEL      124
REMARK 921   NORMALIZED FREE ENERGY PREDICTED BY IDOCK:   -2.45 KCAL/MOL
REMARK 922        TOTAL FREE ENERGY PREDICTED BY IDOCK:   -2.64 KCAL/MOL
REMARK 923 INTER-LIGAND FREE ENERGY PREDICTED BY IDOCK:   -2.58 KCAL/MOL
REMARK 924 INTRA-LIGAND FREE ENERGY PREDICTED BY IDOCK:   -0.06 KCAL/MOL
REMARK 927      BINDING AFFINITY PREDICTED BY RF-SCORE:    0.00 PKD
ROOT
HETATM    1  C   UNL     1      -8.691  16.981  68.683  1.00  0.00    -0.261 C  
HETATM    2  O   UNL     1      -8.882  15.653  69.151  1.00  0.00    -0.216 OA 
ENDROOT
BRANCH   2   3
HETATM    3  C   UNL     1      -9.670  14.840  68.381  1.00  0.00    -0.214 A  
HETATM    4  C   UNL     1      -9.234  14.001  67.353  1.00  0.00    -0.216 A  
HETATM    5  O   UNL     1      -7.933  13.924  66.949  1.00  0.00    -0.382 OA 
HETATM    6  C   UNL     1     -10.144  13.239  66.617  1.00  0.00    -0.266 A  
HETATM    7  C   UNL     1     -11.508  13.346  66.873  1.00  0.00    -0.376 A  
HETATM    8  H   UNL     1      -7.636  13.354  66.249  1.00  0.00     0.000 HD 
HETATM    9  C   UNL     1     -11.959  14.203  67.875  1.00  0.00    -0.378 A  
HETATM   10  C   UNL     1     -11.042  14.944  68.624  1.00  0.00    -0.272 A  
ENDBRANCH   2   3
TORSDOF 1
ENDMDL
MODEL      125
REMARK 921   NORMALIZED FREE ENERGY PREDICTED BY IDOCK:   -2.44 KCAL/MOL
REMARK 922        TOTAL FREE ENERGY PREDICTED BY IDOCK:   -2.62 KCAL/MOL
REMARK 923 INTER-LIGAND FREE ENERGY PREDICTED BY IDOCK:   -2.58 KCAL/MOL
REMARK 924 INTRA-LIGAND FREE ENERGY PREDICTED BY IDOCK:   -0.04 KCAL/MOL
REMARK 927      BINDING AFFINITY PREDICTED BY RF-SCORE:    0.00 PKD
ROOT
HETATM    1  C   UNL     1      -8.612  17.084  68.758  1.00  0.00    -0.238 C  
HETATM    2  O   UNL     1      -8.986  15.739  69.026  1.00  0.00    -0.211 OA 
ENDROOT
BRANCH   2   3
HETATM    3  C   UNL     1      -9.708  15.101  68.053  1.00  0.00    -0.209 A  
HETATM    4  C   UNL     1     -10.743  14.186  68.260  1.00  0.00    -0.249 A  
HETATM    5  O   UNL     1     -11.139  13.770  69.498  1.00  0.00    -0.391 OA 
HETATM    6  C   UNL     1     -11.387  13.578  67.180  1.00  0.00    -0.346 A  
HETATM    7  C   UNL     1     -10.967  13.845  65.880  1.00  0.00    -0.284 A  
HETATM    8  H   UNL     1     -11.843  13.147  69.639  1.00  0.00     0.000 HD 
HETATM    9  C   UNL     1      -9.915  14.733  65.660  1.00  0.00    -0.390 A  
HETATM   10  C   UNL     1      -9.291  15.356  66.744  1.00  0.00    -0.267 A  
ENDBRANCH   2   3
TORSDOF 1
ENDMDL
MODEL      126
REMARK 921   NORMALIZED FREE ENERGY PREDICTED BY IDOCK:   -2.43 KCAL/MOL
REMARK 922        TOTAL FREE ENERGY PREDICTED BY IDOCK:   -2.61 KCAL/MOL
REMARK 923 INTER-LIGAND FREE ENERGY PREDICTED BY IDOCK:   -2.57 KCAL/MOL
REMARK 924 INTRA-LIGAND FREE ENERGY PREDICTED BY IDOCK:   -0.04 KCAL/MOL
REMARK 927      BINDING AFFINITY PREDICTED BY RF-SCORE:    0.00 PKD
ROOT
HETATM    1  C   UNL     1     -10.032  10.214  65.451  1.00  0.00    -0.307 C  
HETATM    2  O   UNL     1     -10.542  10.942  66.561  1.00  0.00    -0.248 OA 
ENDROOT
BRANCH   2   3
HETATM    3  C   UNL     1     -10.549  10.293  67.766  1.00  0.00    -0.250 A  
HETATM    4  C   UNL     1     -10.601  10.893  69.027  1.00  0.00    -0.216 A  
HETATM    5  O   UNL     1     -10.605  12.244  69.214  1.00  0.00    -0.435 OA 
HETATM    6  C   UNL     1     -10.572  10.119  70.189  1.00  0.00    -0.337 A  
HETATM    7  C   UNL     1     -10.442   8.735  70.100  1.00  0.00    -0.230 A  
HETATM    8  H   UNL     1     -10.641  12.652  70.071  1.00  0.00     0.000 HD 
HETATM    9  C   UNL     1     -10.358   8.126  68.850  1.00  0.00    -0.225 A  
HETATM   10  C   UNL     1     -10.411   8.904  67.691  1.00  0.00    -0.320 A  
ENDBRANCH   2   3
TORSDOF 1
ENDMDL
MODEL      127
REMARK 921   NORMALIZED FREE ENERGY PREDICTED BY IDOCK:   -2.37 KCAL/MOL
REMARK 922        TOTAL FREE ENERGY PREDICTED BY IDOCK:   -2.55 KCAL/MOL
REMARK 923 INTER-LIGAND FREE ENERGY PREDICTED BY IDOCK:   -2.49 KCAL/MOL
REMARK 924 INTRA-LIGAND FREE ENERGY PREDICTED BY IDOCK:   -0.05 KCAL/MOL
REMARK 927      BINDING AFFINITY PREDICTED BY RF-SCORE:    0.00 PKD
ROOT
HETATM    1  C   UNL     1      -8.583  10.084  67.393  1.00  0.00    -0.125 C  
HETATM    2  O   UNL     1      -9.375  10.618  68.446  1.00  0.00    -0.150 OA 
ENDROOT
BRANCH   2   3
HETATM    3  C   UNL     1      -9.964  11.832  68.212  1.00  0.00    -0.200 A  
HETATM    4  C   UNL     1     -11.318  12.054  67.946  1.00  0.00    -0.305 A  
HETATM    5  O   UNL     1     -12.235  11.050  67.837  1.00  0.00    -0.612 OA 
HETATM    6  C   UNL     1     -11.795  13.343  67.694  1.00  0.00    -0.394 A  
HETATM    7  C   UNL     1     -10.910  14.417  67.659  1.00  0.00    -0.276 A  
HETATM    8  H   UNL     1     -13.155  11.201  67.655  1.00  0.00     0.000 HD 
HETATM    9  C   UNL     1      -9.553  14.205  67.893  1.00  0.00    -0.223 A  
HETATM   10  C   UNL     1      -9.086  12.918  68.168  1.00  0.00    -0.207 A  
ENDBRANCH   2   3
TORSDOF 1
ENDMDL
MODEL      128
REMARK 921   NORMALIZED FREE ENERGY PREDICTED BY IDOCK:   -2.35 KCAL/MOL
REMARK 922        TOTAL FREE ENERGY PREDICTED BY IDOCK:   -2.53 KCAL/MOL
REMARK 923 INTER-LIGAND FREE ENERGY PREDICTED BY IDOCK:   -2.48 KCAL/MOL
REMARK 924 INTRA-LIGAND FREE ENERGY PREDICTED BY IDOCK:   -0.05 KCAL/MOL
REMARK 927      BINDING AFFINITY PREDICTED BY RF-SCORE:    0.00 PKD
ROOT
HETATM    1  C   UNL     1      -8.634   7.022  66.956  1.00  0.00    -0.122 C  
HETATM    2  O   UNL     1      -9.886   7.453  66.440  1.00  0.00    -0.165 OA 
ENDROOT
BRANCH   2   3
HETATM    3  C   UNL     1     -10.090   8.806  66.383  1.00  0.00    -0.243 A  
HETATM    4  C   UNL     1      -9.751   9.647  65.320  1.00  0.00    -0.260 A  
HETATM    5  O   UNL     1      -9.113   9.213  64.195  1.00  0.00    -0.427 OA 
HETATM    6  C   UNL     1      -9.985  11.022  65.393  1.00  0.00    -0.313 A  
HETATM    7  C   UNL     1     -10.519  11.576  66.554  1.00  0.00    -0.284 A  
HETATM    8  H   UNL     1      -8.882   9.785  63.472  1.00  0.00     0.000 HD 
HETATM    9  C   UNL     1     -10.833  10.752  67.634  1.00  0.00    -0.332 A  
HETATM   10  C   UNL     1     -10.618   9.375  67.545  1.00  0.00    -0.333 A  
ENDBRANCH   2   3
TORSDOF 1
ENDMDL
MODEL      129
REMARK 921   NORMALIZED FREE ENERGY PREDICTED BY IDOCK:   -2.33 KCAL/MOL
REMARK 922        TOTAL FREE ENERGY PREDICTED BY IDOCK:   -2.51 KCAL/MOL
REMARK 923 INTER-LIGAND FREE ENERGY PREDICTED BY IDOCK:   -2.46 KCAL/MOL
REMARK 924 INTRA-LIGAND FREE ENERGY PREDICTED BY IDOCK:   -0.05 KCAL/MOL
REMARK 927      BINDING AFFINITY PREDICTED BY RF-SCORE:    0.00 PKD
ROOT
HETATM    1  C   UNL     1      -8.209   6.038  72.349  1.00  0.00    -0.109 C  
HETATM    2  O   UNL     1      -8.565   7.305  72.886  1.00  0.00    -0.117 OA 
ENDROOT
BRANCH   2   3
HETATM    3  C   UNL     1      -9.665   7.911  72.343  1.00  0.00    -0.213 A  
HETATM    4  C   UNL     1      -9.677   8.760  71.233  1.00  0.00    -0.265 A  
HETATM    5  O   UNL     1      -8.548   9.136  70.566  1.00  0.00    -0.178 OA 
HETATM    6  C   UNL     1     -10.867   9.343  70.791  1.00  0.00    -0.372 A  
HETATM    7  C   UNL     1     -12.052   9.118  71.486  1.00  0.00    -0.422 A  
HETATM    8  H   UNL     1      -8.556   9.714  69.811  1.00  0.00     0.000 HD 
HETATM    9  C   UNL     1     -12.049   8.297  72.613  1.00  0.00    -0.326 A  
HETATM   10  C   UNL     1     -10.860   7.699  73.036  1.00  0.00    -0.457 A  
ENDBRANCH   2   3
TORSDOF 1
ENDMDL
MODEL      130
REMARK 921   NORMALIZED FREE ENERGY PREDICTED BY IDOCK:   -2.33 KCAL/MOL
REMARK 922        TOTAL FREE ENERGY PREDICTED BY IDOCK:   -2.51 KCAL/MOL
REMARK 923 INTER-LIGAND FREE ENERGY PREDICTED BY IDOCK:   -2.47 KCAL/MOL
REMARK 924 INTRA-LIGAND FREE ENERGY PREDICTED BY IDOCK:   -0.04 KCAL/MOL
REMARK 927      BINDING AFFINITY PREDICTED BY RF-SCORE:    0.00 PKD
ROOT
HETATM    1  C   UNL     1     -10.893   7.245  70.413  1.00  0.00    -0.246 C  
HETATM    2  O   UNL     1     -10.546   8.624  70.390  1.00  0.00    -0.209 OA 
ENDROOT
BRANCH   2   3
HETATM    3  C   UNL     1     -10.482   9.217  69.158  1.00  0.00    -0.217 A  
HETATM    4  C   UNL     1     -10.726  10.564  68.877  1.00  0.00    -0.220 A  
HETATM    5  O   UNL     1     -11.117  11.467  69.821  1.00  0.00    -0.432 OA 
HETATM    6  C   UNL     1     -10.656  11.045  67.567  1.00  0.00    -0.266 A  
HETATM    7  C   UNL     1     -10.387  10.170  66.518  1.00  0.00    -0.270 A  
HETATM    8  H   UNL     1     -11.284  12.383  69.630  1.00  0.00     0.000 HD 
HETATM    9  C   UNL     1     -10.171   8.818  66.781  1.00  0.00    -0.354 A  
HETATM   10  C   UNL     1     -10.219   8.348  68.096  1.00  0.00    -0.253 A  
ENDBRANCH   2   3
TORSDOF 1
ENDMDL
MODEL      131
REMARK 921   NORMALIZED FREE ENERGY PREDICTED BY IDOCK:   -2.29 KCAL/MOL
REMARK 922        TOTAL FREE ENERGY PREDICTED BY IDOCK:   -2.47 KCAL/MOL
REMARK 923 INTER-LIGAND FREE ENERGY PREDICTED BY IDOCK:   -2.41 KCAL/MOL
REMARK 924 INTRA-LIGAND FREE ENERGY PREDICTED BY IDOCK:   -0.06 KCAL/MOL
REMARK 927      BINDING AFFINITY PREDICTED BY RF-SCORE:    0.00 PKD
ROOT
HETATM    1  C   UNL     1     -10.722  16.408  65.548  1.00  0.00    -0.287 C  
HETATM    2  O   UNL     1      -9.334  16.102  65.521  1.00  0.00    -0.405 OA 
ENDROOT
BRANCH   2   3
HETATM    3  C   UNL     1      -8.730  15.898  66.733  1.00  0.00    -0.269 A  
HETATM    4  C   UNL     1      -8.399  14.662  67.292  1.00  0.00    -0.213 A  
HETATM    5  O   UNL     1      -8.690  13.468  66.698  1.00  0.00    -0.424 OA 
HETATM    6  C   UNL     1      -7.808  14.583  68.555  1.00  0.00    -0.136 A  
HETATM    7  C   UNL     1      -7.587  15.743  69.293  1.00  0.00    -0.224 A  
HETATM    8  H   UNL     1      -8.465  12.627  67.079  1.00  0.00     0.000 HD 
HETATM    9  C   UNL     1      -7.941  16.981  68.760  1.00  0.00    -0.248 A  
HETATM   10  C   UNL     1      -8.510  17.055  67.486  1.00  0.00    -0.208 A  
ENDBRANCH   2   3
TORSDOF 1
ENDMDL
MODEL      132
REMARK 921   NORMALIZED FREE ENERGY PREDICTED BY IDOCK:   -2.29 KCAL/MOL
REMARK 922        TOTAL FREE ENERGY PREDICTED BY IDOCK:   -2.46 KCAL/MOL
REMARK 923 INTER-LIGAND FREE ENERGY PREDICTED BY IDOCK:   -2.41 KCAL/MOL
REMARK 924 INTRA-LIGAND FREE ENERGY PREDICTED BY IDOCK:   -0.05 KCAL/MOL
REMARK 927      BINDING AFFINITY PREDICTED BY RF-SCORE:    0.00 PKD
ROOT
HETATM    1  C   UNL     1     -12.406  13.432  66.750  1.00  0.00    -0.231 C  
HETATM    2  O   UNL     1     -11.070  12.994  66.957  1.00  0.00    -0.267 OA 
ENDROOT
BRANCH   2   3
HETATM    3  C   UNL     1     -10.912  11.744  67.491  1.00  0.00    -0.256 A  
HETATM    4  C   UNL     1     -10.467  10.606  66.813  1.00  0.00    -0.247 A  
HETATM    5  O   UNL     1     -10.173  10.596  65.481  1.00  0.00    -0.264 OA 
HETATM    6  C   UNL     1     -10.375   9.375  67.465  1.00  0.00    -0.314 A  
HETATM    7  C   UNL     1     -10.775   9.260  68.794  1.00  0.00    -0.184 A  
HETATM    8  H   UNL     1      -9.871   9.822  65.019  1.00  0.00     0.000 HD 
HETATM    9  C   UNL     1     -11.249  10.380  69.474  1.00  0.00    -0.325 A  
HETATM   10  C   UNL     1     -11.316  11.614  68.823  1.00  0.00    -0.324 A  
ENDBRANCH   2   3
TORSDOF 1
ENDMDL
MODEL      133
REMARK 921   NORMALIZED FREE ENERGY PREDICTED BY IDOCK:   -2.28 KCAL/MOL
REMARK 922        TOTAL FREE ENERGY PREDICTED BY IDOCK:   -2.46 KCAL/MOL
REMARK 923 INTER-LIGAND FREE ENERGY PREDICTED BY IDOCK:   -2.56 KCAL/MOL
REMARK 924 INTRA-LIGAND FREE ENERGY PREDICTED BY IDOCK:    0.11 KCAL/MOL
REMARK 927      BINDING AFFINITY PREDICTED BY RF-SCORE:    0.00 PKD
ROOT
HETATM    1  C   UNL     1      -8.851   8.288  67.878  1.00  0.00    -0.138 C  
HETATM    2  O   UNL     1     -10.202   8.139  68.293  1.00  0.00    -0.196 OA 
ENDROOT
BRANCH   2   3
HETATM    3  C   UNL     1     -10.781   9.227  68.891  1.00  0.00    -0.156 A  
HETATM    4  C   UNL     1     -11.027  10.464  68.292  1.00  0.00    -0.270 A  
HETATM    5  O   UNL     1     -10.666  10.761  67.010  1.00  0.00    -0.251 OA 
HETATM    6  C   UNL     1     -11.600  11.510  69.019  1.00  0.00    -0.383 A  
HETATM    7  C   UNL     1     -11.888  11.340  70.371  1.00  0.00    -0.443 A  
HETATM    8  H   UNL     1     -10.834  11.603  66.602  1.00  0.00     0.000 HD 
HETATM    9  C   UNL     1     -11.619  10.121  70.989  1.00  0.00    -0.462 A  
HETATM   10  C   UNL     1     -11.068   9.072  70.250  1.00  0.00    -0.263 A  
ENDBRANCH   2   3
TORSDOF 1
ENDMDL
MODEL      134
REMARK 921   NORMALIZED FREE ENERGY PREDICTED BY IDOCK:   -2.27 KCAL/MOL
REMARK 922        TOTAL FREE ENERGY PREDICTED BY IDOCK:   -2.45 KCAL/MOL
REMARK 923 INTER-LIGAND FREE ENERGY PREDICTED BY IDOCK:   -2.41 KCAL/MOL
REMARK 924 INTRA-LIGAND FREE ENERGY PREDICTED BY IDOCK:   -0.04 KCAL/MOL
REMARK 927      BINDING AFFINITY PREDICTED BY RF-SCORE:    0.00 PKD
ROOT
HETATM    1  C   UNL     1     -10.091   7.231  68.111  1.00  0.00    -0.173 C  
HETATM    2  O   UNL     1     -10.988   8.005  68.896  1.00  0.00    -0.036 OA 
ENDROOT
BRANCH   2   3
HETATM    3  C   UNL     1     -10.799   7.972  70.251  1.00  0.00    -0.241 A  
HETATM    4  C   UNL     1     -11.784   8.147  71.227  1.00  0.00    -0.279 A  
HETATM    5  O   UNL     1     -13.086   8.429  70.934  1.00  0.00    -0.501 OA 
HETATM    6  C   UNL     1     -11.458   8.119  72.585  1.00  0.00    -0.454 A  
HETATM    7  C   UNL     1     -10.132   7.963  72.979  1.00  0.00    -0.384 A  
HETATM    8  H   UNL     1     -13.756   8.549  71.598  1.00  0.00     0.000 HD 
HETATM    9  C   UNL     1      -9.135   7.817  72.015  1.00  0.00    -0.180 A  
HETATM   10  C   UNL     1      -9.471   7.822  70.660  1.00  0.00    -0.162 A  
ENDBRANCH   2   3
TORSDOF 1
ENDMDL
MODEL      135
REMARK 921   NORMALIZED FREE ENERGY PREDICTED BY IDOCK:   -2.26 KCAL/MOL
REMARK 922        TOTAL FREE ENERGY PREDICTED BY IDOCK:   -2.43 KCAL/MOL
REMARK 923 INTER-LIGAND FREE ENERGY PREDICTED BY IDOCK:   -2.39 KCAL/MOL
REMARK 924 INTRA-LIGAND FREE ENERGY PREDICTED BY IDOCK:   -0.04 KCAL/MOL
REMARK 927      BINDING AFFINITY PREDICTED BY RF-SCORE:    0.00 PKD
ROOT
HETATM    1  C   UNL     1      -6.503  17.094  68.750  1.00  0.00    -0.185 C  
HETATM    2  O   UNL     1      -7.768  17.741  68.728  1.00  0.00    -0.278 OA 
ENDROOT
BRANCH   2   3
HETATM    3  C   UNL     1      -8.870  16.929  68.709  1.00  0.00    -0.255 A  
HETATM    4  C   UNL     1     -10.197  17.341  68.570  1.00  0.00    -0.358 A  
HETATM    5  O   UNL     1     -10.570  18.650  68.481  1.00  0.00    -0.369 OA 
HETATM    6  C   UNL     1     -11.241  16.413  68.595  1.00  0.00    -0.332 A  
HETATM    7  C   UNL     1     -10.967  15.064  68.809  1.00  0.00    -0.259 A  
HETATM    8  H   UNL     1     -11.473  18.931  68.387  1.00  0.00     0.000 HD 
HETATM    9  C   UNL     1      -9.650  14.643  68.979  1.00  0.00    -0.145 A  
HETATM   10  C   UNL     1      -8.609  15.573  68.929  1.00  0.00    -0.209 A  
ENDBRANCH   2   3
TORSDOF 1
ENDMDL
MODEL      136
REMARK 921   NORMALIZED FREE ENERGY PREDICTED BY IDOCK:   -2.24 KCAL/MOL
REMARK 922        TOTAL FREE ENERGY PREDICTED BY IDOCK:   -2.42 KCAL/MOL
REMARK 923 INTER-LIGAND FREE ENERGY PREDICTED BY IDOCK:   -2.37 KCAL/MOL
REMARK 924 INTRA-LIGAND FREE ENERGY PREDICTED BY IDOCK:   -0.05 KCAL/MOL
REMARK 927      BINDING AFFINITY PREDICTED BY RF-SCORE:    0.00 PKD
ROOT
HETATM    1  C   UNL     1     -11.077   6.230  68.345  1.00  0.00    -0.279 C  
HETATM    2  O   UNL     1     -10.060   6.144  69.334  1.00  0.00    -0.166 OA 
ENDROOT
BRANCH   2   3
HETATM    3  C   UNL     1     -10.381   6.604  70.583  1.00  0.00    -0.202 A  
HETATM    4  C   UNL     1     -10.412   5.849  71.758  1.00  0.00    -0.227 A  
HETATM    5  O   UNL     1     -10.162   4.508  71.794  1.00  0.00    -0.193 OA 
HETATM    6  C   UNL     1     -10.786   6.429  72.972  1.00  0.00    -0.286 A  
HETATM    7  C   UNL     1     -11.180   7.764  73.012  1.00  0.00    -0.380 A  
HETATM    8  H   UNL     1     -10.182   3.994  72.593  1.00  0.00     0.000 HD 
HETATM    9  C   UNL     1     -11.184   8.521  71.842  1.00  0.00    -0.397 A  
HETATM   10  C   UNL     1     -10.786   7.941  70.635  1.00  0.00    -0.238 A  
ENDBRANCH   2   3
TORSDOF 1
ENDMDL
MODEL      137
REMARK 921   NORMALIZED FREE ENERGY PREDICTED BY IDOCK:   -2.24 KCAL/MOL
REMARK 922        TOTAL FREE ENERGY PREDICTED BY IDOCK:   -2.42 KCAL/MOL
REMARK 923 INTER-LIGAND FREE ENERGY PREDICTED BY IDOCK:   -2.36 KCAL/MOL
REMARK 924 INTRA-LIGAND FREE ENERGY PREDICTED BY IDOCK:   -0.06 KCAL/MOL
REMARK 927      BINDING AFFINITY PREDICTED BY RF-SCORE:    0.00 PKD
ROOT
HETATM    1  C   UNL     1     -11.270   6.336  69.473  1.00  0.00    -0.430 C  
HETATM    2  O   UNL     1     -10.174   6.195  70.367  1.00  0.00    -0.188 OA 
ENDROOT
BRANCH   2   3
HETATM    3  C   UNL     1     -10.296   5.238  71.338  1.00  0.00    -0.221 A  
HETATM    4  C   UNL     1      -9.715   3.967  71.322  1.00  0.00    -0.185 A  
HETATM    5  O   UNL     1      -8.970   3.497  70.280  1.00  0.00    -0.085 OA 
HETATM    6  C   UNL     1      -9.939   3.065  72.364  1.00  0.00    -0.235 A  
HETATM    7  C   UNL     1     -10.789   3.410  73.412  1.00  0.00    -0.311 A  
HETATM    8  H   UNL     1      -8.575   2.633  70.269  1.00  0.00     0.000 HD 
HETATM    9  C   UNL     1     -11.399   4.663  73.425  1.00  0.00    -0.394 A  
HETATM   10  C   UNL     1     -11.152   5.569  72.392  1.00  0.00    -0.312 A  
ENDBRANCH   2   3
TORSDOF 1
ENDMDL
MODEL      138
REMARK 921   NORMALIZED FREE ENERGY PREDICTED BY IDOCK:   -2.24 KCAL/MOL
REMARK 922        TOTAL FREE ENERGY PREDICTED BY IDOCK:   -2.41 KCAL/MOL
REMARK 923 INTER-LIGAND FREE ENERGY PREDICTED BY IDOCK:   -2.47 KCAL/MOL
REMARK 924 INTRA-LIGAND FREE ENERGY PREDICTED BY IDOCK:    0.06 KCAL/MOL
REMARK 927      BINDING AFFINITY PREDICTED BY RF-SCORE:    0.00 PKD
ROOT
HETATM    1  C   UNL     1     -11.806  15.451  70.566  1.00  0.00    -0.339 C  
HETATM    2  O   UNL     1     -11.255  16.582  69.904  1.00  0.00    -0.303 OA 
ENDROOT
BRANCH   2   3
HETATM    3  C   UNL     1     -10.456  16.327  68.822  1.00  0.00    -0.282 A  
HETATM    4  C   UNL     1      -9.212  15.692  68.846  1.00  0.00    -0.226 A  
HETATM    5  O   UNL     1      -8.603  15.279  69.995  1.00  0.00    -0.318 OA 
HETATM    6  C   UNL     1      -8.476  15.515  67.672  1.00  0.00    -0.177 A  
HETATM    7  C   UNL     1      -8.959  16.017  66.466  1.00  0.00    -0.327 A  
HETATM    8  H   UNL     1      -7.757  14.847  70.012  1.00  0.00     0.000 HD 
HETATM    9  C   UNL     1     -10.185  16.679  66.433  1.00  0.00    -0.322 A  
HETATM   10  C   UNL     1     -10.926  16.832  67.606  1.00  0.00    -0.178 A  
ENDBRANCH   2   3
TORSDOF 1
ENDMDL
MODEL      139
REMARK 921   NORMALIZED FREE ENERGY PREDICTED BY IDOCK:   -2.24 KCAL/MOL
REMARK 922        TOTAL FREE ENERGY PREDICTED BY IDOCK:   -2.41 KCAL/MOL
REMARK 923 INTER-LIGAND FREE ENERGY PREDICTED BY IDOCK:   -2.36 KCAL/MOL
REMARK 924 INTRA-LIGAND FREE ENERGY PREDICTED BY IDOCK:   -0.05 KCAL/MOL
REMARK 927      BINDING AFFINITY PREDICTED BY RF-SCORE:    0.00 PKD
ROOT
HETATM    1  C   UNL     1      -8.362   8.034  73.780  1.00  0.00    -0.252 C  
HETATM    2  O   UNL     1      -9.757   7.958  73.520  1.00  0.00    -0.290 OA 
ENDROOT
BRANCH   2   3
HETATM    3  C   UNL     1     -10.127   7.392  72.329  1.00  0.00    -0.196 A  
HETATM    4  C   UNL     1     -10.420   8.074  71.146  1.00  0.00    -0.198 A  
HETATM    5  O   UNL     1     -10.418   9.434  71.045  1.00  0.00    -0.283 OA 
HETATM    6  C   UNL     1     -10.815   7.380  70.000  1.00  0.00    -0.266 A  
HETATM    7  C   UNL     1     -10.968   5.997  70.042  1.00  0.00    -0.450 A  
HETATM    8  H   UNL     1     -10.617   9.898  70.240  1.00  0.00     0.000 HD 
HETATM    9  C   UNL     1     -10.709   5.307  71.225  1.00  0.00    -0.198 A  
HETATM   10  C   UNL     1     -10.291   6.004  72.361  1.00  0.00    -0.224 A  
ENDBRANCH   2   3
TORSDOF 1
ENDMDL
MODEL      140
REMARK 921   NORMALIZED FREE ENERGY PREDICTED BY IDOCK:   -2.23 KCAL/MOL
REMARK 922        TOTAL FREE ENERGY PREDICTED BY IDOCK:   -2.40 KCAL/MOL
REMARK 923 INTER-LIGAND FREE ENERGY PREDICTED BY IDOCK:   -2.36 KCAL/MOL
REMARK 924 INTRA-LIGAND FREE ENERGY PREDICTED BY IDOCK:   -0.04 KCAL/MOL
REMARK 927      BINDING AFFINITY PREDICTED BY RF-SCORE:    0.00 PKD
ROOT
HETATM    1  C   UNL     1     -12.756   7.107  71.565  1.00  0.00    -0.393 C  
HETATM    2  O   UNL     1     -11.349   7.297  71.503  1.00  0.00    -0.243 OA 
ENDROOT
BRANCH   2   3
HETATM    3  C   UNL     1     -10.698   6.705  70.455  1.00  0.00    -0.250 A  
HETATM    4  C   UNL     1     -10.562   7.228  69.166  1.00  0.00    -0.208 A  
HETATM    5  O   UNL     1     -11.121   8.408  68.774  1.00  0.00    -0.420 OA 
HETATM    6  C   UNL     1      -9.895   6.511  68.170  1.00  0.00    -0.131 A  
HETATM    7  C   UNL     1      -9.399   5.238  68.443  1.00  0.00    -0.146 A  
HETATM    8  H   UNL     1     -11.029   8.764  67.897  1.00  0.00     0.000 HD 
HETATM    9  C   UNL     1      -9.555   4.692  69.715  1.00  0.00    -0.258 A  
HETATM   10  C   UNL     1     -10.202   5.424  70.713  1.00  0.00    -0.313 A  
ENDBRANCH   2   3
TORSDOF 1
ENDMDL
MODEL      141
REMARK 921   NORMALIZED FREE ENERGY PREDICTED BY IDOCK:   -2.21 KCAL/MOL
REMARK 922        TOTAL FREE ENERGY PREDICTED BY IDOCK:   -2.39 KCAL/MOL
REMARK 923 INTER-LIGAND FREE ENERGY PREDICTED BY IDOCK:   -2.35 KCAL/MOL
REMARK 924 INTRA-LIGAND FREE ENERGY PREDICTED BY IDOCK:   -0.04 KCAL/MOL
REMARK 927      BINDING AFFINITY PREDICTED BY RF-SCORE:    0.00 PKD
ROOT
HETATM    1  C   UNL     1     -11.752  10.496  70.586  1.00  0.00    -0.357 C  
HETATM    2  O   UNL     1     -11.718   9.159  71.067  1.00  0.00    -0.278 OA 
ENDROOT
BRANCH   2   3
HETATM    3  C   UNL     1     -10.634   8.406  70.703  1.00  0.00    -0.208 A  
HETATM    4  C   UNL     1     -10.667   7.115  70.171  1.00  0.00    -0.240 A  
HETATM    5  O   UNL     1     -11.820   6.409  69.989  1.00  0.00    -0.515 OA 
HETATM    6  C   UNL     1      -9.484   6.437  69.865  1.00  0.00    -0.163 A  
HETATM    7  C   UNL     1      -8.253   7.030  70.135  1.00  0.00    -0.133 A  
HETATM    8  H   UNL     1     -11.842   5.530  69.627  1.00  0.00     0.000 HD 
HETATM    9  C   UNL     1      -8.206   8.305  70.694  1.00  0.00    -0.112 A  
HETATM   10  C   UNL     1      -9.392   8.987  70.976  1.00  0.00    -0.339 A  
ENDBRANCH   2   3
TORSDOF 1
ENDMDL
MODEL      142
REMARK 921   NORMALIZED FREE ENERGY PREDICTED BY IDOCK:   -2.20 KCAL/MOL
REMARK 922        TOTAL FREE ENERGY PREDICTED BY IDOCK:   -2.37 KCAL/MOL
REMARK 923 INTER-LIGAND FREE ENERGY PREDICTED BY IDOCK:   -2.31 KCAL/MOL
REMARK 924 INTRA-LIGAND FREE ENERGY PREDICTED BY IDOCK:   -0.05 KCAL/MOL
REMARK 927      BINDING AFFINITY PREDICTED BY RF-SCORE:    0.00 PKD
ROOT
HETATM    1  C   UNL     1      -8.738   5.616  73.654  1.00  0.00    -0.122 C  
HETATM    2  O   UNL     1      -9.645   4.748  72.989  1.00  0.00    -0.131 OA 
ENDROOT
BRANCH   2   3
HETATM    3  C   UNL     1     -10.229   5.231  71.849  1.00  0.00    -0.207 A  
HETATM    4  C   UNL     1      -9.893   4.884  70.539  1.00  0.00    -0.227 A  
HETATM    5  O   UNL     1      -8.876   4.029  70.227  1.00  0.00    -0.078 OA 
HETATM    6  C   UNL     1     -10.547   5.471  69.453  1.00  0.00    -0.349 A  
HETATM    7  C   UNL     1     -11.514   6.449  69.670  1.00  0.00    -0.446 A  
HETATM    8  H   UNL     1      -8.647   3.793  69.336  1.00  0.00     0.000 HD 
HETATM    9  C   UNL     1     -11.837   6.827  70.971  1.00  0.00    -0.427 A  
HETATM   10  C   UNL     1     -11.196   6.219  72.053  1.00  0.00    -0.327 A  
ENDBRANCH   2   3
TORSDOF 1
ENDMDL
MODEL      143
REMARK 921   NORMALIZED FREE ENERGY PREDICTED BY IDOCK:   -2.20 KCAL/MOL
REMARK 922        TOTAL FREE ENERGY PREDICTED BY IDOCK:   -2.37 KCAL/MOL
REMARK 923 INTER-LIGAND FREE ENERGY PREDICTED BY IDOCK:   -2.33 KCAL/MOL
REMARK 924 INTRA-LIGAND FREE ENERGY PREDICTED BY IDOCK:   -0.04 KCAL/MOL
REMARK 927      BINDING AFFINITY PREDICTED BY RF-SCORE:    0.00 PKD
ROOT
HETATM    1  C   UNL     1      -7.173   4.222  64.736  1.00  0.00    -0.070 C  
HETATM    2  O   UNL     1      -8.590   4.334  64.703  1.00  0.00    -0.115 OA 
ENDROOT
BRANCH   2   3
HETATM    3  C   UNL     1      -9.166   5.093  65.686  1.00  0.00    -0.151 A  
HETATM    4  C   UNL     1     -10.525   5.134  66.008  1.00  0.00    -0.191 A  
HETATM    5  O   UNL     1     -11.477   4.435  65.327  1.00  0.00    -1.003 OA 
HETATM    6  C   UNL     1     -10.995   5.976  67.018  1.00  0.00    -0.364 A  
HETATM    7  C   UNL     1     -10.113   6.823  67.685  1.00  0.00    -0.201 A  
HETATM    8  H   UNL     1     -12.402   4.463  65.546  1.00  0.00     0.000 HD 
HETATM    9  C   UNL     1      -8.760   6.814  67.353  1.00  0.00    -0.119 A  
HETATM   10  C   UNL     1      -8.292   5.953  66.358  1.00  0.00    -0.114 A  
ENDBRANCH   2   3
TORSDOF 1
ENDMDL
MODEL      144
REMARK 921   NORMALIZED FREE ENERGY PREDICTED BY IDOCK:   -2.18 KCAL/MOL
REMARK 922        TOTAL FREE ENERGY PREDICTED BY IDOCK:   -2.35 KCAL/MOL
REMARK 923 INTER-LIGAND FREE ENERGY PREDICTED BY IDOCK:   -2.31 KCAL/MOL
REMARK 924 INTRA-LIGAND FREE ENERGY PREDICTED BY IDOCK:   -0.04 KCAL/MOL
REMARK 927      BINDING AFFINITY PREDICTED BY RF-SCORE:    0.00 PKD
ROOT
HETATM    1  C   UNL     1      -8.777   5.803  73.113  1.00  0.00    -0.122 C  
HETATM    2  O   UNL     1      -9.528   4.891  72.322  1.00  0.00    -0.136 OA 
ENDROOT
BRANCH   2   3
HETATM    3  C   UNL     1     -10.088   5.393  71.178  1.00  0.00    -0.212 A  
HETATM    4  C   UNL     1     -11.294   6.093  71.087  1.00  0.00    -0.275 A  
HETATM    5  O   UNL     1     -12.107   6.327  72.157  1.00  0.00    -0.388 OA 
HETATM    6  C   UNL     1     -11.775   6.531  69.851  1.00  0.00    -0.349 A  
HETATM    7  C   UNL     1     -11.076   6.228  68.686  1.00  0.00    -0.409 A  
HETATM    8  H   UNL     1     -12.927   6.803  72.095  1.00  0.00     0.000 HD 
HETATM    9  C   UNL     1      -9.887   5.504  68.759  1.00  0.00    -0.206 A  
HETATM   10  C   UNL     1      -9.399   5.090  70.000  1.00  0.00    -0.208 A  
ENDBRANCH   2   3
TORSDOF 1
ENDMDL
MODEL      145
REMARK 921   NORMALIZED FREE ENERGY PREDICTED BY IDOCK:   -2.18 KCAL/MOL
REMARK 922        TOTAL FREE ENERGY PREDICTED BY IDOCK:   -2.35 KCAL/MOL
REMARK 923 INTER-LIGAND FREE ENERGY PREDICTED BY IDOCK:   -2.30 KCAL/MOL
REMARK 924 INTRA-LIGAND FREE ENERGY PREDICTED BY IDOCK:   -0.04 KCAL/MOL
REMARK 927      BINDING AFFINITY PREDICTED BY RF-SCORE:    0.00 PKD
ROOT
HETATM    1  C   UNL     1     -11.342  12.733  66.433  1.00  0.00    -0.323 C  
HETATM    2  O   UNL     1     -11.473  11.381  66.852  1.00  0.00    -0.445 OA 
ENDROOT
BRANCH   2   3
HETATM    3  C   UNL     1     -10.399  10.564  66.623  1.00  0.00    -0.237 A  
HETATM    4  C   UNL     1     -10.291   9.221  66.992  1.00  0.00    -0.255 A  
HETATM    5  O   UNL     1     -11.257   8.555  67.688  1.00  0.00    -0.365 OA 
HETATM    6  C   UNL     1      -9.126   8.498  66.727  1.00  0.00    -0.186 A  
HETATM    7  C   UNL     1      -8.036   9.128  66.131  1.00  0.00    -0.107 A  
HETATM    8  H   UNL     1     -11.183   7.641  67.939  1.00  0.00     0.000 HD 
HETATM    9  C   UNL     1      -8.120  10.476  65.786  1.00  0.00    -0.158 A  
HETATM   10  C   UNL     1      -9.296  11.187  66.032  1.00  0.00    -0.228 A  
ENDBRANCH   2   3
TORSDOF 1
ENDMDL
MODEL      146
REMARK 921   NORMALIZED FREE ENERGY PREDICTED BY IDOCK:   -2.16 KCAL/MOL
REMARK 922        TOTAL FREE ENERGY PREDICTED BY IDOCK:   -2.33 KCAL/MOL
REMARK 923 INTER-LIGAND FREE ENERGY PREDICTED BY IDOCK:   -2.29 KCAL/MOL
REMARK 924 INTRA-LIGAND FREE ENERGY PREDICTED BY IDOCK:   -0.04 KCAL/MOL
REMARK 927      BINDING AFFINITY PREDICTED BY RF-SCORE:    0.00 PKD
ROOT
HETATM    1  C   UNL     1     -10.907   5.995  67.068  1.00  0.00    -0.331 C  
HETATM    2  O   UNL     1     -10.357   6.454  68.295  1.00  0.00    -0.156 OA 
ENDROOT
BRANCH   2   3
HETATM    3  C   UNL     1     -10.561   7.773  68.601  1.00  0.00    -0.120 A  
HETATM    4  C   UNL     1     -10.935   8.284  69.846  1.00  0.00    -0.166 A  
HETATM    5  O   UNL     1     -11.196   7.498  70.930  1.00  0.00    -0.259 OA 
HETATM    6  C   UNL     1     -11.141   9.654  70.025  1.00  0.00    -0.293 A  
HETATM    7  C   UNL     1     -11.021  10.522  68.943  1.00  0.00    -0.291 A  
HETATM    8  H   UNL     1     -11.451   7.846  71.778  1.00  0.00     0.000 HD 
HETATM    9  C   UNL     1     -10.679  10.022  67.688  1.00  0.00    -0.340 A  
HETATM   10  C   UNL     1     -10.451   8.654  67.521  1.00  0.00    -0.335 A  
ENDBRANCH   2   3
TORSDOF 1
ENDMDL
MODEL      147
REMARK 921   NORMALIZED FREE ENERGY PREDICTED BY IDOCK:   -2.16 KCAL/MOL
REMARK 922        TOTAL FREE ENERGY PREDICTED BY IDOCK:   -2.33 KCAL/MOL
REMARK 923 INTER-LIGAND FREE ENERGY PREDICTED BY IDOCK:   -2.28 KCAL/MOL
REMARK 924 INTRA-LIGAND FREE ENERGY PREDICTED BY IDOCK:   -0.05 KCAL/MOL
REMARK 927      BINDING AFFINITY PREDICTED BY RF-SCORE:    0.00 PKD
ROOT
HETATM    1  C   UNL     1      -9.455  10.631  69.114  1.00  0.00    -0.170 C  
HETATM    2  O   UNL     1      -8.965   9.322  69.376  1.00  0.00    -0.136 OA 
ENDROOT
BRANCH   2   3
HETATM    3  C   UNL     1      -9.886   8.397  69.788  1.00  0.00    -0.187 A  
HETATM    4  C   UNL     1     -10.081   7.126  69.239  1.00  0.00    -0.176 A  
HETATM    5  O   UNL     1      -9.386   6.660  68.162  1.00  0.00    -0.118 OA 
HETATM    6  C   UNL     1     -11.078   6.280  69.731  1.00  0.00    -0.473 A  
HETATM    7  C   UNL     1     -11.922   6.718  70.748  1.00  0.00    -0.433 A  
HETATM    8  H   UNL     1      -9.519   5.797  67.789  1.00  0.00     0.000 HD 
HETATM    9  C   UNL     1     -11.758   7.994  71.284  1.00  0.00    -0.311 A  
HETATM   10  C   UNL     1     -10.744   8.827  70.803  1.00  0.00    -0.277 A  
ENDBRANCH   2   3
TORSDOF 1
ENDMDL
MODEL      148
REMARK 921   NORMALIZED FREE ENERGY PREDICTED BY IDOCK:   -2.15 KCAL/MOL
REMARK 922        TOTAL FREE ENERGY PREDICTED BY IDOCK:   -2.32 KCAL/MOL
REMARK 923 INTER-LIGAND FREE ENERGY PREDICTED BY IDOCK:   -2.30 KCAL/MOL
REMARK 924 INTRA-LIGAND FREE ENERGY PREDICTED BY IDOCK:   -0.02 KCAL/MOL
REMARK 927      BINDING AFFINITY PREDICTED BY RF-SCORE:    0.00 PKD
ROOT
HETATM    1  C   UNL     1     -12.909   6.764  71.864  1.00  0.00    -0.219 C  
HETATM    2  O   UNL     1     -11.490   6.819  71.925  1.00  0.00    -0.256 OA 
ENDROOT
BRANCH   2   3
HETATM    3  C   UNL     1     -10.830   5.620  71.879  1.00  0.00    -0.242 A  
HETATM    4  C   UNL     1     -10.698   4.709  72.929  1.00  0.00    -0.225 A  
HETATM    5  O   UNL     1     -11.189   4.934  74.182  1.00  0.00    -0.373 OA 
HETATM    6  C   UNL     1      -9.972   3.527  72.765  1.00  0.00    -0.218 A  
HETATM    7  C   UNL     1      -9.328   3.269  71.557  1.00  0.00    -0.204 A  
HETATM    8  H   UNL     1     -11.100   4.314  74.897  1.00  0.00     0.000 HD 
HETATM    9  C   UNL     1      -9.425   4.185  70.511  1.00  0.00    -0.243 A  
HETATM   10  C   UNL     1     -10.173   5.353  70.674  1.00  0.00    -0.323 A  
ENDBRANCH   2   3
TORSDOF 1
ENDMDL
MODEL      149
REMARK 921   NORMALIZED FREE ENERGY PREDICTED BY IDOCK:   -2.15 KCAL/MOL
REMARK 922        TOTAL FREE ENERGY PREDICTED BY IDOCK:   -2.31 KCAL/MOL
REMARK 923 INTER-LIGAND FREE ENERGY PREDICTED BY IDOCK:   -2.27 KCAL/MOL
REMARK 924 INTRA-LIGAND FREE ENERGY PREDICTED BY IDOCK:   -0.04 KCAL/MOL
REMARK 927      BINDING AFFINITY PREDICTED BY RF-SCORE:    0.00 PKD
ROOT
HETATM    1  C   UNL     1     -10.375  12.291  66.678  1.00  0.00    -0.215 C  
HETATM    2  O   UNL     1     -10.064  12.233  65.292  1.00  0.00    -0.273 OA 
ENDROOT
BRANCH   2   3
HETATM    3  C   UNL     1      -9.479  11.078  64.846  1.00  0.00    -0.233 A  
HETATM    4  C   UNL     1      -9.416  10.645  63.519  1.00  0.00    -0.308 A  
HETATM    5  O   UNL     1      -9.991  11.319  62.482  1.00  0.00    -0.583 OA 
HETATM    6  C   UNL     1      -8.813   9.428  63.192  1.00  0.00    -0.207 A  
HETATM    7  C   UNL     1      -8.309   8.609  64.200  1.00  0.00    -0.133 A  
HETATM    8  H   UNL     1      -9.948  11.024  61.580  1.00  0.00     0.000 HD 
HETATM    9  C   UNL     1      -8.393   9.015  65.530  1.00  0.00    -0.138 A  
HETATM   10  C   UNL     1      -8.975  10.244  65.848  1.00  0.00    -0.181 A  
ENDBRANCH   2   3
TORSDOF 1
ENDMDL
MODEL      150
REMARK 921   NORMALIZED FREE ENERGY PREDICTED BY IDOCK:   -2.14 KCAL/MOL
REMARK 922        TOTAL FREE ENERGY PREDICTED BY IDOCK:   -2.31 KCAL/MOL
REMARK 923 INTER-LIGAND FREE ENERGY PREDICTED BY IDOCK:   -2.26 KCAL/MOL
REMARK 924 INTRA-LIGAND FREE ENERGY PREDICTED BY IDOCK:   -0.05 KCAL/MOL
REMARK 927      BINDING AFFINITY PREDICTED BY RF-SCORE:    0.00 PKD
ROOT
HETATM    1  C   UNL     1      -8.291   9.564  68.696  1.00  0.00    -0.117 C  
HETATM    2  O   UNL     1      -8.757   9.099  69.956  1.00  0.00    -0.145 OA 
ENDROOT
BRANCH   2   3
HETATM    3  C   UNL     1      -9.412   7.897  69.960  1.00  0.00    -0.157 A  
HETATM    4  C   UNL     1     -10.791   7.709  70.079  1.00  0.00    -0.243 A  
HETATM    5  O   UNL     1     -11.674   8.734  70.260  1.00  0.00    -0.463 OA 
HETATM    6  C   UNL     1     -11.340   6.425  70.098  1.00  0.00    -0.485 A  
HETATM    7  C   UNL     1     -10.504   5.312  70.046  1.00  0.00    -0.351 A  
HETATM    8  H   UNL     1     -12.612   8.606  70.342  1.00  0.00     0.000 HD 
HETATM    9  C   UNL     1      -9.124   5.484  69.957  1.00  0.00    -0.160 A  
HETATM   10  C   UNL     1      -8.585   6.772  69.915  1.00  0.00    -0.141 A  
ENDBRANCH   2   3
TORSDOF 1
ENDMDL
MODEL      151
REMARK 921   NORMALIZED FREE ENERGY PREDICTED BY IDOCK:   -2.12 KCAL/MOL
REMARK 922        TOTAL FREE ENERGY PREDICTED BY IDOCK:   -2.29 KCAL/MOL
REMARK 923 INTER-LIGAND FREE ENERGY PREDICTED BY IDOCK:   -2.25 KCAL/MOL
REMARK 924 INTRA-LIGAND FREE ENERGY PREDICTED BY IDOCK:   -0.03 KCAL/MOL
REMARK 927      BINDING AFFINITY PREDICTED BY RF-SCORE:    0.00 PKD
ROOT
HETATM    1  C   UNL     1      -9.603   7.813  70.425  1.00  0.00    -0.175 C  
HETATM    2  O   UNL     1      -9.417   9.222  70.468  1.00  0.00    -0.224 OA 
ENDROOT
BRANCH   2   3
HETATM    3  C   UNL     1     -10.143   9.961  69.574  1.00  0.00    -0.221 A  
HETATM    4  C   UNL     1      -9.834  10.164  68.226  1.00  0.00    -0.145 A  
HETATM    5  O   UNL     1      -8.708   9.670  67.634  1.00  0.00    -0.125 OA 
HETATM    6  C   UNL     1     -10.643  10.967  67.419  1.00  0.00    -0.276 A  
HETATM    7  C   UNL     1     -11.746  11.616  67.968  1.00  0.00    -0.351 A  
HETATM    8  H   UNL     1      -8.497   9.808  66.718  1.00  0.00     0.000 HD 
HETATM    9  C   UNL     1     -12.049  11.447  69.317  1.00  0.00    -0.356 A  
HETATM   10  C   UNL     1     -11.250  10.624  70.113  1.00  0.00    -0.378 A  
ENDBRANCH   2   3
TORSDOF 1
ENDMDL
MODEL      152
REMARK 921   NORMALIZED FREE ENERGY PREDICTED BY IDOCK:   -2.12 KCAL/MOL
REMARK 922        TOTAL FREE ENERGY PREDICTED BY IDOCK:   -2.29 KCAL/MOL
REMARK 923 INTER-LIGAND FREE ENERGY PREDICTED BY IDOCK:   -2.27 KCAL/MOL
REMARK 924 INTRA-LIGAND FREE ENERGY PREDICTED BY IDOCK:   -0.02 KCAL/MOL
REMARK 927      BINDING AFFINITY PREDICTED BY RF-SCORE:    0.00 PKD
ROOT
HETATM    1  C   UNL     1     -10.292  10.845  66.412  1.00  0.00    -0.251 C  
HETATM    2  O   UNL     1     -11.212  10.409  67.404  1.00  0.00    -0.301 OA 
ENDROOT
BRANCH   2   3
HETATM    3  C   UNL     1     -10.760   9.463  68.284  1.00  0.00    -0.171 A  
HETATM    4  C   UNL     1     -10.601   8.100  68.021  1.00  0.00    -0.126 A  
HETATM    5  O   UNL     1     -10.935   7.523  66.831  1.00  0.00    -0.508 OA 
HETATM    6  C   UNL     1     -10.156   7.226  69.015  1.00  0.00    -0.186 A  
HETATM    7  C   UNL     1      -9.910   7.703  70.301  1.00  0.00    -0.180 A  
HETATM    8  H   UNL     1     -10.827   6.596  66.652  1.00  0.00     0.000 HD 
HETATM    9  C   UNL     1     -10.093   9.055  70.585  1.00  0.00    -0.284 A  
HETATM   10  C   UNL     1     -10.516   9.927  69.579  1.00  0.00    -0.261 A  
ENDBRANCH   2   3
TORSDOF 1
ENDMDL
MODEL      153
REMARK 921   NORMALIZED FREE ENERGY PREDICTED BY IDOCK:   -2.12 KCAL/MOL
REMARK 922        TOTAL FREE ENERGY PREDICTED BY IDOCK:   -2.28 KCAL/MOL
REMARK 923 INTER-LIGAND FREE ENERGY PREDICTED BY IDOCK:   -2.23 KCAL/MOL
REMARK 924 INTRA-LIGAND FREE ENERGY PREDICTED BY IDOCK:   -0.05 KCAL/MOL
REMARK 927      BINDING AFFINITY PREDICTED BY RF-SCORE:    0.00 PKD
ROOT
HETATM    1  C   UNL     1     -11.388   1.759  62.583  1.00  0.00    -0.249 C  
HETATM    2  O   UNL     1     -10.641   2.969  62.579  1.00  0.00    -0.136 OA 
ENDROOT
BRANCH   2   3
HETATM    3  C   UNL     1      -9.971   3.277  63.731  1.00  0.00    -0.169 A  
HETATM    4  C   UNL     1     -10.478   4.000  64.814  1.00  0.00    -0.177 A  
HETATM    5  O   UNL     1     -11.728   4.545  64.830  1.00  0.00    -1.012 OA 
HETATM    6  C   UNL     1      -9.681   4.275  65.927  1.00  0.00    -0.211 A  
HETATM    7  C   UNL     1      -8.349   3.868  65.947  1.00  0.00    -0.109 A  
HETATM    8  H   UNL     1     -12.073   5.038  65.566  1.00  0.00     0.000 HD 
HETATM    9  C   UNL     1      -7.822   3.172  64.861  1.00  0.00    -0.082 A  
HETATM   10  C   UNL     1      -8.631   2.879  63.761  1.00  0.00    -0.086 A  
ENDBRANCH   2   3
TORSDOF 1
ENDMDL
MODEL      154
REMARK 921   NORMALIZED FREE ENERGY PREDICTED BY IDOCK:   -2.07 KCAL/MOL
REMARK 922        TOTAL FREE ENERGY PREDICTED BY IDOCK:   -2.23 KCAL/MOL
REMARK 923 INTER-LIGAND FREE ENERGY PREDICTED BY IDOCK:   -2.18 KCAL/MOL
REMARK 924 INTRA-LIGAND FREE ENERGY PREDICTED BY IDOCK:   -0.05 KCAL/MOL
REMARK 927      BINDING AFFINITY PREDICTED BY RF-SCORE:    0.00 PKD
ROOT
HETATM    1  C   UNL     1     -10.005   6.043  68.069  1.00  0.00    -0.142 C  
HETATM    2  O   UNL     1     -10.125   4.666  67.739  1.00  0.00    -0.122 OA 
ENDROOT
BRANCH   2   3
HETATM    3  C   UNL     1      -9.567   4.271  66.553  1.00  0.00    -0.200 A  
HETATM    4  C   UNL     1     -10.214   4.209  65.316  1.00  0.00    -0.191 A  
HETATM    5  O   UNL     1     -11.536   4.501  65.147  1.00  0.00    -1.102 OA 
HETATM    6  C   UNL     1      -9.541   3.759  64.178  1.00  0.00    -0.163 A  
HETATM    7  C   UNL     1      -8.223   3.320  64.278  1.00  0.00    -0.086 A  
HETATM    8  H   UNL     1     -11.977   4.459  64.306  1.00  0.00     0.000 HD 
HETATM    9  C   UNL     1      -7.575   3.347  65.511  1.00  0.00    -0.077 A  
HETATM   10  C   UNL     1      -8.247   3.821  66.641  1.00  0.00    -0.096 A  
ENDBRANCH   2   3
TORSDOF 1
ENDMDL
MODEL      155
REMARK 921   NORMALIZED FREE ENERGY PREDICTED BY IDOCK:   -2.04 KCAL/MOL
REMARK 922        TOTAL FREE ENERGY PREDICTED BY IDOCK:   -2.20 KCAL/MOL
REMARK 923 INTER-LIGAND FREE ENERGY PREDICTED BY IDOCK:   -2.16 KCAL/MOL
REMARK 924 INTRA-LIGAND FREE ENERGY PREDICTED BY IDOCK:   -0.04 KCAL/MOL
REMARK 927      BINDING AFFINITY PREDICTED BY RF-SCORE:    0.00 PKD
ROOT
HETATM    1  C   UNL     1     -10.535  10.854  64.223  1.00  0.00    -0.335 C  
HETATM    2  O   UNL     1      -9.960   9.841  65.039  1.00  0.00    -0.286 OA 
ENDROOT
BRANCH   2   3
HETATM    3  C   UNL     1      -9.703  10.178  66.340  1.00  0.00    -0.205 A  
HETATM    4  C   UNL     1      -8.597  10.893  66.805  1.00  0.00    -0.137 A  
HETATM    5  O   UNL     1      -7.583  11.315  65.995  1.00  0.00    -0.343 OA 
HETATM    6  C   UNL     1      -8.432  11.150  68.168  1.00  0.00    -0.138 A  
HETATM    7  C   UNL     1      -9.352  10.650  69.086  1.00  0.00    -0.174 A  
HETATM    8  H   UNL     1      -6.830  11.801  66.311  1.00  0.00     0.000 HD 
HETATM    9  C   UNL     1     -10.444   9.909  68.639  1.00  0.00    -0.231 A  
HETATM   10  C   UNL     1     -10.615   9.676  67.273  1.00  0.00    -0.315 A  
ENDBRANCH   2   3
TORSDOF 1
ENDMDL
MODEL      156
REMARK 921   NORMALIZED FREE ENERGY PREDICTED BY IDOCK:   -2.03 KCAL/MOL
REMARK 922        TOTAL FREE ENERGY PREDICTED BY IDOCK:   -2.19 KCAL/MOL
REMARK 923 INTER-LIGAND FREE ENERGY PREDICTED BY IDOCK:   -2.15 KCAL/MOL
REMARK 924 INTRA-LIGAND FREE ENERGY PREDICTED BY IDOCK:   -0.04 KCAL/MOL
REMARK 927      BINDING AFFINITY PREDICTED BY RF-SCORE:    0.00 PKD
ROOT
HETATM    1  C   UNL     1     -12.717   7.142  71.568  1.00  0.00    -0.393 C  
HETATM    2  O   UNL     1     -11.346   7.498  71.678  1.00  0.00    -0.244 OA 
ENDROOT
BRANCH   2   3
HETATM    3  C   UNL     1     -10.522   7.078  70.669  1.00  0.00    -0.210 A  
HETATM    4  C   UNL     1      -9.204   7.488  70.454  1.00  0.00    -0.157 A  
HETATM    5  O   UNL     1      -8.575   8.423  71.223  1.00  0.00    -0.132 OA 
HETATM    6  C   UNL     1      -8.473   7.006  69.366  1.00  0.00    -0.133 A  
HETATM    7  C   UNL     1      -9.073   6.142  68.453  1.00  0.00    -0.113 A  
HETATM    8  H   UNL     1      -7.679   8.702  71.077  1.00  0.00     0.000 HD 
HETATM    9  C   UNL     1     -10.397   5.749  68.638  1.00  0.00    -0.283 A  
HETATM   10  C   UNL     1     -11.115   6.217  69.741  1.00  0.00    -0.486 A  
ENDBRANCH   2   3
TORSDOF 1
ENDMDL
MODEL      157
REMARK 921   NORMALIZED FREE ENERGY PREDICTED BY IDOCK:   -2.03 KCAL/MOL
REMARK 922        TOTAL FREE ENERGY PREDICTED BY IDOCK:   -2.19 KCAL/MOL
REMARK 923 INTER-LIGAND FREE ENERGY PREDICTED BY IDOCK:   -2.15 KCAL/MOL
REMARK 924 INTRA-LIGAND FREE ENERGY PREDICTED BY IDOCK:   -0.04 KCAL/MOL
REMARK 927      BINDING AFFINITY PREDICTED BY RF-SCORE:    0.00 PKD
ROOT
HETATM    1  C   UNL     1     -12.397   8.081  71.653  1.00  0.00    -0.314 C  
HETATM    2  O   UNL     1     -11.522   7.083  71.145  1.00  0.00    -0.267 OA 
ENDROOT
BRANCH   2   3
HETATM    3  C   UNL     1     -10.628   6.545  72.031  1.00  0.00    -0.217 A  
HETATM    4  C   UNL     1      -9.826   5.422  71.815  1.00  0.00    -0.174 A  
HETATM    5  O   UNL     1      -9.875   4.674  70.675  1.00  0.00    -0.195 OA 
HETATM    6  C   UNL     1      -8.969   4.952  72.813  1.00  0.00    -0.129 A  
HETATM    7  C   UNL     1      -8.943   5.576  74.057  1.00  0.00    -0.119 A  
HETATM    8  H   UNL     1      -9.330   3.910  70.528  1.00  0.00     0.000 HD 
HETATM    9  C   UNL     1      -9.760   6.680  74.296  1.00  0.00    -0.328 A  
HETATM   10  C   UNL     1     -10.597   7.159  73.286  1.00  0.00    -0.405 A  
ENDBRANCH   2   3
TORSDOF 1
ENDMDL
MODEL      158
REMARK 921   NORMALIZED FREE ENERGY PREDICTED BY IDOCK:   -2.03 KCAL/MOL
REMARK 922        TOTAL FREE ENERGY PREDICTED BY IDOCK:   -2.19 KCAL/MOL
REMARK 923 INTER-LIGAND FREE ENERGY PREDICTED BY IDOCK:   -2.20 KCAL/MOL
REMARK 924 INTRA-LIGAND FREE ENERGY PREDICTED BY IDOCK:    0.02 KCAL/MOL
REMARK 927      BINDING AFFINITY PREDICTED BY RF-SCORE:    0.00 PKD
ROOT
HETATM    1  C   UNL     1      -9.701   9.320  66.502  1.00  0.00    -0.240 C  
HETATM    2  O   UNL     1      -9.257   9.900  67.721  1.00  0.00    -0.131 OA 
ENDROOT
BRANCH   2   3
HETATM    3  C   UNL     1      -9.986   9.601  68.841  1.00  0.00    -0.178 A  
HETATM    4  C   UNL     1      -9.993   8.379  69.519  1.00  0.00    -0.190 A  
HETATM    5  O   UNL     1      -9.287   7.288  69.104  1.00  0.00    -0.147 OA 
HETATM    6  C   UNL     1     -10.805   8.188  70.639  1.00  0.00    -0.246 A  
HETATM    7  C   UNL     1     -11.656   9.205  71.063  1.00  0.00    -0.370 A  
HETATM    8  H   UNL     1      -9.293   6.457  69.565  1.00  0.00     0.000 HD 
HETATM    9  C   UNL     1     -11.681  10.418  70.377  1.00  0.00    -0.419 A  
HETATM   10  C   UNL     1     -10.849  10.612  69.272  1.00  0.00    -0.282 A  
ENDBRANCH   2   3
TORSDOF 1
ENDMDL
MODEL      159
REMARK 921   NORMALIZED FREE ENERGY PREDICTED BY IDOCK:   -2.02 KCAL/MOL
REMARK 922        TOTAL FREE ENERGY PREDICTED BY IDOCK:   -2.18 KCAL/MOL
REMARK 923 INTER-LIGAND FREE ENERGY PREDICTED BY IDOCK:   -2.14 KCAL/MOL
REMARK 924 INTRA-LIGAND FREE ENERGY PREDICTED BY IDOCK:   -0.04 KCAL/MOL
REMARK 927      BINDING AFFINITY PREDICTED BY RF-SCORE:    0.00 PKD
ROOT
HETATM    1  C   UNL     1     -11.654   6.569  70.396  1.00  0.00    -0.407 C  
HETATM    2  O   UNL     1     -10.629   7.266  71.091  1.00  0.00    -0.221 OA 
ENDROOT
BRANCH   2   3
HETATM    3  C   UNL     1      -9.939   8.209  70.378  1.00  0.00    -0.188 A  
HETATM    4  C   UNL     1      -8.846   8.952  70.832  1.00  0.00    -0.219 A  
HETATM    5  O   UNL     1      -8.350   8.856  72.099  1.00  0.00    -0.381 OA 
HETATM    6  C   UNL     1      -8.243   9.910  70.014  1.00  0.00    -0.187 A  
HETATM    7  C   UNL     1      -8.761  10.167  68.746  1.00  0.00    -0.138 A  
HETATM    8  H   UNL     1      -7.607   9.362  72.408  1.00  0.00     0.000 HD 
HETATM    9  C   UNL     1      -9.869   9.455  68.293  1.00  0.00    -0.180 A  
HETATM   10  C   UNL     1     -10.453   8.482  69.107  1.00  0.00    -0.217 A  
ENDBRANCH   2   3
TORSDOF 1
ENDMDL
MODEL      160
REMARK 921   NORMALIZED FREE ENERGY PREDICTED BY IDOCK:   -2.01 KCAL/MOL
REMARK 922        TOTAL FREE ENERGY PREDICTED BY IDOCK:   -2.17 KCAL/MOL
REMARK 923 INTER-LIGAND FREE ENERGY PREDICTED BY IDOCK:   -2.12 KCAL/MOL
REMARK 924 INTRA-LIGAND FREE ENERGY PREDICTED BY IDOCK:   -0.06 KCAL/MOL
REMARK 927      BINDING AFFINITY PREDICTED BY RF-SCORE:    0.00 PKD
ROOT
HETATM    1  C   UNL     1     -10.087   5.947  73.395  1.00  0.00    -0.198 C  
HETATM    2  O   UNL     1     -10.548   6.024  72.052  1.00  0.00    -0.209 OA 
ENDROOT
BRANCH   2   3
HETATM    3  C   UNL     1     -10.291   7.191  71.384  1.00  0.00    -0.196 A  
HETATM    4  C   UNL     1      -9.270   7.403  70.455  1.00  0.00    -0.158 A  
HETATM    5  O   UNL     1      -8.346   6.454  70.127  1.00  0.00    -0.129 OA 
HETATM    6  C   UNL     1      -9.093   8.654  69.859  1.00  0.00    -0.151 A  
HETATM    7  C   UNL     1      -9.910   9.720  70.226  1.00  0.00    -0.296 A  
HETATM    8  H   UNL     1      -7.651   6.599  69.496  1.00  0.00     0.000 HD 
HETATM    9  C   UNL     1     -10.914   9.530  71.174  1.00  0.00    -0.438 A  
HETATM   10  C   UNL     1     -11.101   8.271  71.748  1.00  0.00    -0.342 A  
ENDBRANCH   2   3
TORSDOF 1
ENDMDL
MODEL      161
REMARK 921   NORMALIZED FREE ENERGY PREDICTED BY IDOCK:   -2.01 KCAL/MOL
REMARK 922        TOTAL FREE ENERGY PREDICTED BY IDOCK:   -2.17 KCAL/MOL
REMARK 923 INTER-LIGAND FREE ENERGY PREDICTED BY IDOCK:   -2.12 KCAL/MOL
REMARK 924 INTRA-LIGAND FREE ENERGY PREDICTED BY IDOCK:   -0.04 KCAL/MOL
REMARK 927      BINDING AFFINITY PREDICTED BY RF-SCORE:    0.00 PKD
ROOT
HETATM    1  C   UNL     1     -10.406   5.822  71.195  1.00  0.00    -0.227 C  
HETATM    2  O   UNL     1      -9.535   6.840  70.721  1.00  0.00    -0.165 OA 
ENDROOT
BRANCH   2   3
HETATM    3  C   UNL     1      -9.754   7.286  69.445  1.00  0.00    -0.161 A  
HETATM    4  C   UNL     1      -9.506   8.575  68.967  1.00  0.00    -0.150 A  
HETATM    5  O   UNL     1      -9.046   9.590  69.754  1.00  0.00    -0.172 OA 
HETATM    6  C   UNL     1      -9.800   8.917  67.645  1.00  0.00    -0.229 A  
HETATM    7  C   UNL     1     -10.391   7.981  66.800  1.00  0.00    -0.360 A  
HETATM    8  H   UNL     1      -8.878  10.467  69.430  1.00  0.00     0.000 HD 
HETATM    9  C   UNL     1     -10.671   6.701  67.272  1.00  0.00    -0.427 A  
HETATM   10  C   UNL     1     -10.353   6.358  68.588  1.00  0.00    -0.231 A  
ENDBRANCH   2   3
TORSDOF 1
ENDMDL
MODEL      162
REMARK 921   NORMALIZED FREE ENERGY PREDICTED BY IDOCK:   -2.00 KCAL/MOL
REMARK 922        TOTAL FREE ENERGY PREDICTED BY IDOCK:   -2.16 KCAL/MOL
REMARK 923 INTER-LIGAND FREE ENERGY PREDICTED BY IDOCK:   -2.10 KCAL/MOL
REMARK 924 INTRA-LIGAND FREE ENERGY PREDICTED BY IDOCK:   -0.06 KCAL/MOL
REMARK 927      BINDING AFFINITY PREDICTED BY RF-SCORE:    0.00 PKD
ROOT
HETATM    1  C   UNL     1     -10.802   3.844  64.671  1.00  0.00    -0.066 C  
HETATM    2  O   UNL     1      -9.751   4.532  65.335  1.00  0.00    -0.172 OA 
ENDROOT
BRANCH   2   3
HETATM    3  C   UNL     1      -9.965   4.852  66.649  1.00  0.00    -0.229 A  
HETATM    4  C   UNL     1      -9.596   4.084  67.756  1.00  0.00    -0.150 A  
HETATM    5  O   UNL     1      -9.001   2.861  67.655  1.00  0.00    -0.126 OA 
HETATM    6  C   UNL     1      -9.897   4.508  69.053  1.00  0.00    -0.202 A  
HETATM    7  C   UNL     1     -10.615   5.684  69.251  1.00  0.00    -0.359 A  
HETATM    8  H   UNL     1      -8.750   2.338  68.408  1.00  0.00     0.000 HD 
HETATM    9  C   UNL     1     -11.016   6.444  68.153  1.00  0.00    -0.393 A  
HETATM   10  C   UNL     1     -10.691   6.027  66.861  1.00  0.00    -0.407 A  
ENDBRANCH   2   3
TORSDOF 1
ENDMDL
MODEL      163
REMARK 921   NORMALIZED FREE ENERGY PREDICTED BY IDOCK:   -1.99 KCAL/MOL
REMARK 922        TOTAL FREE ENERGY PREDICTED BY IDOCK:   -2.15 KCAL/MOL
REMARK 923 INTER-LIGAND FREE ENERGY PREDICTED BY IDOCK:   -2.10 KCAL/MOL
REMARK 924 INTRA-LIGAND FREE ENERGY PREDICTED BY IDOCK:   -0.05 KCAL/MOL
REMARK 927      BINDING AFFINITY PREDICTED BY RF-SCORE:    0.00 PKD
ROOT
HETATM    1  C   UNL     1      -9.936   9.764  66.239  1.00  0.00    -0.262 C  
HETATM    2  O   UNL     1      -9.549   8.876  67.279  1.00  0.00    -0.151 OA 
ENDROOT
BRANCH   2   3
HETATM    3  C   UNL     1      -9.344   7.571  66.923  1.00  0.00    -0.157 A  
HETATM    4  C   UNL     1     -10.311   6.563  66.886  1.00  0.00    -0.243 A  
HETATM    5  O   UNL     1     -11.609   6.756  67.258  1.00  0.00    -0.726 OA 
HETATM    6  C   UNL     1      -9.969   5.256  66.532  1.00  0.00    -0.228 A  
HETATM    7  C   UNL     1      -8.642   4.934  66.257  1.00  0.00    -0.115 A  
HETATM    8  H   UNL     1     -12.267   6.071  67.233  1.00  0.00     0.000 HD 
HETATM    9  C   UNL     1      -7.662   5.923  66.321  1.00  0.00    -0.102 A  
HETATM   10  C   UNL     1      -8.015   7.233  66.652  1.00  0.00    -0.114 A  
ENDBRANCH   2   3
TORSDOF 1
ENDMDL
MODEL      164
REMARK 921   NORMALIZED FREE ENERGY PREDICTED BY IDOCK:   -1.99 KCAL/MOL
REMARK 922        TOTAL FREE ENERGY PREDICTED BY IDOCK:   -2.14 KCAL/MOL
REMARK 923 INTER-LIGAND FREE ENERGY PREDICTED BY IDOCK:   -2.26 KCAL/MOL
REMARK 924 INTRA-LIGAND FREE ENERGY PREDICTED BY IDOCK:    0.12 KCAL/MOL
REMARK 927      BINDING AFFINITY PREDICTED BY RF-SCORE:    0.00 PKD
ROOT
HETATM    1  C   UNL     1      -8.989  14.521  67.985  1.00  0.00    -0.180 C  
HETATM    2  O   UNL     1      -8.249  15.131  66.936  1.00  0.00    -0.215 OA 
ENDROOT
BRANCH   2   3
HETATM    3  C   UNL     1      -8.367  16.490  66.816  1.00  0.00    -0.239 A  
HETATM    4  C   UNL     1      -9.544  17.197  66.559  1.00  0.00    -0.279 A  
HETATM    5  O   UNL     1     -10.748  16.593  66.343  1.00  0.00    -0.245 OA 
HETATM    6  C   UNL     1      -9.530  18.588  66.430  1.00  0.00    -0.304 A  
HETATM    7  C   UNL     1      -8.325  19.281  66.510  1.00  0.00    -0.329 A  
HETATM    8  H   UNL     1     -11.549  17.074  66.168  1.00  0.00     0.000 HD 
HETATM    9  C   UNL     1      -7.139  18.585  66.736  1.00  0.00    -0.231 A  
HETATM   10  C   UNL     1      -7.163  17.197  66.888  1.00  0.00    -0.237 A  
ENDBRANCH   2   3
TORSDOF 1
ENDMDL
MODEL      165
REMARK 921   NORMALIZED FREE ENERGY PREDICTED BY IDOCK:   -1.97 KCAL/MOL
REMARK 922        TOTAL FREE ENERGY PREDICTED BY IDOCK:   -2.13 KCAL/MOL
REMARK 923 INTER-LIGAND FREE ENERGY PREDICTED BY IDOCK:   -2.09 KCAL/MOL
REMARK 924 INTRA-LIGAND FREE ENERGY PREDICTED BY IDOCK:   -0.04 KCAL/MOL
REMARK 927      BINDING AFFINITY PREDICTED BY RF-SCORE:    0.00 PKD
ROOT
HETATM    1  C   UNL     1     -10.619   9.944  70.161  1.00  0.00    -0.297 C  
HETATM    2  O   UNL     1     -11.238   9.375  69.015  1.00  0.00    -0.055 OA 
ENDROOT
BRANCH   2   3
HETATM    3  C   UNL     1     -10.402   8.891  68.046  1.00  0.00    -0.219 A  
HETATM    4  C   UNL     1     -10.535   7.673  67.374  1.00  0.00    -0.297 A  
HETATM    5  O   UNL     1     -11.521   6.771  67.646  1.00  0.00    -0.650 OA 
HETATM    6  C   UNL     1      -9.595   7.276  66.420  1.00  0.00    -0.169 A  
HETATM    7  C   UNL     1      -8.483   8.075  66.165  1.00  0.00    -0.141 A  
HETATM    8  H   UNL     1     -11.612   5.943  67.189  1.00  0.00     0.000 HD 
HETATM    9  C   UNL     1      -8.322   9.277  66.850  1.00  0.00    -0.123 A  
HETATM   10  C   UNL     1      -9.278   9.680  67.785  1.00  0.00    -0.135 A  
ENDBRANCH   2   3
TORSDOF 1
ENDMDL
MODEL      166
REMARK 921   NORMALIZED FREE ENERGY PREDICTED BY IDOCK:   -1.97 KCAL/MOL
REMARK 922        TOTAL FREE ENERGY PREDICTED BY IDOCK:   -2.13 KCAL/MOL
REMARK 923 INTER-LIGAND FREE ENERGY PREDICTED BY IDOCK:   -2.07 KCAL/MOL
REMARK 924 INTRA-LIGAND FREE ENERGY PREDICTED BY IDOCK:   -0.06 KCAL/MOL
REMARK 927      BINDING AFFINITY PREDICTED BY RF-SCORE:    0.00 PKD
ROOT
HETATM    1  C   UNL     1     -11.391   9.648  70.028  1.00  0.00    -0.195 C  
HETATM    2  O   UNL     1     -10.558  10.747  69.684  1.00  0.00    -0.231 OA 
ENDROOT
BRANCH   2   3
HETATM    3  C   UNL     1     -10.116  10.795  68.389  1.00  0.00    -0.169 A  
HETATM    4  C   UNL     1     -10.713  11.496  67.338  1.00  0.00    -0.232 A  
HETATM    5  O   UNL     1     -11.873  12.201  67.472  1.00  0.00    -0.499 OA 
HETATM    6  C   UNL     1     -10.179  11.444  66.048  1.00  0.00    -0.289 A  
HETATM    7  C   UNL     1      -9.067  10.648  65.788  1.00  0.00    -0.208 A  
HETATM    8  H   UNL     1     -12.280  12.678  66.758  1.00  0.00     0.000 HD 
HETATM    9  C   UNL     1      -8.479   9.919  66.820  1.00  0.00    -0.125 A  
HETATM   10  C   UNL     1      -9.004   9.995  68.113  1.00  0.00    -0.122 A  
ENDBRANCH   2   3
TORSDOF 1
ENDMDL
MODEL      167
REMARK 921   NORMALIZED FREE ENERGY PREDICTED BY IDOCK:   -1.97 KCAL/MOL
REMARK 922        TOTAL FREE ENERGY PREDICTED BY IDOCK:   -2.12 KCAL/MOL
REMARK 923 INTER-LIGAND FREE ENERGY PREDICTED BY IDOCK:   -2.11 KCAL/MOL
REMARK 924 INTRA-LIGAND FREE ENERGY PREDICTED BY IDOCK:   -0.02 KCAL/MOL
REMARK 927      BINDING AFFINITY PREDICTED BY RF-SCORE:    0.00 PKD
ROOT
HETATM    1  C   UNL     1     -11.867  10.895  69.824  1.00  0.00    -0.345 C  
HETATM    2  O   UNL     1     -11.037  10.245  70.777  1.00  0.00    -0.326 OA 
ENDROOT
BRANCH   2   3
HETATM    3  C   UNL     1     -10.107   9.371  70.282  1.00  0.00    -0.240 A  
HETATM    4  C   UNL     1      -8.887   9.711  69.692  1.00  0.00    -0.201 A  
HETATM    5  O   UNL     1      -8.485  10.999  69.490  1.00  0.00    -0.377 OA 
HETATM    6  C   UNL     1      -8.032   8.723  69.197  1.00  0.00    -0.109 A  
HETATM    7  C   UNL     1      -8.415   7.385  69.245  1.00  0.00    -0.136 A  
HETATM    8  H   UNL     1      -7.655  11.230  69.089  1.00  0.00     0.000 HD 
HETATM    9  C   UNL     1      -9.642   7.035  69.803  1.00  0.00    -0.151 A  
HETATM   10  C   UNL     1     -10.482   8.025  70.318  1.00  0.00    -0.222 A  
ENDBRANCH   2   3
TORSDOF 1
ENDMDL
MODEL      168
REMARK 921   NORMALIZED FREE ENERGY PREDICTED BY IDOCK:   -1.92 KCAL/MOL
REMARK 922        TOTAL FREE ENERGY PREDICTED BY IDOCK:   -2.07 KCAL/MOL
REMARK 923 INTER-LIGAND FREE ENERGY PREDICTED BY IDOCK:   -2.02 KCAL/MOL
REMARK 924 INTRA-LIGAND FREE ENERGY PREDICTED BY IDOCK:   -0.05 KCAL/MOL
REMARK 927      BINDING AFFINITY PREDICTED BY RF-SCORE:    0.00 PKD
ROOT
HETATM    1  C   UNL     1     -10.671   4.005  64.352  1.00  0.00    -0.168 C  
HETATM    2  O   UNL     1     -10.620   4.233  65.754  1.00  0.00    -0.183 OA 
ENDROOT
BRANCH   2   3
HETATM    3  C   UNL     1      -9.856   5.287  66.174  1.00  0.00    -0.165 A  
HETATM    4  C   UNL     1     -10.308   6.405  66.880  1.00  0.00    -0.241 A  
HETATM    5  O   UNL     1     -11.617   6.608  67.204  1.00  0.00    -0.749 OA 
HETATM    6  C   UNL     1      -9.430   7.434  67.229  1.00  0.00    -0.179 A  
HETATM    7  C   UNL     1      -8.096   7.375  66.831  1.00  0.00    -0.120 A  
HETATM    8  H   UNL     1     -11.925   7.368  67.684  1.00  0.00     0.000 HD 
HETATM    9  C   UNL     1      -7.639   6.280  66.100  1.00  0.00    -0.090 A  
HETATM   10  C   UNL     1      -8.517   5.244  65.775  1.00  0.00    -0.128 A  
ENDBRANCH   2   3
TORSDOF 1
ENDMDL
MODEL      169
REMARK 921   NORMALIZED FREE ENERGY PREDICTED BY IDOCK:   -1.87 KCAL/MOL
REMARK 922        TOTAL FREE ENERGY PREDICTED BY IDOCK:   -2.02 KCAL/MOL
REMARK 923 INTER-LIGAND FREE ENERGY PREDICTED BY IDOCK:   -1.98 KCAL/MOL
REMARK 924 INTRA-LIGAND FREE ENERGY PREDICTED BY IDOCK:   -0.04 KCAL/MOL
REMARK 927      BINDING AFFINITY PREDICTED BY RF-SCORE:    0.00 PKD
ROOT
HETATM    1  C   UNL     1     -11.827  11.951  69.583  1.00  0.00    -0.337 C  
HETATM    2  O   UNL     1     -11.141  10.717  69.753  1.00  0.00    -0.256 OA 
ENDROOT
BRANCH   2   3
HETATM    3  C   UNL     1     -10.402  10.277  68.689  1.00  0.00    -0.184 A  
HETATM    4  C   UNL     1      -9.274   9.455  68.750  1.00  0.00    -0.132 A  
HETATM    5  O   UNL     1      -8.730   9.016  69.922  1.00  0.00    -0.137 OA 
HETATM    6  C   UNL     1      -8.586   9.096  67.589  1.00  0.00    -0.117 A  
HETATM    7  C   UNL     1      -8.993   9.599  66.356  1.00  0.00    -0.179 A  
HETATM    8  H   UNL     1      -7.963   8.457  69.964  1.00  0.00     0.000 HD 
HETATM    9  C   UNL     1     -10.098  10.445  66.284  1.00  0.00    -0.292 A  
HETATM   10  C   UNL     1     -10.796  10.781  67.446  1.00  0.00    -0.345 A  
ENDBRANCH   2   3
TORSDOF 1
ENDMDL
MODEL      170
REMARK 921   NORMALIZED FREE ENERGY PREDICTED BY IDOCK:   -1.86 KCAL/MOL
REMARK 922        TOTAL FREE ENERGY PREDICTED BY IDOCK:   -2.01 KCAL/MOL
REMARK 923 INTER-LIGAND FREE ENERGY PREDICTED BY IDOCK:   -1.95 KCAL/MOL
REMARK 924 INTRA-LIGAND FREE ENERGY PREDICTED BY IDOCK:   -0.06 KCAL/MOL
REMARK 927      BINDING AFFINITY PREDICTED BY RF-SCORE:    0.00 PKD
ROOT
HETATM    1  C   UNL     1      -9.559   9.603  65.245  1.00  0.00    -0.277 C  
HETATM    2  O   UNL     1     -10.559   9.627  66.254  1.00  0.00    -0.127 OA 
ENDROOT
BRANCH   2   3
HETATM    3  C   UNL     1     -10.445   8.695  67.250  1.00  0.00    -0.289 A  
HETATM    4  C   UNL     1      -9.755   8.855  68.455  1.00  0.00    -0.161 A  
HETATM    5  O   UNL     1      -9.051   9.980  68.771  1.00  0.00    -0.136 OA 
HETATM    6  C   UNL     1      -9.687   7.815  69.384  1.00  0.00    -0.169 A  
HETATM    7  C   UNL     1     -10.269   6.584  69.093  1.00  0.00    -0.208 A  
HETATM    8  H   UNL     1      -8.582  10.089  69.590  1.00  0.00     0.000 HD 
HETATM    9  C   UNL     1     -10.934   6.400  67.882  1.00  0.00    -0.416 A  
HETATM   10  C   UNL     1     -11.019   7.453  66.968  1.00  0.00    -0.172 A  
ENDBRANCH   2   3
TORSDOF 1
ENDMDL
MODEL      171
REMARK 921   NORMALIZED FREE ENERGY PREDICTED BY IDOCK:   -1.85 KCAL/MOL
REMARK 922        TOTAL FREE ENERGY PREDICTED BY IDOCK:   -2.00 KCAL/MOL
REMARK 923 INTER-LIGAND FREE ENERGY PREDICTED BY IDOCK:   -1.95 KCAL/MOL
REMARK 924 INTRA-LIGAND FREE ENERGY PREDICTED BY IDOCK:   -0.05 KCAL/MOL
REMARK 927      BINDING AFFINITY PREDICTED BY RF-SCORE:    0.00 PKD
ROOT
HETATM    1  C   UNL     1      -7.217   8.290  67.284  1.00  0.00    -0.084 C  
HETATM    2  O   UNL     1      -7.271   7.968  68.667  1.00  0.00    -0.077 OA 
ENDROOT
BRANCH   2   3
HETATM    3  C   UNL     1      -8.466   8.187  69.299  1.00  0.00    -0.134 A  
HETATM    4  C   UNL     1      -8.787   9.285  70.101  1.00  0.00    -0.213 A  
HETATM    5  O   UNL     1      -7.902  10.281  70.397  1.00  0.00    -0.427 OA 
HETATM    6  C   UNL     1     -10.037   9.380  70.717  1.00  0.00    -0.366 A  
HETATM    7  C   UNL     1     -10.962   8.350  70.575  1.00  0.00    -0.258 A  
HETATM    8  H   UNL     1      -8.120  11.028  70.943  1.00  0.00     0.000 HD 
HETATM    9  C   UNL     1     -10.644   7.234  69.803  1.00  0.00    -0.247 A  
HETATM   10  C   UNL     1      -9.401   7.156  69.170  1.00  0.00    -0.141 A  
ENDBRANCH   2   3
TORSDOF 1
ENDMDL
MODEL      172
REMARK 921   NORMALIZED FREE ENERGY PREDICTED BY IDOCK:   -1.84 KCAL/MOL
REMARK 922        TOTAL FREE ENERGY PREDICTED BY IDOCK:   -1.99 KCAL/MOL
REMARK 923 INTER-LIGAND FREE ENERGY PREDICTED BY IDOCK:   -1.94 KCAL/MOL
REMARK 924 INTRA-LIGAND FREE ENERGY PREDICTED BY IDOCK:   -0.05 KCAL/MOL
REMARK 927      BINDING AFFINITY PREDICTED BY RF-SCORE:    0.00 PKD
ROOT
HETATM    1  C   UNL     1     -10.622   8.341  69.959  1.00  0.00    -0.235 C  
HETATM    2  O   UNL     1     -10.647   8.513  68.549  1.00  0.00    -0.193 OA 
ENDROOT
BRANCH   2   3
HETATM    3  C   UNL     1     -10.097   7.507  67.801  1.00  0.00    -0.185 A  
HETATM    4  C   UNL     1      -8.755   7.391  67.432  1.00  0.00    -0.121 A  
HETATM    5  O   UNL     1      -7.809   8.323  67.744  1.00  0.00    -0.110 OA 
HETATM    6  C   UNL     1      -8.320   6.327  66.638  1.00  0.00    -0.112 A  
HETATM    7  C   UNL     1      -9.238   5.392  66.165  1.00  0.00    -0.162 A  
HETATM    8  H   UNL     1      -6.896   8.245  67.493  1.00  0.00     0.000 HD 
HETATM    9  C   UNL     1     -10.585   5.513  66.500  1.00  0.00    -0.343 A  
HETATM   10  C   UNL     1     -11.009   6.566  67.314  1.00  0.00    -0.475 A  
ENDBRANCH   2   3
TORSDOF 1
ENDMDL
MODEL      173
REMARK 921   NORMALIZED FREE ENERGY PREDICTED BY IDOCK:   -1.84 KCAL/MOL
REMARK 922        TOTAL FREE ENERGY PREDICTED BY IDOCK:   -1.99 KCAL/MOL
REMARK 923 INTER-LIGAND FREE ENERGY PREDICTED BY IDOCK:   -1.94 KCAL/MOL
REMARK 924 INTRA-LIGAND FREE ENERGY PREDICTED BY IDOCK:   -0.04 KCAL/MOL
REMARK 927      BINDING AFFINITY PREDICTED BY RF-SCORE:    0.00 PKD
ROOT
HETATM    1  C   UNL     1     -12.267   6.845  71.903  1.00  0.00    -0.332 C  
HETATM    2  O   UNL     1     -11.309   7.237  70.929  1.00  0.00    -0.264 OA 
ENDROOT
BRANCH   2   3
HETATM    3  C   UNL     1     -10.052   7.524  71.390  1.00  0.00    -0.186 A  
HETATM    4  C   UNL     1      -8.856   7.350  70.689  1.00  0.00    -0.150 A  
HETATM    5  O   UNL     1      -8.793   6.812  69.437  1.00  0.00    -0.135 OA 
HETATM    6  C   UNL     1      -7.628   7.655  71.281  1.00  0.00    -0.080 A  
HETATM    7  C   UNL     1      -7.584   8.093  72.602  1.00  0.00    -0.165 A  
HETATM    8  H   UNL     1      -7.979   6.693  68.960  1.00  0.00     0.000 HD 
HETATM    9  C   UNL     1      -8.767   8.241  73.323  1.00  0.00    -0.285 A  
HETATM   10  C   UNL     1      -9.993   7.957  72.717  1.00  0.00    -0.348 A  
ENDBRANCH   2   3
TORSDOF 1
ENDMDL
MODEL      174
REMARK 921   NORMALIZED FREE ENERGY PREDICTED BY IDOCK:   -1.84 KCAL/MOL
REMARK 922        TOTAL FREE ENERGY PREDICTED BY IDOCK:   -1.98 KCAL/MOL
REMARK 923 INTER-LIGAND FREE ENERGY PREDICTED BY IDOCK:   -1.96 KCAL/MOL
REMARK 924 INTRA-LIGAND FREE ENERGY PREDICTED BY IDOCK:   -0.02 KCAL/MOL
REMARK 927      BINDING AFFINITY PREDICTED BY RF-SCORE:    0.00 PKD
ROOT
HETATM    1  C   UNL     1     -10.533   4.972  66.163  1.00  0.00    -0.286 C  
HETATM    2  O   UNL     1     -10.041   4.842  67.490  1.00  0.00    -0.171 OA 
ENDROOT
BRANCH   2   3
HETATM    3  C   UNL     1     -10.152   5.945  68.294  1.00  0.00    -0.166 A  
HETATM    4  C   UNL     1      -9.325   7.071  68.270  1.00  0.00    -0.126 A  
HETATM    5  O   UNL     1      -8.243   7.188  67.448  1.00  0.00    -0.114 OA 
HETATM    6  C   UNL     1      -9.525   8.124  69.165  1.00  0.00    -0.155 A  
HETATM    7  C   UNL     1     -10.529   8.038  70.127  1.00  0.00    -0.225 A  
HETATM    8  H   UNL     1      -7.680   7.954  67.432  1.00  0.00     0.000 HD 
HETATM    9  C   UNL     1     -11.341   6.907  70.182  1.00  0.00    -0.364 A  
HETATM   10  C   UNL     1     -11.151   5.868  69.268  1.00  0.00    -0.352 A  
ENDBRANCH   2   3
TORSDOF 1
ENDMDL
MODEL      175
REMARK 921   NORMALIZED FREE ENERGY PREDICTED BY IDOCK:   -1.83 KCAL/MOL
REMARK 922        TOTAL FREE ENERGY PREDICTED BY IDOCK:   -1.98 KCAL/MOL
REMARK 923 INTER-LIGAND FREE ENERGY PREDICTED BY IDOCK:   -1.94 KCAL/MOL
REMARK 924 INTRA-LIGAND FREE ENERGY PREDICTED BY IDOCK:   -0.04 KCAL/MOL
REMARK 927      BINDING AFFINITY PREDICTED BY RF-SCORE:    0.00 PKD
ROOT
HETATM    1  C   UNL     1     -11.542  13.953  68.637  1.00  0.00    -0.328 C  
HETATM    2  O   UNL     1     -10.135  13.790  68.516  1.00  0.00    -0.230 OA 
ENDROOT
BRANCH   2   3
HETATM    3  C   UNL     1      -9.411  14.918  68.241  1.00  0.00    -0.195 A  
HETATM    4  C   UNL     1      -8.065  14.965  67.867  1.00  0.00    -0.142 A  
HETATM    5  O   UNL     1      -7.275  13.858  67.774  1.00  0.00    -0.131 OA 
HETATM    6  C   UNL     1      -7.428  16.187  67.641  1.00  0.00    -0.166 A  
HETATM    7  C   UNL     1      -8.121  17.379  67.834  1.00  0.00    -0.220 A  
HETATM    8  H   UNL     1      -6.359  13.889  67.520  1.00  0.00     0.000 HD 
HETATM    9  C   UNL     1      -9.455  17.348  68.236  1.00  0.00    -0.290 A  
HETATM   10  C   UNL     1     -10.093  16.122  68.438  1.00  0.00    -0.236 A  
ENDBRANCH   2   3
TORSDOF 1
ENDMDL
MODEL      176
REMARK 921   NORMALIZED FREE ENERGY PREDICTED BY IDOCK:   -1.82 KCAL/MOL
REMARK 922        TOTAL FREE ENERGY PREDICTED BY IDOCK:   -1.97 KCAL/MOL
REMARK 923 INTER-LIGAND FREE ENERGY PREDICTED BY IDOCK:   -1.91 KCAL/MOL
REMARK 924 INTRA-LIGAND FREE ENERGY PREDICTED BY IDOCK:   -0.05 KCAL/MOL
REMARK 927      BINDING AFFINITY PREDICTED BY RF-SCORE:    0.00 PKD
ROOT
HETATM    1  C   UNL     1      -8.155   8.437  71.168  1.00  0.00    -0.125 C  
HETATM    2  O   UNL     1      -8.457   9.587  70.389  1.00  0.00    -0.191 OA 
ENDROOT
BRANCH   2   3
HETATM    3  C   UNL     1      -8.858   9.364  69.100  1.00  0.00    -0.143 A  
HETATM    4  C   UNL     1     -10.168   9.132  68.671  1.00  0.00    -0.204 A  
HETATM    5  O   UNL     1     -11.231   9.049  69.522  1.00  0.00    -0.433 OA 
HETATM    6  C   UNL     1     -10.448   8.888  67.325  1.00  0.00    -0.348 A  
HETATM    7  C   UNL     1      -9.409   8.827  66.399  1.00  0.00    -0.264 A  
HETATM    8  H   UNL     1     -12.121   8.891  69.231  1.00  0.00     0.000 HD 
HETATM    9  C   UNL     1      -8.095   9.027  66.817  1.00  0.00    -0.111 A  
HETATM   10  C   UNL     1      -7.825   9.294  68.162  1.00  0.00    -0.095 A  
ENDBRANCH   2   3
TORSDOF 1
ENDMDL
MODEL      177
REMARK 921   NORMALIZED FREE ENERGY PREDICTED BY IDOCK:   -1.81 KCAL/MOL
REMARK 922        TOTAL FREE ENERGY PREDICTED BY IDOCK:   -1.96 KCAL/MOL
REMARK 923 INTER-LIGAND FREE ENERGY PREDICTED BY IDOCK:   -1.93 KCAL/MOL
REMARK 924 INTRA-LIGAND FREE ENERGY PREDICTED BY IDOCK:   -0.03 KCAL/MOL
REMARK 927      BINDING AFFINITY PREDICTED BY RF-SCORE:    0.00 PKD
ROOT
HETATM    1  C   UNL     1      -7.398   7.723  72.005  1.00  0.00    -0.075 C  
HETATM    2  O   UNL     1      -7.777   9.049  71.661  1.00  0.00    -0.310 OA 
ENDROOT
BRANCH   2   3
HETATM    3  C   UNL     1      -8.755   9.178  70.711  1.00  0.00    -0.236 A  
HETATM    4  C   UNL     1     -10.132   9.076  70.925  1.00  0.00    -0.262 A  
HETATM    5  O   UNL     1     -10.682   8.779  72.137  1.00  0.00    -0.339 OA 
HETATM    6  C   UNL     1     -11.031   9.200  69.863  1.00  0.00    -0.218 A  
HETATM    7  C   UNL     1     -10.556   9.379  68.567  1.00  0.00    -0.234 A  
HETATM    8  H   UNL     1     -11.618   8.710  72.282  1.00  0.00     0.000 HD 
HETATM    9  C   UNL     1      -9.184   9.452  68.335  1.00  0.00    -0.127 A  
HETATM   10  C   UNL     1      -8.291   9.351  69.404  1.00  0.00    -0.125 A  
ENDBRANCH   2   3
TORSDOF 1
ENDMDL
MODEL      178
REMARK 921   NORMALIZED FREE ENERGY PREDICTED BY IDOCK:   -1.81 KCAL/MOL
REMARK 922        TOTAL FREE ENERGY PREDICTED BY IDOCK:   -1.95 KCAL/MOL
REMARK 923 INTER-LIGAND FREE ENERGY PREDICTED BY IDOCK:   -1.91 KCAL/MOL
REMARK 924 INTRA-LIGAND FREE ENERGY PREDICTED BY IDOCK:   -0.05 KCAL/MOL
REMARK 927      BINDING AFFINITY PREDICTED BY RF-SCORE:    0.00 PKD
ROOT
HETATM    1  C   UNL     1      -9.889   9.994  65.310  1.00  0.00    -0.318 C  
HETATM    2  O   UNL     1     -10.378  10.633  66.481  1.00  0.00    -0.232 OA 
ENDROOT
BRANCH   2   3
HETATM    3  C   UNL     1      -9.683  10.403  67.638  1.00  0.00    -0.168 A  
HETATM    4  C   UNL     1     -10.109   9.622  68.715  1.00  0.00    -0.179 A  
HETATM    5  O   UNL     1     -11.329   9.014  68.764  1.00  0.00    -0.363 OA 
HETATM    6  C   UNL     1      -9.317   9.486  69.858  1.00  0.00    -0.247 A  
HETATM    7  C   UNL     1      -8.109  10.173  69.953  1.00  0.00    -0.139 A  
HETATM    8  H   UNL     1     -11.619   8.483  69.496  1.00  0.00     0.000 HD 
HETATM    9  C   UNL     1      -7.687  10.979  68.898  1.00  0.00    -0.140 A  
HETATM   10  C   UNL     1      -8.472  11.092  67.748  1.00  0.00    -0.122 A  
ENDBRANCH   2   3
TORSDOF 1
ENDMDL
MODEL      179
REMARK 921   NORMALIZED FREE ENERGY PREDICTED BY IDOCK:   -1.78 KCAL/MOL
REMARK 922        TOTAL FREE ENERGY PREDICTED BY IDOCK:   -1.93 KCAL/MOL
REMARK 923 INTER-LIGAND FREE ENERGY PREDICTED BY IDOCK:   -1.88 KCAL/MOL
REMARK 924 INTRA-LIGAND FREE ENERGY PREDICTED BY IDOCK:   -0.05 KCAL/MOL
REMARK 927      BINDING AFFINITY PREDICTED BY RF-SCORE:    0.00 PKD
ROOT
HETATM    1  C   UNL     1     -12.312   6.874  71.064  1.00  0.00    -0.351 C  
HETATM    2  O   UNL     1     -11.711   7.007  72.346  1.00  0.00    -0.267 OA 
ENDROOT
BRANCH   2   3
HETATM    3  C   UNL     1     -10.414   6.586  72.459  1.00  0.00    -0.205 A  
HETATM    4  C   UNL     1      -9.294   7.401  72.642  1.00  0.00    -0.150 A  
HETATM    5  O   UNL     1      -9.358   8.763  72.685  1.00  0.00    -0.300 OA 
HETATM    6  C   UNL     1      -8.012   6.851  72.714  1.00  0.00    -0.108 A  
HETATM    7  C   UNL     1      -7.834   5.479  72.555  1.00  0.00    -0.103 A  
HETATM    8  H   UNL     1      -8.597   9.318  72.810  1.00  0.00     0.000 HD 
HETATM    9  C   UNL     1      -8.940   4.657  72.340  1.00  0.00    -0.138 A  
HETATM   10  C   UNL     1     -10.221   5.211  72.293  1.00  0.00    -0.255 A  
ENDBRANCH   2   3
TORSDOF 1
ENDMDL
MODEL      180
REMARK 921   NORMALIZED FREE ENERGY PREDICTED BY IDOCK:   -1.77 KCAL/MOL
REMARK 922        TOTAL FREE ENERGY PREDICTED BY IDOCK:   -1.91 KCAL/MOL
REMARK 923 INTER-LIGAND FREE ENERGY PREDICTED BY IDOCK:   -1.91 KCAL/MOL
REMARK 924 INTRA-LIGAND FREE ENERGY PREDICTED BY IDOCK:   -0.00 KCAL/MOL
REMARK 927      BINDING AFFINITY PREDICTED BY RF-SCORE:    0.00 PKD
ROOT
HETATM    1  C   UNL     1      -9.473  11.385  62.919  1.00  0.00    -0.345 C  
HETATM    2  O   UNL     1     -10.522  10.690  63.580  1.00  0.00    -0.185 OA 
ENDROOT
BRANCH   2   3
HETATM    3  C   UNL     1     -10.242  10.206  64.829  1.00  0.00    -0.051 A  
HETATM    4  C   UNL     1      -9.446   9.097  65.126  1.00  0.00    -0.027 A  
HETATM    5  O   UNL     1      -8.871   8.310  64.171  1.00  0.00    -0.390 OA 
HETATM    6  C   UNL     1      -9.258   8.684  66.447  1.00  0.00    -0.245 A  
HETATM    7  C   UNL     1      -9.908   9.350  67.483  1.00  0.00    -0.220 A  
HETATM    8  H   UNL     1      -8.330   7.555  64.373  1.00  0.00     0.000 HD 
HETATM    9  C   UNL     1     -10.729  10.439  67.199  1.00  0.00    -0.316 A  
HETATM   10  C   UNL     1     -10.893  10.862  65.878  1.00  0.00    -0.132 A  
ENDBRANCH   2   3
TORSDOF 1
ENDMDL
MODEL      181
REMARK 921   NORMALIZED FREE ENERGY PREDICTED BY IDOCK:   -1.70 KCAL/MOL
REMARK 922        TOTAL FREE ENERGY PREDICTED BY IDOCK:   -1.84 KCAL/MOL
REMARK 923 INTER-LIGAND FREE ENERGY PREDICTED BY IDOCK:   -1.79 KCAL/MOL
REMARK 924 INTRA-LIGAND FREE ENERGY PREDICTED BY IDOCK:   -0.05 KCAL/MOL
REMARK 927      BINDING AFFINITY PREDICTED BY RF-SCORE:    0.00 PKD
ROOT
HETATM    1  C   UNL     1      -9.895   4.709  70.057  1.00  0.00    -0.224 C  
HETATM    2  O   UNL     1      -9.762   4.499  71.457  1.00  0.00    -0.156 OA 
ENDROOT
BRANCH   2   3
HETATM    3  C   UNL     1      -9.479   5.602  72.216  1.00  0.00    -0.144 A  
HETATM    4  C   UNL     1      -8.206   6.097  72.511  1.00  0.00    -0.108 A  
HETATM    5  O   UNL     1      -7.053   5.491  72.102  1.00  0.00    -0.081 OA 
HETATM    6  C   UNL     1      -8.046   7.220  73.325  1.00  0.00    -0.132 A  
HETATM    7  C   UNL     1      -9.161   7.832  73.892  1.00  0.00    -0.298 A  
HETATM    8  H   UNL     1      -6.188   5.828  72.303  1.00  0.00     0.000 HD 
HETATM    9  C   UNL     1     -10.434   7.331  73.631  1.00  0.00    -0.391 A  
HETATM   10  C   UNL     1     -10.589   6.221  72.797  1.00  0.00    -0.252 A  
ENDBRANCH   2   3
TORSDOF 1
ENDMDL
MODEL      182
REMARK 921   NORMALIZED FREE ENERGY PREDICTED BY IDOCK:   -1.67 KCAL/MOL
REMARK 922        TOTAL FREE ENERGY PREDICTED BY IDOCK:   -1.81 KCAL/MOL
REMARK 923 INTER-LIGAND FREE ENERGY PREDICTED BY IDOCK:   -1.79 KCAL/MOL
REMARK 924 INTRA-LIGAND FREE ENERGY PREDICTED BY IDOCK:   -0.02 KCAL/MOL
REMARK 927      BINDING AFFINITY PREDICTED BY RF-SCORE:    0.00 PKD
ROOT
HETATM    1  C   UNL     1     -11.347  11.990  67.014  1.00  0.00    -0.336 C  
HETATM    2  O   UNL     1     -10.547  10.836  66.789  1.00  0.00    -0.246 OA 
ENDROOT
BRANCH   2   3
HETATM    3  C   UNL     1      -9.966  10.271  67.892  1.00  0.00    -0.164 A  
HETATM    4  C   UNL     1      -8.834  10.742  68.562  1.00  0.00    -0.149 A  
HETATM    5  O   UNL     1      -8.122  11.832  68.153  1.00  0.00    -0.134 OA 
HETATM    6  C   UNL     1      -8.318  10.057  69.664  1.00  0.00    -0.188 A  
HETATM    7  C   UNL     1      -8.904   8.864  70.078  1.00  0.00    -0.165 A  
HETATM    8  H   UNL     1      -7.352  12.153  68.609  1.00  0.00     0.000 HD 
HETATM    9  C   UNL     1     -10.016   8.366  69.400  1.00  0.00    -0.191 A  
HETATM   10  C   UNL     1     -10.541   9.068  68.313  1.00  0.00    -0.213 A  
ENDBRANCH   2   3
TORSDOF 1
ENDMDL
MODEL      183
REMARK 921   NORMALIZED FREE ENERGY PREDICTED BY IDOCK:   -1.66 KCAL/MOL
REMARK 922        TOTAL FREE ENERGY PREDICTED BY IDOCK:   -1.80 KCAL/MOL
REMARK 923 INTER-LIGAND FREE ENERGY PREDICTED BY IDOCK:   -1.79 KCAL/MOL
REMARK 924 INTRA-LIGAND FREE ENERGY PREDICTED BY IDOCK:   -0.01 KCAL/MOL
REMARK 927      BINDING AFFINITY PREDICTED BY RF-SCORE:    0.00 PKD
ROOT
HETATM    1  C   UNL     1     -11.291  11.210  67.764  1.00  0.00    -0.293 C  
HETATM    2  O   UNL     1     -11.252   9.790  67.800  1.00  0.00    -0.184 OA 
ENDROOT
BRANCH   2   3
HETATM    3  C   UNL     1     -10.034   9.207  67.574  1.00  0.00    -0.205 A  
HETATM    4  C   UNL     1      -9.394   9.085  66.338  1.00  0.00    -0.206 A  
HETATM    5  O   UNL     1      -9.946   9.505  65.164  1.00  0.00    -0.429 OA 
HETATM    6  C   UNL     1      -8.160   8.439  66.233  1.00  0.00    -0.105 A  
HETATM    7  C   UNL     1      -7.576   7.866  67.360  1.00  0.00    -0.097 A  
HETATM    8  H   UNL     1      -9.511   9.422  64.323  1.00  0.00     0.000 HD 
HETATM    9  C   UNL     1      -8.218   7.954  68.593  1.00  0.00    -0.127 A  
HETATM   10  C   UNL     1      -9.441   8.621  68.696  1.00  0.00    -0.144 A  
ENDBRANCH   2   3
TORSDOF 1
ENDMDL
MODEL      184
REMARK 921   NORMALIZED FREE ENERGY PREDICTED BY IDOCK:   -1.64 KCAL/MOL
REMARK 922        TOTAL FREE ENERGY PREDICTED BY IDOCK:   -1.78 KCAL/MOL
REMARK 923 INTER-LIGAND FREE ENERGY PREDICTED BY IDOCK:   -1.73 KCAL/MOL
REMARK 924 INTRA-LIGAND FREE ENERGY PREDICTED BY IDOCK:   -0.05 KCAL/MOL
REMARK 927      BINDING AFFINITY PREDICTED BY RF-SCORE:    0.00 PKD
ROOT
HETATM    1  C   UNL     1      -9.614   4.562  69.583  1.00  0.00    -0.199 C  
HETATM    2  O   UNL     1      -8.910   5.386  70.502  1.00  0.00    -0.129 OA 
ENDROOT
BRANCH   2   3
HETATM    3  C   UNL     1      -9.170   6.729  70.442  1.00  0.00    -0.156 A  
HETATM    4  C   UNL     1      -9.752   7.503  71.450  1.00  0.00    -0.166 A  
HETATM    5  O   UNL     1     -10.188   6.986  72.634  1.00  0.00    -0.181 OA 
HETATM    6  C   UNL     1      -9.993   8.865  71.256  1.00  0.00    -0.358 A  
HETATM    7  C   UNL     1      -9.697   9.456  70.031  1.00  0.00    -0.255 A  
HETATM    8  H   UNL     1     -10.584   7.512  73.319  1.00  0.00     0.000 HD 
HETATM    9  C   UNL     1      -9.144   8.689  69.007  1.00  0.00    -0.145 A  
HETATM   10  C   UNL     1      -8.883   7.333  69.215  1.00  0.00    -0.136 A  
ENDBRANCH   2   3
TORSDOF 1
ENDMDL
MODEL      185
REMARK 921   NORMALIZED FREE ENERGY PREDICTED BY IDOCK:   -1.63 KCAL/MOL
REMARK 922        TOTAL FREE ENERGY PREDICTED BY IDOCK:   -1.77 KCAL/MOL
REMARK 923 INTER-LIGAND FREE ENERGY PREDICTED BY IDOCK:   -1.77 KCAL/MOL
REMARK 924 INTRA-LIGAND FREE ENERGY PREDICTED BY IDOCK:   -0.00 KCAL/MOL
REMARK 927      BINDING AFFINITY PREDICTED BY RF-SCORE:    0.00 PKD
ROOT
HETATM    1  C   UNL     1     -10.127  12.496  67.656  1.00  0.00    -0.217 C  
HETATM    2  O   UNL     1      -9.372  12.618  66.458  1.00  0.00    -0.237 OA 
ENDROOT
BRANCH   2   3
HETATM    3  C   UNL     1      -9.010  11.451  65.843  1.00  0.00    -0.177 A  
HETATM    4  C   UNL     1      -8.012  10.569  66.266  1.00  0.00    -0.144 A  
HETATM    5  O   UNL     1      -7.221  10.799  67.353  1.00  0.00    -0.088 OA 
HETATM    6  C   UNL     1      -7.715   9.418  65.532  1.00  0.00    -0.099 A  
HETATM    7  C   UNL     1      -8.385   9.164  64.338  1.00  0.00    -0.180 A  
HETATM    8  H   UNL     1      -6.542  10.200  67.641  1.00  0.00     0.000 HD 
HETATM    9  C   UNL     1      -9.362  10.050  63.888  1.00  0.00    -0.315 A  
HETATM   10  C   UNL     1      -9.670  11.187  64.639  1.00  0.00    -0.308 A  
ENDBRANCH   2   3
TORSDOF 1
ENDMDL
MODEL      186
REMARK 921   NORMALIZED FREE ENERGY PREDICTED BY IDOCK:   -1.62 KCAL/MOL
REMARK 922        TOTAL FREE ENERGY PREDICTED BY IDOCK:   -1.76 KCAL/MOL
REMARK 923 INTER-LIGAND FREE ENERGY PREDICTED BY IDOCK:   -1.81 KCAL/MOL
REMARK 924 INTRA-LIGAND FREE ENERGY PREDICTED BY IDOCK:    0.05 KCAL/MOL
REMARK 927      BINDING AFFINITY PREDICTED BY RF-SCORE:    0.00 PKD
ROOT
HETATM    1  C   UNL     1      -8.374   7.998  72.806  1.00  0.00    -0.167 C  
HETATM    2  O   UNL     1      -8.131   7.866  71.412  1.00  0.00    -0.094 OA 
ENDROOT
BRANCH   2   3
HETATM    3  C   UNL     1      -9.095   7.225  70.681  1.00  0.00    -0.157 A  
HETATM    4  C   UNL     1      -9.435   5.873  70.769  1.00  0.00    -0.165 A  
HETATM    5  O   UNL     1      -8.791   4.990  71.587  1.00  0.00    -0.129 OA 
HETATM    6  C   UNL     1     -10.422   5.328  69.945  1.00  0.00    -0.351 A  
HETATM    7  C   UNL     1     -11.048   6.125  68.990  1.00  0.00    -0.437 A  
HETATM    8  H   UNL     1      -9.022   4.070  71.646  1.00  0.00     0.000 HD 
HETATM    9  C   UNL     1     -10.697   7.468  68.870  1.00  0.00    -0.135 A  
HETATM   10  C   UNL     1      -9.726   8.012  69.714  1.00  0.00    -0.176 A  
ENDBRANCH   2   3
TORSDOF 1
ENDMDL
MODEL      187
REMARK 921   NORMALIZED FREE ENERGY PREDICTED BY IDOCK:   -1.58 KCAL/MOL
REMARK 922        TOTAL FREE ENERGY PREDICTED BY IDOCK:   -1.71 KCAL/MOL
REMARK 923 INTER-LIGAND FREE ENERGY PREDICTED BY IDOCK:   -1.67 KCAL/MOL
REMARK 924 INTRA-LIGAND FREE ENERGY PREDICTED BY IDOCK:   -0.04 KCAL/MOL
REMARK 927      BINDING AFFINITY PREDICTED BY RF-SCORE:    0.00 PKD
ROOT
HETATM    1  C   UNL     1      -6.419   3.889  66.822  1.00  0.00    -0.041 C  
HETATM    2  O   UNL     1      -7.597   4.478  66.287  1.00  0.00    -0.088 OA 
ENDROOT
BRANCH   2   3
HETATM    3  C   UNL     1      -8.582   4.796  67.183  1.00  0.00    -0.104 A  
HETATM    4  C   UNL     1      -9.706   5.585  66.928  1.00  0.00    -0.150 A  
HETATM    5  O   UNL     1      -9.940   6.191  65.729  1.00  0.00    -0.371 OA 
HETATM    6  C   UNL     1     -10.630   5.862  67.939  1.00  0.00    -0.322 A  
HETATM    7  C   UNL     1     -10.410   5.390  69.231  1.00  0.00    -0.322 A  
HETATM    8  H   UNL     1     -10.705   6.728  65.555  1.00  0.00     0.000 HD 
HETATM    9  C   UNL     1      -9.276   4.628  69.506  1.00  0.00    -0.182 A  
HETATM   10  C   UNL     1      -8.369   4.334  68.485  1.00  0.00    -0.091 A  
ENDBRANCH   2   3
TORSDOF 1
ENDMDL
MODEL      188
REMARK 921   NORMALIZED FREE ENERGY PREDICTED BY IDOCK:   -1.58 KCAL/MOL
REMARK 922        TOTAL FREE ENERGY PREDICTED BY IDOCK:   -1.71 KCAL/MOL
REMARK 923 INTER-LIGAND FREE ENERGY PREDICTED BY IDOCK:   -1.66 KCAL/MOL
REMARK 924 INTRA-LIGAND FREE ENERGY PREDICTED BY IDOCK:   -0.05 KCAL/MOL
REMARK 927      BINDING AFFINITY PREDICTED BY RF-SCORE:    0.00 PKD
ROOT
HETATM    1  C   UNL     1     -10.547   8.658  68.953  1.00  0.00    -0.144 C  
HETATM    2  O   UNL     1     -10.340   7.939  67.744  1.00  0.00    -0.205 OA 
ENDROOT
BRANCH   2   3
HETATM    3  C   UNL     1      -9.774   8.634  66.709  1.00  0.00    -0.233 A  
HETATM    4  C   UNL     1      -8.506   8.414  66.163  1.00  0.00    -0.131 A  
HETATM    5  O   UNL     1      -7.635   7.481  66.644  1.00  0.00    -0.093 OA 
HETATM    6  C   UNL     1      -8.028   9.213  65.122  1.00  0.00    -0.117 A  
HETATM    7  C   UNL     1      -8.797  10.273  64.649  1.00  0.00    -0.220 A  
HETATM    8  H   UNL     1      -6.773   7.332  66.273  1.00  0.00     0.000 HD 
HETATM    9  C   UNL     1     -10.050  10.522  65.205  1.00  0.00    -0.369 A  
HETATM   10  C   UNL     1     -10.533   9.705  66.230  1.00  0.00    -0.149 A  
ENDBRANCH   2   3
TORSDOF 1
ENDMDL
MODEL      189
REMARK 921   NORMALIZED FREE ENERGY PREDICTED BY IDOCK:   -1.54 KCAL/MOL
REMARK 922        TOTAL FREE ENERGY PREDICTED BY IDOCK:   -1.67 KCAL/MOL
REMARK 923 INTER-LIGAND FREE ENERGY PREDICTED BY IDOCK:   -1.63 KCAL/MOL
REMARK 924 INTRA-LIGAND FREE ENERGY PREDICTED BY IDOCK:   -0.04 KCAL/MOL
REMARK 927      BINDING AFFINITY PREDICTED BY RF-SCORE:    0.00 PKD
ROOT
HETATM    1  C   UNL     1      -6.126   6.070  68.105  1.00  0.00    -0.021 C  
HETATM    2  O   UNL     1      -6.838   5.756  66.916  1.00  0.00    -0.060 OA 
ENDROOT
BRANCH   2   3
HETATM    3  C   UNL     1      -8.193   5.952  66.945  1.00  0.00    -0.105 A  
HETATM    4  C   UNL     1      -9.170   5.007  66.621  1.00  0.00    -0.129 A  
HETATM    5  O   UNL     1      -8.879   3.750  66.178  1.00  0.00    -0.117 OA 
HETATM    6  C   UNL     1     -10.526   5.338  66.663  1.00  0.00    -0.345 A  
HETATM    7  C   UNL     1     -10.916   6.636  66.982  1.00  0.00    -0.463 A  
HETATM    8  H   UNL     1      -9.544   3.107  65.958  1.00  0.00     0.000 HD 
HETATM    9  C   UNL     1      -9.950   7.596  67.277  1.00  0.00    -0.273 A  
HETATM   10  C   UNL     1      -8.597   7.253  67.257  1.00  0.00    -0.121 A  
ENDBRANCH   2   3
TORSDOF 1
ENDMDL
MODEL      190
REMARK 921   NORMALIZED FREE ENERGY PREDICTED BY IDOCK:   -1.54 KCAL/MOL
REMARK 922        TOTAL FREE ENERGY PREDICTED BY IDOCK:   -1.67 KCAL/MOL
REMARK 923 INTER-LIGAND FREE ENERGY PREDICTED BY IDOCK:   -1.63 KCAL/MOL
REMARK 924 INTRA-LIGAND FREE ENERGY PREDICTED BY IDOCK:   -0.04 KCAL/MOL
REMARK 927      BINDING AFFINITY PREDICTED BY RF-SCORE:    0.00 PKD
ROOT
HETATM    1  C   UNL     1      -6.764  17.129  68.447  1.00  0.00    -0.170 C  
HETATM    2  O   UNL     1      -8.050  16.551  68.262  1.00  0.00    -0.167 OA 
ENDROOT
BRANCH   2   3
HETATM    3  C   UNL     1      -8.084  15.208  67.998  1.00  0.00    -0.135 A  
HETATM    4  C   UNL     1      -9.224  14.401  67.969  1.00  0.00    -0.193 A  
HETATM    5  O   UNL     1     -10.475  14.861  68.257  1.00  0.00    -0.232 OA 
HETATM    6  C   UNL     1      -9.124  13.031  67.715  1.00  0.00    -0.200 A  
HETATM    7  C   UNL     1      -7.873  12.447  67.534  1.00  0.00    -0.169 A  
HETATM    8  H   UNL     1     -11.250  14.312  68.238  1.00  0.00     0.000 HD 
HETATM    9  C   UNL     1      -6.725  13.235  67.590  1.00  0.00    -0.171 A  
HETATM   10  C   UNL     1      -6.834  14.608  67.821  1.00  0.00    -0.193 A  
ENDBRANCH   2   3
TORSDOF 1
ENDMDL
MODEL      191
REMARK 921   NORMALIZED FREE ENERGY PREDICTED BY IDOCK:   -1.51 KCAL/MOL
REMARK 922        TOTAL FREE ENERGY PREDICTED BY IDOCK:   -1.64 KCAL/MOL
REMARK 923 INTER-LIGAND FREE ENERGY PREDICTED BY IDOCK:   -1.58 KCAL/MOL
REMARK 924 INTRA-LIGAND FREE ENERGY PREDICTED BY IDOCK:   -0.05 KCAL/MOL
REMARK 927      BINDING AFFINITY PREDICTED BY RF-SCORE:    0.00 PKD
ROOT
HETATM    1  C   UNL     1      -6.531   6.012  69.122  1.00  0.00    -0.043 C  
HETATM    2  O   UNL     1      -7.842   6.477  68.831  1.00  0.00    -0.106 OA 
ENDROOT
BRANCH   2   3
HETATM    3  C   UNL     1      -8.526   7.062  69.863  1.00  0.00    -0.140 A  
HETATM    4  C   UNL     1      -9.426   6.427  70.721  1.00  0.00    -0.169 A  
HETATM    5  O   UNL     1      -9.779   5.115  70.600  1.00  0.00    -0.167 OA 
HETATM    6  C   UNL     1     -10.086   7.143  71.723  1.00  0.00    -0.197 A  
HETATM    7  C   UNL     1      -9.885   8.516  71.844  1.00  0.00    -0.358 A  
HETATM    8  H   UNL     1     -10.392   4.683  71.184  1.00  0.00     0.000 HD 
HETATM    9  C   UNL     1      -9.013   9.168  70.974  1.00  0.00    -0.281 A  
HETATM   10  C   UNL     1      -8.338   8.442  69.990  1.00  0.00    -0.123 A  
ENDBRANCH   2   3
TORSDOF 1
ENDMDL
MODEL      192
REMARK 921   NORMALIZED FREE ENERGY PREDICTED BY IDOCK:   -1.50 KCAL/MOL
REMARK 922        TOTAL FREE ENERGY PREDICTED BY IDOCK:   -1.63 KCAL/MOL
REMARK 923 INTER-LIGAND FREE ENERGY PREDICTED BY IDOCK:   -1.59 KCAL/MOL
REMARK 924 INTRA-LIGAND FREE ENERGY PREDICTED BY IDOCK:   -0.04 KCAL/MOL
REMARK 927      BINDING AFFINITY PREDICTED BY RF-SCORE:    0.00 PKD
ROOT
HETATM    1  C   UNL     1      -7.270  11.293  69.245  1.00  0.00    -0.094 C  
HETATM    2  O   UNL     1      -7.811  10.024  68.904  1.00  0.00    -0.085 OA 
ENDROOT
BRANCH   2   3
HETATM    3  C   UNL     1      -8.511   9.954  67.729  1.00  0.00    -0.118 A  
HETATM    4  C   UNL     1      -9.616   9.138  67.474  1.00  0.00    -0.150 A  
HETATM    5  O   UNL     1     -10.117   8.250  68.380  1.00  0.00    -0.189 OA 
HETATM    6  C   UNL     1     -10.229   9.136  66.219  1.00  0.00    -0.257 A  
HETATM    7  C   UNL     1      -9.709   9.917  65.190  1.00  0.00    -0.376 A  
HETATM    8  H   UNL     1     -10.868   7.695  68.206  1.00  0.00     0.000 HD 
HETATM    9  C   UNL     1      -8.589  10.713  65.422  1.00  0.00    -0.185 A  
HETATM   10  C   UNL     1      -7.995  10.728  66.686  1.00  0.00    -0.139 A  
ENDBRANCH   2   3
TORSDOF 1
ENDMDL
MODEL      193
REMARK 921   NORMALIZED FREE ENERGY PREDICTED BY IDOCK:   -1.49 KCAL/MOL
REMARK 922        TOTAL FREE ENERGY PREDICTED BY IDOCK:   -1.62 KCAL/MOL
REMARK 923 INTER-LIGAND FREE ENERGY PREDICTED BY IDOCK:   -1.56 KCAL/MOL
REMARK 924 INTRA-LIGAND FREE ENERGY PREDICTED BY IDOCK:   -0.05 KCAL/MOL
REMARK 927      BINDING AFFINITY PREDICTED BY RF-SCORE:    0.00 PKD
ROOT
HETATM    1  C   UNL     1      -9.534  10.070  64.522  1.00  0.00    -0.296 C  
HETATM    2  O   UNL     1      -9.381   8.736  64.988  1.00  0.00    -0.013 OA 
ENDROOT
BRANCH   2   3
HETATM    3  C   UNL     1      -9.218   8.574  66.337  1.00  0.00    -0.199 A  
HETATM    4  C   UNL     1      -8.002   8.528  67.023  1.00  0.00    -0.100 A  
HETATM    5  O   UNL     1      -6.789   8.593  66.402  1.00  0.00    -0.069 OA 
HETATM    6  C   UNL     1      -7.966   8.329  68.405  1.00  0.00    -0.119 A  
HETATM    7  C   UNL     1      -9.151   8.126  69.109  1.00  0.00    -0.148 A  
HETATM    8  H   UNL     1      -5.961   8.562  66.868  1.00  0.00     0.000 HD 
HETATM    9  C   UNL     1     -10.369   8.139  68.433  1.00  0.00    -0.236 A  
HETATM   10  C   UNL     1     -10.399   8.362  67.054  1.00  0.00    -0.385 A  
ENDBRANCH   2   3
TORSDOF 1
ENDMDL
MODEL      194
REMARK 921   NORMALIZED FREE ENERGY PREDICTED BY IDOCK:   -1.46 KCAL/MOL
REMARK 922        TOTAL FREE ENERGY PREDICTED BY IDOCK:   -1.59 KCAL/MOL
REMARK 923 INTER-LIGAND FREE ENERGY PREDICTED BY IDOCK:   -1.54 KCAL/MOL
REMARK 924 INTRA-LIGAND FREE ENERGY PREDICTED BY IDOCK:   -0.05 KCAL/MOL
REMARK 927      BINDING AFFINITY PREDICTED BY RF-SCORE:    0.00 PKD
ROOT
HETATM    1  C   UNL     1     -11.400   6.697  72.083  1.00  0.00    -0.274 C  
HETATM    2  O   UNL     1     -10.064   6.376  71.718  1.00  0.00    -0.184 OA 
ENDROOT
BRANCH   2   3
HETATM    3  C   UNL     1      -9.086   6.728  72.609  1.00  0.00    -0.132 A  
HETATM    4  C   UNL     1      -8.341   7.910  72.593  1.00  0.00    -0.147 A  
HETATM    5  O   UNL     1      -8.472   8.865  71.627  1.00  0.00    -0.282 OA 
HETATM    6  C   UNL     1      -7.346   8.141  73.545  1.00  0.00    -0.190 A  
HETATM    7  C   UNL     1      -7.054   7.166  74.496  1.00  0.00    -0.109 A  
HETATM    8  H   UNL     1      -7.965   9.669  71.616  1.00  0.00     0.000 HD 
HETATM    9  C   UNL     1      -7.768   5.970  74.504  1.00  0.00    -0.096 A  
HETATM   10  C   UNL     1      -8.778   5.755  73.564  1.00  0.00    -0.123 A  
ENDBRANCH   2   3
TORSDOF 1
ENDMDL
MODEL      195
REMARK 921   NORMALIZED FREE ENERGY PREDICTED BY IDOCK:   -1.46 KCAL/MOL
REMARK 922        TOTAL FREE ENERGY PREDICTED BY IDOCK:   -1.58 KCAL/MOL
REMARK 923 INTER-LIGAND FREE ENERGY PREDICTED BY IDOCK:   -1.54 KCAL/MOL
REMARK 924 INTRA-LIGAND FREE ENERGY PREDICTED BY IDOCK:   -0.04 KCAL/MOL
REMARK 927      BINDING AFFINITY PREDICTED BY RF-SCORE:    0.00 PKD
ROOT
HETATM    1  C   UNL     1      -9.854   9.858  65.401  1.00  0.00    -0.313 C  
HETATM    2  O   UNL     1      -9.941  10.519  66.656  1.00  0.00    -0.195 OA 
ENDROOT
BRANCH   2   3
HETATM    3  C   UNL     1      -8.879  10.359  67.506  1.00  0.00    -0.134 A  
HETATM    4  C   UNL     1      -8.484  11.246  68.510  1.00  0.00    -0.156 A  
HETATM    5  O   UNL     1      -9.101  12.441  68.739  1.00  0.00    -0.386 OA 
HETATM    6  C   UNL     1      -7.360  10.983  69.296  1.00  0.00    -0.113 A  
HETATM    7  C   UNL     1      -6.591   9.847  69.052  1.00  0.00    -0.052 A  
HETATM    8  H   UNL     1      -8.832  13.045  69.421  1.00  0.00     0.000 HD 
HETATM    9  C   UNL     1      -6.957   8.969  68.034  1.00  0.00    -0.077 A  
HETATM   10  C   UNL     1      -8.096   9.226  67.267  1.00  0.00    -0.113 A  
ENDBRANCH   2   3
TORSDOF 1
ENDMDL
MODEL      196
REMARK 921   NORMALIZED FREE ENERGY PREDICTED BY IDOCK:   -1.41 KCAL/MOL
REMARK 922        TOTAL FREE ENERGY PREDICTED BY IDOCK:   -1.53 KCAL/MOL
REMARK 923 INTER-LIGAND FREE ENERGY PREDICTED BY IDOCK:   -1.48 KCAL/MOL
REMARK 924 INTRA-LIGAND FREE ENERGY PREDICTED BY IDOCK:   -0.05 KCAL/MOL
REMARK 927      BINDING AFFINITY PREDICTED BY RF-SCORE:    0.00 PKD
ROOT
HETATM    1  C   UNL     1      -7.532  10.714  69.648  1.00  0.00    -0.115 C  
HETATM    2  O   UNL     1      -7.770   9.313  69.649  1.00  0.00    -0.075 OA 
ENDROOT
BRANCH   2   3
HETATM    3  C   UNL     1      -8.576   8.829  68.655  1.00  0.00    -0.134 A  
HETATM    4  C   UNL     1      -8.288   7.756  67.807  1.00  0.00    -0.125 A  
HETATM    5  O   UNL     1      -7.110   7.070  67.841  1.00  0.00    -0.080 OA 
HETATM    6  C   UNL     1      -9.185   7.374  66.807  1.00  0.00    -0.190 A  
HETATM    7  C   UNL     1     -10.360   8.095  66.614  1.00  0.00    -0.284 A  
HETATM    8  H   UNL     1      -6.913   6.341  67.264  1.00  0.00     0.000 HD 
HETATM    9  C   UNL     1     -10.646   9.187  67.432  1.00  0.00    -0.315 A  
HETATM   10  C   UNL     1      -9.756   9.549  68.446  1.00  0.00    -0.168 A  
ENDBRANCH   2   3
TORSDOF 1
ENDMDL
MODEL      197
REMARK 921   NORMALIZED FREE ENERGY PREDICTED BY IDOCK:   -1.39 KCAL/MOL
REMARK 922        TOTAL FREE ENERGY PREDICTED BY IDOCK:   -1.52 KCAL/MOL
REMARK 923 INTER-LIGAND FREE ENERGY PREDICTED BY IDOCK:   -1.49 KCAL/MOL
REMARK 924 INTRA-LIGAND FREE ENERGY PREDICTED BY IDOCK:   -0.03 KCAL/MOL
REMARK 927      BINDING AFFINITY PREDICTED BY RF-SCORE:    0.00 PKD
ROOT
HETATM    1  C   UNL     1      -8.809   6.744  69.813  1.00  0.00    -0.141 C  
HETATM    2  O   UNL     1      -9.487   7.956  69.512  1.00  0.00    -0.160 OA 
ENDROOT
BRANCH   2   3
HETATM    3  C   UNL     1      -9.188   8.542  68.312  1.00  0.00    -0.138 A  
HETATM    4  C   UNL     1      -8.053   9.306  68.027  1.00  0.00    -0.104 A  
HETATM    5  O   UNL     1      -7.101   9.609  68.955  1.00  0.00    -0.063 OA 
HETATM    6  C   UNL     1      -7.874   9.878  66.765  1.00  0.00    -0.109 A  
HETATM    7  C   UNL     1      -8.856   9.729  65.788  1.00  0.00    -0.180 A  
HETATM    8  H   UNL     1      -6.329  10.129  68.762  1.00  0.00     0.000 HD 
HETATM    9  C   UNL     1     -10.007   8.994  66.069  1.00  0.00    -0.246 A  
HETATM   10  C   UNL     1     -10.168   8.406  67.326  1.00  0.00    -0.349 A  
ENDBRANCH   2   3
TORSDOF 1
ENDMDL
MODEL      198
REMARK 921   NORMALIZED FREE ENERGY PREDICTED BY IDOCK:   -1.39 KCAL/MOL
REMARK 922        TOTAL FREE ENERGY PREDICTED BY IDOCK:   -1.51 KCAL/MOL
REMARK 923 INTER-LIGAND FREE ENERGY PREDICTED BY IDOCK:   -1.47 KCAL/MOL
REMARK 924 INTRA-LIGAND FREE ENERGY PREDICTED BY IDOCK:   -0.04 KCAL/MOL
REMARK 927      BINDING AFFINITY PREDICTED BY RF-SCORE:    0.00 PKD
ROOT
HETATM    1  C   UNL     1     -10.482   3.357  63.811  1.00  0.00    -0.256 C  
HETATM    2  O   UNL     1      -9.504   4.380  63.938  1.00  0.00    -0.147 OA 
ENDROOT
BRANCH   2   3
HETATM    3  C   UNL     1      -9.241   4.819  65.208  1.00  0.00    -0.153 A  
HETATM    4  C   UNL     1      -7.987   5.160  65.720  1.00  0.00    -0.108 A  
HETATM    5  O   UNL     1      -6.830   5.047  65.005  1.00  0.00    -0.047 OA 
HETATM    6  C   UNL     1      -7.843   5.569  67.047  1.00  0.00    -0.101 A  
HETATM    7  C   UNL     1      -8.951   5.595  67.891  1.00  0.00    -0.108 A  
HETATM    8  H   UNL     1      -5.976   5.278  65.354  1.00  0.00     0.000 HD 
HETATM    9  C   UNL     1     -10.203   5.228  67.401  1.00  0.00    -0.240 A  
HETATM   10  C   UNL     1     -10.344   4.843  66.066  1.00  0.00    -0.307 A  
ENDBRANCH   2   3
TORSDOF 1
ENDMDL
MODEL      199
REMARK 921   NORMALIZED FREE ENERGY PREDICTED BY IDOCK:   -1.36 KCAL/MOL
REMARK 922        TOTAL FREE ENERGY PREDICTED BY IDOCK:   -1.49 KCAL/MOL
REMARK 923 INTER-LIGAND FREE ENERGY PREDICTED BY IDOCK:   -1.56 KCAL/MOL
REMARK 924 INTRA-LIGAND FREE ENERGY PREDICTED BY IDOCK:    0.08 KCAL/MOL
REMARK 927      BINDING AFFINITY PREDICTED BY RF-SCORE:    0.00 PKD
ROOT
HETATM    1  C   UNL     1     -11.338   7.841  70.108  1.00  0.00    -0.110 C  
HETATM    2  O   UNL     1     -10.619   9.001  70.505  1.00  0.00    -0.203 OA 
ENDROOT
BRANCH   2   3
HETATM    3  C   UNL     1      -9.377   8.795  71.044  1.00  0.00    -0.222 A  
HETATM    4  C   UNL     1      -9.097   8.135  72.243  1.00  0.00    -0.199 A  
HETATM    5  O   UNL     1     -10.063   7.642  73.070  1.00  0.00    -0.248 OA 
HETATM    6  C   UNL     1      -7.784   8.013  72.703  1.00  0.00    -0.160 A  
HETATM    7  C   UNL     1      -6.740   8.596  71.988  1.00  0.00    -0.078 A  
HETATM    8  H   UNL     1      -9.873   7.193  73.886  1.00  0.00     0.000 HD 
HETATM    9  C   UNL     1      -7.009   9.284  70.807  1.00  0.00    -0.110 A  
HETATM   10  C   UNL     1      -8.322   9.381  70.340  1.00  0.00    -0.234 A  
ENDBRANCH   2   3
TORSDOF 1
ENDMDL
MODEL      200
REMARK 921   NORMALIZED FREE ENERGY PREDICTED BY IDOCK:   -1.35 KCAL/MOL
REMARK 922        TOTAL FREE ENERGY PREDICTED BY IDOCK:   -1.47 KCAL/MOL
REMARK 923 INTER-LIGAND FREE ENERGY PREDICTED BY IDOCK:   -1.42 KCAL/MOL
REMARK 924 INTRA-LIGAND FREE ENERGY PREDICTED BY IDOCK:   -0.05 KCAL/MOL
REMARK 927      BINDING AFFINITY PREDICTED BY RF-SCORE:    0.00 PKD
ROOT
HETATM    1  C   UNL     1      -6.396   3.518  66.593  1.00  0.00    -0.032 C  
HETATM    2  O   UNL     1      -7.617   4.245  66.541  1.00  0.00    -0.087 OA 
ENDROOT
BRANCH   2   3
HETATM    3  C   UNL     1      -8.246   4.467  67.736  1.00  0.00    -0.099 A  
HETATM    4  C   UNL     1      -9.173   3.622  68.350  1.00  0.00    -0.163 A  
HETATM    5  O   UNL     1      -9.612   2.458  67.791  1.00  0.00    -0.366 OA 
HETATM    6  C   UNL     1      -9.771   3.976  69.562  1.00  0.00    -0.227 A  
HETATM    7  C   UNL     1      -9.480   5.205  70.148  1.00  0.00    -0.229 A  
HETATM    8  H   UNL     1     -10.243   1.883  68.208  1.00  0.00     0.000 HD 
HETATM    9  C   UNL     1      -8.580   6.071  69.530  1.00  0.00    -0.119 A  
HETATM   10  C   UNL     1      -7.968   5.701  68.330  1.00  0.00    -0.100 A  
ENDBRANCH   2   3
TORSDOF 1
ENDMDL
MODEL      201
REMARK 921   NORMALIZED FREE ENERGY PREDICTED BY IDOCK:   -1.35 KCAL/MOL
REMARK 922        TOTAL FREE ENERGY PREDICTED BY IDOCK:   -1.47 KCAL/MOL
REMARK 923 INTER-LIGAND FREE ENERGY PREDICTED BY IDOCK:   -1.45 KCAL/MOL
REMARK 924 INTRA-LIGAND FREE ENERGY PREDICTED BY IDOCK:   -0.01 KCAL/MOL
REMARK 927      BINDING AFFINITY PREDICTED BY RF-SCORE:    0.00 PKD
ROOT
HETATM    1  C   UNL     1      -9.864  11.164  65.470  1.00  0.00    -0.235 C  
HETATM    2  O   UNL     1      -9.345  10.417  66.562  1.00  0.00    -0.158 OA 
ENDROOT
BRANCH   2   3
HETATM    3  C   UNL     1      -9.012   9.114  66.307  1.00  0.00    -0.158 A  
HETATM    4  C   UNL     1      -7.855   8.668  65.663  1.00  0.00    -0.101 A  
HETATM    5  O   UNL     1      -6.911   9.510  65.152  1.00  0.00    -0.085 OA 
HETATM    6  C   UNL     1      -7.643   7.307  65.436  1.00  0.00    -0.100 A  
HETATM    7  C   UNL     1      -8.612   6.379  65.810  1.00  0.00    -0.152 A  
HETATM    8  H   UNL     1      -6.124   9.207  64.714  1.00  0.00     0.000 HD 
HETATM    9  C   UNL     1      -9.785   6.813  66.426  1.00  0.00    -0.125 A  
HETATM   10  C   UNL     1      -9.980   8.174  66.671  1.00  0.00    -0.339 A  
ENDBRANCH   2   3
TORSDOF 1
ENDMDL
MODEL      202
REMARK 921   NORMALIZED FREE ENERGY PREDICTED BY IDOCK:   -1.34 KCAL/MOL
REMARK 922        TOTAL FREE ENERGY PREDICTED BY IDOCK:   -1.46 KCAL/MOL
REMARK 923 INTER-LIGAND FREE ENERGY PREDICTED BY IDOCK:   -1.41 KCAL/MOL
REMARK 924 INTRA-LIGAND FREE ENERGY PREDICTED BY IDOCK:   -0.05 KCAL/MOL
REMARK 927      BINDING AFFINITY PREDICTED BY RF-SCORE:    0.00 PKD
ROOT
HETATM    1  C   UNL     1     -10.110   6.794  68.196  1.00  0.00    -0.164 C  
HETATM    2  O   UNL     1     -10.727   5.631  68.732  1.00  0.00    -0.241 OA 
ENDROOT
BRANCH   2   3
HETATM    3  C   UNL     1      -9.895   4.593  69.058  1.00  0.00    -0.154 A  
HETATM    4  C   UNL     1      -9.547   3.523  68.230  1.00  0.00    -0.095 A  
HETATM    5  O   UNL     1     -10.048   3.355  66.972  1.00  0.00    -0.206 OA 
HETATM    6  C   UNL     1      -8.707   2.506  68.690  1.00  0.00    -0.133 A  
HETATM    7  C   UNL     1      -8.246   2.527  70.004  1.00  0.00    -0.064 A  
HETATM    8  H   UNL     1      -9.811   2.627  66.409  1.00  0.00     0.000 HD 
HETATM    9  C   UNL     1      -8.611   3.572  70.850  1.00  0.00    -0.112 A  
HETATM   10  C   UNL     1      -9.432   4.599  70.376  1.00  0.00    -0.241 A  
ENDBRANCH   2   3
TORSDOF 1
ENDMDL
MODEL      203
REMARK 921   NORMALIZED FREE ENERGY PREDICTED BY IDOCK:   -1.30 KCAL/MOL
REMARK 922        TOTAL FREE ENERGY PREDICTED BY IDOCK:   -1.41 KCAL/MOL
REMARK 923 INTER-LIGAND FREE ENERGY PREDICTED BY IDOCK:   -1.37 KCAL/MOL
REMARK 924 INTRA-LIGAND FREE ENERGY PREDICTED BY IDOCK:   -0.04 KCAL/MOL
REMARK 927      BINDING AFFINITY PREDICTED BY RF-SCORE:    0.00 PKD
ROOT
HETATM    1  C   UNL     1      -9.298  10.717  68.090  1.00  0.00    -0.151 C  
HETATM    2  O   UNL     1      -8.392   9.714  68.532  1.00  0.00    -0.114 OA 
ENDROOT
BRANCH   2   3
HETATM    3  C   UNL     1      -8.947   8.571  69.041  1.00  0.00    -0.146 A  
HETATM    4  C   UNL     1      -8.318   7.654  69.887  1.00  0.00    -0.132 A  
HETATM    5  O   UNL     1      -7.017   7.768  70.281  1.00  0.00    -0.048 OA 
HETATM    6  C   UNL     1      -8.984   6.504  70.317  1.00  0.00    -0.155 A  
HETATM    7  C   UNL     1     -10.274   6.237  69.864  1.00  0.00    -0.232 A  
HETATM    8  H   UNL     1      -6.589   7.144  70.856  1.00  0.00     0.000 HD 
HETATM    9  C   UNL     1     -10.902   7.128  68.996  1.00  0.00    -0.172 A  
HETATM   10  C   UNL     1     -10.239   8.288  68.589  1.00  0.00    -0.223 A  
ENDBRANCH   2   3
TORSDOF 1
ENDMDL
MODEL      204
REMARK 921   NORMALIZED FREE ENERGY PREDICTED BY IDOCK:   -1.26 KCAL/MOL
REMARK 922        TOTAL FREE ENERGY PREDICTED BY IDOCK:   -1.38 KCAL/MOL
REMARK 923 INTER-LIGAND FREE ENERGY PREDICTED BY IDOCK:   -1.33 KCAL/MOL
REMARK 924 INTRA-LIGAND FREE ENERGY PREDICTED BY IDOCK:   -0.05 KCAL/MOL
REMARK 927      BINDING AFFINITY PREDICTED BY RF-SCORE:    0.00 PKD
ROOT
HETATM    1  C   UNL     1     -10.102   6.803  68.201  1.00  0.00    -0.164 C  
HETATM    2  O   UNL     1     -10.672   5.644  68.792  1.00  0.00    -0.241 OA 
ENDROOT
BRANCH   2   3
HETATM    3  C   UNL     1      -9.806   4.635  69.119  1.00  0.00    -0.172 A  
HETATM    4  C   UNL     1      -9.648   4.060  70.383  1.00  0.00    -0.195 A  
HETATM    5  O   UNL     1     -10.327   4.482  71.488  1.00  0.00    -0.163 OA 
HETATM    6  C   UNL     1      -8.705   3.052  70.597  1.00  0.00    -0.131 A  
HETATM    7  C   UNL     1      -7.876   2.643  69.556  1.00  0.00    -0.049 A  
HETATM    8  H   UNL     1     -10.220   4.091  72.348  1.00  0.00     0.000 HD 
HETATM    9  C   UNL     1      -8.002   3.229  68.298  1.00  0.00    -0.065 A  
HETATM   10  C   UNL     1      -8.963   4.220  68.084  1.00  0.00    -0.151 A  
ENDBRANCH   2   3
TORSDOF 1
ENDMDL
MODEL      205
REMARK 921   NORMALIZED FREE ENERGY PREDICTED BY IDOCK:   -1.26 KCAL/MOL
REMARK 922        TOTAL FREE ENERGY PREDICTED BY IDOCK:   -1.38 KCAL/MOL
REMARK 923 INTER-LIGAND FREE ENERGY PREDICTED BY IDOCK:   -1.34 KCAL/MOL
REMARK 924 INTRA-LIGAND FREE ENERGY PREDICTED BY IDOCK:   -0.04 KCAL/MOL
REMARK 927      BINDING AFFINITY PREDICTED BY RF-SCORE:    0.00 PKD
ROOT
HETATM    1  C   UNL     1      -9.512   3.245  70.206  1.00  0.00    -0.164 C  
HETATM    2  O   UNL     1     -10.147   4.206  71.040  1.00  0.00    -0.167 OA 
ENDROOT
BRANCH   2   3
HETATM    3  C   UNL     1      -9.415   5.318  71.356  1.00  0.00    -0.151 A  
HETATM    4  C   UNL     1      -9.857   6.413  72.104  1.00  0.00    -0.158 A  
HETATM    5  O   UNL     1     -11.129   6.527  72.583  1.00  0.00    -0.243 OA 
HETATM    6  C   UNL     1      -9.020   7.506  72.336  1.00  0.00    -0.172 A  
HETATM    7  C   UNL     1      -7.744   7.535  71.779  1.00  0.00    -0.085 A  
HETATM    8  H   UNL     1     -11.431   7.272  73.091  1.00  0.00     0.000 HD 
HETATM    9  C   UNL     1      -7.300   6.464  71.006  1.00  0.00    -0.083 A  
HETATM   10  C   UNL     1      -8.134   5.363  70.798  1.00  0.00    -0.111 A  
ENDBRANCH   2   3
TORSDOF 1
ENDMDL
MODEL      206
REMARK 921   NORMALIZED FREE ENERGY PREDICTED BY IDOCK:   -1.21 KCAL/MOL
REMARK 922        TOTAL FREE ENERGY PREDICTED BY IDOCK:   -1.33 KCAL/MOL
REMARK 923 INTER-LIGAND FREE ENERGY PREDICTED BY IDOCK:   -1.29 KCAL/MOL
REMARK 924 INTRA-LIGAND FREE ENERGY PREDICTED BY IDOCK:   -0.04 KCAL/MOL
REMARK 927      BINDING AFFINITY PREDICTED BY RF-SCORE:    0.00 PKD
ROOT
HETATM    1  C   UNL     1      -9.327   8.656  68.613  1.00  0.00    -0.142 C  
HETATM    2  O   UNL     1      -8.555   9.275  67.593  1.00  0.00    -0.116 OA 
ENDROOT
BRANCH   2   3
HETATM    3  C   UNL     1      -8.046  10.513  67.879  1.00  0.00    -0.107 A  
HETATM    4  C   UNL     1      -7.978  11.600  67.003  1.00  0.00    -0.164 A  
HETATM    5  O   UNL     1      -8.381  11.540  65.702  1.00  0.00    -0.375 OA 
HETATM    6  C   UNL     1      -7.406  12.809  67.407  1.00  0.00    -0.135 A  
HETATM    7  C   UNL     1      -6.852  12.926  68.679  1.00  0.00    -0.099 A  
HETATM    8  H   UNL     1      -8.334  12.279  65.106  1.00  0.00     0.000 HD 
HETATM    9  C   UNL     1      -6.886  11.840  69.552  1.00  0.00    -0.026 A  
HETATM   10  C   UNL     1      -7.480  10.642  69.151  1.00  0.00    -0.123 A  
ENDBRANCH   2   3
TORSDOF 1
ENDMDL
MODEL      207
REMARK 921   NORMALIZED FREE ENERGY PREDICTED BY IDOCK:   -1.20 KCAL/MOL
REMARK 922        TOTAL FREE ENERGY PREDICTED BY IDOCK:   -1.32 KCAL/MOL
REMARK 923 INTER-LIGAND FREE ENERGY PREDICTED BY IDOCK:   -1.26 KCAL/MOL
REMARK 924 INTRA-LIGAND FREE ENERGY PREDICTED BY IDOCK:   -0.06 KCAL/MOL
REMARK 927      BINDING AFFINITY PREDICTED BY RF-SCORE:    0.00 PKD
ROOT
HETATM    1  C   UNL     1      -9.909   5.623  66.397  1.00  0.00    -0.154 C  
HETATM    2  O   UNL     1      -8.960   6.508  66.978  1.00  0.00    -0.117 OA 
ENDROOT
BRANCH   2   3
HETATM    3  C   UNL     1      -9.066   6.717  68.326  1.00  0.00    -0.124 A  
HETATM    4  C   UNL     1      -8.405   6.002  69.328  1.00  0.00    -0.115 A  
HETATM    5  O   UNL     1      -7.585   4.942  69.074  1.00  0.00    -0.067 OA 
HETATM    6  C   UNL     1      -8.620   6.294  70.677  1.00  0.00    -0.139 A  
HETATM    7  C   UNL     1      -9.537   7.277  71.037  1.00  0.00    -0.158 A  
HETATM    8  H   UNL     1      -7.136   4.454  69.755  1.00  0.00     0.000 HD 
HETATM    9  C   UNL     1     -10.226   7.978  70.050  1.00  0.00    -0.205 A  
HETATM   10  C   UNL     1      -9.989   7.697  68.702  1.00  0.00    -0.181 A  
ENDBRANCH   2   3
TORSDOF 1
ENDMDL
MODEL      208
REMARK 921   NORMALIZED FREE ENERGY PREDICTED BY IDOCK:   -1.19 KCAL/MOL
REMARK 922        TOTAL FREE ENERGY PREDICTED BY IDOCK:   -1.30 KCAL/MOL
REMARK 923 INTER-LIGAND FREE ENERGY PREDICTED BY IDOCK:   -1.26 KCAL/MOL
REMARK 924 INTRA-LIGAND FREE ENERGY PREDICTED BY IDOCK:   -0.04 KCAL/MOL
REMARK 927      BINDING AFFINITY PREDICTED BY RF-SCORE:    0.00 PKD
ROOT
HETATM    1  C   UNL     1      -8.877   7.247  68.838  1.00  0.00    -0.127 C  
HETATM    2  O   UNL     1      -9.419   6.771  67.613  1.00  0.00    -0.120 OA 
ENDROOT
BRANCH   2   3
HETATM    3  C   UNL     1      -8.899   5.601  67.129  1.00  0.00    -0.106 A  
HETATM    4  C   UNL     1      -9.381   4.872  66.039  1.00  0.00    -0.156 A  
HETATM    5  O   UNL     1     -10.494   5.226  65.334  1.00  0.00    -0.401 OA 
HETATM    6  C   UNL     1      -8.777   3.671  65.658  1.00  0.00    -0.117 A  
HETATM    7  C   UNL     1      -7.711   3.164  66.397  1.00  0.00    -0.077 A  
HETATM    8  H   UNL     1     -10.822   4.729  64.593  1.00  0.00     0.000 HD 
HETATM    9  C   UNL     1      -7.239   3.866  67.504  1.00  0.00    -0.067 A  
HETATM   10  C   UNL     1      -7.832   5.078  67.866  1.00  0.00    -0.090 A  
ENDBRANCH   2   3
TORSDOF 1
ENDMDL
MODEL      209
REMARK 921   NORMALIZED FREE ENERGY PREDICTED BY IDOCK:   -1.03 KCAL/MOL
REMARK 922        TOTAL FREE ENERGY PREDICTED BY IDOCK:   -1.14 KCAL/MOL
REMARK 923 INTER-LIGAND FREE ENERGY PREDICTED BY IDOCK:   -1.09 KCAL/MOL
REMARK 924 INTRA-LIGAND FREE ENERGY PREDICTED BY IDOCK:   -0.04 KCAL/MOL
REMARK 927      BINDING AFFINITY PREDICTED BY RF-SCORE:    0.00 PKD
ROOT
HETATM    1  C   UNL     1      -9.389   8.904  68.649  1.00  0.00    -0.140 C  
HETATM    2  O   UNL     1      -8.415   7.894  68.425  1.00  0.00    -0.127 OA 
ENDROOT
BRANCH   2   3
HETATM    3  C   UNL     1      -8.437   6.824  69.279  1.00  0.00    -0.129 A  
HETATM    4  C   UNL     1      -8.440   5.476  68.913  1.00  0.00    -0.101 A  
HETATM    5  O   UNL     1      -8.470   5.051  67.616  1.00  0.00    -0.105 OA 
HETATM    6  C   UNL     1      -8.493   4.471  69.882  1.00  0.00    -0.084 A  
HETATM    7  C   UNL     1      -8.592   4.810  71.229  1.00  0.00    -0.129 A  
HETATM    8  H   UNL     1      -8.472   4.134  67.367  1.00  0.00     0.000 HD 
HETATM    9  C   UNL     1      -8.621   6.151  71.606  1.00  0.00    -0.134 A  
HETATM   10  C   UNL     1      -8.543   7.150  70.634  1.00  0.00    -0.143 A  
ENDBRANCH   2   3
TORSDOF 1
ENDMDL
MODEL      210
REMARK 921   NORMALIZED FREE ENERGY PREDICTED BY IDOCK:   -1.01 KCAL/MOL
REMARK 922        TOTAL FREE ENERGY PREDICTED BY IDOCK:   -1.12 KCAL/MOL
REMARK 923 INTER-LIGAND FREE ENERGY PREDICTED BY IDOCK:   -1.56 KCAL/MOL
REMARK 924 INTRA-LIGAND FREE ENERGY PREDICTED BY IDOCK:    0.45 KCAL/MOL
REMARK 927      BINDING AFFINITY PREDICTED BY RF-SCORE:    0.00 PKD
ROOT
HETATM    1  C   UNL     1     -12.021   7.458  70.899  1.00  0.00    -0.277 C  
HETATM    2  O   UNL     1     -11.136   7.009  69.881  1.00  0.00    -0.265 OA 
ENDROOT
BRANCH   2   3
HETATM    3  C   UNL     1      -9.960   6.447  70.299  1.00  0.00    -0.168 A  
HETATM    4  C   UNL     1      -9.796   5.592  71.393  1.00  0.00    -0.173 A  
HETATM    5  O   UNL     1     -10.815   5.243  72.230  1.00  0.00    -0.224 OA 
HETATM    6  C   UNL     1      -8.534   5.104  71.736  1.00  0.00    -0.125 A  
HETATM    7  C   UNL     1      -7.413   5.507  71.015  1.00  0.00    -0.089 A  
HETATM    8  H   UNL     1     -10.704   4.662  72.974  1.00  0.00     0.000 HD 
HETATM    9  C   UNL     1      -7.558   6.383  69.941  1.00  0.00    -0.100 A  
HETATM   10  C   UNL     1      -8.826   6.848  69.588  1.00  0.00    -0.141 A  
ENDBRANCH   2   3
TORSDOF 1
ENDMDL
MODEL      211
REMARK 921   NORMALIZED FREE ENERGY PREDICTED BY IDOCK:   -0.94 KCAL/MOL
REMARK 922        TOTAL FREE ENERGY PREDICTED BY IDOCK:   -1.04 KCAL/MOL
REMARK 923 INTER-LIGAND FREE ENERGY PREDICTED BY IDOCK:   -1.13 KCAL/MOL
REMARK 924 INTRA-LIGAND FREE ENERGY PREDICTED BY IDOCK:    0.09 KCAL/MOL
REMARK 927      BINDING AFFINITY PREDICTED BY RF-SCORE:    0.00 PKD
ROOT
HETATM    1  C   UNL     1      -8.673   3.508  65.462  1.00  0.00    -0.122 C  
HETATM    2  O   UNL     1      -8.884   3.247  66.843  1.00  0.00    -0.118 OA 
ENDROOT
BRANCH   2   3
HETATM    3  C   UNL     1      -8.953   4.337  67.667  1.00  0.00    -0.118 A  
HETATM    4  C   UNL     1      -7.927   5.253  67.914  1.00  0.00    -0.095 A  
HETATM    5  O   UNL     1      -6.676   5.137  67.380  1.00  0.00    -0.052 OA 
HETATM    6  C   UNL     1      -8.112   6.314  68.803  1.00  0.00    -0.109 A  
HETATM    7  C   UNL     1      -9.316   6.441  69.492  1.00  0.00    -0.146 A  
HETATM    8  H   UNL     1      -5.978   5.759  67.548  1.00  0.00     0.000 HD 
HETATM    9  C   UNL     1     -10.337   5.518  69.279  1.00  0.00    -0.335 A  
HETATM   10  C   UNL     1     -10.154   4.472  68.370  1.00  0.00    -0.030 A  
ENDBRANCH   2   3
TORSDOF 1
ENDMDL
MODEL      212
REMARK 921   NORMALIZED FREE ENERGY PREDICTED BY IDOCK:   -0.91 KCAL/MOL
REMARK 922        TOTAL FREE ENERGY PREDICTED BY IDOCK:   -1.00 KCAL/MOL
REMARK 923 INTER-LIGAND FREE ENERGY PREDICTED BY IDOCK:   -0.97 KCAL/MOL
REMARK 924 INTRA-LIGAND FREE ENERGY PREDICTED BY IDOCK:   -0.03 KCAL/MOL
REMARK 927      BINDING AFFINITY PREDICTED BY RF-SCORE:    0.00 PKD
ROOT
HETATM    1  C   UNL     1     -10.082   6.330  71.398  1.00  0.00    -0.191 C  
HETATM    2  O   UNL     1     -10.336   4.967  71.082  1.00  0.00    -0.220 OA 
ENDROOT
BRANCH   2   3
HETATM    3  C   UNL     1      -9.244   4.146  70.999  1.00  0.00    -0.135 A  
HETATM    4  C   UNL     1      -8.584   3.538  72.071  1.00  0.00    -0.086 A  
HETATM    5  O   UNL     1      -8.934   3.736  73.375  1.00  0.00    -0.095 OA 
HETATM    6  C   UNL     1      -7.458   2.741  71.858  1.00  0.00    -0.044 A  
HETATM    7  C   UNL     1      -6.951   2.583  70.571  1.00  0.00    -0.033 A  
HETATM    8  H   UNL     1      -8.485   3.323  74.103  1.00  0.00     0.000 HD 
HETATM    9  C   UNL     1      -7.581   3.208  69.496  1.00  0.00    -0.044 A  
HETATM   10  C   UNL     1      -8.721   3.985  69.713  1.00  0.00    -0.120 A  
ENDBRANCH   2   3
TORSDOF 1
ENDMDL
MODEL      213
REMARK 921   NORMALIZED FREE ENERGY PREDICTED BY IDOCK:   -0.88 KCAL/MOL
REMARK 922        TOTAL FREE ENERGY PREDICTED BY IDOCK:   -0.97 KCAL/MOL
REMARK 923 INTER-LIGAND FREE ENERGY PREDICTED BY IDOCK:   -0.93 KCAL/MOL
REMARK 924 INTRA-LIGAND FREE ENERGY PREDICTED BY IDOCK:   -0.04 KCAL/MOL
REMARK 927      BINDING AFFINITY PREDICTED BY RF-SCORE:    0.00 PKD
ROOT
HETATM    1  C   UNL     1     -10.300   4.614  66.047  1.00  0.00    -0.284 C  
HETATM    2  O   UNL     1      -9.612   3.540  66.673  1.00  0.00    -0.187 OA 
ENDROOT
BRANCH   2   3
HETATM    3  C   UNL     1      -8.523   3.872  67.432  1.00  0.00    -0.099 A  
HETATM    4  C   UNL     1      -8.152   3.286  68.645  1.00  0.00    -0.060 A  
HETATM    5  O   UNL     1      -8.882   2.312  69.261  1.00  0.00    -0.074 OA 
HETATM    6  C   UNL     1      -7.028   3.734  69.343  1.00  0.00    -0.045 A  
HETATM    7  C   UNL     1      -6.290   4.810  68.854  1.00  0.00    -0.032 A  
HETATM    8  H   UNL     1      -8.630   1.914  70.086  1.00  0.00     0.000 HD 
HETATM    9  C   UNL     1      -6.667   5.423  67.661  1.00  0.00    -0.055 A  
HETATM   10  C   UNL     1      -7.778   4.954  66.957  1.00  0.00    -0.092 A  
ENDBRANCH   2   3
TORSDOF 1
ENDMDL
MODEL      214
REMARK 921   NORMALIZED FREE ENERGY PREDICTED BY IDOCK:   -0.82 KCAL/MOL
REMARK 922        TOTAL FREE ENERGY PREDICTED BY IDOCK:   -0.91 KCAL/MOL
REMARK 923 INTER-LIGAND FREE ENERGY PREDICTED BY IDOCK:   -0.86 KCAL/MOL
REMARK 924 INTRA-LIGAND FREE ENERGY PREDICTED BY IDOCK:   -0.05 KCAL/MOL
REMARK 927      BINDING AFFINITY PREDICTED BY RF-SCORE:    0.00 PKD
ROOT
HETATM    1  C   UNL     1      -9.478   5.052  68.578  1.00  0.00    -0.138 C  
HETATM    2  O   UNL     1      -8.394   5.516  69.371  1.00  0.00    -0.099 OA 
ENDROOT
BRANCH   2   3
HETATM    3  C   UNL     1      -8.003   6.813  69.174  1.00  0.00    -0.112 A  
HETATM    4  C   UNL     1      -6.917   7.241  68.406  1.00  0.00    -0.079 A  
HETATM    5  O   UNL     1      -6.060   6.385  67.779  1.00  0.00    -0.022 OA 
HETATM    6  C   UNL     1      -6.603   8.598  68.304  1.00  0.00    -0.061 A  
HETATM    7  C   UNL     1      -7.347   9.539  69.012  1.00  0.00    -0.072 A  
HETATM    8  H   UNL     1      -5.321   6.675  67.257  1.00  0.00     0.000 HD 
HETATM    9  C   UNL     1      -8.414   9.123  69.806  1.00  0.00    -0.140 A  
HETATM   10  C   UNL     1      -8.738   7.767  69.884  1.00  0.00    -0.142 A  
ENDBRANCH   2   3
TORSDOF 1
ENDMDL
MODEL      215
REMARK 921   NORMALIZED FREE ENERGY PREDICTED BY IDOCK:   -0.77 KCAL/MOL
REMARK 922        TOTAL FREE ENERGY PREDICTED BY IDOCK:   -0.86 KCAL/MOL
REMARK 923 INTER-LIGAND FREE ENERGY PREDICTED BY IDOCK:   -0.84 KCAL/MOL
REMARK 924 INTRA-LIGAND FREE ENERGY PREDICTED BY IDOCK:   -0.02 KCAL/MOL
REMARK 927      BINDING AFFINITY PREDICTED BY RF-SCORE:    0.00 PKD
ROOT
HETATM    1  C   UNL     1      -9.325   5.534  66.102  1.00  0.00    -0.157 C  
HETATM    2  O   UNL     1      -8.802   5.022  67.320  1.00  0.00    -0.104 OA 
ENDROOT
BRANCH   2   3
HETATM    3  C   UNL     1      -8.011   5.868  68.049  1.00  0.00    -0.105 A  
HETATM    4  C   UNL     1      -8.452   6.911  68.869  1.00  0.00    -0.125 A  
HETATM    5  O   UNL     1      -9.766   7.250  69.006  1.00  0.00    -0.150 OA 
HETATM    6  C   UNL     1      -7.540   7.727  69.542  1.00  0.00    -0.100 A  
HETATM    7  C   UNL     1      -6.172   7.536  69.363  1.00  0.00    -0.031 A  
HETATM    8  H   UNL     1     -10.067   7.959  69.563  1.00  0.00     0.000 HD 
HETATM    9  C   UNL     1      -5.719   6.519  68.525  1.00  0.00    -0.016 A  
HETATM   10  C   UNL     1      -6.636   5.692  67.873  1.00  0.00    -0.053 A  
ENDBRANCH   2   3
TORSDOF 1
ENDMDL
MODEL      216
REMARK 921   NORMALIZED FREE ENERGY PREDICTED BY IDOCK:   -0.74 KCAL/MOL
REMARK 922        TOTAL FREE ENERGY PREDICTED BY IDOCK:   -0.82 KCAL/MOL
REMARK 923 INTER-LIGAND FREE ENERGY PREDICTED BY IDOCK:   -0.77 KCAL/MOL
REMARK 924 INTRA-LIGAND FREE ENERGY PREDICTED BY IDOCK:   -0.05 KCAL/MOL
REMARK 927      BINDING AFFINITY PREDICTED BY RF-SCORE:    0.00 PKD
ROOT
HETATM    1  C   UNL     1     -10.046   4.775  66.198  1.00  0.00    -0.262 C  
HETATM    2  O   UNL     1      -9.269   3.674  66.650  1.00  0.00    -0.151 OA 
ENDROOT
BRANCH   2   3
HETATM    3  C   UNL     1      -8.061   3.972  67.221  1.00  0.00    -0.095 A  
HETATM    4  C   UNL     1      -6.809   3.851  66.613  1.00  0.00    -0.058 A  
HETATM    5  O   UNL     1      -6.631   3.360  65.353  1.00  0.00    -0.035 OA 
HETATM    6  C   UNL     1      -5.641   4.162  67.314  1.00  0.00    -0.021 A  
HETATM    7  C   UNL     1      -5.714   4.551  68.649  1.00  0.00    -0.020 A  
HETATM    8  H   UNL     1      -5.779   3.278  64.940  1.00  0.00     0.000 HD 
HETATM    9  C   UNL     1      -6.954   4.646  69.276  1.00  0.00    -0.051 A  
HETATM   10  C   UNL     1      -8.120   4.358  68.563  1.00  0.00    -0.081 A  
ENDBRANCH   2   3
TORSDOF 1
ENDMDL
MODEL      217
REMARK 921   NORMALIZED FREE ENERGY PREDICTED BY IDOCK:   -0.71 KCAL/MOL
REMARK 922        TOTAL FREE ENERGY PREDICTED BY IDOCK:   -0.79 KCAL/MOL
REMARK 923 INTER-LIGAND FREE ENERGY PREDICTED BY IDOCK:   -0.75 KCAL/MOL
REMARK 924 INTRA-LIGAND FREE ENERGY PREDICTED BY IDOCK:   -0.04 KCAL/MOL
REMARK 927      BINDING AFFINITY PREDICTED BY RF-SCORE:    0.00 PKD
ROOT
HETATM    1  C   UNL     1      -9.327   5.535  66.102  1.00  0.00    -0.157 C  
HETATM    2  O   UNL     1      -8.810   5.025  67.324  1.00  0.00    -0.104 OA 
ENDROOT
BRANCH   2   3
HETATM    3  C   UNL     1      -8.026   5.875  68.057  1.00  0.00    -0.105 A  
HETATM    4  C   UNL     1      -6.756   5.593  68.568  1.00  0.00    -0.057 A  
HETATM    5  O   UNL     1      -6.146   4.380  68.431  1.00  0.00    -0.029 OA 
HETATM    6  C   UNL     1      -6.065   6.538  69.329  1.00  0.00    -0.026 A  
HETATM    7  C   UNL     1      -6.661   7.761  69.628  1.00  0.00    -0.039 A  
HETATM    8  H   UNL     1      -5.283   4.188  68.779  1.00  0.00     0.000 HD 
HETATM    9  C   UNL     1      -7.940   8.043  69.151  1.00  0.00    -0.114 A  
HETATM   10  C   UNL     1      -8.616   7.103  68.370  1.00  0.00    -0.123 A  
ENDBRANCH   2   3
TORSDOF 1
ENDMDL
MODEL      218
REMARK 921   NORMALIZED FREE ENERGY PREDICTED BY IDOCK:   -0.67 KCAL/MOL
REMARK 922        TOTAL FREE ENERGY PREDICTED BY IDOCK:   -0.75 KCAL/MOL
REMARK 923 INTER-LIGAND FREE ENERGY PREDICTED BY IDOCK:   -1.01 KCAL/MOL
REMARK 924 INTRA-LIGAND FREE ENERGY PREDICTED BY IDOCK:    0.26 KCAL/MOL
REMARK 927      BINDING AFFINITY PREDICTED BY RF-SCORE:    0.00 PKD
ROOT
HETATM    1  C   UNL     1     -10.193   5.440  67.585  1.00  0.00    -0.186 C  
HETATM    2  O   UNL     1      -8.844   5.709  67.941  1.00  0.00    -0.108 OA 
ENDROOT
BRANCH   2   3
HETATM    3  C   UNL     1      -8.050   6.247  66.963  1.00  0.00    -0.109 A  
HETATM    4  C   UNL     1      -8.338   7.380  66.198  1.00  0.00    -0.139 A  
HETATM    5  O   UNL     1      -9.504   8.080  66.304  1.00  0.00    -0.257 OA 
HETATM    6  C   UNL     1      -7.456   7.815  65.206  1.00  0.00    -0.082 A  
HETATM    7  C   UNL     1      -6.297   7.090  64.938  1.00  0.00    -0.037 A  
HETATM    8  H   UNL     1      -9.699   8.850  65.783  1.00  0.00     0.000 HD 
HETATM    9  C   UNL     1      -6.013   5.941  65.674  1.00  0.00    -0.028 A  
HETATM   10  C   UNL     1      -6.888   5.524  66.680  1.00  0.00    -0.063 A  
ENDBRANCH   2   3
TORSDOF 1
ENDMDL
MODEL      219
REMARK 921   NORMALIZED FREE ENERGY PREDICTED BY IDOCK:   -0.58 KCAL/MOL
REMARK 922        TOTAL FREE ENERGY PREDICTED BY IDOCK:   -0.66 KCAL/MOL
REMARK 923 INTER-LIGAND FREE ENERGY PREDICTED BY IDOCK:   -0.60 KCAL/MOL
REMARK 924 INTRA-LIGAND FREE ENERGY PREDICTED BY IDOCK:   -0.05 KCAL/MOL
REMARK 927      BINDING AFFINITY PREDICTED BY RF-SCORE:    0.00 PKD
ROOT
HETATM    1  C   UNL     1      -6.166   6.612  72.675  1.00  0.00    -0.054 C  
HETATM    2  O   UNL     1      -5.808   5.559  71.789  1.00  0.00    -0.023 OA 
ENDROOT
BRANCH   2   3
HETATM    3  C   UNL     1      -6.718   5.243  70.817  1.00  0.00    -0.043 A  
HETATM    4  C   UNL     1      -6.599   5.519  69.452  1.00  0.00    -0.050 A  
HETATM    5  O   UNL     1      -5.547   6.202  68.916  1.00  0.00    -0.010 OA 
HETATM    6  C   UNL     1      -7.614   5.169  68.560  1.00  0.00    -0.079 A  
HETATM    7  C   UNL     1      -8.784   4.580  69.034  1.00  0.00    -0.112 A  
HETATM    8  H   UNL     1      -5.465   6.390  67.988  1.00  0.00     0.000 HD 
HETATM    9  C   UNL     1      -8.929   4.327  70.396  1.00  0.00    -0.147 A  
HETATM   10  C   UNL     1      -7.900   4.658  71.280  1.00  0.00    -0.086 A  
ENDBRANCH   2   3
TORSDOF 1
ENDMDL
MODEL      220
REMARK 921   NORMALIZED FREE ENERGY PREDICTED BY IDOCK:   -0.54 KCAL/MOL
REMARK 922        TOTAL FREE ENERGY PREDICTED BY IDOCK:   -0.61 KCAL/MOL
REMARK 923 INTER-LIGAND FREE ENERGY PREDICTED BY IDOCK:   -0.58 KCAL/MOL
REMARK 924 INTRA-LIGAND FREE ENERGY PREDICTED BY IDOCK:   -0.03 KCAL/MOL
REMARK 927      BINDING AFFINITY PREDICTED BY RF-SCORE:    0.00 PKD
ROOT
HETATM    1  C   UNL     1      -6.166   6.612  72.675  1.00  0.00    -0.054 C  
HETATM    2  O   UNL     1      -5.808   5.559  71.789  1.00  0.00    -0.023 OA 
ENDROOT
BRANCH   2   3
HETATM    3  C   UNL     1      -6.718   5.243  70.817  1.00  0.00    -0.043 A  
HETATM    4  C   UNL     1      -7.860   4.454  70.980  1.00  0.00    -0.068 A  
HETATM    5  O   UNL     1      -8.188   3.845  72.156  1.00  0.00    -0.084 OA 
HETATM    6  C   UNL     1      -8.699   4.178  69.898  1.00  0.00    -0.114 A  
HETATM    7  C   UNL     1      -8.377   4.652  68.629  1.00  0.00    -0.084 A  
HETATM    8  H   UNL     1      -8.964   3.308  72.267  1.00  0.00     0.000 HD 
HETATM    9  C   UNL     1      -7.225   5.415  68.447  1.00  0.00    -0.071 A  
HETATM   10  C   UNL     1      -6.403   5.707  69.537  1.00  0.00    -0.037 A  
ENDBRANCH   2   3
TORSDOF 1
ENDMDL
