MODEL        1
REMARK 921   NORMALIZED FREE ENERGY PREDICTED BY IDOCK:   -5.97 KCAL/MOL
REMARK 922        TOTAL FREE ENERGY PREDICTED BY IDOCK:   -7.20 KCAL/MOL
REMARK 923 INTER-LIGAND FREE ENERGY PREDICTED BY IDOCK:   -7.01 KCAL/MOL
REMARK 924 INTRA-LIGAND FREE ENERGY PREDICTED BY IDOCK:   -0.19 KCAL/MOL
REMARK 927      BINDING AFFINITY PREDICTED BY RF-SCORE:    0.00 PKD
ROOT
HETATM    1  N   UNL     1     -14.187   7.372  71.200  1.00  0.00    -0.617 NA 
HETATM    2  C   UNL     1     -13.912   8.572  71.753  1.00  0.00    -0.431 C  
HETATM    3  H2  UNL     1     -14.687   6.621  71.675  1.00  0.00     0.000 HD 
HETATM    4  H1  UNL     1     -13.831   7.313  70.246  1.00  0.00     0.000 HD 
HETATM    5  N   UNL     1     -14.384   8.651  73.016  1.00  0.00    -1.094 NA 
HETATM    6  N   UNL     1     -13.301   9.463  71.059  1.00  0.00    -0.569 NA 
HETATM    7  H1  UNL     1     -14.177   9.558  73.434  1.00  0.00     0.000 HD 
HETATM    8  H2  UNL     1     -14.884   7.900  73.491  1.00  0.00     0.000 HD 
HETATM    9  H   UNL     1     -12.991   9.284  70.104  1.00  0.00     0.000 HD 
ENDROOT
BRANCH   6  10
HETATM   10  C   UNL     1     -13.072  10.753  71.718  1.00  0.00    -0.468 C  
BRANCH  10  11
HETATM   11  C   UNL     1     -12.224  11.681  70.826  1.00  0.00    -0.344 C  
BRANCH  11  12
HETATM   12  N   UNL     1     -12.487  13.120  71.078  1.00  0.00    -0.364 NA 
HETATM   13  C   UNL     1     -12.455  13.915  69.844  1.00  0.00    -0.229 C  
HETATM   14  C   UNL     1     -12.239  15.421  70.040  1.00  0.00    -0.392 C  
HETATM   15  C   UNL     1     -11.218  15.771  71.127  1.00  0.00    -0.380 C  
HETATM   16  C   UNL     1     -11.842  16.198  72.459  1.00  0.00    -0.630 C  
HETATM   17  C   UNL     1     -12.605  15.124  73.240  1.00  0.00    -0.615 C  
HETATM   18  C   UNL     1     -13.887  14.631  72.558  1.00  0.00    -0.561 C  
HETATM   19  C   UNL     1     -13.737  13.286  71.832  1.00  0.00    -0.318 C  
ENDBRANCH  11  12
ENDBRANCH  10  11
ENDBRANCH   6  10
TORSDOF 3
ENDMDL
MODEL        2
REMARK 921   NORMALIZED FREE ENERGY PREDICTED BY IDOCK:   -5.55 KCAL/MOL
REMARK 922        TOTAL FREE ENERGY PREDICTED BY IDOCK:   -6.71 KCAL/MOL
REMARK 923 INTER-LIGAND FREE ENERGY PREDICTED BY IDOCK:   -6.49 KCAL/MOL
REMARK 924 INTRA-LIGAND FREE ENERGY PREDICTED BY IDOCK:   -0.22 KCAL/MOL
REMARK 927      BINDING AFFINITY PREDICTED BY RF-SCORE:    0.00 PKD
ROOT
HETATM    1  N   UNL     1     -11.650  16.667  64.000  1.00  0.00    -1.496 NA 
HETATM    2  C   UNL     1     -11.477  15.334  64.116  1.00  0.00    -0.004 C  
HETATM    3  H2  UNL     1     -11.022  17.365  64.396  1.00  0.00     0.000 HD 
HETATM    4  H1  UNL     1     -12.489  16.886  63.463  1.00  0.00     0.000 HD 
HETATM    5  N   UNL     1     -10.365  15.043  64.827  1.00  0.00    -0.484 NA 
HETATM    6  N   UNL     1     -12.311  14.536  63.554  1.00  0.00    -1.090 NA 
HETATM    7  H1  UNL     1     -10.234  14.035  64.915  1.00  0.00     0.000 HD 
HETATM    8  H2  UNL     1      -9.737  15.742  65.223  1.00  0.00     0.000 HD 
HETATM    9  H   UNL     1     -13.121  14.879  63.038  1.00  0.00     0.000 HD 
ENDROOT
BRANCH   6  10
HETATM   10  C   UNL     1     -12.032  13.102  63.696  1.00  0.00    -0.514 C  
BRANCH  10  11
HETATM   11  C   UNL     1     -12.809  12.510  64.888  1.00  0.00    -0.128 C  
BRANCH  11  12
HETATM   12  N   UNL     1     -11.923  12.102  66.007  1.00  0.00    -0.585 NA 
HETATM   13  C   UNL     1     -10.573  11.755  65.546  1.00  0.00    -0.276 C  
HETATM   14  C   UNL     1      -9.753  10.889  66.512  1.00  0.00    -0.235 C  
HETATM   15  C   UNL     1     -10.562   9.790  67.208  1.00  0.00    -0.320 C  
HETATM   16  C   UNL     1     -10.966  10.125  68.647  1.00  0.00    -0.273 C  
HETATM   17  C   UNL     1     -11.973  11.263  68.834  1.00  0.00    -0.378 C  
HETATM   18  C   UNL     1     -11.449  12.648  68.438  1.00  0.00    -0.350 C  
HETATM   19  C   UNL     1     -11.921  13.129  67.057  1.00  0.00    -0.355 C  
ENDBRANCH  11  12
ENDBRANCH  10  11
ENDBRANCH   6  10
TORSDOF 3
ENDMDL
MODEL        3
REMARK 921   NORMALIZED FREE ENERGY PREDICTED BY IDOCK:   -5.54 KCAL/MOL
REMARK 922        TOTAL FREE ENERGY PREDICTED BY IDOCK:   -6.70 KCAL/MOL
REMARK 923 INTER-LIGAND FREE ENERGY PREDICTED BY IDOCK:   -6.51 KCAL/MOL
REMARK 924 INTRA-LIGAND FREE ENERGY PREDICTED BY IDOCK:   -0.19 KCAL/MOL
REMARK 927      BINDING AFFINITY PREDICTED BY RF-SCORE:    0.00 PKD
ROOT
HETATM    1  N   UNL     1     -12.370  13.781  63.116  1.00  0.00    -1.106 NA 
HETATM    2  C   UNL     1     -12.039  14.163  64.367  1.00  0.00    -0.463 C  
HETATM    3  H2  UNL     1     -13.246  13.320  62.869  1.00  0.00     0.000 HD 
HETATM    4  H1  UNL     1     -11.634  14.013  62.450  1.00  0.00     0.000 HD 
HETATM    5  N   UNL     1     -13.014  13.856  65.249  1.00  0.00    -0.774 NA 
HETATM    6  N   UNL     1     -10.922  14.763  64.570  1.00  0.00    -0.628 NA 
HETATM    7  H1  UNL     1     -12.764  14.145  66.195  1.00  0.00     0.000 HD 
HETATM    8  H2  UNL     1     -13.889  13.395  65.002  1.00  0.00     0.000 HD 
HETATM    9  H   UNL     1     -10.260  14.941  63.815  1.00  0.00     0.000 HD 
ENDROOT
BRANCH   6  10
HETATM   10  C   UNL     1     -10.651  15.179  65.951  1.00  0.00    -0.337 C  
BRANCH  10  11
HETATM   11  C   UNL     1      -9.254  15.819  66.065  1.00  0.00    -0.344 C  
BRANCH  11  12
HETATM   12  N   UNL     1      -9.275  17.123  66.774  1.00  0.00    -0.244 NA 
HETATM   13  C   UNL     1     -10.642  17.597  67.023  1.00  0.00    -0.254 C  
HETATM   14  C   UNL     1     -10.774  19.101  67.301  1.00  0.00    -0.585 C  
HETATM   15  C   UNL     1      -9.873  19.981  66.429  1.00  0.00    -0.578 C  
HETATM   16  C   UNL     1      -8.606  20.472  67.133  1.00  0.00    -0.364 C  
HETATM   17  C   UNL     1      -7.561  19.413  67.494  1.00  0.00    -0.282 C  
HETATM   18  C   UNL     1      -8.015  18.409  68.561  1.00  0.00    -0.333 C  
HETATM   19  C   UNL     1      -8.465  17.052  67.997  1.00  0.00    -0.216 C  
ENDBRANCH  11  12
ENDBRANCH  10  11
ENDBRANCH   6  10
TORSDOF 3
ENDMDL
MODEL        4
REMARK 921   NORMALIZED FREE ENERGY PREDICTED BY IDOCK:   -5.53 KCAL/MOL
REMARK 922        TOTAL FREE ENERGY PREDICTED BY IDOCK:   -6.69 KCAL/MOL
REMARK 923 INTER-LIGAND FREE ENERGY PREDICTED BY IDOCK:   -6.34 KCAL/MOL
REMARK 924 INTRA-LIGAND FREE ENERGY PREDICTED BY IDOCK:   -0.35 KCAL/MOL
REMARK 927      BINDING AFFINITY PREDICTED BY RF-SCORE:    0.00 PKD
ROOT
HETATM    1  N   UNL     1     -12.461  11.606  62.980  1.00  0.00    -0.937 NA 
HETATM    2  C   UNL     1     -12.498  12.680  63.795  1.00  0.00    -0.420 C  
HETATM    3  H2  UNL     1     -12.720  10.661  63.263  1.00  0.00     0.000 HD 
HETATM    4  H1  UNL     1     -12.143  11.860  62.045  1.00  0.00     0.000 HD 
HETATM    5  N   UNL     1     -12.919  12.344  65.034  1.00  0.00    -0.626 NA 
HETATM    6  N   UNL     1     -12.179  13.835  63.334  1.00  0.00    -1.075 NA 
HETATM    7  H1  UNL     1     -12.947  13.156  65.650  1.00  0.00     0.000 HD 
HETATM    8  H2  UNL     1     -13.178  11.399  65.316  1.00  0.00     0.000 HD 
HETATM    9  H   UNL     1     -11.873  13.965  62.370  1.00  0.00     0.000 HD 
ENDROOT
BRANCH   6  10
HETATM   10  C   UNL     1     -12.280  14.958  64.273  1.00  0.00    -0.344 C  
BRANCH  10  11
HETATM   11  C   UNL     1     -10.895  15.315  64.849  1.00  0.00    -0.425 C  
BRANCH  11  12
HETATM   12  N   UNL     1     -10.778  15.007  66.296  1.00  0.00    -0.315 NA 
HETATM   13  C   UNL     1     -10.030  13.767  66.541  1.00  0.00    -0.288 C  
HETATM   14  C   UNL     1     -10.260  13.123  67.915  1.00  0.00    -0.233 C  
HETATM   15  C   UNL     1     -11.713  13.174  68.396  1.00  0.00    -0.386 C  
HETATM   16  C   UNL     1     -11.996  14.274  69.423  1.00  0.00    -0.381 C  
HETATM   17  C   UNL     1     -11.899  15.721  68.930  1.00  0.00    -0.354 C  
HETATM   18  C   UNL     1     -10.485  16.164  68.534  1.00  0.00    -0.269 C  
HETATM   19  C   UNL     1     -10.224  16.158  67.021  1.00  0.00    -0.285 C  
ENDBRANCH  11  12
ENDBRANCH  10  11
ENDBRANCH   6  10
TORSDOF 3
ENDMDL
MODEL        5
REMARK 921   NORMALIZED FREE ENERGY PREDICTED BY IDOCK:   -5.48 KCAL/MOL
REMARK 922        TOTAL FREE ENERGY PREDICTED BY IDOCK:   -6.62 KCAL/MOL
REMARK 923 INTER-LIGAND FREE ENERGY PREDICTED BY IDOCK:   -6.50 KCAL/MOL
REMARK 924 INTRA-LIGAND FREE ENERGY PREDICTED BY IDOCK:   -0.13 KCAL/MOL
REMARK 927      BINDING AFFINITY PREDICTED BY RF-SCORE:    0.00 PKD
ROOT
HETATM    1  N   UNL     1     -11.908  11.586  63.146  1.00  0.00    -0.908 NA 
HETATM    2  C   UNL     1     -12.232  12.656  63.901  1.00  0.00    -0.481 C  
HETATM    3  H2  UNL     1     -11.785  11.613  62.134  1.00  0.00     0.000 HD 
HETATM    4  H1  UNL     1     -11.801  10.747  63.716  1.00  0.00     0.000 HD 
HETATM    5  N   UNL     1     -12.373  13.766  63.146  1.00  0.00    -1.106 NA 
HETATM    6  N   UNL     1     -12.335  12.523  65.175  1.00  0.00    -0.573 NA 
HETATM    7  H1  UNL     1     -12.618  14.576  63.717  1.00  0.00     0.000 HD 
HETATM    8  H2  UNL     1     -12.250  13.793  62.134  1.00  0.00     0.000 HD 
HETATM    9  H   UNL     1     -12.204  11.623  65.635  1.00  0.00     0.000 HD 
ENDROOT
BRANCH   6  10
HETATM   10  C   UNL     1     -12.654  13.741  65.929  1.00  0.00    -0.447 C  
BRANCH  10  11
HETATM   11  C   UNL     1     -11.365  14.464  66.369  1.00  0.00    -0.350 C  
BRANCH  11  12
HETATM   12  N   UNL     1     -11.227  14.546  67.844  1.00  0.00    -0.282 NA 
HETATM   13  C   UNL     1     -11.671  13.316  68.512  1.00  0.00    -0.352 C  
HETATM   14  C   UNL     1     -12.015  13.466  70.000  1.00  0.00    -0.407 C  
HETATM   15  C   UNL     1     -12.760  14.760  70.344  1.00  0.00    -0.368 C  
HETATM   16  C   UNL     1     -11.874  15.849  70.955  1.00  0.00    -0.468 C  
HETATM   17  C   UNL     1     -10.810  16.468  70.043  1.00  0.00    -0.258 C  
HETATM   18  C   UNL     1      -9.694  15.503  69.624  1.00  0.00    -0.276 C  
HETATM   19  C   UNL     1      -9.856  14.929  68.208  1.00  0.00    -0.218 C  
ENDBRANCH  11  12
ENDBRANCH  10  11
ENDBRANCH   6  10
TORSDOF 3
ENDMDL
MODEL        6
REMARK 921   NORMALIZED FREE ENERGY PREDICTED BY IDOCK:   -5.37 KCAL/MOL
REMARK 922        TOTAL FREE ENERGY PREDICTED BY IDOCK:   -6.50 KCAL/MOL
REMARK 923 INTER-LIGAND FREE ENERGY PREDICTED BY IDOCK:   -6.25 KCAL/MOL
REMARK 924 INTRA-LIGAND FREE ENERGY PREDICTED BY IDOCK:   -0.25 KCAL/MOL
REMARK 927      BINDING AFFINITY PREDICTED BY RF-SCORE:    0.00 PKD
ROOT
HETATM    1  N   UNL     1     -11.550  16.133  64.013  1.00  0.00    -1.417 NA 
HETATM    2  C   UNL     1     -11.925  14.879  64.339  1.00  0.00    -0.394 C  
HETATM    3  H2  UNL     1     -11.578  16.513  63.067  1.00  0.00     0.000 HD 
HETATM    4  H1  UNL     1     -11.234  16.651  64.832  1.00  0.00     0.000 HD 
HETATM    5  N   UNL     1     -12.343  14.192  63.254  1.00  0.00    -1.133 NA 
HETATM    6  N   UNL     1     -11.879  14.504  65.567  1.00  0.00    -0.348 NA 
HETATM    7  H1  UNL     1     -12.627  13.244  63.500  1.00  0.00     0.000 HD 
HETATM    8  H2  UNL     1     -12.371  14.573  62.308  1.00  0.00     0.000 HD 
HETATM    9  H   UNL     1     -11.541  15.120  66.306  1.00  0.00     0.000 HD 
ENDROOT
BRANCH   6  10
HETATM   10  C   UNL     1     -12.338  13.139  65.845  1.00  0.00    -0.398 C  
BRANCH  10  11
HETATM   11  C   UNL     1     -11.504  12.500  66.972  1.00  0.00    -0.356 C  
BRANCH  11  12
HETATM   12  N   UNL     1     -11.064  13.486  67.991  1.00  0.00    -0.250 NA 
HETATM   13  C   UNL     1     -11.695  13.253  69.297  1.00  0.00    -0.326 C  
HETATM   14  C   UNL     1     -11.688  14.454  70.252  1.00  0.00    -0.355 C  
HETATM   15  C   UNL     1     -11.960  15.799  69.569  1.00  0.00    -0.326 C  
HETATM   16  C   UNL     1     -10.705  16.636  69.311  1.00  0.00    -0.337 C  
HETATM   17  C   UNL     1      -9.709  16.089  68.284  1.00  0.00    -0.214 C  
HETATM   18  C   UNL     1      -9.010  14.791  68.705  1.00  0.00    -0.179 C  
HETATM   19  C   UNL     1      -9.597  13.524  68.066  1.00  0.00    -0.221 C  
ENDBRANCH  11  12
ENDBRANCH  10  11
ENDBRANCH   6  10
TORSDOF 3
ENDMDL
MODEL        7
REMARK 921   NORMALIZED FREE ENERGY PREDICTED BY IDOCK:   -5.37 KCAL/MOL
REMARK 922        TOTAL FREE ENERGY PREDICTED BY IDOCK:   -6.50 KCAL/MOL
REMARK 923 INTER-LIGAND FREE ENERGY PREDICTED BY IDOCK:   -6.32 KCAL/MOL
REMARK 924 INTRA-LIGAND FREE ENERGY PREDICTED BY IDOCK:   -0.18 KCAL/MOL
REMARK 927      BINDING AFFINITY PREDICTED BY RF-SCORE:    0.00 PKD
ROOT
HETATM    1  N   UNL     1     -12.165  11.542  63.044  1.00  0.00    -0.941 NA 
HETATM    2  C   UNL     1     -12.353  12.649  63.793  1.00  0.00    -0.478 C  
HETATM    3  H2  UNL     1     -12.017  11.549  62.036  1.00  0.00     0.000 HD 
HETATM    4  H1  UNL     1     -12.190  10.698  63.617  1.00  0.00     0.000 HD 
HETATM    5  N   UNL     1     -12.319  13.766  63.035  1.00  0.00    -1.030 NA 
HETATM    6  N   UNL     1     -12.503  12.535  65.063  1.00  0.00    -0.593 NA 
HETATM    7  H1  UNL     1     -12.461  14.604  63.601  1.00  0.00     0.000 HD 
HETATM    8  H2  UNL     1     -12.171  13.773  62.027  1.00  0.00     0.000 HD 
HETATM    9  H   UNL     1     -12.510  11.627  65.526  1.00  0.00     0.000 HD 
ENDROOT
BRANCH   6  10
HETATM   10  C   UNL     1     -12.664  13.787  65.811  1.00  0.00    -0.446 C  
BRANCH  10  11
HETATM   11  C   UNL     1     -11.986  13.690  67.192  1.00  0.00    -0.393 C  
BRANCH  11  12
HETATM   12  N   UNL     1     -10.976  14.755  67.413  1.00  0.00    -0.304 NA 
HETATM   13  C   UNL     1     -11.313  15.611  68.557  1.00  0.00    -0.360 C  
HETATM   14  C   UNL     1     -10.625  16.983  68.576  1.00  0.00    -0.370 C  
HETATM   15  C   UNL     1     -10.527  17.653  67.202  1.00  0.00    -0.319 C  
HETATM   16  C   UNL     1      -9.151  17.531  66.542  1.00  0.00    -0.284 C  
HETATM   17  C   UNL     1      -8.713  16.128  66.110  1.00  0.00    -0.358 C  
HETATM   18  C   UNL     1      -8.475  15.152  67.268  1.00  0.00    -0.220 C  
HETATM   19  C   UNL     1      -9.632  14.172  67.514  1.00  0.00    -0.223 C  
ENDBRANCH  11  12
ENDBRANCH  10  11
ENDBRANCH   6  10
TORSDOF 3
ENDMDL
MODEL        8
REMARK 921   NORMALIZED FREE ENERGY PREDICTED BY IDOCK:   -5.37 KCAL/MOL
REMARK 922        TOTAL FREE ENERGY PREDICTED BY IDOCK:   -6.50 KCAL/MOL
REMARK 923 INTER-LIGAND FREE ENERGY PREDICTED BY IDOCK:   -6.11 KCAL/MOL
REMARK 924 INTRA-LIGAND FREE ENERGY PREDICTED BY IDOCK:   -0.39 KCAL/MOL
REMARK 927      BINDING AFFINITY PREDICTED BY RF-SCORE:    0.00 PKD
ROOT
HETATM    1  N   UNL     1     -10.631  11.225  62.831  1.00  0.00    -0.769 NA 
HETATM    2  C   UNL     1     -10.729  12.342  63.581  1.00  0.00    -0.467 C  
HETATM    3  H2  UNL     1      -9.860  10.560  62.886  1.00  0.00     0.000 HD 
HETATM    4  H1  UNL     1     -11.427  11.131  62.200  1.00  0.00     0.000 HD 
HETATM    5  N   UNL     1      -9.674  12.466  64.416  1.00  0.00    -0.520 NA 
HETATM    6  N   UNL     1     -11.757  13.101  63.455  1.00  0.00    -0.727 NA 
HETATM    7  H1  UNL     1      -9.748  13.311  64.984  1.00  0.00     0.000 HD 
HETATM    8  H2  UNL     1      -8.903  11.802  64.472  1.00  0.00     0.000 HD 
HETATM    9  H   UNL     1     -12.496  12.900  62.782  1.00  0.00     0.000 HD 
ENDROOT
BRANCH   6  10
HETATM   10  C   UNL     1     -11.806  14.276  64.332  1.00  0.00    -0.426 C  
BRANCH  10  11
HETATM   11  C   UNL     1     -12.723  14.015  65.544  1.00  0.00    -0.486 C  
BRANCH  11  12
HETATM   12  N   UNL     1     -12.009  14.128  66.840  1.00  0.00    -0.433 NA 
HETATM   13  C   UNL     1     -11.707  12.815  67.424  1.00  0.00    -0.366 C  
HETATM   14  C   UNL     1     -11.419  12.819  68.932  1.00  0.00    -0.352 C  
HETATM   15  C   UNL     1     -12.321  13.757  69.740  1.00  0.00    -0.311 C  
HETATM   16  C   UNL     1     -11.663  15.086  70.120  1.00  0.00    -0.340 C  
HETATM   17  C   UNL     1     -11.345  16.053  68.975  1.00  0.00    -0.363 C  
HETATM   18  C   UNL     1     -10.266  15.556  68.005  1.00  0.00    -0.229 C  
HETATM   19  C   UNL     1     -10.817  14.975  66.694  1.00  0.00    -0.318 C  
ENDBRANCH  11  12
ENDBRANCH  10  11
ENDBRANCH   6  10
TORSDOF 3
ENDMDL
MODEL        9
REMARK 921   NORMALIZED FREE ENERGY PREDICTED BY IDOCK:   -5.35 KCAL/MOL
REMARK 922        TOTAL FREE ENERGY PREDICTED BY IDOCK:   -6.48 KCAL/MOL
REMARK 923 INTER-LIGAND FREE ENERGY PREDICTED BY IDOCK:   -6.34 KCAL/MOL
REMARK 924 INTRA-LIGAND FREE ENERGY PREDICTED BY IDOCK:   -0.14 KCAL/MOL
REMARK 927      BINDING AFFINITY PREDICTED BY RF-SCORE:    0.00 PKD
ROOT
HETATM    1  N   UNL     1     -12.453  13.851  63.281  1.00  0.00    -1.112 NA 
HETATM    2  C   UNL     1     -11.998  14.700  64.225  1.00  0.00    -0.386 C  
HETATM    3  H2  UNL     1     -12.750  14.135  62.347  1.00  0.00     0.000 HD 
HETATM    4  H1  UNL     1     -12.462  12.889  63.619  1.00  0.00     0.000 HD 
HETATM    5  N   UNL     1     -11.987  15.974  63.776  1.00  0.00    -1.339 NA 
HETATM    6  N   UNL     1     -11.621  14.238  65.362  1.00  0.00    -0.337 NA 
HETATM    7  H1  UNL     1     -11.643  16.617  64.490  1.00  0.00     0.000 HD 
HETATM    8  H2  UNL     1     -12.285  16.258  62.843  1.00  0.00     0.000 HD 
HETATM    9  H   UNL     1     -11.677  13.245  65.586  1.00  0.00     0.000 HD 
ENDROOT
BRANCH   6  10
HETATM   10  C   UNL     1     -11.104  15.221  66.321  1.00  0.00    -0.273 C  
BRANCH  10  11
HETATM   11  C   UNL     1      -9.613  15.510  66.058  1.00  0.00    -0.345 C  
BRANCH  11  12
HETATM   12  N   UNL     1      -9.194  16.850  66.539  1.00  0.00    -0.256 NA 
HETATM   13  C   UNL     1      -7.799  17.152  66.194  1.00  0.00    -0.268 C  
HETATM   14  C   UNL     1      -7.142  18.259  67.030  1.00  0.00    -0.215 C  
HETATM   15  C   UNL     1      -7.504  18.219  68.518  1.00  0.00    -0.300 C  
HETATM   16  C   UNL     1      -8.572  19.236  68.931  1.00  0.00    -0.331 C  
HETATM   17  C   UNL     1      -9.983  19.020  68.376  1.00  0.00    -0.473 C  
HETATM   18  C   UNL     1     -10.103  19.197  66.857  1.00  0.00    -0.453 C  
HETATM   19  C   UNL     1     -10.133  17.878  66.070  1.00  0.00    -0.253 C  
ENDBRANCH  11  12
ENDBRANCH  10  11
ENDBRANCH   6  10
TORSDOF 3
ENDMDL
MODEL       10
REMARK 921   NORMALIZED FREE ENERGY PREDICTED BY IDOCK:   -5.30 KCAL/MOL
REMARK 922        TOTAL FREE ENERGY PREDICTED BY IDOCK:   -6.42 KCAL/MOL
REMARK 923 INTER-LIGAND FREE ENERGY PREDICTED BY IDOCK:   -6.05 KCAL/MOL
REMARK 924 INTRA-LIGAND FREE ENERGY PREDICTED BY IDOCK:   -0.37 KCAL/MOL
REMARK 927      BINDING AFFINITY PREDICTED BY RF-SCORE:    0.00 PKD
ROOT
HETATM    1  N   UNL     1     -12.534  13.918  63.275  1.00  0.00    -1.112 NA 
HETATM    2  C   UNL     1     -11.916  12.722  63.340  1.00  0.00    -0.535 C  
HETATM    3  H2  UNL     1     -13.523  14.044  63.061  1.00  0.00     0.000 HD 
HETATM    4  H1  UNL     1     -11.887  14.682  63.468  1.00  0.00     0.000 HD 
HETATM    5  N   UNL     1     -12.774  11.710  63.085  1.00  0.00    -0.848 NA 
HETATM    6  N   UNL     1     -10.670  12.669  63.647  1.00  0.00    -0.476 NA 
HETATM    7  H1  UNL     1     -12.307  10.805  63.134  1.00  0.00     0.000 HD 
HETATM    8  H2  UNL     1     -13.763  11.835  62.870  1.00  0.00     0.000 HD 
HETATM    9  H   UNL     1     -10.122  13.511  63.820  1.00  0.00     0.000 HD 
ENDROOT
BRANCH   6  10
HETATM   10  C   UNL     1     -10.080  11.329  63.733  1.00  0.00    -0.361 C  
BRANCH  10  11
HETATM   11  C   UNL     1      -9.943  10.885  65.203  1.00  0.00    -0.284 C  
BRANCH  11  12
HETATM   12  N   UNL     1     -10.191  11.991  66.162  1.00  0.00    -0.220 NA 
HETATM   13  C   UNL     1     -11.215  11.644  67.156  1.00  0.00    -0.309 C  
HETATM   14  C   UNL     1     -11.871  12.837  67.864  1.00  0.00    -0.392 C  
HETATM   15  C   UNL     1     -12.158  14.029  66.947  1.00  0.00    -0.465 C  
HETATM   16  C   UNL     1     -11.139  15.167  67.061  1.00  0.00    -0.328 C  
HETATM   17  C   UNL     1      -9.719  14.874  66.569  1.00  0.00    -0.294 C  
HETATM   18  C   UNL     1      -8.961  13.832  67.400  1.00  0.00    -0.224 C  
HETATM   19  C   UNL     1      -8.929  12.429  66.774  1.00  0.00    -0.205 C  
ENDBRANCH  11  12
ENDBRANCH  10  11
ENDBRANCH   6  10
TORSDOF 3
ENDMDL
MODEL       11
REMARK 921   NORMALIZED FREE ENERGY PREDICTED BY IDOCK:   -5.28 KCAL/MOL
REMARK 922        TOTAL FREE ENERGY PREDICTED BY IDOCK:   -6.39 KCAL/MOL
REMARK 923 INTER-LIGAND FREE ENERGY PREDICTED BY IDOCK:   -6.31 KCAL/MOL
REMARK 924 INTRA-LIGAND FREE ENERGY PREDICTED BY IDOCK:   -0.08 KCAL/MOL
REMARK 927      BINDING AFFINITY PREDICTED BY RF-SCORE:    0.00 PKD
ROOT
HETATM    1  N   UNL     1     -12.416  14.144  63.324  1.00  0.00    -1.098 NA 
HETATM    2  C   UNL     1     -11.980  14.927  64.332  1.00  0.00    -0.394 C  
HETATM    3  H2  UNL     1     -12.629  14.482  62.386  1.00  0.00     0.000 HD 
HETATM    4  H1  UNL     1     -12.503  13.172  63.619  1.00  0.00     0.000 HD 
HETATM    5  N   UNL     1     -11.864  16.214  63.941  1.00  0.00    -1.382 NA 
HETATM    6  N   UNL     1     -11.711  14.399  65.472  1.00  0.00    -0.347 NA 
HETATM    7  H1  UNL     1     -11.534  16.806  64.704  1.00  0.00     0.000 HD 
HETATM    8  H2  UNL     1     -12.078  16.552  63.003  1.00  0.00     0.000 HD 
HETATM    9  H   UNL     1     -11.840  13.403  65.648  1.00  0.00     0.000 HD 
ENDROOT
BRANCH   6  10
HETATM   10  C   UNL     1     -11.208  15.310  66.506  1.00  0.00    -0.228 C  
BRANCH  10  11
HETATM   11  C   UNL     1      -9.711  15.608  66.290  1.00  0.00    -0.301 C  
BRANCH  11  12
HETATM   12  N   UNL     1      -9.302  16.925  66.838  1.00  0.00    -0.233 NA 
HETATM   13  C   UNL     1     -10.411  17.617  67.506  1.00  0.00    -0.365 C  
HETATM   14  C   UNL     1     -10.234  19.132  67.673  1.00  0.00    -0.492 C  
HETATM   15  C   UNL     1      -9.601  19.826  66.462  1.00  0.00    -0.509 C  
HETATM   16  C   UNL     1      -8.112  20.140  66.628  1.00  0.00    -0.330 C  
HETATM   17  C   UNL     1      -7.156  18.945  66.694  1.00  0.00    -0.227 C  
HETATM   18  C   UNL     1      -7.323  18.067  67.940  1.00  0.00    -0.224 C  
HETATM   19  C   UNL     1      -8.121  16.776  67.699  1.00  0.00    -0.177 C  
ENDBRANCH  11  12
ENDBRANCH  10  11
ENDBRANCH   6  10
TORSDOF 3
ENDMDL
MODEL       12
REMARK 921   NORMALIZED FREE ENERGY PREDICTED BY IDOCK:   -5.26 KCAL/MOL
REMARK 922        TOTAL FREE ENERGY PREDICTED BY IDOCK:   -6.36 KCAL/MOL
REMARK 923 INTER-LIGAND FREE ENERGY PREDICTED BY IDOCK:   -6.19 KCAL/MOL
REMARK 924 INTRA-LIGAND FREE ENERGY PREDICTED BY IDOCK:   -0.17 KCAL/MOL
REMARK 927      BINDING AFFINITY PREDICTED BY RF-SCORE:    0.00 PKD
ROOT
HETATM    1  N   UNL     1     -13.692  15.996  73.453  1.00  0.00    -0.807 NA 
HETATM    2  C   UNL     1     -13.289  15.302  72.369  1.00  0.00    -0.435 C  
HETATM    3  H2  UNL     1     -14.139  15.579  74.269  1.00  0.00     0.000 HD 
HETATM    4  H1  UNL     1     -13.491  16.991  73.353  1.00  0.00     0.000 HD 
HETATM    5  N   UNL     1     -13.554  13.985  72.502  1.00  0.00    -0.557 NA 
HETATM    6  N   UNL     1     -12.709  15.919  71.403  1.00  0.00    -0.537 NA 
HETATM    7  H1  UNL     1     -13.250  13.459  71.682  1.00  0.00     0.000 HD 
HETATM    8  H2  UNL     1     -14.001  13.568  73.318  1.00  0.00     0.000 HD 
HETATM    9  H   UNL     1     -12.563  16.927  71.418  1.00  0.00     0.000 HD 
ENDROOT
BRANCH   6  10
HETATM   10  C   UNL     1     -12.268  15.088  70.277  1.00  0.00    -0.340 C  
BRANCH  10  11
HETATM   11  C   UNL     1     -11.594  15.951  69.192  1.00  0.00    -0.379 C  
BRANCH  11  12
HETATM   12  N   UNL     1     -11.294  15.188  67.955  1.00  0.00    -0.329 NA 
HETATM   13  C   UNL     1      -9.889  15.320  67.549  1.00  0.00    -0.213 C  
HETATM   14  C   UNL     1      -9.597  14.986  66.080  1.00  0.00    -0.359 C  
HETATM   15  C   UNL     1     -10.661  15.488  65.099  1.00  0.00    -0.460 C  
HETATM   16  C   UNL     1     -11.638  14.408  64.628  1.00  0.00    -0.414 C  
HETATM   17  C   UNL     1     -12.592  13.832  65.679  1.00  0.00    -0.551 C  
HETATM   18  C   UNL     1     -11.904  13.022  66.785  1.00  0.00    -0.451 C  
HETATM   19  C   UNL     1     -11.715  13.789  68.102  1.00  0.00    -0.357 C  
ENDBRANCH  11  12
ENDBRANCH  10  11
ENDBRANCH   6  10
TORSDOF 3
ENDMDL
MODEL       13
REMARK 921   NORMALIZED FREE ENERGY PREDICTED BY IDOCK:   -5.25 KCAL/MOL
REMARK 922        TOTAL FREE ENERGY PREDICTED BY IDOCK:   -6.36 KCAL/MOL
REMARK 923 INTER-LIGAND FREE ENERGY PREDICTED BY IDOCK:   -5.94 KCAL/MOL
REMARK 924 INTRA-LIGAND FREE ENERGY PREDICTED BY IDOCK:   -0.41 KCAL/MOL
REMARK 927      BINDING AFFINITY PREDICTED BY RF-SCORE:    0.00 PKD
ROOT
HETATM    1  N   UNL     1     -10.090  10.291  62.552  1.00  0.00    -0.645 NA 
HETATM    2  C   UNL     1     -10.446  11.477  63.087  1.00  0.00    -0.291 C  
HETATM    3  H2  UNL     1      -9.133   9.942  62.513  1.00  0.00     0.000 HD 
HETATM    4  H1  UNL     1     -10.901   9.787  62.194  1.00  0.00     0.000 HD 
HETATM    5  N   UNL     1      -9.373  12.144  63.562  1.00  0.00    -0.596 NA 
HETATM    6  N   UNL     1     -11.686  11.812  63.114  1.00  0.00    -0.846 NA 
HETATM    7  H1  UNL     1      -9.642  13.041  63.967  1.00  0.00     0.000 HD 
HETATM    8  H2  UNL     1      -8.415  11.796  63.523  1.00  0.00     0.000 HD 
HETATM    9  H   UNL     1     -12.414  11.217  62.719  1.00  0.00     0.000 HD 
ENDROOT
BRANCH   6  10
HETATM   10  C   UNL     1     -11.995  13.100  63.745  1.00  0.00    -0.508 C  
BRANCH  10  11
HETATM   11  C   UNL     1     -12.748  12.891  65.074  1.00  0.00    -0.404 C  
BRANCH  11  12
HETATM   12  N   UNL     1     -11.937  13.267  66.258  1.00  0.00    -0.403 NA 
HETATM   13  C   UNL     1     -11.204  12.123  66.816  1.00  0.00    -0.322 C  
HETATM   14  C   UNL     1     -10.740  12.286  68.269  1.00  0.00    -0.244 C  
HETATM   15  C   UNL     1     -11.761  12.977  69.179  1.00  0.00    -0.378 C  
HETATM   16  C   UNL     1     -11.463  14.455  69.446  1.00  0.00    -0.330 C  
HETATM   17  C   UNL     1     -11.580  15.410  68.254  1.00  0.00    -0.361 C  
HETATM   18  C   UNL     1     -10.536  15.183  67.154  1.00  0.00    -0.295 C  
HETATM   19  C   UNL     1     -11.062  14.403  65.939  1.00  0.00    -0.319 C  
ENDBRANCH  11  12
ENDBRANCH  10  11
ENDBRANCH   6  10
TORSDOF 3
ENDMDL
MODEL       14
REMARK 921   NORMALIZED FREE ENERGY PREDICTED BY IDOCK:   -5.20 KCAL/MOL
REMARK 922        TOTAL FREE ENERGY PREDICTED BY IDOCK:   -6.30 KCAL/MOL
REMARK 923 INTER-LIGAND FREE ENERGY PREDICTED BY IDOCK:   -6.02 KCAL/MOL
REMARK 924 INTRA-LIGAND FREE ENERGY PREDICTED BY IDOCK:   -0.27 KCAL/MOL
REMARK 927      BINDING AFFINITY PREDICTED BY RF-SCORE:    0.00 PKD
ROOT
HETATM    1  N   UNL     1     -12.523  11.344  62.950  1.00  0.00    -0.863 NA 
HETATM    2  C   UNL     1     -12.397  12.454  63.707  1.00  0.00    -0.528 C  
HETATM    3  H2  UNL     1     -12.031  11.190  62.070  1.00  0.00     0.000 HD 
HETATM    4  H1  UNL     1     -13.172  10.679  63.371  1.00  0.00     0.000 HD 
HETATM    5  N   UNL     1     -11.537  13.334  63.150  1.00  0.00    -0.658 NA 
HETATM    6  N   UNL     1     -13.039  12.539  64.816  1.00  0.00    -0.814 NA 
HETATM    7  H1  UNL     1     -11.441  14.173  63.722  1.00  0.00     0.000 HD 
HETATM    8  H2  UNL     1     -11.046  13.179  62.270  1.00  0.00     0.000 HD 
HETATM    9  H   UNL     1     -13.665  11.801  65.134  1.00  0.00     0.000 HD 
ENDROOT
BRANCH   6  10
HETATM   10  C   UNL     1     -12.820  13.761  65.598  1.00  0.00    -0.408 C  
BRANCH  10  11
HETATM   11  C   UNL     1     -11.940  13.470  66.831  1.00  0.00    -0.399 C  
BRANCH  11  12
HETATM   12  N   UNL     1     -11.032  14.595  67.166  1.00  0.00    -0.307 NA 
HETATM   13  C   UNL     1     -10.680  15.395  65.987  1.00  0.00    -0.322 C  
HETATM   14  C   UNL     1      -9.414  16.251  66.129  1.00  0.00    -0.373 C  
HETATM   15  C   UNL     1      -8.269  15.557  66.874  1.00  0.00    -0.287 C  
HETATM   16  C   UNL     1      -8.119  15.989  68.335  1.00  0.00    -0.159 C  
HETATM   17  C   UNL     1      -9.247  15.595  69.292  1.00  0.00    -0.269 C  
HETATM   18  C   UNL     1     -10.589  16.280  69.009  1.00  0.00    -0.286 C  
HETATM   19  C   UNL     1     -11.599  15.402  68.255  1.00  0.00    -0.348 C  
ENDBRANCH  11  12
ENDBRANCH  10  11
ENDBRANCH   6  10
TORSDOF 3
ENDMDL
MODEL       15
REMARK 921   NORMALIZED FREE ENERGY PREDICTED BY IDOCK:   -5.14 KCAL/MOL
REMARK 922        TOTAL FREE ENERGY PREDICTED BY IDOCK:   -6.23 KCAL/MOL
REMARK 923 INTER-LIGAND FREE ENERGY PREDICTED BY IDOCK:   -5.99 KCAL/MOL
REMARK 924 INTRA-LIGAND FREE ENERGY PREDICTED BY IDOCK:   -0.24 KCAL/MOL
REMARK 927      BINDING AFFINITY PREDICTED BY RF-SCORE:    0.00 PKD
ROOT
HETATM    1  N   UNL     1     -11.352  11.252  62.988  1.00  0.00    -0.827 NA 
HETATM    2  C   UNL     1     -11.929  12.301  63.609  1.00  0.00    -0.543 C  
HETATM    3  H2  UNL     1     -11.793  10.340  62.870  1.00  0.00     0.000 HD 
HETATM    4  H1  UNL     1     -10.419  11.488  62.650  1.00  0.00     0.000 HD 
HETATM    5  N   UNL     1     -13.165  11.989  64.056  1.00  0.00    -0.677 NA 
HETATM    6  N   UNL     1     -11.300  13.418  63.681  1.00  0.00    -0.587 NA 
HETATM    7  H1  UNL     1     -13.602  12.782  64.526  1.00  0.00     0.000 HD 
HETATM    8  H2  UNL     1     -13.606  11.077  63.938  1.00  0.00     0.000 HD 
HETATM    9  H   UNL     1     -10.360  13.533  63.302  1.00  0.00     0.000 HD 
ENDROOT
BRANCH   6  10
HETATM   10  C   UNL     1     -12.009  14.520  64.340  1.00  0.00    -0.449 C  
BRANCH  10  11
HETATM   11  C   UNL     1     -11.013  15.503  64.986  1.00  0.00    -0.440 C  
BRANCH  11  12
HETATM   12  N   UNL     1     -10.741  15.191  66.412  1.00  0.00    -0.312 NA 
HETATM   13  C   UNL     1     -11.755  14.299  66.988  1.00  0.00    -0.403 C  
HETATM   14  C   UNL     1     -11.837  14.304  68.521  1.00  0.00    -0.382 C  
HETATM   15  C   UNL     1     -11.681  15.691  69.152  1.00  0.00    -0.402 C  
HETATM   16  C   UNL     1     -10.288  15.964  69.728  1.00  0.00    -0.290 C  
HETATM   17  C   UNL     1      -9.135  16.070  68.725  1.00  0.00    -0.222 C  
HETATM   18  C   UNL     1      -8.806  14.763  67.995  1.00  0.00    -0.169 C  
HETATM   19  C   UNL     1      -9.373  14.677  66.570  1.00  0.00    -0.288 C  
ENDBRANCH  11  12
ENDBRANCH  10  11
ENDBRANCH   6  10
TORSDOF 3
ENDMDL
MODEL       16
REMARK 921   NORMALIZED FREE ENERGY PREDICTED BY IDOCK:   -5.13 KCAL/MOL
REMARK 922        TOTAL FREE ENERGY PREDICTED BY IDOCK:   -6.22 KCAL/MOL
REMARK 923 INTER-LIGAND FREE ENERGY PREDICTED BY IDOCK:   -5.94 KCAL/MOL
REMARK 924 INTRA-LIGAND FREE ENERGY PREDICTED BY IDOCK:   -0.28 KCAL/MOL
REMARK 927      BINDING AFFINITY PREDICTED BY RF-SCORE:    0.00 PKD
ROOT
HETATM    1  N   UNL     1     -12.153  11.358  63.118  1.00  0.00    -0.857 NA 
HETATM    2  C   UNL     1     -11.938  12.541  63.729  1.00  0.00    -0.517 C  
HETATM    3  H2  UNL     1     -11.468  10.879  62.535  1.00  0.00     0.000 HD 
HETATM    4  H1  UNL     1     -13.089  11.004  63.315  1.00  0.00     0.000 HD 
HETATM    5  N   UNL     1     -10.698  13.010  63.469  1.00  0.00    -0.484 NA 
HETATM    6  N   UNL     1     -12.858  13.049  64.467  1.00  0.00    -0.719 NA 
HETATM    7  H1  UNL     1     -10.535  13.905  63.931  1.00  0.00     0.000 HD 
HETATM    8  H2  UNL     1     -10.013  12.531  62.886  1.00  0.00     0.000 HD 
HETATM    9  H   UNL     1     -13.764  12.596  64.588  1.00  0.00     0.000 HD 
ENDROOT
BRANCH   6  10
HETATM   10  C   UNL     1     -12.533  14.319  65.126  1.00  0.00    -0.416 C  
BRANCH  10  11
HETATM   11  C   UNL     1     -12.133  14.086  66.596  1.00  0.00    -0.456 C  
BRANCH  11  12
HETATM   12  N   UNL     1     -11.147  15.080  67.088  1.00  0.00    -0.327 NA 
HETATM   13  C   UNL     1     -10.308  14.542  68.166  1.00  0.00    -0.232 C  
HETATM   14  C   UNL     1      -9.615  15.593  69.044  1.00  0.00    -0.243 C  
HETATM   15  C   UNL     1     -10.487  16.808  69.373  1.00  0.00    -0.312 C  
HETATM   16  C   UNL     1     -10.182  18.046  68.525  1.00  0.00    -0.392 C  
HETATM   17  C   UNL     1     -10.514  17.961  67.032  1.00  0.00    -0.345 C  
HETATM   18  C   UNL     1      -9.662  16.956  66.248  1.00  0.00    -0.301 C  
HETATM   19  C   UNL     1     -10.362  15.618  65.969  1.00  0.00    -0.335 C  
ENDBRANCH  11  12
ENDBRANCH  10  11
ENDBRANCH   6  10
TORSDOF 3
ENDMDL
MODEL       17
REMARK 921   NORMALIZED FREE ENERGY PREDICTED BY IDOCK:   -5.09 KCAL/MOL
REMARK 922        TOTAL FREE ENERGY PREDICTED BY IDOCK:   -6.17 KCAL/MOL
REMARK 923 INTER-LIGAND FREE ENERGY PREDICTED BY IDOCK:   -5.99 KCAL/MOL
REMARK 924 INTRA-LIGAND FREE ENERGY PREDICTED BY IDOCK:   -0.18 KCAL/MOL
REMARK 927      BINDING AFFINITY PREDICTED BY RF-SCORE:    0.00 PKD
ROOT
HETATM    1  N   UNL     1     -13.559  15.498  70.948  1.00  0.00    -0.818 NA 
HETATM    2  C   UNL     1     -12.442  15.061  70.331  1.00  0.00    -0.356 C  
HETATM    3  H2  UNL     1     -13.642  15.639  71.954  1.00  0.00     0.000 HD 
HETATM    4  H1  UNL     1     -14.310  15.671  70.279  1.00  0.00     0.000 HD 
HETATM    5  N   UNL     1     -11.448  14.833  71.217  1.00  0.00    -0.527 NA 
HETATM    6  N   UNL     1     -12.431  14.944  69.052  1.00  0.00    -0.583 NA 
HETATM    7  H1  UNL     1     -10.603  14.502  70.750  1.00  0.00     0.000 HD 
HETATM    8  H2  UNL     1     -11.532  14.974  72.223  1.00  0.00     0.000 HD 
HETATM    9  H   UNL     1     -13.252  15.148  68.484  1.00  0.00     0.000 HD 
ENDROOT
BRANCH   6  10
HETATM   10  C   UNL     1     -11.167  14.498  68.454  1.00  0.00    -0.271 C  
BRANCH  10  11
HETATM   11  C   UNL     1     -11.204  14.651  66.920  1.00  0.00    -0.343 C  
BRANCH  11  12
HETATM   12  N   UNL     1     -11.304  13.350  66.214  1.00  0.00    -0.300 NA 
HETATM   13  C   UNL     1     -11.289  12.212  67.143  1.00  0.00    -0.331 C  
HETATM   14  C   UNL     1     -10.911  10.862  66.519  1.00  0.00    -0.234 C  
HETATM   15  C   UNL     1      -9.780  10.943  65.488  1.00  0.00    -0.282 C  
HETATM   16  C   UNL     1     -10.256  10.912  64.033  1.00  0.00    -0.422 C  
HETATM   17  C   UNL     1     -11.059  12.122  63.543  1.00  0.00    -0.525 C  
HETATM   18  C   UNL     1     -12.431  12.284  64.207  1.00  0.00    -0.508 C  
HETATM   19  C   UNL     1     -12.471  13.341  65.322  1.00  0.00    -0.489 C  
ENDBRANCH  11  12
ENDBRANCH  10  11
ENDBRANCH   6  10
TORSDOF 3
ENDMDL
MODEL       18
REMARK 921   NORMALIZED FREE ENERGY PREDICTED BY IDOCK:   -5.05 KCAL/MOL
REMARK 922        TOTAL FREE ENERGY PREDICTED BY IDOCK:   -6.12 KCAL/MOL
REMARK 923 INTER-LIGAND FREE ENERGY PREDICTED BY IDOCK:   -5.95 KCAL/MOL
REMARK 924 INTRA-LIGAND FREE ENERGY PREDICTED BY IDOCK:   -0.18 KCAL/MOL
REMARK 927      BINDING AFFINITY PREDICTED BY RF-SCORE:    0.00 PKD
ROOT
HETATM    1  N   UNL     1     -13.323  16.121  73.761  1.00  0.00    -0.916 NA 
HETATM    2  C   UNL     1     -13.314  15.503  72.562  1.00  0.00    -0.497 C  
HETATM    3  H2  UNL     1     -13.837  15.787  74.576  1.00  0.00     0.000 HD 
HETATM    4  H1  UNL     1     -12.749  16.964  73.749  1.00  0.00     0.000 HD 
HETATM    5  N   UNL     1     -14.074  14.387  72.579  1.00  0.00    -0.564 NA 
HETATM    6  N   UNL     1     -12.610  15.990  71.605  1.00  0.00    -0.545 NA 
HETATM    7  H1  UNL     1     -14.067  13.919  71.672  1.00  0.00     0.000 HD 
HETATM    8  H2  UNL     1     -14.588  14.053  73.393  1.00  0.00     0.000 HD 
HETATM    9  H   UNL     1     -12.072  16.849  71.715  1.00  0.00     0.000 HD 
ENDROOT
BRANCH   6  10
HETATM   10  C   UNL     1     -12.624  15.240  70.344  1.00  0.00    -0.375 C  
BRANCH  10  11
HETATM   11  C   UNL     1     -11.748  15.938  69.284  1.00  0.00    -0.353 C  
BRANCH  11  12
HETATM   12  N   UNL     1     -11.324  15.022  68.196  1.00  0.00    -0.317 NA 
HETATM   13  C   UNL     1     -10.796  15.747  67.034  1.00  0.00    -0.273 C  
HETATM   14  C   UNL     1     -10.784  14.957  65.718  1.00  0.00    -0.338 C  
HETATM   15  C   UNL     1     -12.025  14.086  65.498  1.00  0.00    -0.393 C  
HETATM   16  C   UNL     1     -11.811  12.602  65.807  1.00  0.00    -0.497 C  
HETATM   17  C   UNL     1     -11.564  12.230  67.273  1.00  0.00    -0.427 C  
HETATM   18  C   UNL     1     -10.242  12.754  67.847  1.00  0.00    -0.229 C  
HETATM   19  C   UNL     1     -10.387  14.015  68.713  1.00  0.00    -0.222 C  
ENDBRANCH  11  12
ENDBRANCH  10  11
ENDBRANCH   6  10
TORSDOF 3
ENDMDL
MODEL       19
REMARK 921   NORMALIZED FREE ENERGY PREDICTED BY IDOCK:   -5.02 KCAL/MOL
REMARK 922        TOTAL FREE ENERGY PREDICTED BY IDOCK:   -6.09 KCAL/MOL
REMARK 923 INTER-LIGAND FREE ENERGY PREDICTED BY IDOCK:   -5.76 KCAL/MOL
REMARK 924 INTRA-LIGAND FREE ENERGY PREDICTED BY IDOCK:   -0.32 KCAL/MOL
REMARK 927      BINDING AFFINITY PREDICTED BY RF-SCORE:    0.00 PKD
ROOT
HETATM    1  N   UNL     1     -12.333  11.630  63.119  1.00  0.00    -0.966 NA 
HETATM    2  C   UNL     1     -12.471  12.731  63.885  1.00  0.00    -0.367 C  
HETATM    3  H2  UNL     1     -12.152  11.646  62.116  1.00  0.00     0.000 HD 
HETATM    4  H1  UNL     1     -12.434  10.778  63.671  1.00  0.00     0.000 HD 
HETATM    5  N   UNL     1     -12.338  13.859  63.153  1.00  0.00    -1.106 NA 
HETATM    6  N   UNL     1     -12.671  12.603  65.147  1.00  0.00    -0.732 NA 
HETATM    7  H1  UNL     1     -12.441  14.692  63.733  1.00  0.00     0.000 HD 
HETATM    8  H2  UNL     1     -12.156  13.875  62.150  1.00  0.00     0.000 HD 
HETATM    9  H   UNL     1     -12.754  11.688  65.589  1.00  0.00     0.000 HD 
ENDROOT
BRANCH   6  10
HETATM   10  C   UNL     1     -12.773  13.848  65.917  1.00  0.00    -0.421 C  
BRANCH  10  11
HETATM   11  C   UNL     1     -12.195  13.664  67.334  1.00  0.00    -0.244 C  
BRANCH  11  12
HETATM   12  N   UNL     1     -11.153  12.609  67.397  1.00  0.00    -0.261 NA 
HETATM   13  C   UNL     1      -9.796  13.170  67.423  1.00  0.00    -0.226 C  
HETATM   14  C   UNL     1      -8.678  12.202  67.013  1.00  0.00    -0.190 C  
HETATM   15  C   UNL     1      -9.039  11.292  65.835  1.00  0.00    -0.217 C  
HETATM   16  C   UNL     1      -9.434   9.870  66.240  1.00  0.00    -0.245 C  
HETATM   17  C   UNL     1     -10.742   9.712  67.021  1.00  0.00    -0.225 C  
HETATM   18  C   UNL     1     -10.723  10.330  68.424  1.00  0.00    -0.263 C  
HETATM   19  C   UNL     1     -11.415  11.698  68.519  1.00  0.00    -0.298 C  
ENDBRANCH  11  12
ENDBRANCH  10  11
ENDBRANCH   6  10
TORSDOF 3
ENDMDL
MODEL       20
REMARK 921   NORMALIZED FREE ENERGY PREDICTED BY IDOCK:   -5.02 KCAL/MOL
REMARK 922        TOTAL FREE ENERGY PREDICTED BY IDOCK:   -6.09 KCAL/MOL
REMARK 923 INTER-LIGAND FREE ENERGY PREDICTED BY IDOCK:   -5.75 KCAL/MOL
REMARK 924 INTRA-LIGAND FREE ENERGY PREDICTED BY IDOCK:   -0.34 KCAL/MOL
REMARK 927      BINDING AFFINITY PREDICTED BY RF-SCORE:    0.00 PKD
ROOT
HETATM    1  N   UNL     1     -12.140  11.661  62.920  1.00  0.00    -0.796 NA 
HETATM    2  C   UNL     1     -12.380  12.730  63.706  1.00  0.00    -0.446 C  
HETATM    3  H2  UNL     1     -12.378  10.701  63.167  1.00  0.00     0.000 HD 
HETATM    4  H1  UNL     1     -11.691  11.935  62.046  1.00  0.00     0.000 HD 
HETATM    5  N   UNL     1     -12.975  12.367  64.863  1.00  0.00    -0.715 NA 
HETATM    6  N   UNL     1     -12.068  13.904  63.289  1.00  0.00    -1.003 NA 
HETATM    7  H1  UNL     1     -13.157  13.176  65.457  1.00  0.00     0.000 HD 
HETATM    8  H2  UNL     1     -13.213  11.407  65.110  1.00  0.00     0.000 HD 
HETATM    9  H   UNL     1     -11.617  14.054  62.387  1.00  0.00     0.000 HD 
ENDROOT
BRANCH   6  10
HETATM   10  C   UNL     1     -12.394  15.018  64.187  1.00  0.00    -0.142 C  
BRANCH  10  11
HETATM   11  C   UNL     1     -11.129  15.535  64.900  1.00  0.00    -0.416 C  
BRANCH  11  12
HETATM   12  N   UNL     1     -10.746  14.702  66.066  1.00  0.00    -0.302 NA 
HETATM   13  C   UNL     1      -9.289  14.613  66.230  1.00  0.00    -0.262 C  
HETATM   14  C   UNL     1      -8.795  13.431  67.075  1.00  0.00    -0.217 C  
HETATM   15  C   UNL     1      -9.556  12.124  66.829  1.00  0.00    -0.216 C  
HETATM   16  C   UNL     1     -10.605  11.799  67.896  1.00  0.00    -0.231 C  
HETATM   17  C   UNL     1     -11.822  12.726  67.974  1.00  0.00    -0.386 C  
HETATM   18  C   UNL     1     -11.503  14.157  68.425  1.00  0.00    -0.334 C  
HETATM   19  C   UNL     1     -11.427  15.176  67.278  1.00  0.00    -0.279 C  
ENDBRANCH  11  12
ENDBRANCH  10  11
ENDBRANCH   6  10
TORSDOF 3
ENDMDL
MODEL       21
REMARK 921   NORMALIZED FREE ENERGY PREDICTED BY IDOCK:   -5.01 KCAL/MOL
REMARK 922        TOTAL FREE ENERGY PREDICTED BY IDOCK:   -6.08 KCAL/MOL
REMARK 923 INTER-LIGAND FREE ENERGY PREDICTED BY IDOCK:   -5.90 KCAL/MOL
REMARK 924 INTRA-LIGAND FREE ENERGY PREDICTED BY IDOCK:   -0.18 KCAL/MOL
REMARK 927      BINDING AFFINITY PREDICTED BY RF-SCORE:    0.00 PKD
ROOT
HETATM    1  N   UNL     1     -10.397  19.662  66.695  1.00  0.00    -0.449 NA 
HETATM    2  C   UNL     1     -10.456  18.315  66.725  1.00  0.00    -0.365 C  
HETATM    3  H2  UNL     1     -10.409  20.257  67.523  1.00  0.00     0.000 HD 
HETATM    4  H1  UNL     1     -10.337  20.010  65.738  1.00  0.00     0.000 HD 
HETATM    5  N   UNL     1     -10.534  17.855  67.992  1.00  0.00    -0.384 NA 
HETATM    6  N   UNL     1     -10.405  17.655  65.624  1.00  0.00    -0.635 NA 
HETATM    7  H1  UNL     1     -10.579  16.835  68.015  1.00  0.00     0.000 HD 
HETATM    8  H2  UNL     1     -10.546  18.449  68.820  1.00  0.00     0.000 HD 
HETATM    9  H   UNL     1     -10.345  18.120  64.719  1.00  0.00     0.000 HD 
ENDROOT
BRANCH   6  10
HETATM   10  C   UNL     1     -10.438  16.193  65.744  1.00  0.00    -0.367 C  
BRANCH  10  11
HETATM   11  C   UNL     1     -11.383  15.580  64.692  1.00  0.00    -0.357 C  
BRANCH  11  12
HETATM   12  N   UNL     1     -11.508  14.106  64.821  1.00  0.00    -0.365 NA 
HETATM   13  C   UNL     1     -11.921  13.700  66.171  1.00  0.00    -0.416 C  
HETATM   14  C   UNL     1     -11.620  12.241  66.537  1.00  0.00    -0.440 C  
HETATM   15  C   UNL     1     -10.264  11.736  66.036  1.00  0.00    -0.265 C  
HETATM   16  C   UNL     1     -10.344  10.876  64.771  1.00  0.00    -0.391 C  
HETATM   17  C   UNL     1     -10.782  11.579  63.483  1.00  0.00    -0.483 C  
HETATM   18  C   UNL     1     -12.234  12.072  63.492  1.00  0.00    -0.653 C  
HETATM   19  C   UNL     1     -12.388  13.575  63.772  1.00  0.00    -0.327 C  
ENDBRANCH  11  12
ENDBRANCH  10  11
ENDBRANCH   6  10
TORSDOF 3
ENDMDL
MODEL       22
REMARK 921   NORMALIZED FREE ENERGY PREDICTED BY IDOCK:   -4.99 KCAL/MOL
REMARK 922        TOTAL FREE ENERGY PREDICTED BY IDOCK:   -6.05 KCAL/MOL
REMARK 923 INTER-LIGAND FREE ENERGY PREDICTED BY IDOCK:   -5.87 KCAL/MOL
REMARK 924 INTRA-LIGAND FREE ENERGY PREDICTED BY IDOCK:   -0.18 KCAL/MOL
REMARK 927      BINDING AFFINITY PREDICTED BY RF-SCORE:    0.00 PKD
ROOT
HETATM    1  N   UNL     1     -13.998  15.455  72.484  1.00  0.00    -0.543 NA 
HETATM    2  C   UNL     1     -12.990  15.531  71.592  1.00  0.00    -0.464 C  
HETATM    3  H2  UNL     1     -14.017  15.951  73.375  1.00  0.00     0.000 HD 
HETATM    4  H1  UNL     1     -14.740  14.837  72.154  1.00  0.00     0.000 HD 
HETATM    5  N   UNL     1     -12.008  16.349  72.029  1.00  0.00    -0.649 NA 
HETATM    6  N   UNL     1     -13.075  14.888  70.484  1.00  0.00    -0.609 NA 
HETATM    7  H1  UNL     1     -11.245  16.407  71.354  1.00  0.00     0.000 HD 
HETATM    8  H2  UNL     1     -12.026  16.845  72.919  1.00  0.00     0.000 HD 
HETATM    9  H   UNL     1     -13.876  14.296  70.264  1.00  0.00     0.000 HD 
ENDROOT
BRANCH   6  10
HETATM   10  C   UNL     1     -11.955  15.052  69.551  1.00  0.00    -0.313 C  
BRANCH  10  11
HETATM   11  C   UNL     1     -11.423  13.682  69.088  1.00  0.00    -0.297 C  
BRANCH  11  12
HETATM   12  N   UNL     1     -11.230  13.606  67.619  1.00  0.00    -0.269 NA 
HETATM   13  C   UNL     1      -9.995  14.273  67.186  1.00  0.00    -0.255 C  
HETATM   14  C   UNL     1      -9.945  14.663  65.703  1.00  0.00    -0.381 C  
HETATM   15  C   UNL     1     -11.267  15.208  65.154  1.00  0.00    -0.392 C  
HETATM   16  C   UNL     1     -12.076  14.192  64.342  1.00  0.00    -0.486 C  
HETATM   17  C   UNL     1     -12.655  12.999  65.108  1.00  0.00    -0.530 C  
HETATM   18  C   UNL     1     -11.605  12.031  65.666  1.00  0.00    -0.356 C  
HETATM   19  C   UNL     1     -11.314  12.212  67.164  1.00  0.00    -0.331 C  
ENDBRANCH  11  12
ENDBRANCH  10  11
ENDBRANCH   6  10
TORSDOF 3
ENDMDL
MODEL       23
REMARK 921   NORMALIZED FREE ENERGY PREDICTED BY IDOCK:   -4.94 KCAL/MOL
REMARK 922        TOTAL FREE ENERGY PREDICTED BY IDOCK:   -5.99 KCAL/MOL
REMARK 923 INTER-LIGAND FREE ENERGY PREDICTED BY IDOCK:   -5.60 KCAL/MOL
REMARK 924 INTRA-LIGAND FREE ENERGY PREDICTED BY IDOCK:   -0.39 KCAL/MOL
REMARK 927      BINDING AFFINITY PREDICTED BY RF-SCORE:    0.00 PKD
ROOT
HETATM    1  N   UNL     1     -14.221   8.871  73.222  1.00  0.00    -1.237 NA 
HETATM    2  C   UNL     1     -13.766   9.232  72.004  1.00  0.00    -0.428 C  
HETATM    3  H2  UNL     1     -14.951   8.177  73.381  1.00  0.00     0.000 HD 
HETATM    4  H1  UNL     1     -13.742   9.382  73.964  1.00  0.00     0.000 HD 
HETATM    5  N   UNL     1     -14.401   8.556  71.022  1.00  0.00    -0.631 NA 
HETATM    6  N   UNL     1     -12.823  10.098  71.913  1.00  0.00    -0.429 NA 
HETATM    7  H1  UNL     1     -14.057   8.828  70.101  1.00  0.00     0.000 HD 
HETATM    8  H2  UNL     1     -15.130   7.861  71.181  1.00  0.00     0.000 HD 
HETATM    9  H   UNL     1     -12.419  10.544  72.736  1.00  0.00     0.000 HD 
ENDROOT
BRANCH   6  10
HETATM   10  C   UNL     1     -12.358  10.409  70.556  1.00  0.00    -0.322 C  
BRANCH  10  11
HETATM   11  C   UNL     1     -10.877  10.020  70.383  1.00  0.00    -0.318 C  
BRANCH  11  12
HETATM   12  N   UNL     1     -10.541   8.731  71.037  1.00  0.00    -0.215 NA 
HETATM   13  C   UNL     1     -10.802   7.580  70.163  1.00  0.00    -0.249 C  
HETATM   14  C   UNL     1     -10.946   6.231  70.881  1.00  0.00    -0.344 C  
HETATM   15  C   UNL     1     -11.722   6.302  72.199  1.00  0.00    -0.368 C  
HETATM   16  C   UNL     1     -10.837   6.303  73.448  1.00  0.00    -0.238 C  
HETATM   17  C   UNL     1      -9.955   7.536  73.670  1.00  0.00    -0.347 C  
HETATM   18  C   UNL     1      -8.845   7.718  72.628  1.00  0.00    -0.213 C  
HETATM   19  C   UNL     1      -9.163   8.760  71.545  1.00  0.00    -0.262 C  
ENDBRANCH  11  12
ENDBRANCH  10  11
ENDBRANCH   6  10
TORSDOF 3
ENDMDL
MODEL       24
REMARK 921   NORMALIZED FREE ENERGY PREDICTED BY IDOCK:   -4.93 KCAL/MOL
REMARK 922        TOTAL FREE ENERGY PREDICTED BY IDOCK:   -5.99 KCAL/MOL
REMARK 923 INTER-LIGAND FREE ENERGY PREDICTED BY IDOCK:   -5.78 KCAL/MOL
REMARK 924 INTRA-LIGAND FREE ENERGY PREDICTED BY IDOCK:   -0.21 KCAL/MOL
REMARK 927      BINDING AFFINITY PREDICTED BY RF-SCORE:    0.00 PKD
ROOT
HETATM    1  N   UNL     1     -12.381  13.721  63.325  1.00  0.00    -1.124 NA 
HETATM    2  C   UNL     1     -11.635  13.456  64.417  1.00  0.00    -0.384 C  
HETATM    3  H2  UNL     1     -11.999  14.002  62.422  1.00  0.00     0.000 HD 
HETATM    4  H1  UNL     1     -13.376  13.603  63.516  1.00  0.00     0.000 HD 
HETATM    5  N   UNL     1     -10.318  13.611  64.163  1.00  0.00    -0.699 NA 
HETATM    6  N   UNL     1     -12.213  13.081  65.501  1.00  0.00    -0.447 NA 
HETATM    7  H1  UNL     1      -9.754  13.411  64.989  1.00  0.00     0.000 HD 
HETATM    8  H2  UNL     1      -9.936  13.892  63.260  1.00  0.00     0.000 HD 
HETATM    9  H   UNL     1     -13.227  12.999  65.572  1.00  0.00     0.000 HD 
ENDROOT
BRANCH   6  10
HETATM   10  C   UNL     1     -11.330  12.776  66.633  1.00  0.00    -0.316 C  
BRANCH  10  11
HETATM   11  C   UNL     1     -11.355  11.269  66.956  1.00  0.00    -0.187 C  
BRANCH  11  12
HETATM   12  N   UNL     1     -11.298  10.993  68.413  1.00  0.00    -0.270 NA 
HETATM   13  C   UNL     1      -9.981  10.499  68.833  1.00  0.00    -0.204 C  
HETATM   14  C   UNL     1      -9.958   9.750  70.173  1.00  0.00    -0.315 C  
HETATM   15  C   UNL     1     -11.157   8.824  70.393  1.00  0.00    -0.261 C  
HETATM   16  C   UNL     1     -12.237   9.405  71.310  1.00  0.00    -0.425 C  
HETATM   17  C   UNL     1     -13.014  10.615  70.783  1.00  0.00    -0.396 C  
HETATM   18  C   UNL     1     -12.174  11.887  70.619  1.00  0.00    -0.424 C  
HETATM   19  C   UNL     1     -11.735  12.171  69.174  1.00  0.00    -0.328 C  
ENDBRANCH  11  12
ENDBRANCH  10  11
ENDBRANCH   6  10
TORSDOF 3
ENDMDL
MODEL       25
REMARK 921   NORMALIZED FREE ENERGY PREDICTED BY IDOCK:   -4.93 KCAL/MOL
REMARK 922        TOTAL FREE ENERGY PREDICTED BY IDOCK:   -5.98 KCAL/MOL
REMARK 923 INTER-LIGAND FREE ENERGY PREDICTED BY IDOCK:   -5.77 KCAL/MOL
REMARK 924 INTRA-LIGAND FREE ENERGY PREDICTED BY IDOCK:   -0.20 KCAL/MOL
REMARK 927      BINDING AFFINITY PREDICTED BY RF-SCORE:    0.00 PKD
ROOT
HETATM    1  N   UNL     1     -14.205   8.862  73.185  1.00  0.00    -1.200 NA 
HETATM    2  C   UNL     1     -13.699   9.252  71.997  1.00  0.00    -0.428 C  
HETATM    3  H2  UNL     1     -14.913   8.138  73.299  1.00  0.00     0.000 HD 
HETATM    4  H1  UNL     1     -13.787   9.384  73.956  1.00  0.00     0.000 HD 
HETATM    5  N   UNL     1     -14.252   8.560  70.977  1.00  0.00    -0.622 NA 
HETATM    6  N   UNL     1     -12.787  10.155  71.963  1.00  0.00    -0.405 NA 
HETATM    7  H1  UNL     1     -13.870   8.854  70.078  1.00  0.00     0.000 HD 
HETATM    8  H2  UNL     1     -14.961   7.836  71.091  1.00  0.00     0.000 HD 
HETATM    9  H   UNL     1     -12.446  10.609  72.810  1.00  0.00     0.000 HD 
ENDROOT
BRANCH   6  10
HETATM   10  C   UNL     1     -12.263  10.496  70.636  1.00  0.00    -0.352 C  
BRANCH  10  11
HETATM   11  C   UNL     1     -12.310  12.020  70.405  1.00  0.00    -0.233 C  
BRANCH  11  12
HETATM   12  N   UNL     1     -11.707  12.424  69.110  1.00  0.00    -0.309 NA 
HETATM   13  C   UNL     1     -11.443  13.867  69.048  1.00  0.00    -0.299 C  
HETATM   14  C   UNL     1     -11.280  14.443  67.634  1.00  0.00    -0.328 C  
HETATM   15  C   UNL     1     -12.255  13.862  66.605  1.00  0.00    -0.465 C  
HETATM   16  C   UNL     1     -11.643  12.793  65.696  1.00  0.00    -0.410 C  
HETATM   17  C   UNL     1     -11.240  11.471  66.357  1.00  0.00    -0.307 C  
HETATM   18  C   UNL     1     -10.080  11.586  67.354  1.00  0.00    -0.213 C  
HETATM   19  C   UNL     1     -10.515  11.613  68.827  1.00  0.00    -0.204 C  
ENDBRANCH  11  12
ENDBRANCH  10  11
ENDBRANCH   6  10
TORSDOF 3
ENDMDL
MODEL       26
REMARK 921   NORMALIZED FREE ENERGY PREDICTED BY IDOCK:   -4.92 KCAL/MOL
REMARK 922        TOTAL FREE ENERGY PREDICTED BY IDOCK:   -5.97 KCAL/MOL
REMARK 923 INTER-LIGAND FREE ENERGY PREDICTED BY IDOCK:   -5.75 KCAL/MOL
REMARK 924 INTRA-LIGAND FREE ENERGY PREDICTED BY IDOCK:   -0.22 KCAL/MOL
REMARK 927      BINDING AFFINITY PREDICTED BY RF-SCORE:    0.00 PKD
ROOT
HETATM    1  N   UNL     1     -13.068  12.817  64.679  1.00  0.00    -0.810 NA 
HETATM    2  C   UNL     1     -12.263  12.959  65.752  1.00  0.00    -0.439 C  
HETATM    3  H2  UNL     1     -13.194  11.945  64.166  1.00  0.00     0.000 HD 
HETATM    4  H1  UNL     1     -13.535  13.694  64.446  1.00  0.00     0.000 HD 
HETATM    5  N   UNL     1     -11.645  11.798  66.060  1.00  0.00    -0.404 NA 
HETATM    6  N   UNL     1     -12.195  14.095  66.346  1.00  0.00    -0.459 NA 
HETATM    7  H1  UNL     1     -11.036  11.905  66.871  1.00  0.00     0.000 HD 
HETATM    8  H2  UNL     1     -11.771  10.926  65.547  1.00  0.00     0.000 HD 
HETATM    9  H   UNL     1     -12.715  14.908  66.017  1.00  0.00     0.000 HD 
ENDROOT
BRANCH   6  10
HETATM   10  C   UNL     1     -11.326  14.158  67.527  1.00  0.00    -0.322 C  
BRANCH  10  11
HETATM   11  C   UNL     1     -11.731  15.330  68.442  1.00  0.00    -0.321 C  
BRANCH  11  12
HETATM   12  N   UNL     1     -11.984  14.906  69.842  1.00  0.00    -0.311 NA 
HETATM   13  C   UNL     1     -12.083  13.446  69.970  1.00  0.00    -0.334 C  
HETATM   14  C   UNL     1     -12.797  12.946  71.232  1.00  0.00    -0.361 C  
HETATM   15  C   UNL     1     -14.028  13.770  71.624  1.00  0.00    -0.257 C  
HETATM   16  C   UNL     1     -13.781  14.761  72.765  1.00  0.00    -0.486 C  
HETATM   17  C   UNL     1     -12.841  15.934  72.471  1.00  0.00    -0.524 C  
HETATM   18  C   UNL     1     -11.382  15.532  72.224  1.00  0.00    -0.397 C  
HETATM   19  C   UNL     1     -10.981  15.491  70.742  1.00  0.00    -0.325 C  
ENDBRANCH  11  12
ENDBRANCH  10  11
ENDBRANCH   6  10
TORSDOF 3
ENDMDL
MODEL       27
REMARK 921   NORMALIZED FREE ENERGY PREDICTED BY IDOCK:   -4.90 KCAL/MOL
REMARK 922        TOTAL FREE ENERGY PREDICTED BY IDOCK:   -5.94 KCAL/MOL
REMARK 923 INTER-LIGAND FREE ENERGY PREDICTED BY IDOCK:   -5.75 KCAL/MOL
REMARK 924 INTRA-LIGAND FREE ENERGY PREDICTED BY IDOCK:   -0.19 KCAL/MOL
REMARK 927      BINDING AFFINITY PREDICTED BY RF-SCORE:    0.00 PKD
ROOT
HETATM    1  N   UNL     1      -9.828  20.286  65.960  1.00  0.00    -0.638 NA 
HETATM    2  C   UNL     1     -10.170  19.083  66.465  1.00  0.00    -0.421 C  
HETATM    3  H2  UNL     1      -9.872  21.162  66.480  1.00  0.00     0.000 HD 
HETATM    4  H1  UNL     1      -9.519  20.207  64.991  1.00  0.00     0.000 HD 
HETATM    5  N   UNL     1     -10.579  19.187  67.748  1.00  0.00    -0.420 NA 
HETATM    6  N   UNL     1     -10.051  18.033  65.735  1.00  0.00    -0.574 NA 
HETATM    7  H1  UNL     1     -10.838  18.278  68.131  1.00  0.00     0.000 HD 
HETATM    8  H2  UNL     1     -10.624  20.063  68.268  1.00  0.00     0.000 HD 
HETATM    9  H   UNL     1      -9.727  18.081  64.770  1.00  0.00     0.000 HD 
ENDROOT
BRANCH   6  10
HETATM   10  C   UNL     1     -10.409  16.759  66.370  1.00  0.00    -0.306 C  
BRANCH  10  11
HETATM   11  C   UNL     1      -9.466  15.632  65.903  1.00  0.00    -0.341 C  
BRANCH  11  12
HETATM   12  N   UNL     1     -10.180  14.357  65.643  1.00  0.00    -0.332 NA 
HETATM   13  C   UNL     1      -9.639  13.247  66.437  1.00  0.00    -0.254 C  
HETATM   14  C   UNL     1      -9.965  11.843  65.910  1.00  0.00    -0.261 C  
HETATM   15  C   UNL     1      -9.896  11.715  64.385  1.00  0.00    -0.253 C  
HETATM   16  C   UNL     1     -11.260  11.746  63.691  1.00  0.00    -0.519 C  
HETATM   17  C   UNL     1     -12.033  13.067  63.745  1.00  0.00    -0.585 C  
HETATM   18  C   UNL     1     -12.504  13.471  65.147  1.00  0.00    -0.495 C  
HETATM   19  C   UNL     1     -11.627  14.535  65.824  1.00  0.00    -0.347 C  
ENDBRANCH  11  12
ENDBRANCH  10  11
ENDBRANCH   6  10
TORSDOF 3
ENDMDL
MODEL       28
REMARK 921   NORMALIZED FREE ENERGY PREDICTED BY IDOCK:   -4.88 KCAL/MOL
REMARK 922        TOTAL FREE ENERGY PREDICTED BY IDOCK:   -5.92 KCAL/MOL
REMARK 923 INTER-LIGAND FREE ENERGY PREDICTED BY IDOCK:   -5.73 KCAL/MOL
REMARK 924 INTRA-LIGAND FREE ENERGY PREDICTED BY IDOCK:   -0.19 KCAL/MOL
REMARK 927      BINDING AFFINITY PREDICTED BY RF-SCORE:    0.00 PKD
ROOT
HETATM    1  N   UNL     1     -11.373   4.414  65.067  1.00  0.00    -1.102 NA 
HETATM    2  C   UNL     1     -10.755   4.936  66.146  1.00  0.00    -0.184 C  
HETATM    3  H2  UNL     1     -11.188   3.483  64.693  1.00  0.00     0.000 HD 
HETATM    4  H1  UNL     1     -12.049   5.068  64.673  1.00  0.00     0.000 HD 
HETATM    5  N   UNL     1      -9.860   4.069  66.667  1.00  0.00    -0.333 NA 
HETATM    6  N   UNL     1     -11.080   6.109  66.555  1.00  0.00    -0.749 NA 
HETATM    7  H1  UNL     1      -9.393   4.464  67.484  1.00  0.00     0.000 HD 
HETATM    8  H2  UNL     1      -9.675   3.139  66.293  1.00  0.00     0.000 HD 
HETATM    9  H   UNL     1     -11.778   6.674  66.073  1.00  0.00     0.000 HD 
ENDROOT
BRANCH   6  10
HETATM   10  C   UNL     1     -10.389   6.590  67.757  1.00  0.00    -0.192 C  
BRANCH  10  11
HETATM   11  C   UNL     1     -11.231   6.316  69.018  1.00  0.00    -0.343 C  
BRANCH  11  12
HETATM   12  N   UNL     1     -11.236   7.459  69.965  1.00  0.00    -0.223 NA 
HETATM   13  C   UNL     1     -11.274   7.019  71.366  1.00  0.00    -0.252 C  
HETATM   14  C   UNL     1     -11.755   8.073  72.372  1.00  0.00    -0.444 C  
HETATM   15  C   UNL     1     -12.925   8.927  71.872  1.00  0.00    -0.436 C  
HETATM   16  C   UNL     1     -12.518  10.317  71.375  1.00  0.00    -0.528 C  
HETATM   17  C   UNL     1     -11.671  10.374  70.099  1.00  0.00    -0.394 C  
HETATM   18  C   UNL     1     -10.263   9.784  70.245  1.00  0.00    -0.346 C  
HETATM   19  C   UNL     1     -10.114   8.363  69.682  1.00  0.00    -0.199 C  
ENDBRANCH  11  12
ENDBRANCH  10  11
ENDBRANCH   6  10
TORSDOF 3
ENDMDL
MODEL       29
REMARK 921   NORMALIZED FREE ENERGY PREDICTED BY IDOCK:   -4.87 KCAL/MOL
REMARK 922        TOTAL FREE ENERGY PREDICTED BY IDOCK:   -5.91 KCAL/MOL
REMARK 923 INTER-LIGAND FREE ENERGY PREDICTED BY IDOCK:   -5.53 KCAL/MOL
REMARK 924 INTRA-LIGAND FREE ENERGY PREDICTED BY IDOCK:   -0.38 KCAL/MOL
REMARK 927      BINDING AFFINITY PREDICTED BY RF-SCORE:    0.00 PKD
ROOT
HETATM    1  N   UNL     1     -13.726  15.371  70.754  1.00  0.00    -0.845 NA 
HETATM    2  C   UNL     1     -12.481  15.476  70.246  1.00  0.00    -0.367 C  
HETATM    3  H2  UNL     1     -14.032  15.811  71.621  1.00  0.00     0.000 HD 
HETATM    4  H1  UNL     1     -14.322  14.795  70.160  1.00  0.00     0.000 HD 
HETATM    5  N   UNL     1     -11.692  16.239  71.033  1.00  0.00    -0.599 NA 
HETATM    6  N   UNL     1     -12.202  14.905  69.130  1.00  0.00    -0.559 NA 
HETATM    7  H1  UNL     1     -10.750  16.319  70.649  1.00  0.00     0.000 HD 
HETATM    8  H2  UNL     1     -11.998  16.679  71.900  1.00  0.00     0.000 HD 
HETATM    9  H   UNL     1     -12.890  14.350  68.622  1.00  0.00     0.000 HD 
ENDROOT
BRANCH   6  10
HETATM   10  C   UNL     1     -10.838  15.098  68.626  1.00  0.00    -0.245 C  
BRANCH  10  11
HETATM   11  C   UNL     1     -10.836  16.020  67.391  1.00  0.00    -0.277 C  
BRANCH  11  12
HETATM   12  N   UNL     1     -10.029  17.250  67.593  1.00  0.00    -0.286 NA 
HETATM   13  C   UNL     1     -10.868  18.433  67.820  1.00  0.00    -0.234 C  
HETATM   14  C   UNL     1     -10.182  19.782  67.565  1.00  0.00    -0.572 C  
HETATM   15  C   UNL     1      -9.265  19.796  66.338  1.00  0.00    -0.468 C  
HETATM   16  C   UNL     1      -7.775  19.671  66.668  1.00  0.00    -0.295 C  
HETATM   17  C   UNL     1      -7.307  18.334  67.251  1.00  0.00    -0.218 C  
HETATM   18  C   UNL     1      -7.856  18.023  68.649  1.00  0.00    -0.298 C  
HETATM   19  C   UNL     1      -9.038  17.041  68.657  1.00  0.00    -0.271 C  
ENDBRANCH  11  12
ENDBRANCH  10  11
ENDBRANCH   6  10
TORSDOF 3
ENDMDL
MODEL       30
REMARK 921   NORMALIZED FREE ENERGY PREDICTED BY IDOCK:   -4.86 KCAL/MOL
REMARK 922        TOTAL FREE ENERGY PREDICTED BY IDOCK:   -5.90 KCAL/MOL
REMARK 923 INTER-LIGAND FREE ENERGY PREDICTED BY IDOCK:   -5.71 KCAL/MOL
REMARK 924 INTRA-LIGAND FREE ENERGY PREDICTED BY IDOCK:   -0.19 KCAL/MOL
REMARK 927      BINDING AFFINITY PREDICTED BY RF-SCORE:    0.00 PKD
ROOT
HETATM    1  N   UNL     1     -14.274   7.191  71.886  1.00  0.00    -0.590 NA 
HETATM    2  C   UNL     1     -13.873   8.473  72.008  1.00  0.00    -0.419 C  
HETATM    3  H2  UNL     1     -14.772   6.673  72.610  1.00  0.00     0.000 HD 
HETATM    4  H1  UNL     1     -14.016   6.806  70.978  1.00  0.00     0.000 HD 
HETATM    5  N   UNL     1     -14.215   8.983  73.211  1.00  0.00    -1.188 NA 
HETATM    6  N   UNL     1     -13.276   9.045  71.025  1.00  0.00    -0.542 NA 
HETATM    7  H1  UNL     1     -13.912   9.953  73.303  1.00  0.00     0.000 HD 
HETATM    8  H2  UNL     1     -14.713   8.466  73.934  1.00  0.00     0.000 HD 
HETATM    9  H   UNL     1     -13.072   8.551  70.157  1.00  0.00     0.000 HD 
ENDROOT
BRANCH   6  10
HETATM   10  C   UNL     1     -12.905  10.451  71.222  1.00  0.00    -0.433 C  
BRANCH  10  11
HETATM   11  C   UNL     1     -11.542  10.753  70.569  1.00  0.00    -0.330 C  
BRANCH  11  12
HETATM   12  N   UNL     1     -11.572  11.964  69.711  1.00  0.00    -0.300 NA 
HETATM   13  C   UNL     1     -11.973  11.658  68.332  1.00  0.00    -0.196 C  
HETATM   14  C   UNL     1     -11.581  12.711  67.286  1.00  0.00    -0.428 C  
HETATM   15  C   UNL     1     -10.188  13.314  67.495  1.00  0.00    -0.222 C  
HETATM   16  C   UNL     1     -10.197  14.698  68.151  1.00  0.00    -0.231 C  
HETATM   17  C   UNL     1     -10.666  14.770  69.607  1.00  0.00    -0.207 C  
HETATM   18  C   UNL     1     -12.147  14.432  69.815  1.00  0.00    -0.386 C  
HETATM   19  C   UNL     1     -12.402  13.007  70.328  1.00  0.00    -0.241 C  
ENDBRANCH  11  12
ENDBRANCH  10  11
ENDBRANCH   6  10
TORSDOF 3
ENDMDL
MODEL       31
REMARK 921   NORMALIZED FREE ENERGY PREDICTED BY IDOCK:   -4.86 KCAL/MOL
REMARK 922        TOTAL FREE ENERGY PREDICTED BY IDOCK:   -5.90 KCAL/MOL
REMARK 923 INTER-LIGAND FREE ENERGY PREDICTED BY IDOCK:   -5.70 KCAL/MOL
REMARK 924 INTRA-LIGAND FREE ENERGY PREDICTED BY IDOCK:   -0.20 KCAL/MOL
REMARK 927      BINDING AFFINITY PREDICTED BY RF-SCORE:    0.00 PKD
ROOT
HETATM    1  N   UNL     1     -12.475  13.786  63.085  1.00  0.00    -1.074 NA 
HETATM    2  C   UNL     1     -12.080  14.258  64.285  1.00  0.00    -0.441 C  
HETATM    3  H2  UNL     1     -13.305  13.213  62.937  1.00  0.00     0.000 HD 
HETATM    4  H1  UNL     1     -11.837  14.076  62.343  1.00  0.00     0.000 HD 
HETATM    5  N   UNL     1     -12.924  13.874  65.266  1.00  0.00    -0.774 NA 
HETATM    6  N   UNL     1     -11.032  14.997  64.361  1.00  0.00    -0.635 NA 
HETATM    7  H1  UNL     1     -12.626  14.231  66.174  1.00  0.00     0.000 HD 
HETATM    8  H2  UNL     1     -13.754  13.300  65.119  1.00  0.00     0.000 HD 
HETATM    9  H   UNL     1     -10.470  15.221  63.540  1.00  0.00     0.000 HD 
ENDROOT
BRANCH   6  10
HETATM   10  C   UNL     1     -10.690  15.501  65.696  1.00  0.00    -0.366 C  
BRANCH  10  11
HETATM   11  C   UNL     1     -10.710  17.042  65.720  1.00  0.00    -0.142 C  
BRANCH  11  12
HETATM   12  N   UNL     1      -9.446  17.625  66.234  1.00  0.00    -0.424 NA 
HETATM   13  C   UNL     1      -9.517  19.087  66.353  1.00  0.00    -0.347 C  
HETATM   14  C   UNL     1      -8.163  19.807  66.408  1.00  0.00    -0.371 C  
HETATM   15  C   UNL     1      -7.108  19.231  65.458  1.00  0.00    -0.216 C  
HETATM   16  C   UNL     1      -6.083  18.319  66.140  1.00  0.00    -0.235 C  
HETATM   17  C   UNL     1      -6.602  16.989  66.693  1.00  0.00    -0.272 C  
HETATM   18  C   UNL     1      -7.574  17.126  67.871  1.00  0.00    -0.180 C  
HETATM   19  C   UNL     1      -9.053  16.970  67.488  1.00  0.00    -0.223 C  
ENDBRANCH  11  12
ENDBRANCH  10  11
ENDBRANCH   6  10
TORSDOF 3
ENDMDL
MODEL       32
REMARK 921   NORMALIZED FREE ENERGY PREDICTED BY IDOCK:   -4.85 KCAL/MOL
REMARK 922        TOTAL FREE ENERGY PREDICTED BY IDOCK:   -5.89 KCAL/MOL
REMARK 923 INTER-LIGAND FREE ENERGY PREDICTED BY IDOCK:   -5.64 KCAL/MOL
REMARK 924 INTRA-LIGAND FREE ENERGY PREDICTED BY IDOCK:   -0.25 KCAL/MOL
REMARK 927      BINDING AFFINITY PREDICTED BY RF-SCORE:    0.00 PKD
ROOT
HETATM    1  N   UNL     1     -12.897  16.034  74.219  1.00  0.00    -0.936 NA 
HETATM    2  C   UNL     1     -12.994  15.636  72.934  1.00  0.00    -0.497 C  
HETATM    3  H2  UNL     1     -13.357  15.569  75.002  1.00  0.00     0.000 HD 
HETATM    4  H1  UNL     1     -12.304  16.860  74.309  1.00  0.00     0.000 HD 
HETATM    5  N   UNL     1     -13.779  14.543  72.816  1.00  0.00    -0.571 NA 
HETATM    6  N   UNL     1     -12.351  16.274  72.024  1.00  0.00    -0.570 NA 
HETATM    7  H1  UNL     1     -13.852  14.242  71.844  1.00  0.00     0.000 HD 
HETATM    8  H2  UNL     1     -14.239  14.078  73.598  1.00  0.00     0.000 HD 
HETATM    9  H   UNL     1     -11.784  17.094  72.239  1.00  0.00     0.000 HD 
ENDROOT
BRANCH   6  10
HETATM   10  C   UNL     1     -12.479  15.757  70.657  1.00  0.00    -0.354 C  
BRANCH  10  11
HETATM   11  C   UNL     1     -11.167  15.088  70.201  1.00  0.00    -0.260 C  
BRANCH  11  12
HETATM   12  N   UNL     1     -11.395  13.831  69.446  1.00  0.00    -0.261 NA 
HETATM   13  C   UNL     1     -12.149  12.843  70.228  1.00  0.00    -0.302 C  
HETATM   14  C   UNL     1     -12.023  11.391  69.747  1.00  0.00    -0.422 C  
HETATM   15  C   UNL     1     -10.613  11.001  69.296  1.00  0.00    -0.236 C  
HETATM   16  C   UNL     1     -10.420  10.991  67.777  1.00  0.00    -0.232 C  
HETATM   17  C   UNL     1     -10.490  12.345  67.064  1.00  0.00    -0.238 C  
HETATM   18  C   UNL     1     -11.871  13.009  67.094  1.00  0.00    -0.431 C  
HETATM   19  C   UNL     1     -12.013  14.120  68.145  1.00  0.00    -0.332 C  
ENDBRANCH  11  12
ENDBRANCH  10  11
ENDBRANCH   6  10
TORSDOF 3
ENDMDL
MODEL       33
REMARK 921   NORMALIZED FREE ENERGY PREDICTED BY IDOCK:   -4.85 KCAL/MOL
REMARK 922        TOTAL FREE ENERGY PREDICTED BY IDOCK:   -5.88 KCAL/MOL
REMARK 923 INTER-LIGAND FREE ENERGY PREDICTED BY IDOCK:   -5.60 KCAL/MOL
REMARK 924 INTRA-LIGAND FREE ENERGY PREDICTED BY IDOCK:   -0.28 KCAL/MOL
REMARK 927      BINDING AFFINITY PREDICTED BY RF-SCORE:    0.00 PKD
ROOT
HETATM    1  N   UNL     1     -12.199  11.501  63.031  1.00  0.00    -0.941 NA 
HETATM    2  C   UNL     1     -12.343  12.534  63.887  1.00  0.00    -0.485 C  
HETATM    3  H2  UNL     1     -12.193  10.520  63.309  1.00  0.00     0.000 HD 
HETATM    4  H1  UNL     1     -12.097  11.827  62.070  1.00  0.00     0.000 HD 
HETATM    5  N   UNL     1     -12.479  12.102  65.160  1.00  0.00    -0.455 NA 
HETATM    6  N   UNL     1     -12.366  13.734  63.431  1.00  0.00    -1.100 NA 
HETATM    7  H1  UNL     1     -12.589  12.883  65.807  1.00  0.00     0.000 HD 
HETATM    8  H2  UNL     1     -12.473  11.121  65.438  1.00  0.00     0.000 HD 
HETATM    9  H   UNL     1     -12.253  13.936  62.439  1.00  0.00     0.000 HD 
ENDROOT
BRANCH   6  10
HETATM   10  C   UNL     1     -12.564  14.799  64.421  1.00  0.00    -0.081 C  
BRANCH  10  11
HETATM   11  C   UNL     1     -11.453  15.861  64.311  1.00  0.00    -0.191 C  
BRANCH  11  12
HETATM   12  N   UNL     1     -10.585  15.913  65.514  1.00  0.00    -0.385 NA 
HETATM   13  C   UNL     1     -10.343  17.289  65.965  1.00  0.00    -0.305 C  
HETATM   14  C   UNL     1      -9.117  17.477  66.868  1.00  0.00    -0.265 C  
HETATM   15  C   UNL     1      -7.897  16.652  66.448  1.00  0.00    -0.347 C  
HETATM   16  C   UNL     1      -7.685  15.381  67.276  1.00  0.00    -0.245 C  
HETATM   17  C   UNL     1      -8.735  14.276  67.126  1.00  0.00    -0.243 C  
HETATM   18  C   UNL     1     -10.125  14.643  67.661  1.00  0.00    -0.228 C  
HETATM   19  C   UNL     1     -11.129  15.053  66.574  1.00  0.00    -0.329 C  
ENDBRANCH  11  12
ENDBRANCH  10  11
ENDBRANCH   6  10
TORSDOF 3
ENDMDL
MODEL       34
REMARK 921   NORMALIZED FREE ENERGY PREDICTED BY IDOCK:   -4.79 KCAL/MOL
REMARK 922        TOTAL FREE ENERGY PREDICTED BY IDOCK:   -5.81 KCAL/MOL
REMARK 923 INTER-LIGAND FREE ENERGY PREDICTED BY IDOCK:   -5.64 KCAL/MOL
REMARK 924 INTRA-LIGAND FREE ENERGY PREDICTED BY IDOCK:   -0.17 KCAL/MOL
REMARK 927      BINDING AFFINITY PREDICTED BY RF-SCORE:    0.00 PKD
ROOT
HETATM    1  N   UNL     1      -9.681  20.463  66.095  1.00  0.00    -0.659 NA 
HETATM    2  C   UNL     1     -10.149  19.270  66.517  1.00  0.00    -0.415 C  
HETATM    3  H2  UNL     1      -9.676  21.311  66.660  1.00  0.00     0.000 HD 
HETATM    4  H1  UNL     1      -9.333  20.407  65.138  1.00  0.00     0.000 HD 
HETATM    5  N   UNL     1     -10.610  19.344  67.785  1.00  0.00    -0.437 NA 
HETATM    6  N   UNL     1     -10.085  18.253  65.736  1.00  0.00    -0.556 NA 
HETATM    7  H1  UNL     1     -10.964  18.442  68.105  1.00  0.00     0.000 HD 
HETATM    8  H2  UNL     1     -10.605  20.192  68.350  1.00  0.00     0.000 HD 
HETATM    9  H   UNL     1      -9.711  18.322  64.790  1.00  0.00     0.000 HD 
ENDROOT
BRANCH   6  10
HETATM   10  C   UNL     1     -10.580  16.984  66.283  1.00  0.00    -0.185 C  
BRANCH  10  11
HETATM   11  C   UNL     1     -10.694  15.919  65.175  1.00  0.00    -0.429 C  
BRANCH  11  12
HETATM   12  N   UNL     1     -11.188  14.614  65.680  1.00  0.00    -0.335 NA 
HETATM   13  C   UNL     1     -11.692  14.707  67.056  1.00  0.00    -0.362 C  
HETATM   14  C   UNL     1     -11.771  13.376  67.816  1.00  0.00    -0.394 C  
HETATM   15  C   UNL     1     -10.587  12.439  67.564  1.00  0.00    -0.240 C  
HETATM   16  C   UNL     1     -10.880  11.311  66.570  1.00  0.00    -0.319 C  
HETATM   17  C   UNL     1     -11.125  11.719  65.114  1.00  0.00    -0.341 C  
HETATM   18  C   UNL     1     -12.405  12.534  64.889  1.00  0.00    -0.539 C  
HETATM   19  C   UNL     1     -12.173  14.046  64.750  1.00  0.00    -0.433 C  
ENDBRANCH  11  12
ENDBRANCH  10  11
ENDBRANCH   6  10
TORSDOF 3
ENDMDL
MODEL       35
REMARK 921   NORMALIZED FREE ENERGY PREDICTED BY IDOCK:   -4.78 KCAL/MOL
REMARK 922        TOTAL FREE ENERGY PREDICTED BY IDOCK:   -5.80 KCAL/MOL
REMARK 923 INTER-LIGAND FREE ENERGY PREDICTED BY IDOCK:   -5.52 KCAL/MOL
REMARK 924 INTRA-LIGAND FREE ENERGY PREDICTED BY IDOCK:   -0.28 KCAL/MOL
REMARK 927      BINDING AFFINITY PREDICTED BY RF-SCORE:    0.00 PKD
ROOT
HETATM    1  N   UNL     1     -12.972  10.280  70.473  1.00  0.00    -0.549 NA 
HETATM    2  C   UNL     1     -12.209  11.008  69.633  1.00  0.00    -0.300 C  
HETATM    3  H2  UNL     1     -13.353   9.361  70.253  1.00  0.00     0.000 HD 
HETATM    4  H1  UNL     1     -13.120  10.768  71.357  1.00  0.00     0.000 HD 
HETATM    5  N   UNL     1     -12.013  10.363  68.462  1.00  0.00    -0.759 NA 
HETATM    6  N   UNL     1     -11.754  12.146  70.017  1.00  0.00    -0.490 NA 
HETATM    7  H1  UNL     1     -11.436  10.913  67.826  1.00  0.00     0.000 HD 
HETATM    8  H2  UNL     1     -12.394   9.443  68.242  1.00  0.00     0.000 HD 
HETATM    9  H   UNL     1     -11.972  12.533  70.934  1.00  0.00     0.000 HD 
ENDROOT
BRANCH   6  10
HETATM   10  C   UNL     1     -10.901  12.859  69.059  1.00  0.00    -0.145 C  
BRANCH  10  11
HETATM   11  C   UNL     1     -11.730  13.859  68.228  1.00  0.00    -0.361 C  
BRANCH  11  12
HETATM   12  N   UNL     1     -11.412  13.806  66.780  1.00  0.00    -0.333 NA 
HETATM   13  C   UNL     1     -11.060  15.126  66.240  1.00  0.00    -0.309 C  
HETATM   14  C   UNL     1     -11.184  15.265  64.716  1.00  0.00    -0.405 C  
HETATM   15  C   UNL     1     -12.411  14.567  64.121  1.00  0.00    -0.317 C  
HETATM   16  C   UNL     1     -12.107  13.215  63.468  1.00  0.00    -0.585 C  
HETATM   17  C   UNL     1     -11.665  12.082  64.399  1.00  0.00    -0.399 C  
HETATM   18  C   UNL     1     -10.302  12.302  65.065  1.00  0.00    -0.321 C  
HETATM   19  C   UNL     1     -10.383  12.791  66.519  1.00  0.00    -0.251 C  
ENDBRANCH  11  12
ENDBRANCH  10  11
ENDBRANCH   6  10
TORSDOF 3
ENDMDL
MODEL       36
REMARK 921   NORMALIZED FREE ENERGY PREDICTED BY IDOCK:   -4.76 KCAL/MOL
REMARK 922        TOTAL FREE ENERGY PREDICTED BY IDOCK:   -5.78 KCAL/MOL
REMARK 923 INTER-LIGAND FREE ENERGY PREDICTED BY IDOCK:   -5.51 KCAL/MOL
REMARK 924 INTRA-LIGAND FREE ENERGY PREDICTED BY IDOCK:   -0.26 KCAL/MOL
REMARK 927      BINDING AFFINITY PREDICTED BY RF-SCORE:    0.00 PKD
ROOT
HETATM    1  N   UNL     1     -13.982  15.053  70.912  1.00  0.00    -0.673 NA 
HETATM    2  C   UNL     1     -12.696  15.353  70.637  1.00  0.00    -0.437 C  
HETATM    3  H2  UNL     1     -14.279  14.420  71.654  1.00  0.00     0.000 HD 
HETATM    4  H1  UNL     1     -14.620  15.541  70.283  1.00  0.00     0.000 HD 
HETATM    5  N   UNL     1     -11.852  14.707  71.470  1.00  0.00    -0.417 NA 
HETATM    6  N   UNL     1     -12.428  16.186  69.697  1.00  0.00    -0.450 NA 
HETATM    7  H1  UNL     1     -10.879  14.934  71.262  1.00  0.00     0.000 HD 
HETATM    8  H2  UNL     1     -12.148  14.074  72.212  1.00  0.00     0.000 HD 
HETATM    9  H   UNL     1     -13.160  16.613  69.130  1.00  0.00     0.000 HD 
ENDROOT
BRANCH   6  10
HETATM   10  C   UNL     1     -11.008  16.487  69.484  1.00  0.00    -0.289 C  
BRANCH  10  11
HETATM   11  C   UNL     1     -10.720  16.736  67.990  1.00  0.00    -0.355 C  
BRANCH  11  12
HETATM   12  N   UNL     1     -10.683  15.483  67.196  1.00  0.00    -0.312 NA 
HETATM   13  C   UNL     1     -10.306  15.724  65.797  1.00  0.00    -0.369 C  
HETATM   14  C   UNL     1     -10.695  14.613  64.812  1.00  0.00    -0.399 C  
HETATM   15  C   UNL     1     -12.074  14.000  65.072  1.00  0.00    -0.427 C  
HETATM   16  C   UNL     1     -12.035  12.652  65.797  1.00  0.00    -0.503 C  
HETATM   17  C   UNL     1     -11.544  12.662  67.249  1.00  0.00    -0.428 C  
HETATM   18  C   UNL     1     -10.066  13.033  67.418  1.00  0.00    -0.231 C  
HETATM   19  C   UNL     1      -9.827  14.487  67.853  1.00  0.00    -0.222 C  
ENDBRANCH  11  12
ENDBRANCH  10  11
ENDBRANCH   6  10
TORSDOF 3
ENDMDL
MODEL       37
REMARK 921   NORMALIZED FREE ENERGY PREDICTED BY IDOCK:   -4.75 KCAL/MOL
REMARK 922        TOTAL FREE ENERGY PREDICTED BY IDOCK:   -5.77 KCAL/MOL
REMARK 923 INTER-LIGAND FREE ENERGY PREDICTED BY IDOCK:   -5.59 KCAL/MOL
REMARK 924 INTRA-LIGAND FREE ENERGY PREDICTED BY IDOCK:   -0.18 KCAL/MOL
REMARK 927      BINDING AFFINITY PREDICTED BY RF-SCORE:    0.00 PKD
ROOT
HETATM    1  N   UNL     1     -13.313  13.834  72.331  1.00  0.00    -0.501 NA 
HETATM    2  C   UNL     1     -12.899  14.577  71.284  1.00  0.00    -0.332 C  
HETATM    3  H2  UNL     1     -14.252  13.871  72.727  1.00  0.00     0.000 HD 
HETATM    4  H1  UNL     1     -12.567  13.229  72.675  1.00  0.00     0.000 HD 
HETATM    5  N   UNL     1     -13.887  15.377  70.828  1.00  0.00    -0.860 NA 
HETATM    6  N   UNL     1     -11.702  14.434  70.841  1.00  0.00    -0.474 NA 
HETATM    7  H1  UNL     1     -13.574  15.939  70.036  1.00  0.00     0.000 HD 
HETATM    8  H2  UNL     1     -14.825  15.415  71.225  1.00  0.00     0.000 HD 
HETATM    9  H   UNL     1     -11.040  13.790  71.273  1.00  0.00     0.000 HD 
ENDROOT
BRANCH   6  10
HETATM   10  C   UNL     1     -11.341  15.251  69.677  1.00  0.00    -0.290 C  
BRANCH  10  11
HETATM   11  C   UNL     1      -9.838  15.594  69.695  1.00  0.00    -0.280 C  
BRANCH  11  12
HETATM   12  N   UNL     1      -9.489  16.701  68.770  1.00  0.00    -0.251 NA 
HETATM   13  C   UNL     1      -8.038  16.880  68.641  1.00  0.00    -0.253 C  
HETATM   14  C   UNL     1      -7.590  18.250  68.114  1.00  0.00    -0.278 C  
HETATM   15  C   UNL     1      -8.396  19.428  68.669  1.00  0.00    -0.397 C  
HETATM   16  C   UNL     1      -9.460  19.967  67.709  1.00  0.00    -0.486 C  
HETATM   17  C   UNL     1     -10.643  19.045  67.400  1.00  0.00    -0.559 C  
HETATM   18  C   UNL     1     -10.275  17.781  66.614  1.00  0.00    -0.361 C  
HETATM   19  C   UNL     1     -10.158  16.514  67.476  1.00  0.00    -0.267 C  
ENDBRANCH  11  12
ENDBRANCH  10  11
ENDBRANCH   6  10
TORSDOF 3
ENDMDL
MODEL       38
REMARK 921   NORMALIZED FREE ENERGY PREDICTED BY IDOCK:   -4.70 KCAL/MOL
REMARK 922        TOTAL FREE ENERGY PREDICTED BY IDOCK:   -5.71 KCAL/MOL
REMARK 923 INTER-LIGAND FREE ENERGY PREDICTED BY IDOCK:   -5.54 KCAL/MOL
REMARK 924 INTRA-LIGAND FREE ENERGY PREDICTED BY IDOCK:   -0.17 KCAL/MOL
REMARK 927      BINDING AFFINITY PREDICTED BY RF-SCORE:    0.00 PKD
ROOT
HETATM    1  N   UNL     1     -13.441   9.468  72.663  1.00  0.00    -0.647 NA 
HETATM    2  C   UNL     1     -13.033  10.399  71.776  1.00  0.00    -0.475 C  
HETATM    3  H2  UNL     1     -13.896   9.679  73.550  1.00  0.00     0.000 HD 
HETATM    4  H1  UNL     1     -13.238   8.525  72.331  1.00  0.00     0.000 HD 
HETATM    5  N   UNL     1     -13.303  11.647  72.215  1.00  0.00    -0.546 NA 
HETATM    6  N   UNL     1     -12.495  10.027  70.671  1.00  0.00    -0.448 NA 
HETATM    7  H1  UNL     1     -12.994  12.352  71.545  1.00  0.00     0.000 HD 
HETATM    8  H2  UNL     1     -13.757  11.859  73.103  1.00  0.00     0.000 HD 
HETATM    9  H   UNL     1     -12.342   9.044  70.450  1.00  0.00     0.000 HD 
ENDROOT
BRANCH   6  10
HETATM   10  C   UNL     1     -12.112  11.098  69.744  1.00  0.00    -0.344 C  
BRANCH  10  11
HETATM   11  C   UNL     1     -11.445  10.517  68.482  1.00  0.00    -0.215 C  
BRANCH  11  12
HETATM   12  N   UNL     1     -11.287  11.521  67.401  1.00  0.00    -0.388 NA 
HETATM   13  C   UNL     1     -11.594  12.882  67.859  1.00  0.00    -0.345 C  
HETATM   14  C   UNL     1     -11.922  13.889  66.748  1.00  0.00    -0.472 C  
HETATM   15  C   UNL     1     -12.784  13.317  65.618  1.00  0.00    -0.373 C  
HETATM   16  C   UNL     1     -11.998  12.945  64.358  1.00  0.00    -0.456 C  
HETATM   17  C   UNL     1     -11.019  11.774  64.474  1.00  0.00    -0.382 C  
HETATM   18  C   UNL     1      -9.822  12.035  65.395  1.00  0.00    -0.243 C  
HETATM   19  C   UNL     1      -9.954  11.412  66.793  1.00  0.00    -0.208 C  
ENDBRANCH  11  12
ENDBRANCH  10  11
ENDBRANCH   6  10
TORSDOF 3
ENDMDL
MODEL       39
REMARK 921   NORMALIZED FREE ENERGY PREDICTED BY IDOCK:   -4.68 KCAL/MOL
REMARK 922        TOTAL FREE ENERGY PREDICTED BY IDOCK:   -5.69 KCAL/MOL
REMARK 923 INTER-LIGAND FREE ENERGY PREDICTED BY IDOCK:   -5.30 KCAL/MOL
REMARK 924 INTRA-LIGAND FREE ENERGY PREDICTED BY IDOCK:   -0.39 KCAL/MOL
REMARK 927      BINDING AFFINITY PREDICTED BY RF-SCORE:    0.00 PKD
ROOT
HETATM    1  N   UNL     1     -12.110  10.941  68.260  1.00  0.00    -0.810 NA 
HETATM    2  C   UNL     1     -12.194  10.987  69.605  1.00  0.00    -0.300 C  
HETATM    3  H2  UNL     1     -11.476  11.512  67.703  1.00  0.00     0.000 HD 
HETATM    4  H1  UNL     1     -12.763  10.261  67.870  1.00  0.00     0.000 HD 
HETATM    5  N   UNL     1     -11.329  11.888  70.121  1.00  0.00    -0.496 NA 
HETATM    6  N   UNL     1     -13.008  10.204  70.216  1.00  0.00    -0.577 NA 
HETATM    7  H1  UNL     1     -11.392  11.923  71.139  1.00  0.00     0.000 HD 
HETATM    8  H2  UNL     1     -10.695  12.459  69.564  1.00  0.00     0.000 HD 
HETATM    9  H   UNL     1     -13.617   9.559  69.712  1.00  0.00     0.000 HD 
ENDROOT
BRANCH   6  10
HETATM   10  C   UNL     1     -13.013  10.289  71.681  1.00  0.00    -0.465 C  
BRANCH  10  11
HETATM   11  C   UNL     1     -12.836   8.893  72.310  1.00  0.00    -0.411 C  
BRANCH  11  12
HETATM   12  N   UNL     1     -11.675   8.155  71.754  1.00  0.00    -0.279 NA 
HETATM   13  C   UNL     1     -10.400   8.817  72.056  1.00  0.00    -0.340 C  
HETATM   14  C   UNL     1      -9.224   8.421  71.153  1.00  0.00    -0.218 C  
HETATM   15  C   UNL     1      -9.597   8.255  69.676  1.00  0.00    -0.167 C  
HETATM   16  C   UNL     1      -9.774   6.800  69.234  1.00  0.00    -0.153 C  
HETATM   17  C   UNL     1     -10.964   6.038  69.826  1.00  0.00    -0.471 C  
HETATM   18  C   UNL     1     -10.869   5.786  71.336  1.00  0.00    -0.316 C  
HETATM   19  C   UNL     1     -11.705   6.752  72.189  1.00  0.00    -0.297 C  
ENDBRANCH  11  12
ENDBRANCH  10  11
ENDBRANCH   6  10
TORSDOF 3
ENDMDL
MODEL       40
REMARK 921   NORMALIZED FREE ENERGY PREDICTED BY IDOCK:   -4.68 KCAL/MOL
REMARK 922        TOTAL FREE ENERGY PREDICTED BY IDOCK:   -5.69 KCAL/MOL
REMARK 923 INTER-LIGAND FREE ENERGY PREDICTED BY IDOCK:   -5.49 KCAL/MOL
REMARK 924 INTRA-LIGAND FREE ENERGY PREDICTED BY IDOCK:   -0.19 KCAL/MOL
REMARK 927      BINDING AFFINITY PREDICTED BY RF-SCORE:    0.00 PKD
ROOT
HETATM    1  N   UNL     1     -10.709   8.480  68.258  1.00  0.00    -0.434 NA 
HETATM    2  C   UNL     1     -10.742   9.785  68.599  1.00  0.00    -0.216 C  
HETATM    3  H2  UNL     1      -9.855   7.929  68.176  1.00  0.00     0.000 HD 
HETATM    4  H1  UNL     1     -11.647   8.115  68.093  1.00  0.00     0.000 HD 
HETATM    5  N   UNL     1      -9.500  10.268  68.817  1.00  0.00    -0.168 NA 
HETATM    6  N   UNL     1     -11.874  10.383  68.703  1.00  0.00    -0.707 NA 
HETATM    7  H1  UNL     1      -9.525  11.255  69.075  1.00  0.00     0.000 HD 
HETATM    8  H2  UNL     1      -8.646   9.717  68.735  1.00  0.00     0.000 HD 
HETATM    9  H   UNL     1     -12.755   9.907  68.511  1.00  0.00     0.000 HD 
ENDROOT
BRANCH   6  10
HETATM   10  C   UNL     1     -11.828  11.791  69.114  1.00  0.00    -0.326 C  
BRANCH  10  11
HETATM   11  C   UNL     1     -12.072  11.926  70.630  1.00  0.00    -0.294 C  
BRANCH  11  12
HETATM   12  N   UNL     1     -12.469  13.300  71.028  1.00  0.00    -0.370 NA 
HETATM   13  C   UNL     1     -12.522  14.216  69.882  1.00  0.00    -0.260 C  
HETATM   14  C   UNL     1     -12.448  15.708  70.231  1.00  0.00    -0.369 C  
HETATM   15  C   UNL     1     -11.458  16.041  71.351  1.00  0.00    -0.464 C  
HETATM   16  C   UNL     1     -12.110  16.268  72.718  1.00  0.00    -0.637 C  
HETATM   17  C   UNL     1     -12.761  15.052  73.383  1.00  0.00    -0.654 C  
HETATM   18  C   UNL     1     -13.995  14.512  72.651  1.00  0.00    -0.400 C  
HETATM   19  C   UNL     1     -13.724  13.268  71.791  1.00  0.00    -0.196 C  
ENDBRANCH  11  12
ENDBRANCH  10  11
ENDBRANCH   6  10
TORSDOF 3
ENDMDL
MODEL       41
REMARK 921   NORMALIZED FREE ENERGY PREDICTED BY IDOCK:   -4.67 KCAL/MOL
REMARK 922        TOTAL FREE ENERGY PREDICTED BY IDOCK:   -5.67 KCAL/MOL
REMARK 923 INTER-LIGAND FREE ENERGY PREDICTED BY IDOCK:   -5.37 KCAL/MOL
REMARK 924 INTRA-LIGAND FREE ENERGY PREDICTED BY IDOCK:   -0.31 KCAL/MOL
REMARK 927      BINDING AFFINITY PREDICTED BY RF-SCORE:    0.00 PKD
ROOT
HETATM    1  N   UNL     1     -14.408   8.903  73.064  1.00  0.00    -1.154 NA 
HETATM    2  C   UNL     1     -13.739   9.123  71.914  1.00  0.00    -0.424 C  
HETATM    3  H2  UNL     1     -14.924   8.049  73.275  1.00  0.00     0.000 HD 
HETATM    4  H1  UNL     1     -14.332   9.699  73.696  1.00  0.00     0.000 HD 
HETATM    5  N   UNL     1     -13.840   8.068  71.077  1.00  0.00    -0.581 NA 
HETATM    6  N   UNL     1     -13.095  10.223  71.757  1.00  0.00    -0.446 NA 
HETATM    7  H1  UNL     1     -13.333   8.234  70.207  1.00  0.00     0.000 HD 
HETATM    8  H2  UNL     1     -14.356   7.214  71.287  1.00  0.00     0.000 HD 
HETATM    9  H   UNL     1     -13.094  10.953  72.469  1.00  0.00     0.000 HD 
ENDROOT
BRANCH   6  10
HETATM   10  C   UNL     1     -12.363  10.371  70.494  1.00  0.00    -0.322 C  
BRANCH  10  11
HETATM   11  C   UNL     1     -10.867  10.057  70.690  1.00  0.00    -0.297 C  
BRANCH  11  12
HETATM   12  N   UNL     1     -10.388   8.964  69.808  1.00  0.00    -0.202 NA 
HETATM   13  C   UNL     1      -9.323   9.409  68.900  1.00  0.00    -0.154 C  
HETATM   14  C   UNL     1      -9.105   8.527  67.663  1.00  0.00    -0.144 C  
HETATM   15  C   UNL     1     -10.398   8.008  67.027  1.00  0.00    -0.414 C  
HETATM   16  C   UNL     1     -10.732   6.557  67.382  1.00  0.00    -0.412 C  
HETATM   17  C   UNL     1     -11.098   6.268  68.841  1.00  0.00    -0.434 C  
HETATM   18  C   UNL     1      -9.948   6.466  69.836  1.00  0.00    -0.198 C  
HETATM   19  C   UNL     1     -10.003   7.793  70.607  1.00  0.00    -0.186 C  
ENDBRANCH  11  12
ENDBRANCH  10  11
ENDBRANCH   6  10
TORSDOF 3
ENDMDL
MODEL       42
REMARK 921   NORMALIZED FREE ENERGY PREDICTED BY IDOCK:   -4.66 KCAL/MOL
REMARK 922        TOTAL FREE ENERGY PREDICTED BY IDOCK:   -5.66 KCAL/MOL
REMARK 923 INTER-LIGAND FREE ENERGY PREDICTED BY IDOCK:   -5.44 KCAL/MOL
REMARK 924 INTRA-LIGAND FREE ENERGY PREDICTED BY IDOCK:   -0.22 KCAL/MOL
REMARK 927      BINDING AFFINITY PREDICTED BY RF-SCORE:    0.00 PKD
ROOT
HETATM    1  N   UNL     1     -12.393  14.309  63.409  1.00  0.00    -1.126 NA 
HETATM    2  C   UNL     1     -11.921  13.068  63.647  1.00  0.00    -0.539 C  
HETATM    3  H2  UNL     1     -13.368  14.523  63.202  1.00  0.00     0.000 HD 
HETATM    4  H1  UNL     1     -11.650  15.006  63.462  1.00  0.00     0.000 HD 
HETATM    5  N   UNL     1     -12.905  12.145  63.576  1.00  0.00    -0.796 NA 
HETATM    6  N   UNL     1     -10.678  12.907  63.926  1.00  0.00    -0.478 NA 
HETATM    7  H1  UNL     1     -12.548  11.207  63.756  1.00  0.00     0.000 HD 
HETATM    8  H2  UNL     1     -13.880  12.360  63.370  1.00  0.00     0.000 HD 
HETATM    9  H   UNL     1     -10.025  13.689  63.950  1.00  0.00     0.000 HD 
ENDROOT
BRANCH   6  10
HETATM   10  C   UNL     1     -10.250  11.532  64.208  1.00  0.00    -0.311 C  
BRANCH  10  11
HETATM   11  C   UNL     1      -9.347  11.486  65.456  1.00  0.00    -0.185 C  
BRANCH  11  12
HETATM   12  N   UNL     1      -9.984  10.790  66.602  1.00  0.00    -0.199 NA 
HETATM   13  C   UNL     1     -11.235  11.436  67.017  1.00  0.00    -0.283 C  
HETATM   14  C   UNL     1     -11.704  11.104  68.441  1.00  0.00    -0.349 C  
HETATM   15  C   UNL     1     -10.573  11.033  69.472  1.00  0.00    -0.182 C  
HETATM   16  C   UNL     1     -10.134   9.609  69.824  1.00  0.00    -0.258 C  
HETATM   17  C   UNL     1      -9.444   8.806  68.717  1.00  0.00    -0.142 C  
HETATM   18  C   UNL     1     -10.347   8.457  67.528  1.00  0.00    -0.333 C  
HETATM   19  C   UNL     1     -10.152   9.362  66.302  1.00  0.00    -0.258 C  
ENDBRANCH  11  12
ENDBRANCH  10  11
ENDBRANCH   6  10
TORSDOF 3
ENDMDL
MODEL       43
REMARK 921   NORMALIZED FREE ENERGY PREDICTED BY IDOCK:   -4.62 KCAL/MOL
REMARK 922        TOTAL FREE ENERGY PREDICTED BY IDOCK:   -5.62 KCAL/MOL
REMARK 923 INTER-LIGAND FREE ENERGY PREDICTED BY IDOCK:   -5.45 KCAL/MOL
REMARK 924 INTRA-LIGAND FREE ENERGY PREDICTED BY IDOCK:   -0.17 KCAL/MOL
REMARK 927      BINDING AFFINITY PREDICTED BY RF-SCORE:    0.00 PKD
ROOT
HETATM    1  N   UNL     1     -14.134   8.855  73.258  1.00  0.00    -1.248 NA 
HETATM    2  C   UNL     1     -13.793   9.153  71.988  1.00  0.00    -0.420 C  
HETATM    3  H2  UNL     1     -14.633   8.011  73.536  1.00  0.00     0.000 HD 
HETATM    4  H1  UNL     1     -13.828   9.582  73.905  1.00  0.00     0.000 HD 
HETATM    5  N   UNL     1     -14.197   8.190  71.131  1.00  0.00    -0.662 NA 
HETATM    6  N   UNL     1     -13.138  10.231  71.745  1.00  0.00    -0.446 NA 
HETATM    7  H1  UNL     1     -13.939   8.415  70.170  1.00  0.00     0.000 HD 
HETATM    8  H2  UNL     1     -14.696   7.346  71.410  1.00  0.00     0.000 HD 
HETATM    9  H   UNL     1     -12.887  10.887  72.483  1.00  0.00     0.000 HD 
ENDROOT
BRANCH   6  10
HETATM   10  C   UNL     1     -12.772  10.464  70.343  1.00  0.00    -0.218 C  
BRANCH  10  11
HETATM   11  C   UNL     1     -11.433  11.221  70.246  1.00  0.00    -0.193 C  
BRANCH  11  12
HETATM   12  N   UNL     1     -11.358  12.108  69.059  1.00  0.00    -0.257 NA 
HETATM   13  C   UNL     1     -11.850  11.449  67.842  1.00  0.00    -0.165 C  
HETATM   14  C   UNL     1     -11.383  12.077  66.522  1.00  0.00    -0.413 C  
HETATM   15  C   UNL     1      -9.922  12.539  66.529  1.00  0.00    -0.252 C  
HETATM   16  C   UNL     1      -9.743  14.046  66.728  1.00  0.00    -0.283 C  
HETATM   17  C   UNL     1     -10.138  14.615  68.094  1.00  0.00    -0.224 C  
HETATM   18  C   UNL     1     -11.639  14.542  68.403  1.00  0.00    -0.356 C  
HETATM   19  C   UNL     1     -12.035  13.383  69.330  1.00  0.00    -0.317 C  
ENDBRANCH  11  12
ENDBRANCH  10  11
ENDBRANCH   6  10
TORSDOF 3
ENDMDL
MODEL       44
REMARK 921   NORMALIZED FREE ENERGY PREDICTED BY IDOCK:   -4.61 KCAL/MOL
REMARK 922        TOTAL FREE ENERGY PREDICTED BY IDOCK:   -5.60 KCAL/MOL
REMARK 923 INTER-LIGAND FREE ENERGY PREDICTED BY IDOCK:   -5.39 KCAL/MOL
REMARK 924 INTRA-LIGAND FREE ENERGY PREDICTED BY IDOCK:   -0.21 KCAL/MOL
REMARK 927      BINDING AFFINITY PREDICTED BY RF-SCORE:    0.00 PKD
ROOT
HETATM    1  N   UNL     1     -13.593  16.099  73.768  1.00  0.00    -0.848 NA 
HETATM    2  C   UNL     1     -13.108  15.431  72.701  1.00  0.00    -0.442 C  
HETATM    3  H2  UNL     1     -14.289  15.726  74.413  1.00  0.00     0.000 HD 
HETATM    4  H1  UNL     1     -13.174  17.026  73.848  1.00  0.00     0.000 HD 
HETATM    5  N   UNL     1     -13.663  14.204  72.596  1.00  0.00    -0.640 NA 
HETATM    6  N   UNL     1     -12.210  15.980  71.965  1.00  0.00    -0.489 NA 
HETATM    7  H1  UNL     1     -13.297  13.698  71.790  1.00  0.00     0.000 HD 
HETATM    8  H2  UNL     1     -14.359  13.831  73.241  1.00  0.00     0.000 HD 
HETATM    9  H   UNL     1     -11.866  16.922  72.147  1.00  0.00     0.000 HD 
ENDROOT
BRANCH   6  10
HETATM   10  C   UNL     1     -11.708  15.174  70.847  1.00  0.00    -0.332 C  
BRANCH  10  11
HETATM   11  C   UNL     1     -12.148  15.777  69.498  1.00  0.00    -0.242 C  
BRANCH  11  12
HETATM   12  N   UNL     1     -11.000  16.155  68.636  1.00  0.00    -0.317 NA 
HETATM   13  C   UNL     1      -9.716  16.032  69.337  1.00  0.00    -0.248 C  
HETATM   14  C   UNL     1      -8.556  16.829  68.725  1.00  0.00    -0.255 C  
HETATM   15  C   UNL     1      -8.950  18.221  68.220  1.00  0.00    -0.318 C  
HETATM   16  C   UNL     1      -9.146  18.306  66.704  1.00  0.00    -0.294 C  
HETATM   17  C   UNL     1     -10.334  17.537  66.116  1.00  0.00    -0.330 C  
HETATM   18  C   UNL     1     -10.221  16.012  66.227  1.00  0.00    -0.329 C  
HETATM   19  C   UNL     1     -11.037  15.401  67.376  1.00  0.00    -0.311 C  
ENDBRANCH  11  12
ENDBRANCH  10  11
ENDBRANCH   6  10
TORSDOF 3
ENDMDL
MODEL       45
REMARK 921   NORMALIZED FREE ENERGY PREDICTED BY IDOCK:   -4.57 KCAL/MOL
REMARK 922        TOTAL FREE ENERGY PREDICTED BY IDOCK:   -5.56 KCAL/MOL
REMARK 923 INTER-LIGAND FREE ENERGY PREDICTED BY IDOCK:   -5.36 KCAL/MOL
REMARK 924 INTRA-LIGAND FREE ENERGY PREDICTED BY IDOCK:   -0.20 KCAL/MOL
REMARK 927      BINDING AFFINITY PREDICTED BY RF-SCORE:    0.00 PKD
ROOT
HETATM    1  N   UNL     1     -11.292   4.515  65.058  1.00  0.00    -1.108 NA 
HETATM    2  C   UNL     1     -10.654   5.039  66.126  1.00  0.00    -0.265 C  
HETATM    3  H2  UNL     1     -11.043   3.631  64.617  1.00  0.00     0.000 HD 
HETATM    4  H1  UNL     1     -12.055   5.117  64.750  1.00  0.00     0.000 HD 
HETATM    5  N   UNL     1      -9.643   4.242  66.534  1.00  0.00    -0.185 NA 
HETATM    6  N   UNL     1     -11.064   6.148  66.626  1.00  0.00    -0.759 NA 
HETATM    7  H1  UNL     1      -9.161   4.637  67.341  1.00  0.00     0.000 HD 
HETATM    8  H2  UNL     1      -9.394   3.357  66.092  1.00  0.00     0.000 HD 
HETATM    9  H   UNL     1     -11.848   6.663  66.225  1.00  0.00     0.000 HD 
ENDROOT
BRANCH   6  10
HETATM   10  C   UNL     1     -10.342   6.632  67.808  1.00  0.00    -0.196 C  
BRANCH  10  11
HETATM   11  C   UNL     1     -11.096   6.261  69.100  1.00  0.00    -0.390 C  
BRANCH  11  12
HETATM   12  N   UNL     1     -10.839   7.213  70.209  1.00  0.00    -0.242 NA 
HETATM   13  C   UNL     1     -10.243   8.469  69.735  1.00  0.00    -0.206 C  
HETATM   14  C   UNL     1      -9.517   9.295  70.806  1.00  0.00    -0.336 C  
HETATM   15  C   UNL     1      -8.700   8.458  71.795  1.00  0.00    -0.241 C  
HETATM   16  C   UNL     1      -9.385   8.239  73.147  1.00  0.00    -0.281 C  
HETATM   17  C   UNL     1     -10.647   7.371  73.149  1.00  0.00    -0.424 C  
HETATM   18  C   UNL     1     -11.841   7.985  72.407  1.00  0.00    -0.429 C  
HETATM   19  C   UNL     1     -12.062   7.423  70.995  1.00  0.00    -0.298 C  
ENDBRANCH  11  12
ENDBRANCH  10  11
ENDBRANCH   6  10
TORSDOF 3
ENDMDL
MODEL       46
REMARK 921   NORMALIZED FREE ENERGY PREDICTED BY IDOCK:   -4.56 KCAL/MOL
REMARK 922        TOTAL FREE ENERGY PREDICTED BY IDOCK:   -5.55 KCAL/MOL
REMARK 923 INTER-LIGAND FREE ENERGY PREDICTED BY IDOCK:   -5.31 KCAL/MOL
REMARK 924 INTRA-LIGAND FREE ENERGY PREDICTED BY IDOCK:   -0.24 KCAL/MOL
REMARK 927      BINDING AFFINITY PREDICTED BY RF-SCORE:    0.00 PKD
ROOT
HETATM    1  N   UNL     1     -11.369  11.232  62.955  1.00  0.00    -0.827 NA 
HETATM    2  C   UNL     1     -11.270  12.276  63.804  1.00  0.00    -0.440 C  
HETATM    3  H2  UNL     1     -12.230  10.716  62.776  1.00  0.00     0.000 HD 
HETATM    4  H1  UNL     1     -10.472  11.025  62.516  1.00  0.00     0.000 HD 
HETATM    5  N   UNL     1     -12.458  12.550  64.386  1.00  0.00    -0.570 NA 
HETATM    6  N   UNL     1     -10.144  12.878  63.939  1.00  0.00    -0.705 NA 
HETATM    7  H1  UNL     1     -12.384  13.340  65.028  1.00  0.00     0.000 HD 
HETATM    8  H2  UNL     1     -13.319  12.034  64.206  1.00  0.00     0.000 HD 
HETATM    9  H   UNL     1      -9.308  12.575  63.440  1.00  0.00     0.000 HD 
ENDROOT
BRANCH   6  10
HETATM   10  C   UNL     1     -10.128  14.026  64.852  1.00  0.00    -0.256 C  
BRANCH  10  11
HETATM   11  C   UNL     1      -9.746  13.585  66.279  1.00  0.00    -0.277 C  
BRANCH  11  12
HETATM   12  N   UNL     1     -10.483  14.332  67.328  1.00  0.00    -0.268 NA 
HETATM   13  C   UNL     1     -10.777  15.712  66.924  1.00  0.00    -0.307 C  
HETATM   14  C   UNL     1     -11.091  16.679  68.073  1.00  0.00    -0.255 C  
HETATM   15  C   UNL     1     -10.214  16.483  69.314  1.00  0.00    -0.290 C  
HETATM   16  C   UNL     1     -10.896  15.710  70.447  1.00  0.00    -0.358 C  
HETATM   17  C   UNL     1     -11.207  14.233  70.187  1.00  0.00    -0.103 C  
HETATM   18  C   UNL     1     -12.263  13.987  69.102  1.00  0.00    -0.299 C  
HETATM   19  C   UNL     1     -11.683  13.589  67.737  1.00  0.00    -0.359 C  
ENDBRANCH  11  12
ENDBRANCH  10  11
ENDBRANCH   6  10
TORSDOF 3
ENDMDL
MODEL       47
REMARK 921   NORMALIZED FREE ENERGY PREDICTED BY IDOCK:   -4.56 KCAL/MOL
REMARK 922        TOTAL FREE ENERGY PREDICTED BY IDOCK:   -5.54 KCAL/MOL
REMARK 923 INTER-LIGAND FREE ENERGY PREDICTED BY IDOCK:   -5.25 KCAL/MOL
REMARK 924 INTRA-LIGAND FREE ENERGY PREDICTED BY IDOCK:   -0.29 KCAL/MOL
REMARK 927      BINDING AFFINITY PREDICTED BY RF-SCORE:    0.00 PKD
ROOT
HETATM    1  N   UNL     1     -12.937  10.212  70.141  1.00  0.00    -0.552 NA 
HETATM    2  C   UNL     1     -12.027  10.874  69.398  1.00  0.00    -0.322 C  
HETATM    3  H2  UNL     1     -13.179  10.452  71.102  1.00  0.00     0.000 HD 
HETATM    4  H1  UNL     1     -13.352   9.440  69.619  1.00  0.00     0.000 HD 
HETATM    5  N   UNL     1     -11.477  11.896  70.089  1.00  0.00    -0.521 NA 
HETATM    6  N   UNL     1     -11.815  10.509  68.185  1.00  0.00    -0.774 NA 
HETATM    7  H1  UNL     1     -10.789  12.398  69.527  1.00  0.00     0.000 HD 
HETATM    8  H2  UNL     1     -11.719  12.136  71.050  1.00  0.00     0.000 HD 
HETATM    9  H   UNL     1     -12.297   9.713  67.769  1.00  0.00     0.000 HD 
ENDROOT
BRANCH   6  10
HETATM   10  C   UNL     1     -10.838  11.304  67.431  1.00  0.00    -0.262 C  
BRANCH  10  11
HETATM   11  C   UNL     1     -11.533  12.111  66.317  1.00  0.00    -0.374 C  
BRANCH  11  12
HETATM   12  N   UNL     1     -11.305  13.573  66.440  1.00  0.00    -0.308 NA 
HETATM   13  C   UNL     1     -11.466  14.269  65.157  1.00  0.00    -0.351 C  
HETATM   14  C   UNL     1     -10.804  15.651  65.074  1.00  0.00    -0.468 C  
HETATM   15  C   UNL     1      -9.431  15.730  65.749  1.00  0.00    -0.334 C  
HETATM   16  C   UNL     1      -9.451  16.379  67.136  1.00  0.00    -0.238 C  
HETATM   17  C   UNL     1     -10.176  15.613  68.247  1.00  0.00    -0.223 C  
HETATM   18  C   UNL     1     -11.692  15.493  68.051  1.00  0.00    -0.198 C  
HETATM   19  C   UNL     1     -12.151  14.134  67.502  1.00  0.00    -0.328 C  
ENDBRANCH  11  12
ENDBRANCH  10  11
ENDBRANCH   6  10
TORSDOF 3
ENDMDL
MODEL       48
REMARK 921   NORMALIZED FREE ENERGY PREDICTED BY IDOCK:   -4.55 KCAL/MOL
REMARK 922        TOTAL FREE ENERGY PREDICTED BY IDOCK:   -5.54 KCAL/MOL
REMARK 923 INTER-LIGAND FREE ENERGY PREDICTED BY IDOCK:   -5.33 KCAL/MOL
REMARK 924 INTRA-LIGAND FREE ENERGY PREDICTED BY IDOCK:   -0.21 KCAL/MOL
REMARK 927      BINDING AFFINITY PREDICTED BY RF-SCORE:    0.00 PKD
ROOT
HETATM    1  N   UNL     1      -9.489   9.515  62.463  1.00  0.00    -0.575 NA 
HETATM    2  C   UNL     1      -9.653  10.758  62.961  1.00  0.00    -0.353 C  
HETATM    3  H2  UNL     1      -8.651   9.195  61.980  1.00  0.00     0.000 HD 
HETATM    4  H1  UNL     1     -10.312   8.936  62.633  1.00  0.00     0.000 HD 
HETATM    5  N   UNL     1      -8.564  11.525  62.736  1.00  0.00    -0.611 NA 
HETATM    6  N   UNL     1     -10.739  11.054  63.579  1.00  0.00    -0.594 NA 
HETATM    7  H1  UNL     1      -8.688  12.465  63.113  1.00  0.00     0.000 HD 
HETATM    8  H2  UNL     1      -7.726  11.205  62.253  1.00  0.00     0.000 HD 
HETATM    9  H   UNL     1     -11.499  10.382  63.686  1.00  0.00     0.000 HD 
ENDROOT
BRANCH   6  10
HETATM   10  C   UNL     1     -10.825  12.414  64.123  1.00  0.00    -0.372 C  
BRANCH  10  11
HETATM   11  C   UNL     1     -11.082  12.380  65.642  1.00  0.00    -0.306 C  
BRANCH  11  12
HETATM   12  N   UNL     1     -10.738  13.659  66.312  1.00  0.00    -0.283 NA 
HETATM   13  C   UNL     1     -10.307  14.687  65.356  1.00  0.00    -0.383 C  
HETATM   14  C   UNL     1      -9.496  15.843  65.959  1.00  0.00    -0.389 C  
HETATM   15  C   UNL     1      -8.487  15.410  67.027  1.00  0.00    -0.262 C  
HETATM   16  C   UNL     1      -8.954  15.654  68.465  1.00  0.00    -0.192 C  
HETATM   17  C   UNL     1     -10.138  14.817  68.958  1.00  0.00    -0.232 C  
HETATM   18  C   UNL     1     -11.467  15.118  68.254  1.00  0.00    -0.350 C  
HETATM   19  C   UNL     1     -11.848  14.103  67.166  1.00  0.00    -0.423 C  
ENDBRANCH  11  12
ENDBRANCH  10  11
ENDBRANCH   6  10
TORSDOF 3
ENDMDL
MODEL       49
REMARK 921   NORMALIZED FREE ENERGY PREDICTED BY IDOCK:   -4.55 KCAL/MOL
REMARK 922        TOTAL FREE ENERGY PREDICTED BY IDOCK:   -5.53 KCAL/MOL
REMARK 923 INTER-LIGAND FREE ENERGY PREDICTED BY IDOCK:   -5.38 KCAL/MOL
REMARK 924 INTRA-LIGAND FREE ENERGY PREDICTED BY IDOCK:   -0.15 KCAL/MOL
REMARK 927      BINDING AFFINITY PREDICTED BY RF-SCORE:    0.00 PKD
ROOT
HETATM    1  N   UNL     1     -13.438  15.765  70.941  1.00  0.00    -0.723 NA 
HETATM    2  C   UNL     1     -12.419  15.007  70.487  1.00  0.00    -0.371 C  
HETATM    3  H2  UNL     1     -13.343  16.491  71.650  1.00  0.00     0.000 HD 
HETATM    4  H1  UNL     1     -14.316  15.520  70.483  1.00  0.00     0.000 HD 
HETATM    5  N   UNL     1     -11.256  15.332  71.093  1.00  0.00    -0.456 NA 
HETATM    6  N   UNL     1     -12.639  14.137  69.568  1.00  0.00    -0.458 NA 
HETATM    7  H1  UNL     1     -10.485  14.759  70.749  1.00  0.00     0.000 HD 
HETATM    8  H2  UNL     1     -11.161  16.058  71.802  1.00  0.00     0.000 HD 
HETATM    9  H   UNL     1     -13.570  13.981  69.185  1.00  0.00     0.000 HD 
ENDROOT
BRANCH   6  10
HETATM   10  C   UNL     1     -11.472  13.378  69.102  1.00  0.00    -0.300 C  
BRANCH  10  11
HETATM   11  C   UNL     1     -11.905  12.228  68.171  1.00  0.00    -0.311 C  
BRANCH  11  12
HETATM   12  N   UNL     1     -11.495  12.445  66.761  1.00  0.00    -0.341 NA 
HETATM   13  C   UNL     1     -12.179  13.595  66.155  1.00  0.00    -0.444 C  
HETATM   14  C   UNL     1     -12.197  13.612  64.621  1.00  0.00    -0.448 C  
HETATM   15  C   UNL     1     -12.427  12.240  63.981  1.00  0.00    -0.556 C  
HETATM   16  C   UNL     1     -11.154  11.570  63.458  1.00  0.00    -0.434 C  
HETATM   17  C   UNL     1     -10.124  11.132  64.503  1.00  0.00    -0.364 C  
HETATM   18  C   UNL     1      -9.456  12.286  65.261  1.00  0.00     0.057 C  
HETATM   19  C   UNL     1     -10.032  12.536  66.663  1.00  0.00    -0.236 C  
ENDBRANCH  11  12
ENDBRANCH  10  11
ENDBRANCH   6  10
TORSDOF 3
ENDMDL
MODEL       50
REMARK 921   NORMALIZED FREE ENERGY PREDICTED BY IDOCK:   -4.54 KCAL/MOL
REMARK 922        TOTAL FREE ENERGY PREDICTED BY IDOCK:   -5.52 KCAL/MOL
REMARK 923 INTER-LIGAND FREE ENERGY PREDICTED BY IDOCK:   -5.25 KCAL/MOL
REMARK 924 INTRA-LIGAND FREE ENERGY PREDICTED BY IDOCK:   -0.27 KCAL/MOL
REMARK 927      BINDING AFFINITY PREDICTED BY RF-SCORE:    0.00 PKD
ROOT
HETATM    1  N   UNL     1      -9.784  20.925  66.791  1.00  0.00    -0.599 NA 
HETATM    2  C   UNL     1      -9.429  19.638  66.977  1.00  0.00    -0.349 C  
HETATM    3  H2  UNL     1      -9.493  21.493  65.997  1.00  0.00     0.000 HD 
HETATM    4  H1  UNL     1     -10.383  21.258  67.547  1.00  0.00     0.000 HD 
HETATM    5  N   UNL     1      -8.636  19.197  65.976  1.00  0.00    -0.461 NA 
HETATM    6  N   UNL     1      -9.873  19.000  68.000  1.00  0.00    -0.332 NA 
HETATM    7  H1  UNL     1      -8.367  18.223  66.116  1.00  0.00     0.000 HD 
HETATM    8  H2  UNL     1      -8.345  19.765  65.181  1.00  0.00     0.000 HD 
HETATM    9  H   UNL     1     -10.471  19.445  68.695  1.00  0.00     0.000 HD 
ENDROOT
BRANCH   6  10
HETATM   10  C   UNL     1      -9.471  17.593  68.111  1.00  0.00    -0.286 C  
BRANCH  10  11
HETATM   11  C   UNL     1     -10.701  16.687  68.314  1.00  0.00    -0.351 C  
BRANCH  11  12
HETATM   12  N   UNL     1     -10.752  15.563  67.347  1.00  0.00    -0.297 NA 
HETATM   13  C   UNL     1     -10.297  15.960  66.008  1.00  0.00    -0.348 C  
HETATM   14  C   UNL     1     -10.751  15.045  64.863  1.00  0.00    -0.420 C  
HETATM   15  C   UNL     1     -12.192  14.545  64.994  1.00  0.00    -0.376 C  
HETATM   16  C   UNL     1     -12.313  13.110  65.517  1.00  0.00    -0.529 C  
HETATM   17  C   UNL     1     -11.884  12.865  66.966  1.00  0.00    -0.437 C  
HETATM   18  C   UNL     1     -10.385  13.056  67.227  1.00  0.00    -0.238 C  
HETATM   19  C   UNL     1     -10.024  14.401  67.875  1.00  0.00    -0.228 C  
ENDBRANCH  11  12
ENDBRANCH  10  11
ENDBRANCH   6  10
TORSDOF 3
ENDMDL
MODEL       51
REMARK 921   NORMALIZED FREE ENERGY PREDICTED BY IDOCK:   -4.46 KCAL/MOL
REMARK 922        TOTAL FREE ENERGY PREDICTED BY IDOCK:   -5.43 KCAL/MOL
REMARK 923 INTER-LIGAND FREE ENERGY PREDICTED BY IDOCK:   -5.10 KCAL/MOL
REMARK 924 INTRA-LIGAND FREE ENERGY PREDICTED BY IDOCK:   -0.33 KCAL/MOL
REMARK 927      BINDING AFFINITY PREDICTED BY RF-SCORE:    0.00 PKD
ROOT
HETATM    1  N   UNL     1     -12.025  10.709  71.399  1.00  0.00    -0.248 NA 
HETATM    2  C   UNL     1     -12.046  11.321  70.197  1.00  0.00    -0.366 C  
HETATM    3  H2  UNL     1     -12.391   9.774  71.574  1.00  0.00     0.000 HD 
HETATM    4  H1  UNL     1     -11.596  11.302  72.110  1.00  0.00     0.000 HD 
HETATM    5  N   UNL     1     -12.614  10.537  69.256  1.00  0.00    -0.659 NA 
HETATM    6  N   UNL     1     -11.532  12.492  70.074  1.00  0.00    -0.526 NA 
HETATM    7  H1  UNL     1     -12.629  10.999  68.346  1.00  0.00     0.000 HD 
HETATM    8  H2  UNL     1     -12.980   9.602  69.431  1.00  0.00     0.000 HD 
HETATM    9  H   UNL     1     -11.127  12.989  70.867  1.00  0.00     0.000 HD 
ENDROOT
BRANCH   6  10
HETATM   10  C   UNL     1     -11.561  13.074  68.727  1.00  0.00    -0.309 C  
BRANCH  10  11
HETATM   11  C   UNL     1     -10.267  12.737  67.959  1.00  0.00    -0.228 C  
BRANCH  11  12
HETATM   12  N   UNL     1     -10.529  12.120  66.635  1.00  0.00    -0.217 NA 
HETATM   13  C   UNL     1     -10.231  10.683  66.623  1.00  0.00    -0.231 C  
HETATM   14  C   UNL     1     -10.010  10.070  65.234  1.00  0.00    -0.368 C  
HETATM   15  C   UNL     1      -9.212  10.961  64.276  1.00  0.00    -0.221 C  
HETATM   16  C   UNL     1     -10.073  11.711  63.255  1.00  0.00    -0.454 C  
HETATM   17  C   UNL     1     -11.008  12.794  63.803  1.00  0.00    -0.445 C  
HETATM   18  C   UNL     1     -12.145  12.265  64.685  1.00  0.00    -0.449 C  
HETATM   19  C   UNL     1     -11.898  12.422  66.193  1.00  0.00    -0.376 C  
ENDBRANCH  11  12
ENDBRANCH  10  11
ENDBRANCH   6  10
TORSDOF 3
ENDMDL
MODEL       52
REMARK 921   NORMALIZED FREE ENERGY PREDICTED BY IDOCK:   -4.46 KCAL/MOL
REMARK 922        TOTAL FREE ENERGY PREDICTED BY IDOCK:   -5.42 KCAL/MOL
REMARK 923 INTER-LIGAND FREE ENERGY PREDICTED BY IDOCK:   -5.26 KCAL/MOL
REMARK 924 INTRA-LIGAND FREE ENERGY PREDICTED BY IDOCK:   -0.17 KCAL/MOL
REMARK 927      BINDING AFFINITY PREDICTED BY RF-SCORE:    0.00 PKD
ROOT
HETATM    1  N   UNL     1     -11.962  11.557  67.788  1.00  0.00    -0.637 NA 
HETATM    2  C   UNL     1     -12.024  11.514  69.134  1.00  0.00    -0.320 C  
HETATM    3  H2  UNL     1     -11.564  12.329  67.255  1.00  0.00     0.000 HD 
HETATM    4  H1  UNL     1     -12.365  10.717  67.370  1.00  0.00     0.000 HD 
HETATM    5  N   UNL     1     -11.492  12.626  69.686  1.00  0.00    -0.461 NA 
HETATM    6  N   UNL     1     -12.521  10.480  69.712  1.00  0.00    -0.547 NA 
HETATM    7  H1  UNL     1     -11.538  12.594  70.705  1.00  0.00     0.000 HD 
HETATM    8  H2  UNL     1     -11.093  13.398  69.153  1.00  0.00     0.000 HD 
HETATM    9  H   UNL     1     -12.896   9.694  69.182  1.00  0.00     0.000 HD 
ENDROOT
BRANCH   6  10
HETATM   10  C   UNL     1     -12.518  10.495  71.180  1.00  0.00    -0.412 C  
BRANCH  10  11
HETATM   11  C   UNL     1     -12.991   9.139  71.740  1.00  0.00    -0.380 C  
BRANCH  11  12
HETATM   12  N   UNL     1     -11.877   8.180  71.941  1.00  0.00    -0.297 NA 
HETATM   13  C   UNL     1     -11.848   7.139  70.906  1.00  0.00    -0.339 C  
HETATM   14  C   UNL     1     -11.069   5.869  71.275  1.00  0.00    -0.307 C  
HETATM   15  C   UNL     1     -11.266   5.413  72.725  1.00  0.00    -0.358 C  
HETATM   16  C   UNL     1     -10.113   5.786  73.661  1.00  0.00    -0.210 C  
HETATM   17  C   UNL     1      -9.911   7.277  73.947  1.00  0.00    -0.322 C  
HETATM   18  C   UNL     1      -9.469   8.103  72.733  1.00  0.00    -0.349 C  
HETATM   19  C   UNL     1     -10.601   8.897  72.065  1.00  0.00    -0.318 C  
ENDBRANCH  11  12
ENDBRANCH  10  11
ENDBRANCH   6  10
TORSDOF 3
ENDMDL
MODEL       53
REMARK 921   NORMALIZED FREE ENERGY PREDICTED BY IDOCK:   -4.45 KCAL/MOL
REMARK 922        TOTAL FREE ENERGY PREDICTED BY IDOCK:   -5.41 KCAL/MOL
REMARK 923 INTER-LIGAND FREE ENERGY PREDICTED BY IDOCK:   -5.21 KCAL/MOL
REMARK 924 INTRA-LIGAND FREE ENERGY PREDICTED BY IDOCK:   -0.20 KCAL/MOL
REMARK 927      BINDING AFFINITY PREDICTED BY RF-SCORE:    0.00 PKD
ROOT
HETATM    1  N   UNL     1     -10.978   5.713  66.364  1.00  0.00    -0.735 NA 
HETATM    2  C   UNL     1     -10.792   6.871  67.031  1.00  0.00    -0.366 C  
HETATM    3  H2  UNL     1     -11.361   4.865  66.780  1.00  0.00     0.000 HD 
HETATM    4  H1  UNL     1     -10.688   5.795  65.389  1.00  0.00     0.000 HD 
HETATM    5  N   UNL     1     -11.176   6.762  68.321  1.00  0.00    -0.548 NA 
HETATM    6  N   UNL     1     -10.329   7.893  66.407  1.00  0.00    -0.452 NA 
HETATM    7  H1  UNL     1     -11.035   7.637  68.826  1.00  0.00     0.000 HD 
HETATM    8  H2  UNL     1     -11.558   5.913  68.738  1.00  0.00     0.000 HD 
HETATM    9  H   UNL     1     -10.073   7.852  65.421  1.00  0.00     0.000 HD 
ENDROOT
BRANCH   6  10
HETATM   10  C   UNL     1     -10.190   9.124  67.193  1.00  0.00    -0.261 C  
BRANCH  10  11
HETATM   11  C   UNL     1      -9.467  10.214  66.379  1.00  0.00    -0.176 C  
BRANCH  11  12
HETATM   12  N   UNL     1     -10.310  11.413  66.147  1.00  0.00    -0.241 NA 
HETATM   13  C   UNL     1     -10.909  11.419  64.807  1.00  0.00    -0.273 C  
HETATM   14  C   UNL     1     -11.383  12.791  64.307  1.00  0.00    -0.416 C  
HETATM   15  C   UNL     1     -10.442  13.946  64.660  1.00  0.00    -0.419 C  
HETATM   16  C   UNL     1     -10.900  14.784  65.857  1.00  0.00    -0.331 C  
HETATM   17  C   UNL     1     -10.894  14.096  67.225  1.00  0.00    -0.288 C  
HETATM   18  C   UNL     1     -11.910  12.957  67.368  1.00  0.00    -0.418 C  
HETATM   19  C   UNL     1     -11.306  11.552  67.218  1.00  0.00    -0.290 C  
ENDBRANCH  11  12
ENDBRANCH  10  11
ENDBRANCH   6  10
TORSDOF 3
ENDMDL
MODEL       54
REMARK 921   NORMALIZED FREE ENERGY PREDICTED BY IDOCK:   -4.45 KCAL/MOL
REMARK 922        TOTAL FREE ENERGY PREDICTED BY IDOCK:   -5.41 KCAL/MOL
REMARK 923 INTER-LIGAND FREE ENERGY PREDICTED BY IDOCK:   -5.32 KCAL/MOL
REMARK 924 INTRA-LIGAND FREE ENERGY PREDICTED BY IDOCK:   -0.09 KCAL/MOL
REMARK 927      BINDING AFFINITY PREDICTED BY RF-SCORE:    0.00 PKD
ROOT
HETATM    1  N   UNL     1     -14.409   7.211  71.864  1.00  0.00    -0.601 NA 
HETATM    2  C   UNL     1     -13.759   8.379  72.045  1.00  0.00    -0.374 C  
HETATM    3  H2  UNL     1     -14.980   6.755  72.574  1.00  0.00     0.000 HD 
HETATM    4  H1  UNL     1     -14.256   6.843  70.925  1.00  0.00     0.000 HD 
HETATM    5  N   UNL     1     -13.962   8.867  73.288  1.00  0.00    -1.217 NA 
HETATM    6  N   UNL     1     -13.087   8.886  71.075  1.00  0.00    -0.519 NA 
HETATM    7  H1  UNL     1     -13.471   9.751  73.425  1.00  0.00     0.000 HD 
HETATM    8  H2  UNL     1     -14.533   8.411  73.998  1.00  0.00     0.000 HD 
HETATM    9  H   UNL     1     -13.007   8.419  70.172  1.00  0.00     0.000 HD 
ENDROOT
BRANCH   6  10
HETATM   10  C   UNL     1     -12.440  10.176  71.340  1.00  0.00    -0.423 C  
BRANCH  10  11
HETATM   11  C   UNL     1     -12.573  11.114  70.124  1.00  0.00    -0.178 C  
BRANCH  11  12
HETATM   12  N   UNL     1     -11.429  11.005  69.185  1.00  0.00    -0.273 NA 
HETATM   13  C   UNL     1     -11.014  12.313  68.661  1.00  0.00    -0.239 C  
HETATM   14  C   UNL     1     -10.194  12.269  67.365  1.00  0.00    -0.213 C  
HETATM   15  C   UNL     1     -10.679  11.228  66.351  1.00  0.00    -0.320 C  
HETATM   16  C   UNL     1      -9.849   9.942  66.327  1.00  0.00    -0.308 C  
HETATM   17  C   UNL     1      -9.915   9.053  67.572  1.00  0.00    -0.262 C  
HETATM   18  C   UNL     1      -9.298   9.675  68.831  1.00  0.00    -0.151 C  
HETATM   19  C   UNL     1     -10.325  10.265  69.810  1.00  0.00    -0.246 C  
ENDBRANCH  11  12
ENDBRANCH  10  11
ENDBRANCH   6  10
TORSDOF 3
ENDMDL
MODEL       55
REMARK 921   NORMALIZED FREE ENERGY PREDICTED BY IDOCK:   -4.43 KCAL/MOL
REMARK 922        TOTAL FREE ENERGY PREDICTED BY IDOCK:   -5.39 KCAL/MOL
REMARK 923 INTER-LIGAND FREE ENERGY PREDICTED BY IDOCK:   -5.14 KCAL/MOL
REMARK 924 INTRA-LIGAND FREE ENERGY PREDICTED BY IDOCK:   -0.25 KCAL/MOL
REMARK 927      BINDING AFFINITY PREDICTED BY RF-SCORE:    0.00 PKD
ROOT
HETATM    1  N   UNL     1     -11.844  10.690  68.411  1.00  0.00    -0.769 NA 
HETATM    2  C   UNL     1     -11.784  12.037  68.382  1.00  0.00    -0.332 C  
HETATM    3  H2  UNL     1     -11.715  10.127  69.251  1.00  0.00     0.000 HD 
HETATM    4  H1  UNL     1     -12.035  10.307  67.485  1.00  0.00     0.000 HD 
HETATM    5  N   UNL     1     -11.531  12.545  69.608  1.00  0.00    -0.456 NA 
HETATM    6  N   UNL     1     -11.988  12.656  67.275  1.00  0.00    -0.467 NA 
HETATM    7  H1  UNL     1     -11.486  13.564  69.586  1.00  0.00     0.000 HD 
HETATM    8  H2  UNL     1     -11.403  11.982  70.448  1.00  0.00     0.000 HD 
HETATM    9  H   UNL     1     -12.172  12.157  66.405  1.00  0.00     0.000 HD 
ENDROOT
BRANCH   6  10
HETATM   10  C   UNL     1     -11.942  14.121  67.334  1.00  0.00    -0.404 C  
BRANCH  10  11
HETATM   11  C   UNL     1     -10.820  14.669  66.430  1.00  0.00    -0.315 C  
BRANCH  11  12
HETATM   12  N   UNL     1     -10.111  15.826  67.032  1.00  0.00    -0.255 NA 
HETATM   13  C   UNL     1     -10.719  16.252  68.299  1.00  0.00    -0.322 C  
HETATM   14  C   UNL     1     -10.380  17.682  68.740  1.00  0.00    -0.348 C  
HETATM   15  C   UNL     1     -10.352  18.701  67.597  1.00  0.00    -0.455 C  
HETATM   16  C   UNL     1      -8.945  19.056  67.108  1.00  0.00    -0.310 C  
HETATM   17  C   UNL     1      -8.158  17.946  66.405  1.00  0.00    -0.296 C  
HETATM   18  C   UNL     1      -7.773  16.769  67.310  1.00  0.00    -0.200 C  
HETATM   19  C   UNL     1      -8.676  15.536  67.158  1.00  0.00    -0.211 C  
ENDBRANCH  11  12
ENDBRANCH  10  11
ENDBRANCH   6  10
TORSDOF 3
ENDMDL
MODEL       56
REMARK 921   NORMALIZED FREE ENERGY PREDICTED BY IDOCK:   -4.42 KCAL/MOL
REMARK 922        TOTAL FREE ENERGY PREDICTED BY IDOCK:   -5.38 KCAL/MOL
REMARK 923 INTER-LIGAND FREE ENERGY PREDICTED BY IDOCK:   -5.15 KCAL/MOL
REMARK 924 INTRA-LIGAND FREE ENERGY PREDICTED BY IDOCK:   -0.23 KCAL/MOL
REMARK 927      BINDING AFFINITY PREDICTED BY RF-SCORE:    0.00 PKD
ROOT
HETATM    1  N   UNL     1     -12.556  11.438  62.895  1.00  0.00    -0.847 NA 
HETATM    2  C   UNL     1     -12.024  12.469  63.584  1.00  0.00    -0.537 C  
HETATM    3  H2  UNL     1     -12.016  10.790  62.322  1.00  0.00     0.000 HD 
HETATM    4  H1  UNL     1     -13.567  11.389  63.022  1.00  0.00     0.000 HD 
HETATM    5  N   UNL     1     -10.686  12.533  63.416  1.00  0.00    -0.547 NA 
HETATM    6  N   UNL     1     -12.788  13.212  64.300  1.00  0.00    -0.664 NA 
HETATM    7  H1  UNL     1     -10.283  13.313  63.937  1.00  0.00     0.000 HD 
HETATM    8  H2  UNL     1     -10.146  11.885  62.843  1.00  0.00     0.000 HD 
HETATM    9  H   UNL     1     -13.795  13.062  64.348  1.00  0.00     0.000 HD 
ENDROOT
BRANCH   6  10
HETATM   10  C   UNL     1     -12.129  14.289  65.047  1.00  0.00    -0.425 C  
BRANCH  10  11
HETATM   11  C   UNL     1     -12.409  14.158  66.557  1.00  0.00    -0.372 C  
BRANCH  11  12
HETATM   12  N   UNL     1     -11.177  13.931  67.353  1.00  0.00    -0.301 NA 
HETATM   13  C   UNL     1     -11.040  14.896  68.451  1.00  0.00    -0.273 C  
HETATM   14  C   UNL     1      -9.621  15.053  69.013  1.00  0.00    -0.225 C  
HETATM   15  C   UNL     1      -8.520  15.041  67.947  1.00  0.00    -0.149 C  
HETATM   16  C   UNL     1      -7.782  13.705  67.824  1.00  0.00    -0.166 C  
HETATM   17  C   UNL     1      -8.589  12.517  67.291  1.00  0.00    -0.191 C  
HETATM   18  C   UNL     1      -9.716  12.047  68.218  1.00  0.00    -0.205 C  
HETATM   19  C   UNL     1     -11.113  12.536  67.809  1.00  0.00    -0.249 C  
ENDBRANCH  11  12
ENDBRANCH  10  11
ENDBRANCH   6  10
TORSDOF 3
ENDMDL
MODEL       57
REMARK 921   NORMALIZED FREE ENERGY PREDICTED BY IDOCK:   -4.40 KCAL/MOL
REMARK 922        TOTAL FREE ENERGY PREDICTED BY IDOCK:   -5.35 KCAL/MOL
REMARK 923 INTER-LIGAND FREE ENERGY PREDICTED BY IDOCK:   -5.02 KCAL/MOL
REMARK 924 INTRA-LIGAND FREE ENERGY PREDICTED BY IDOCK:   -0.33 KCAL/MOL
REMARK 927      BINDING AFFINITY PREDICTED BY RF-SCORE:    0.00 PKD
ROOT
HETATM    1  N   UNL     1     -10.780   7.629  66.931  1.00  0.00    -0.491 NA 
HETATM    2  C   UNL     1     -10.433   8.776  67.550  1.00  0.00    -0.271 C  
HETATM    3  H2  UNL     1     -10.131   6.871  66.720  1.00  0.00     0.000 HD 
HETATM    4  H1  UNL     1     -11.773   7.616  66.702  1.00  0.00     0.000 HD 
HETATM    5  N   UNL     1      -9.118   8.793  67.855  1.00  0.00    -0.139 NA 
HETATM    6  N   UNL     1     -11.333   9.659  67.796  1.00  0.00    -0.439 NA 
HETATM    7  H1  UNL     1      -8.856   9.661  68.323  1.00  0.00     0.000 HD 
HETATM    8  H2  UNL     1      -8.469   8.035  67.644  1.00  0.00     0.000 HD 
HETATM    9  H   UNL     1     -12.305   9.531  67.515  1.00  0.00     0.000 HD 
ENDROOT
BRANCH   6  10
HETATM   10  C   UNL     1     -10.884  10.862  68.506  1.00  0.00    -0.220 C  
BRANCH  10  11
HETATM   11  C   UNL     1     -11.860  11.223  69.642  1.00  0.00    -0.360 C  
BRANCH  11  12
HETATM   12  N   UNL     1     -12.024  10.127  70.629  1.00  0.00    -0.309 NA 
HETATM   13  C   UNL     1     -10.741   9.697  71.200  1.00  0.00    -0.294 C  
HETATM   14  C   UNL     1     -10.743   8.301  71.838  1.00  0.00    -0.350 C  
HETATM   15  C   UNL     1     -11.551   7.258  71.061  1.00  0.00    -0.329 C  
HETATM   16  C   UNL     1     -12.937   6.976  71.646  1.00  0.00    -0.400 C  
HETATM   17  C   UNL     1     -13.961   8.113  71.576  1.00  0.00    -0.417 C  
HETATM   18  C   UNL     1     -13.616   9.333  72.438  1.00  0.00    -0.527 C  
HETATM   19  C   UNL     1     -13.006  10.506  71.655  1.00  0.00    -0.476 C  
ENDBRANCH  11  12
ENDBRANCH  10  11
ENDBRANCH   6  10
TORSDOF 3
ENDMDL
MODEL       58
REMARK 921   NORMALIZED FREE ENERGY PREDICTED BY IDOCK:   -4.37 KCAL/MOL
REMARK 922        TOTAL FREE ENERGY PREDICTED BY IDOCK:   -5.33 KCAL/MOL
REMARK 923 INTER-LIGAND FREE ENERGY PREDICTED BY IDOCK:   -5.14 KCAL/MOL
REMARK 924 INTRA-LIGAND FREE ENERGY PREDICTED BY IDOCK:   -0.19 KCAL/MOL
REMARK 927      BINDING AFFINITY PREDICTED BY RF-SCORE:    0.00 PKD
ROOT
HETATM    1  N   UNL     1     -13.638  16.002  73.234  1.00  0.00    -0.711 NA 
HETATM    2  C   UNL     1     -13.245  14.724  73.057  1.00  0.00    -0.490 C  
HETATM    3  H2  UNL     1     -13.177  16.665  73.856  1.00  0.00     0.000 HD 
HETATM    4  H1  UNL     1     -14.457  16.221  72.665  1.00  0.00     0.000 HD 
HETATM    5  N   UNL     1     -12.162  14.434  73.810  1.00  0.00    -0.178 NA 
HETATM    6  N   UNL     1     -13.879  13.976  72.227  1.00  0.00    -0.514 NA 
HETATM    7  H1  UNL     1     -11.864  13.467  73.676  1.00  0.00     0.000 HD 
HETATM    8  H2  UNL     1     -11.700  15.097  74.431  1.00  0.00     0.000 HD 
HETATM    9  H   UNL     1     -14.691  14.311  71.711  1.00  0.00     0.000 HD 
ENDROOT
BRANCH   6  10
HETATM   10  C   UNL     1     -13.367  12.610  72.064  1.00  0.00    -0.454 C  
BRANCH  10  11
HETATM   11  C   UNL     1     -12.413  12.525  70.856  1.00  0.00    -0.269 C  
BRANCH  11  12
HETATM   12  N   UNL     1     -11.820  11.175  70.687  1.00  0.00    -0.337 NA 
HETATM   13  C   UNL     1     -12.698  10.115  71.198  1.00  0.00    -0.396 C  
HETATM   14  C   UNL     1     -12.004   8.781  71.506  1.00  0.00    -0.386 C  
HETATM   15  C   UNL     1     -10.626   8.927  72.158  1.00  0.00    -0.323 C  
HETATM   16  C   UNL     1      -9.452   8.738  71.193  1.00  0.00    -0.306 C  
HETATM   17  C   UNL     1      -9.273   9.804  70.107  1.00  0.00    -0.253 C  
HETATM   18  C   UNL     1     -10.396   9.844  69.064  1.00  0.00    -0.224 C  
HETATM   19  C   UNL     1     -11.424  10.963  69.288  1.00  0.00    -0.302 C  
ENDBRANCH  11  12
ENDBRANCH  10  11
ENDBRANCH   6  10
TORSDOF 3
ENDMDL
MODEL       59
REMARK 921   NORMALIZED FREE ENERGY PREDICTED BY IDOCK:   -4.37 KCAL/MOL
REMARK 922        TOTAL FREE ENERGY PREDICTED BY IDOCK:   -5.32 KCAL/MOL
REMARK 923 INTER-LIGAND FREE ENERGY PREDICTED BY IDOCK:   -5.13 KCAL/MOL
REMARK 924 INTRA-LIGAND FREE ENERGY PREDICTED BY IDOCK:   -0.19 KCAL/MOL
REMARK 927      BINDING AFFINITY PREDICTED BY RF-SCORE:    0.00 PKD
ROOT
HETATM    1  N   UNL     1     -11.483   6.344  67.843  1.00  0.00    -0.604 NA 
HETATM    2  C   UNL     1     -10.738   7.117  67.027  1.00  0.00    -0.350 C  
HETATM    3  H2  UNL     1     -11.518   5.326  67.798  1.00  0.00     0.000 HD 
HETATM    4  H1  UNL     1     -12.008   6.908  68.512  1.00  0.00     0.000 HD 
HETATM    5  N   UNL     1     -10.043   6.370  66.142  1.00  0.00    -0.404 NA 
HETATM    6  N   UNL     1     -10.742   8.392  67.184  1.00  0.00    -0.429 NA 
HETATM    7  H1  UNL     1      -9.478   6.954  65.525  1.00  0.00     0.000 HD 
HETATM    8  H2  UNL     1     -10.077   5.352  66.097  1.00  0.00     0.000 HD 
HETATM    9  H   UNL     1     -11.315   8.845  67.896  1.00  0.00     0.000 HD 
ENDROOT
BRANCH   6  10
HETATM   10  C   UNL     1      -9.877   9.159  66.281  1.00  0.00    -0.289 C  
BRANCH  10  11
HETATM   11  C   UNL     1      -9.606  10.566  66.848  1.00  0.00    -0.175 C  
BRANCH  11  12
HETATM   12  N   UNL     1     -10.106  11.648  65.963  1.00  0.00    -0.216 NA 
HETATM   13  C   UNL     1      -9.635  12.973  66.387  1.00  0.00    -0.257 C  
HETATM   14  C   UNL     1     -10.452  14.159  65.857  1.00  0.00    -0.313 C  
HETATM   15  C   UNL     1     -11.965  13.922  65.845  1.00  0.00    -0.429 C  
HETATM   16  C   UNL     1     -12.533  13.564  64.468  1.00  0.00    -0.344 C  
HETATM   17  C   UNL     1     -12.115  12.214  63.878  1.00  0.00    -0.584 C  
HETATM   18  C   UNL     1     -10.627  12.108  63.524  1.00  0.00    -0.501 C  
HETATM   19  C   UNL     1      -9.784  11.351  64.561  1.00  0.00    -0.233 C  
ENDBRANCH  11  12
ENDBRANCH  10  11
ENDBRANCH   6  10
TORSDOF 3
ENDMDL
MODEL       60
REMARK 921   NORMALIZED FREE ENERGY PREDICTED BY IDOCK:   -4.35 KCAL/MOL
REMARK 922        TOTAL FREE ENERGY PREDICTED BY IDOCK:   -5.30 KCAL/MOL
REMARK 923 INTER-LIGAND FREE ENERGY PREDICTED BY IDOCK:   -5.09 KCAL/MOL
REMARK 924 INTRA-LIGAND FREE ENERGY PREDICTED BY IDOCK:   -0.21 KCAL/MOL
REMARK 927      BINDING AFFINITY PREDICTED BY RF-SCORE:    0.00 PKD
ROOT
HETATM    1  N   UNL     1     -11.981  11.655  67.652  1.00  0.00    -0.625 NA 
HETATM    2  C   UNL     1     -11.638  12.728  66.911  1.00  0.00    -0.366 C  
HETATM    3  H2  UNL     1     -12.723  11.001  67.408  1.00  0.00     0.000 HD 
HETATM    4  H1  UNL     1     -11.401  11.580  68.488  1.00  0.00     0.000 HD 
HETATM    5  N   UNL     1     -12.405  12.826  65.803  1.00  0.00    -0.594 NA 
HETATM    6  N   UNL     1     -10.666  13.476  67.292  1.00  0.00    -0.266 NA 
HETATM    7  H1  UNL     1     -12.146  13.638  65.242  1.00  0.00     0.000 HD 
HETATM    8  H2  UNL     1     -13.148  12.172  65.559  1.00  0.00     0.000 HD 
HETATM    9  H   UNL     1     -10.156  13.298  68.157  1.00  0.00     0.000 HD 
ENDROOT
BRANCH   6  10
HETATM   10  C   UNL     1     -10.331  14.602  66.412  1.00  0.00    -0.289 C  
BRANCH  10  11
HETATM   11  C   UNL     1     -10.837  15.930  67.008  1.00  0.00    -0.252 C  
BRANCH  11  12
HETATM   12  N   UNL     1      -9.906  17.060  66.767  1.00  0.00    -0.266 NA 
HETATM   13  C   UNL     1      -8.675  16.630  66.092  1.00  0.00    -0.287 C  
HETATM   14  C   UNL     1      -7.484  17.588  66.227  1.00  0.00    -0.355 C  
HETATM   15  C   UNL     1      -7.340  18.217  67.617  1.00  0.00    -0.214 C  
HETATM   16  C   UNL     1      -7.861  19.653  67.712  1.00  0.00    -0.325 C  
HETATM   17  C   UNL     1      -9.372  19.851  67.560  1.00  0.00    -0.465 C  
HETATM   18  C   UNL     1      -9.919  19.524  66.165  1.00  0.00    -0.526 C  
HETATM   19  C   UNL     1     -10.594  18.148  66.060  1.00  0.00    -0.264 C  
ENDBRANCH  11  12
ENDBRANCH  10  11
ENDBRANCH   6  10
TORSDOF 3
ENDMDL
MODEL       61
REMARK 921   NORMALIZED FREE ENERGY PREDICTED BY IDOCK:   -4.34 KCAL/MOL
REMARK 922        TOTAL FREE ENERGY PREDICTED BY IDOCK:   -5.29 KCAL/MOL
REMARK 923 INTER-LIGAND FREE ENERGY PREDICTED BY IDOCK:   -5.08 KCAL/MOL
REMARK 924 INTRA-LIGAND FREE ENERGY PREDICTED BY IDOCK:   -0.21 KCAL/MOL
REMARK 927      BINDING AFFINITY PREDICTED BY RF-SCORE:    0.00 PKD
ROOT
HETATM    1  N   UNL     1      -8.810  20.432  66.036  1.00  0.00    -0.577 NA 
HETATM    2  C   UNL     1      -9.598  19.423  66.460  1.00  0.00    -0.370 C  
HETATM    3  H2  UNL     1      -8.877  21.393  66.370  1.00  0.00     0.000 HD 
HETATM    4  H1  UNL     1      -8.139  20.112  65.338  1.00  0.00     0.000 HD 
HETATM    5  N   UNL     1     -10.487  19.848  67.384  1.00  0.00    -0.420 NA 
HETATM    6  N   UNL     1      -9.414  18.239  65.996  1.00  0.00    -0.513 NA 
HETATM    7  H1  UNL     1     -11.083  19.084  67.705  1.00  0.00     0.000 HD 
HETATM    8  H2  UNL     1     -10.554  20.808  67.718  1.00  0.00     0.000 HD 
HETATM    9  H   UNL     1      -8.703  18.040  65.293  1.00  0.00     0.000 HD 
ENDROOT
BRANCH   6  10
HETATM   10  C   UNL     1     -10.287  17.190  66.534  1.00  0.00    -0.306 C  
BRANCH  10  11
HETATM   11  C   UNL     1     -10.656  16.170  65.438  1.00  0.00    -0.380 C  
BRANCH  11  12
HETATM   12  N   UNL     1     -10.457  14.765  65.871  1.00  0.00    -0.296 NA 
HETATM   13  C   UNL     1     -10.623  13.815  64.763  1.00  0.00    -0.428 C  
HETATM   14  C   UNL     1     -10.910  12.366  65.180  1.00  0.00    -0.333 C  
HETATM   15  C   UNL     1     -11.867  12.233  66.369  1.00  0.00    -0.382 C  
HETATM   16  C   UNL     1     -11.172  11.950  67.704  1.00  0.00    -0.340 C  
HETATM   17  C   UNL     1     -10.295  13.067  68.278  1.00  0.00    -0.256 C  
HETATM   18  C   UNL     1      -9.041  13.377  67.452  1.00  0.00    -0.216 C  
HETATM   19  C   UNL     1      -9.166  14.619  66.558  1.00  0.00    -0.266 C  
ENDBRANCH  11  12
ENDBRANCH  10  11
ENDBRANCH   6  10
TORSDOF 3
ENDMDL
MODEL       62
REMARK 921   NORMALIZED FREE ENERGY PREDICTED BY IDOCK:   -4.33 KCAL/MOL
REMARK 922        TOTAL FREE ENERGY PREDICTED BY IDOCK:   -5.27 KCAL/MOL
REMARK 923 INTER-LIGAND FREE ENERGY PREDICTED BY IDOCK:   -5.08 KCAL/MOL
REMARK 924 INTRA-LIGAND FREE ENERGY PREDICTED BY IDOCK:   -0.19 KCAL/MOL
REMARK 927      BINDING AFFINITY PREDICTED BY RF-SCORE:    0.00 PKD
ROOT
HETATM    1  N   UNL     1     -13.872  16.120  73.593  1.00  0.00    -0.755 NA 
HETATM    2  C   UNL     1     -13.672  15.334  72.515  1.00  0.00    -0.526 C  
HETATM    3  H2  UNL     1     -14.193  15.782  74.500  1.00  0.00     0.000 HD 
HETATM    4  H1  UNL     1     -13.662  17.096  73.385  1.00  0.00     0.000 HD 
HETATM    5  N   UNL     1     -13.951  14.042  72.791  1.00  0.00    -0.644 NA 
HETATM    6  N   UNL     1     -13.239  15.855  71.424  1.00  0.00    -0.531 NA 
HETATM    7  H1  UNL     1     -13.799  13.447  71.976  1.00  0.00     0.000 HD 
HETATM    8  H2  UNL     1     -14.271  13.703  73.698  1.00  0.00     0.000 HD 
HETATM    9  H   UNL     1     -13.064  16.855  71.337  1.00  0.00     0.000 HD 
ENDROOT
BRANCH   6  10
HETATM   10  C   UNL     1     -13.012  14.928  70.310  1.00  0.00    -0.150 C  
BRANCH  10  11
HETATM   11  C   UNL     1     -11.514  14.593  70.174  1.00  0.00    -0.259 C  
BRANCH  11  12
HETATM   12  N   UNL     1     -10.962  14.953  68.844  1.00  0.00    -0.240 NA 
HETATM   13  C   UNL     1     -11.524  14.127  67.768  1.00  0.00    -0.325 C  
HETATM   14  C   UNL     1     -10.699  14.085  66.475  1.00  0.00    -0.281 C  
HETATM   15  C   UNL     1      -9.186  14.012  66.699  1.00  0.00    -0.262 C  
HETATM   16  C   UNL     1      -8.461  15.350  66.524  1.00  0.00    -0.248 C  
HETATM   17  C   UNL     1      -8.763  16.440  67.556  1.00  0.00    -0.188 C  
HETATM   18  C   UNL     1     -10.200  16.974  67.514  1.00  0.00    -0.323 C  
HETATM   19  C   UNL     1     -11.120  16.393  68.598  1.00  0.00    -0.352 C  
ENDBRANCH  11  12
ENDBRANCH  10  11
ENDBRANCH   6  10
TORSDOF 3
ENDMDL
MODEL       63
REMARK 921   NORMALIZED FREE ENERGY PREDICTED BY IDOCK:   -4.32 KCAL/MOL
REMARK 922        TOTAL FREE ENERGY PREDICTED BY IDOCK:   -5.27 KCAL/MOL
REMARK 923 INTER-LIGAND FREE ENERGY PREDICTED BY IDOCK:   -5.03 KCAL/MOL
REMARK 924 INTRA-LIGAND FREE ENERGY PREDICTED BY IDOCK:   -0.24 KCAL/MOL
REMARK 927      BINDING AFFINITY PREDICTED BY RF-SCORE:    0.00 PKD
ROOT
HETATM    1  N   UNL     1      -8.172  20.351  66.304  1.00  0.00    -0.542 NA 
HETATM    2  C   UNL     1      -8.342  19.116  66.818  1.00  0.00    -0.293 C  
HETATM    3  H2  UNL     1      -8.098  21.201  66.862  1.00  0.00     0.000 HD 
HETATM    4  H1  UNL     1      -8.127  20.326  65.285  1.00  0.00     0.000 HD 
HETATM    5  N   UNL     1      -8.402  19.149  68.167  1.00  0.00    -0.304 NA 
HETATM    6  N   UNL     1      -8.396  18.104  66.029  1.00  0.00    -0.514 NA 
HETATM    7  H1  UNL     1      -8.530  18.214  68.556  1.00  0.00     0.000 HD 
HETATM    8  H2  UNL     1      -8.327  19.998  68.725  1.00  0.00     0.000 HD 
HETATM    9  H   UNL     1      -8.338  18.206  65.016  1.00  0.00     0.000 HD 
ENDROOT
BRANCH   6  10
HETATM   10  C   UNL     1      -8.545  16.791  66.668  1.00  0.00    -0.252 C  
BRANCH  10  11
HETATM   11  C   UNL     1      -9.341  15.830  65.763  1.00  0.00    -0.263 C  
BRANCH  11  12
HETATM   12  N   UNL     1     -10.441  15.142  66.482  1.00  0.00    -0.284 NA 
HETATM   13  C   UNL     1     -10.922  15.918  67.633  1.00  0.00    -0.298 C  
HETATM   14  C   UNL     1     -11.691  15.114  68.690  1.00  0.00    -0.364 C  
HETATM   15  C   UNL     1     -11.103  13.728  68.973  1.00  0.00    -0.296 C  
HETATM   16  C   UNL     1     -11.846  12.579  68.286  1.00  0.00    -0.361 C  
HETATM   17  C   UNL     1     -11.766  12.521  66.758  1.00  0.00    -0.453 C  
HETATM   18  C   UNL     1     -12.466  13.680  66.040  1.00  0.00    -0.477 C  
HETATM   19  C   UNL     1     -11.516  14.782  65.548  1.00  0.00    -0.329 C  
ENDBRANCH  11  12
ENDBRANCH  10  11
ENDBRANCH   6  10
TORSDOF 3
ENDMDL
MODEL       64
REMARK 921   NORMALIZED FREE ENERGY PREDICTED BY IDOCK:   -4.29 KCAL/MOL
REMARK 922        TOTAL FREE ENERGY PREDICTED BY IDOCK:   -5.23 KCAL/MOL
REMARK 923 INTER-LIGAND FREE ENERGY PREDICTED BY IDOCK:   -5.03 KCAL/MOL
REMARK 924 INTRA-LIGAND FREE ENERGY PREDICTED BY IDOCK:   -0.21 KCAL/MOL
REMARK 927      BINDING AFFINITY PREDICTED BY RF-SCORE:    0.00 PKD
ROOT
HETATM    1  N   UNL     1     -14.117   7.158  72.042  1.00  0.00    -0.594 NA 
HETATM    2  C   UNL     1     -13.558   8.379  71.913  1.00  0.00    -0.379 C  
HETATM    3  H2  UNL     1     -14.771   6.901  72.780  1.00  0.00     0.000 HD 
HETATM    4  H1  UNL     1     -13.801   6.526  71.307  1.00  0.00     0.000 HD 
HETATM    5  N   UNL     1     -13.977   9.217  72.886  1.00  0.00    -1.053 NA 
HETATM    6  N   UNL     1     -12.766   8.611  70.929  1.00  0.00    -0.490 NA 
HETATM    7  H1  UNL     1     -13.555  10.141  72.788  1.00  0.00     0.000 HD 
HETATM    8  H2  UNL     1     -14.631   8.959  73.624  1.00  0.00     0.000 HD 
HETATM    9  H   UNL     1     -12.523   7.890  70.251  1.00  0.00     0.000 HD 
ENDROOT
BRANCH   6  10
HETATM   10  C   UNL     1     -12.229   9.974  70.838  1.00  0.00    -0.346 C  
BRANCH  10  11
HETATM   11  C   UNL     1     -10.772   9.954  70.335  1.00  0.00    -0.318 C  
BRANCH  11  12
HETATM   12  N   UNL     1     -10.544  10.880  69.198  1.00  0.00    -0.212 NA 
HETATM   13  C   UNL     1      -9.155  10.841  68.721  1.00  0.00    -0.178 C  
HETATM   14  C   UNL     1      -8.708  12.062  67.904  1.00  0.00    -0.170 C  
HETATM   15  C   UNL     1      -9.230  13.399  68.440  1.00  0.00    -0.149 C  
HETATM   16  C   UNL     1     -10.432  13.956  67.672  1.00  0.00    -0.245 C  
HETATM   17  C   UNL     1     -11.744  13.172  67.781  1.00  0.00    -0.401 C  
HETATM   18  C   UNL     1     -11.710  11.783  67.134  1.00  0.00    -0.267 C  
HETATM   19  C   UNL     1     -11.521  10.629  68.130  1.00  0.00    -0.228 C  
ENDBRANCH  11  12
ENDBRANCH  10  11
ENDBRANCH   6  10
TORSDOF 3
ENDMDL
MODEL       65
REMARK 921   NORMALIZED FREE ENERGY PREDICTED BY IDOCK:   -4.28 KCAL/MOL
REMARK 922        TOTAL FREE ENERGY PREDICTED BY IDOCK:   -5.22 KCAL/MOL
REMARK 923 INTER-LIGAND FREE ENERGY PREDICTED BY IDOCK:   -4.84 KCAL/MOL
REMARK 924 INTRA-LIGAND FREE ENERGY PREDICTED BY IDOCK:   -0.38 KCAL/MOL
REMARK 927      BINDING AFFINITY PREDICTED BY RF-SCORE:    0.00 PKD
ROOT
HETATM    1  N   UNL     1      -8.124  14.719  69.457  1.00  0.00    -0.403 NA 
HETATM    2  C   UNL     1      -8.393  14.683  68.135  1.00  0.00    -0.144 C  
HETATM    3  H2  UNL     1      -7.724  13.943  69.983  1.00  0.00     0.000 HD 
HETATM    4  H1  UNL     1      -8.372  15.622  69.862  1.00  0.00     0.000 HD 
HETATM    5  N   UNL     1      -8.065  13.487  67.599  1.00  0.00    -0.166 NA 
HETATM    6  N   UNL     1      -8.872  15.726  67.559  1.00  0.00    -0.184 NA 
HETATM    7  H1  UNL     1      -8.268  13.460  66.600  1.00  0.00     0.000 HD 
HETATM    8  H2  UNL     1      -7.665  12.712  68.126  1.00  0.00     0.000 HD 
HETATM    9  H   UNL     1      -9.080  16.580  68.075  1.00  0.00     0.000 HD 
ENDROOT
BRANCH   6  10
HETATM   10  C   UNL     1      -9.102  15.619  66.113  1.00  0.00    -0.342 C  
BRANCH  10  11
HETATM   11  C   UNL     1     -10.609  15.507  65.807  1.00  0.00    -0.356 C  
BRANCH  11  12
HETATM   12  N   UNL     1     -11.024  14.125  65.460  1.00  0.00    -0.300 NA 
HETATM   13  C   UNL     1     -11.580  13.407  66.614  1.00  0.00    -0.362 C  
HETATM   14  C   UNL     1     -11.589  11.877  66.492  1.00  0.00    -0.328 C  
HETATM   15  C   UNL     1     -10.331  11.294  65.841  1.00  0.00    -0.304 C  
HETATM   16  C   UNL     1     -10.508  10.910  64.369  1.00  0.00    -0.403 C  
HETATM   17  C   UNL     1     -10.732  12.056  63.378  1.00  0.00    -0.475 C  
HETATM   18  C   UNL     1     -12.059  12.803  63.559  1.00  0.00    -0.642 C  
HETATM   19  C   UNL     1     -11.933  14.140  64.306  1.00  0.00    -0.435 C  
ENDBRANCH  11  12
ENDBRANCH  10  11
ENDBRANCH   6  10
TORSDOF 3
ENDMDL
MODEL       66
REMARK 921   NORMALIZED FREE ENERGY PREDICTED BY IDOCK:   -4.28 KCAL/MOL
REMARK 922        TOTAL FREE ENERGY PREDICTED BY IDOCK:   -5.21 KCAL/MOL
REMARK 923 INTER-LIGAND FREE ENERGY PREDICTED BY IDOCK:   -4.98 KCAL/MOL
REMARK 924 INTRA-LIGAND FREE ENERGY PREDICTED BY IDOCK:   -0.24 KCAL/MOL
REMARK 927      BINDING AFFINITY PREDICTED BY RF-SCORE:    0.00 PKD
ROOT
HETATM    1  N   UNL     1     -12.123  10.082  69.708  1.00  0.00    -0.480 NA 
HETATM    2  C   UNL     1     -11.458  10.882  68.850  1.00  0.00    -0.300 C  
HETATM    3  H2  UNL     1     -11.782   9.821  70.633  1.00  0.00     0.000 HD 
HETATM    4  H1  UNL     1     -13.011   9.771  69.314  1.00  0.00     0.000 HD 
HETATM    5  N   UNL     1     -10.282  11.294  69.372  1.00  0.00    -0.435 NA 
HETATM    6  N   UNL     1     -11.988  11.173  67.717  1.00  0.00    -0.652 NA 
HETATM    7  H1  UNL     1      -9.779  11.899  68.723  1.00  0.00     0.000 HD 
HETATM    8  H2  UNL     1      -9.941  11.033  70.297  1.00  0.00     0.000 HD 
HETATM    9  H   UNL     1     -12.891  10.797  67.431  1.00  0.00     0.000 HD 
ENDROOT
BRANCH   6  10
HETATM   10  C   UNL     1     -11.218  12.079  66.856  1.00  0.00    -0.320 C  
BRANCH  10  11
HETATM   11  C   UNL     1     -11.909  13.453  66.752  1.00  0.00    -0.403 C  
BRANCH  11  12
HETATM   12  N   UNL     1     -11.009  14.577  67.110  1.00  0.00    -0.296 NA 
HETATM   13  C   UNL     1     -10.675  14.587  68.540  1.00  0.00    -0.250 C  
HETATM   14  C   UNL     1     -10.169  15.929  69.086  1.00  0.00    -0.234 C  
HETATM   15  C   UNL     1     -10.906  17.150  68.529  1.00  0.00    -0.281 C  
HETATM   16  C   UNL     1     -10.149  17.888  67.421  1.00  0.00    -0.341 C  
HETATM   17  C   UNL     1      -9.966  17.143  66.095  1.00  0.00    -0.296 C  
HETATM   18  C   UNL     1      -9.061  15.909  66.179  1.00  0.00    -0.385 C  
HETATM   19  C   UNL     1      -9.820  14.575  66.247  1.00  0.00    -0.304 C  
ENDBRANCH  11  12
ENDBRANCH  10  11
ENDBRANCH   6  10
TORSDOF 3
ENDMDL
MODEL       67
REMARK 921   NORMALIZED FREE ENERGY PREDICTED BY IDOCK:   -4.27 KCAL/MOL
REMARK 922        TOTAL FREE ENERGY PREDICTED BY IDOCK:   -5.21 KCAL/MOL
REMARK 923 INTER-LIGAND FREE ENERGY PREDICTED BY IDOCK:   -5.04 KCAL/MOL
REMARK 924 INTRA-LIGAND FREE ENERGY PREDICTED BY IDOCK:   -0.17 KCAL/MOL
REMARK 927      BINDING AFFINITY PREDICTED BY RF-SCORE:    0.00 PKD
ROOT
HETATM    1  N   UNL     1     -10.670  12.097  65.812  1.00  0.00    -0.258 NA 
HETATM    2  C   UNL     1     -10.249  13.355  65.568  1.00  0.00    -0.290 C  
HETATM    3  H2  UNL     1     -10.977  11.444  65.091  1.00  0.00     0.000 HD 
HETATM    4  H1  UNL     1     -10.643  11.882  66.808  1.00  0.00     0.000 HD 
HETATM    5  N   UNL     1     -10.285  13.639  64.248  1.00  0.00    -0.753 NA 
HETATM    6  N   UNL     1      -9.855  14.090  66.545  1.00  0.00    -0.281 NA 
HETATM    7  H1  UNL     1      -9.966  14.591  64.064  1.00  0.00     0.000 HD 
HETATM    8  H2  UNL     1     -10.592  12.986  63.528  1.00  0.00     0.000 HD 
HETATM    9  H   UNL     1      -9.874  13.761  67.509  1.00  0.00     0.000 HD 
ENDROOT
BRANCH   6  10
HETATM   10  C   UNL     1      -9.377  15.432  66.194  1.00  0.00    -0.332 C  
BRANCH  10  11
HETATM   11  C   UNL     1     -10.479  16.484  66.427  1.00  0.00    -0.274 C  
BRANCH  11  12
HETATM   12  N   UNL     1      -9.937  17.805  66.833  1.00  0.00    -0.317 NA 
HETATM   13  C   UNL     1     -10.347  18.877  65.918  1.00  0.00    -0.355 C  
HETATM   14  C   UNL     1      -9.482  20.144  65.963  1.00  0.00    -0.345 C  
HETATM   15  C   UNL     1      -7.980  19.872  66.098  1.00  0.00    -0.345 C  
HETATM   16  C   UNL     1      -7.436  20.057  67.517  1.00  0.00    -0.322 C  
HETATM   17  C   UNL     1      -7.915  19.059  68.576  1.00  0.00    -0.381 C  
HETATM   18  C   UNL     1      -9.408  19.157  68.912  1.00  0.00    -0.391 C  
HETATM   19  C   UNL     1     -10.278  18.088  68.233  1.00  0.00    -0.395 C  
ENDBRANCH  11  12
ENDBRANCH  10  11
ENDBRANCH   6  10
TORSDOF 3
ENDMDL
MODEL       68
REMARK 921   NORMALIZED FREE ENERGY PREDICTED BY IDOCK:   -4.27 KCAL/MOL
REMARK 922        TOTAL FREE ENERGY PREDICTED BY IDOCK:   -5.20 KCAL/MOL
REMARK 923 INTER-LIGAND FREE ENERGY PREDICTED BY IDOCK:   -5.01 KCAL/MOL
REMARK 924 INTRA-LIGAND FREE ENERGY PREDICTED BY IDOCK:   -0.19 KCAL/MOL
REMARK 927      BINDING AFFINITY PREDICTED BY RF-SCORE:    0.00 PKD
ROOT
HETATM    1  N   UNL     1     -10.002  12.670  65.327  1.00  0.00    -0.416 NA 
HETATM    2  C   UNL     1     -10.848  11.983  66.122  1.00  0.00    -0.286 C  
HETATM    3  H2  UNL     1     -10.298  13.319  64.598  1.00  0.00     0.000 HD 
HETATM    4  H1  UNL     1      -9.029  12.458  65.548  1.00  0.00     0.000 HD 
HETATM    5  N   UNL     1     -12.136  12.265  65.830  1.00  0.00    -0.603 NA 
HETATM    6  N   UNL     1     -10.373  11.210  67.031  1.00  0.00    -0.214 NA 
HETATM    7  H1  UNL     1     -12.776  11.745  66.431  1.00  0.00     0.000 HD 
HETATM    8  H2  UNL     1     -12.432  12.914  65.101  1.00  0.00     0.000 HD 
HETATM    9  H   UNL     1      -9.370  11.078  67.157  1.00  0.00     0.000 HD 
ENDROOT
BRANCH   6  10
HETATM   10  C   UNL     1     -11.357  10.527  67.879  1.00  0.00    -0.222 C  
BRANCH  10  11
HETATM   11  C   UNL     1     -11.376  11.136  69.295  1.00  0.00    -0.281 C  
BRANCH  11  12
HETATM   12  N   UNL     1     -11.724  10.144  70.342  1.00  0.00    -0.289 NA 
HETATM   13  C   UNL     1     -10.534   9.572  70.983  1.00  0.00    -0.306 C  
HETATM   14  C   UNL     1     -10.757   8.237  71.708  1.00  0.00    -0.332 C  
HETATM   15  C   UNL     1     -11.690   7.272  70.970  1.00  0.00    -0.340 C  
HETATM   16  C   UNL     1     -13.117   7.235  71.524  1.00  0.00    -0.434 C  
HETATM   17  C   UNL     1     -13.960   8.502  71.346  1.00  0.00    -0.331 C  
HETATM   18  C   UNL     1     -13.460   9.714  72.141  1.00  0.00    -0.516 C  
HETATM   19  C   UNL     1     -12.665  10.730  71.307  1.00  0.00    -0.441 C  
ENDBRANCH  11  12
ENDBRANCH  10  11
ENDBRANCH   6  10
TORSDOF 3
ENDMDL
MODEL       69
REMARK 921   NORMALIZED FREE ENERGY PREDICTED BY IDOCK:   -4.19 KCAL/MOL
REMARK 922        TOTAL FREE ENERGY PREDICTED BY IDOCK:   -5.11 KCAL/MOL
REMARK 923 INTER-LIGAND FREE ENERGY PREDICTED BY IDOCK:   -4.93 KCAL/MOL
REMARK 924 INTRA-LIGAND FREE ENERGY PREDICTED BY IDOCK:   -0.18 KCAL/MOL
REMARK 927      BINDING AFFINITY PREDICTED BY RF-SCORE:    0.00 PKD
ROOT
HETATM    1  N   UNL     1     -14.009  16.000  72.982  1.00  0.00    -0.594 NA 
HETATM    2  C   UNL     1     -13.088  15.677  72.051  1.00  0.00    -0.459 C  
HETATM    3  H2  UNL     1     -13.807  16.116  73.975  1.00  0.00     0.000 HD 
HETATM    4  H1  UNL     1     -14.933  16.115  72.566  1.00  0.00     0.000 HD 
HETATM    5  N   UNL     1     -11.864  15.525  72.602  1.00  0.00    -0.439 NA 
HETATM    6  N   UNL     1     -13.439  15.583  70.819  1.00  0.00    -0.809 NA 
HETATM    7  H1  UNL     1     -11.167  15.281  71.899  1.00  0.00     0.000 HD 
HETATM    8  H2  UNL     1     -11.662  15.640  73.595  1.00  0.00     0.000 HD 
HETATM    9  H   UNL     1     -14.404  15.722  70.522  1.00  0.00     0.000 HD 
ENDROOT
BRANCH   6  10
HETATM   10  C   UNL     1     -12.372  15.264  69.864  1.00  0.00    -0.288 C  
BRANCH  10  11
HETATM   11  C   UNL     1     -12.278  13.742  69.638  1.00  0.00    -0.305 C  
BRANCH  11  12
HETATM   12  N   UNL     1     -11.422  13.385  68.479  1.00  0.00    -0.287 NA 
HETATM   13  C   UNL     1     -11.901  12.183  67.785  1.00  0.00    -0.257 C  
HETATM   14  C   UNL     1     -10.861  11.474  66.908  1.00  0.00    -0.331 C  
HETATM   15  C   UNL     1      -9.458  11.419  67.521  1.00  0.00    -0.173 C  
HETATM   16  C   UNL     1      -8.486  12.459  66.956  1.00  0.00    -0.170 C  
HETATM   17  C   UNL     1      -8.785  13.927  67.273  1.00  0.00    -0.225 C  
HETATM   18  C   UNL     1     -10.067  14.469  66.629  1.00  0.00    -0.275 C  
HETATM   19  C   UNL     1     -11.269  14.538  67.582  1.00  0.00    -0.322 C  
ENDBRANCH  11  12
ENDBRANCH  10  11
ENDBRANCH   6  10
TORSDOF 3
ENDMDL
MODEL       70
REMARK 921   NORMALIZED FREE ENERGY PREDICTED BY IDOCK:   -4.19 KCAL/MOL
REMARK 922        TOTAL FREE ENERGY PREDICTED BY IDOCK:   -5.11 KCAL/MOL
REMARK 923 INTER-LIGAND FREE ENERGY PREDICTED BY IDOCK:   -4.88 KCAL/MOL
REMARK 924 INTRA-LIGAND FREE ENERGY PREDICTED BY IDOCK:   -0.23 KCAL/MOL
REMARK 927      BINDING AFFINITY PREDICTED BY RF-SCORE:    0.00 PKD
ROOT
HETATM    1  N   UNL     1     -12.098  10.115  69.649  1.00  0.00    -0.496 NA 
HETATM    2  C   UNL     1     -11.412  10.936  68.828  1.00  0.00    -0.308 C  
HETATM    3  H2  UNL     1     -11.786   9.842  70.580  1.00  0.00     0.000 HD 
HETATM    4  H1  UNL     1     -12.968   9.802  69.219  1.00  0.00     0.000 HD 
HETATM    5  N   UNL     1     -10.259  11.351  69.397  1.00  0.00    -0.433 NA 
HETATM    6  N   UNL     1     -11.905  11.242  67.682  1.00  0.00    -0.627 NA 
HETATM    7  H1  UNL     1      -9.740  11.972  68.777  1.00  0.00     0.000 HD 
HETATM    8  H2  UNL     1      -9.948  11.078  70.329  1.00  0.00     0.000 HD 
HETATM    9  H   UNL     1     -12.794  10.862  67.359  1.00  0.00     0.000 HD 
ENDROOT
BRANCH   6  10
HETATM   10  C   UNL     1     -11.116  12.169  66.864  1.00  0.00    -0.297 C  
BRANCH  10  11
HETATM   11  C   UNL     1     -11.831  13.529  66.734  1.00  0.00    -0.406 C  
BRANCH  11  12
HETATM   12  N   UNL     1     -10.997  14.664  67.201  1.00  0.00    -0.307 NA 
HETATM   13  C   UNL     1     -10.621  15.564  66.103  1.00  0.00    -0.315 C  
HETATM   14  C   UNL     1      -9.406  16.461  66.378  1.00  0.00    -0.322 C  
HETATM   15  C   UNL     1      -8.272  15.765  67.137  1.00  0.00    -0.237 C  
HETATM   16  C   UNL     1      -8.222  16.096  68.631  1.00  0.00    -0.202 C  
HETATM   17  C   UNL     1      -9.381  15.583  69.491  1.00  0.00    -0.276 C  
HETATM   18  C   UNL     1     -10.737  16.228  69.181  1.00  0.00    -0.305 C  
HETATM   19  C   UNL     1     -11.661  15.364  68.309  1.00  0.00    -0.348 C  
ENDBRANCH  11  12
ENDBRANCH  10  11
ENDBRANCH   6  10
TORSDOF 3
ENDMDL
MODEL       71
REMARK 921   NORMALIZED FREE ENERGY PREDICTED BY IDOCK:   -4.18 KCAL/MOL
REMARK 922        TOTAL FREE ENERGY PREDICTED BY IDOCK:   -5.10 KCAL/MOL
REMARK 923 INTER-LIGAND FREE ENERGY PREDICTED BY IDOCK:   -4.82 KCAL/MOL
REMARK 924 INTRA-LIGAND FREE ENERGY PREDICTED BY IDOCK:   -0.29 KCAL/MOL
REMARK 927      BINDING AFFINITY PREDICTED BY RF-SCORE:    0.00 PKD
ROOT
HETATM    1  N   UNL     1      -9.769   7.652  66.216  1.00  0.00    -0.431 NA 
HETATM    2  C   UNL     1      -9.624   8.971  65.975  1.00  0.00    -0.272 C  
HETATM    3  H2  UNL     1      -9.885   7.246  67.144  1.00  0.00     0.000 HD 
HETATM    4  H1  UNL     1      -9.748   7.111  65.351  1.00  0.00     0.000 HD 
HETATM    5  N   UNL     1      -9.652   9.686  67.120  1.00  0.00    -0.161 NA 
HETATM    6  N   UNL     1      -9.513   9.384  64.764  1.00  0.00    -0.446 NA 
HETATM    7  H1  UNL     1      -9.542  10.684  66.938  1.00  0.00     0.000 HD 
HETATM    8  H2  UNL     1      -9.768   9.280  68.048  1.00  0.00     0.000 HD 
HETATM    9  H   UNL     1      -9.505   8.740  63.973  1.00  0.00     0.000 HD 
ENDROOT
BRANCH   6  10
HETATM   10  C   UNL     1      -9.396  10.835  64.583  1.00  0.00    -0.233 C  
BRANCH  10  11
HETATM   11  C   UNL     1     -10.673  11.410  63.938  1.00  0.00    -0.397 C  
BRANCH  11  12
HETATM   12  N   UNL     1     -11.175  12.619  64.637  1.00  0.00    -0.298 NA 
HETATM   13  C   UNL     1     -12.043  13.436  63.779  1.00  0.00    -0.456 C  
HETATM   14  C   UNL     1     -12.215  14.895  64.222  1.00  0.00    -0.365 C  
HETATM   15  C   UNL     1     -10.932  15.547  64.747  1.00  0.00    -0.416 C  
HETATM   16  C   UNL     1     -10.847  15.621  66.274  1.00  0.00    -0.262 C  
HETATM   17  C   UNL     1     -10.717  14.292  67.024  1.00  0.00    -0.290 C  
HETATM   18  C   UNL     1     -11.950  13.385  66.928  1.00  0.00    -0.437 C  
HETATM   19  C   UNL     1     -11.816  12.246  65.906  1.00  0.00    -0.354 C  
ENDBRANCH  11  12
ENDBRANCH  10  11
ENDBRANCH   6  10
TORSDOF 3
ENDMDL
MODEL       72
REMARK 921   NORMALIZED FREE ENERGY PREDICTED BY IDOCK:   -4.18 KCAL/MOL
REMARK 922        TOTAL FREE ENERGY PREDICTED BY IDOCK:   -5.10 KCAL/MOL
REMARK 923 INTER-LIGAND FREE ENERGY PREDICTED BY IDOCK:   -4.89 KCAL/MOL
REMARK 924 INTRA-LIGAND FREE ENERGY PREDICTED BY IDOCK:   -0.21 KCAL/MOL
REMARK 927      BINDING AFFINITY PREDICTED BY RF-SCORE:    0.00 PKD
ROOT
HETATM    1  N   UNL     1     -13.000  13.613  64.989  1.00  0.00    -0.744 NA 
HETATM    2  C   UNL     1     -12.186  12.843  64.238  1.00  0.00    -0.410 C  
HETATM    3  H2  UNL     1     -14.005  13.699  64.843  1.00  0.00     0.000 HD 
HETATM    4  H1  UNL     1     -12.481  14.098  65.721  1.00  0.00     0.000 HD 
HETATM    5  N   UNL     1     -12.872  12.201  63.269  1.00  0.00    -0.820 NA 
HETATM    6  N   UNL     1     -10.935  12.781  64.522  1.00  0.00    -0.321 NA 
HETATM    7  H1  UNL     1     -12.257  11.618  62.701  1.00  0.00     0.000 HD 
HETATM    8  H2  UNL     1     -13.878  12.287  63.123  1.00  0.00     0.000 HD 
HETATM    9  H   UNL     1     -10.528  13.318  65.287  1.00  0.00     0.000 HD 
ENDROOT
BRANCH   6  10
HETATM   10  C   UNL     1     -10.123  11.893  63.682  1.00  0.00    -0.426 C  
BRANCH  10  11
HETATM   11  C   UNL     1      -9.862  10.552  64.397  1.00  0.00    -0.341 C  
BRANCH  11  12
HETATM   12  N   UNL     1      -9.852  10.681  65.875  1.00  0.00    -0.230 NA 
HETATM   13  C   UNL     1     -10.227   9.429  66.544  1.00  0.00    -0.238 C  
HETATM   14  C   UNL     1     -10.703   9.578  67.995  1.00  0.00    -0.266 C  
HETATM   15  C   UNL     1     -11.595  10.799  68.240  1.00  0.00    -0.297 C  
HETATM   16  C   UNL     1     -10.872  11.984  68.885  1.00  0.00    -0.252 C  
HETATM   17  C   UNL     1      -9.803  12.684  68.040  1.00  0.00    -0.218 C  
HETATM   18  C   UNL     1      -8.568  11.826  67.739  1.00  0.00    -0.151 C  
HETATM   19  C   UNL     1      -8.559  11.207  66.333  1.00  0.00    -0.172 C  
ENDBRANCH  11  12
ENDBRANCH  10  11
ENDBRANCH   6  10
TORSDOF 3
ENDMDL
MODEL       73
REMARK 921   NORMALIZED FREE ENERGY PREDICTED BY IDOCK:   -4.18 KCAL/MOL
REMARK 922        TOTAL FREE ENERGY PREDICTED BY IDOCK:   -5.10 KCAL/MOL
REMARK 923 INTER-LIGAND FREE ENERGY PREDICTED BY IDOCK:   -4.93 KCAL/MOL
REMARK 924 INTRA-LIGAND FREE ENERGY PREDICTED BY IDOCK:   -0.17 KCAL/MOL
REMARK 927      BINDING AFFINITY PREDICTED BY RF-SCORE:    0.00 PKD
ROOT
HETATM    1  N   UNL     1     -13.335  15.051  70.429  1.00  0.00    -0.658 NA 
HETATM    2  C   UNL     1     -12.068  15.465  70.220  1.00  0.00    -0.369 C  
HETATM    3  H2  UNL     1     -13.597  14.301  71.068  1.00  0.00     0.000 HD 
HETATM    4  H1  UNL     1     -13.998  15.584  69.866  1.00  0.00     0.000 HD 
HETATM    5  N   UNL     1     -11.191  14.759  70.966  1.00  0.00    -0.532 NA 
HETATM    6  N   UNL     1     -11.846  16.439  69.413  1.00  0.00    -0.193 NA 
HETATM    7  H1  UNL     1     -10.233  15.072  70.809  1.00  0.00     0.000 HD 
HETATM    8  H2  UNL     1     -11.453  14.010  71.606  1.00  0.00     0.000 HD 
HETATM    9  H   UNL     1     -12.599  16.898  68.902  1.00  0.00     0.000 HD 
ENDROOT
BRANCH   6  10
HETATM   10  C   UNL     1     -10.446  16.854  69.269  1.00  0.00    -0.319 C  
BRANCH  10  11
HETATM   11  C   UNL     1     -10.309  17.949  68.193  1.00  0.00    -0.389 C  
BRANCH  11  12
HETATM   12  N   UNL     1      -8.908  18.402  68.009  1.00  0.00    -0.280 NA 
HETATM   13  C   UNL     1      -7.945  17.505  68.661  1.00  0.00    -0.268 C  
HETATM   14  C   UNL     1      -6.564  18.116  68.938  1.00  0.00    -0.243 C  
HETATM   15  C   UNL     1      -6.607  19.570  69.419  1.00  0.00    -0.373 C  
HETATM   16  C   UNL     1      -6.288  20.599  68.331  1.00  0.00    -0.341 C  
HETATM   17  C   UNL     1      -7.301  20.737  67.191  1.00  0.00    -0.385 C  
HETATM   18  C   UNL     1      -7.409  19.504  66.285  1.00  0.00    -0.279 C  
HETATM   19  C   UNL     1      -8.620  18.608  66.583  1.00  0.00    -0.297 C  
ENDBRANCH  11  12
ENDBRANCH  10  11
ENDBRANCH   6  10
TORSDOF 3
ENDMDL
MODEL       74
REMARK 921   NORMALIZED FREE ENERGY PREDICTED BY IDOCK:   -4.16 KCAL/MOL
REMARK 922        TOTAL FREE ENERGY PREDICTED BY IDOCK:   -5.07 KCAL/MOL
REMARK 923 INTER-LIGAND FREE ENERGY PREDICTED BY IDOCK:   -4.70 KCAL/MOL
REMARK 924 INTRA-LIGAND FREE ENERGY PREDICTED BY IDOCK:   -0.37 KCAL/MOL
REMARK 927      BINDING AFFINITY PREDICTED BY RF-SCORE:    0.00 PKD
ROOT
HETATM    1  N   UNL     1     -12.090  10.596  68.700  1.00  0.00    -0.812 NA 
HETATM    2  C   UNL     1     -10.810  10.182  68.602  1.00  0.00    -0.235 C  
HETATM    3  H2  UNL     1     -12.850  10.261  68.109  1.00  0.00     0.000 HD 
HETATM    4  H1  UNL     1     -12.200  11.287  69.443  1.00  0.00     0.000 HD 
HETATM    5  N   UNL     1     -10.664   9.266  67.619  1.00  0.00    -0.423 NA 
HETATM    6  N   UNL     1      -9.931  10.645  69.415  1.00  0.00    -0.363 NA 
HETATM    7  H1  UNL     1      -9.696   8.953  67.544  1.00  0.00     0.000 HD 
HETATM    8  H2  UNL     1     -11.424   8.931  67.028  1.00  0.00     0.000 HD 
HETATM    9  H   UNL     1     -10.164  11.340  70.123  1.00  0.00     0.000 HD 
ENDROOT
BRANCH   6  10
HETATM   10  C   UNL     1      -8.570  10.117  69.266  1.00  0.00    -0.174 C  
BRANCH  10  11
HETATM   11  C   UNL     1      -8.140   9.349  70.532  1.00  0.00    -0.184 C  
BRANCH  11  12
HETATM   12  N   UNL     1      -9.149   8.353  70.969  1.00  0.00    -0.153 NA 
HETATM   13  C   UNL     1      -8.896   7.021  70.403  1.00  0.00    -0.155 C  
HETATM   14  C   UNL     1     -10.102   6.072  70.397  1.00  0.00    -0.249 C  
HETATM   15  C   UNL     1     -11.429   6.747  70.038  1.00  0.00    -0.390 C  
HETATM   16  C   UNL     1     -12.320   7.059  71.244  1.00  0.00    -0.426 C  
HETATM   17  C   UNL     1     -11.812   8.125  72.220  1.00  0.00    -0.441 C  
HETATM   18  C   UNL     1     -10.547   7.729  72.992  1.00  0.00    -0.441 C  
HETATM   19  C   UNL     1      -9.252   8.339  72.435  1.00  0.00    -0.256 C  
ENDBRANCH  11  12
ENDBRANCH  10  11
ENDBRANCH   6  10
TORSDOF 3
ENDMDL
MODEL       75
REMARK 921   NORMALIZED FREE ENERGY PREDICTED BY IDOCK:   -4.15 KCAL/MOL
REMARK 922        TOTAL FREE ENERGY PREDICTED BY IDOCK:   -5.07 KCAL/MOL
REMARK 923 INTER-LIGAND FREE ENERGY PREDICTED BY IDOCK:   -4.69 KCAL/MOL
REMARK 924 INTRA-LIGAND FREE ENERGY PREDICTED BY IDOCK:   -0.38 KCAL/MOL
REMARK 927      BINDING AFFINITY PREDICTED BY RF-SCORE:    0.00 PKD
ROOT
HETATM    1  N   UNL     1     -11.340   6.586  66.814  1.00  0.00    -0.800 NA 
HETATM    2  C   UNL     1     -10.898   6.300  68.056  1.00  0.00    -0.326 C  
HETATM    3  H2  UNL     1     -10.815   6.399  65.960  1.00  0.00     0.000 HD 
HETATM    4  H1  UNL     1     -12.265   7.014  66.838  1.00  0.00     0.000 HD 
HETATM    5  N   UNL     1      -9.672   5.734  68.024  1.00  0.00    -0.119 NA 
HETATM    6  N   UNL     1     -11.649   6.550  69.068  1.00  0.00    -0.594 NA 
HETATM    7  H1  UNL     1      -9.338   5.517  68.963  1.00  0.00     0.000 HD 
HETATM    8  H2  UNL     1      -9.148   5.546  67.170  1.00  0.00     0.000 HD 
HETATM    9  H   UNL     1     -12.565   6.985  68.965  1.00  0.00     0.000 HD 
ENDROOT
BRANCH   6  10
HETATM   10  C   UNL     1     -11.112   6.176  70.381  1.00  0.00    -0.352 C  
BRANCH  10  11
HETATM   11  C   UNL     1     -11.244   7.344  71.378  1.00  0.00    -0.246 C  
BRANCH  11  12
HETATM   12  N   UNL     1     -10.952   8.662  70.762  1.00  0.00    -0.237 NA 
HETATM   13  C   UNL     1     -11.696   9.752  71.406  1.00  0.00    -0.398 C  
HETATM   14  C   UNL     1     -11.838  11.032  70.570  1.00  0.00    -0.464 C  
HETATM   15  C   UNL     1     -12.105  10.782  69.083  1.00  0.00    -0.227 C  
HETATM   16  C   UNL     1     -10.871  10.937  68.190  1.00  0.00    -0.283 C  
HETATM   17  C   UNL     1      -9.756   9.903  68.368  1.00  0.00    -0.161 C  
HETATM   18  C   UNL     1      -9.041   9.966  69.723  1.00  0.00    -0.249 C  
HETATM   19  C   UNL     1      -9.503   8.902  70.729  1.00  0.00    -0.228 C  
ENDBRANCH  11  12
ENDBRANCH  10  11
ENDBRANCH   6  10
TORSDOF 3
ENDMDL
MODEL       76
REMARK 921   NORMALIZED FREE ENERGY PREDICTED BY IDOCK:   -4.13 KCAL/MOL
REMARK 922        TOTAL FREE ENERGY PREDICTED BY IDOCK:   -5.05 KCAL/MOL
REMARK 923 INTER-LIGAND FREE ENERGY PREDICTED BY IDOCK:   -4.87 KCAL/MOL
REMARK 924 INTRA-LIGAND FREE ENERGY PREDICTED BY IDOCK:   -0.18 KCAL/MOL
REMARK 927      BINDING AFFINITY PREDICTED BY RF-SCORE:    0.00 PKD
ROOT
HETATM    1  N   UNL     1     -11.588   6.481  69.657  1.00  0.00    -0.629 NA 
HETATM    2  C   UNL     1     -11.013   7.635  69.262  1.00  0.00    -0.014 C  
HETATM    3  H2  UNL     1     -11.844   6.266  70.621  1.00  0.00     0.000 HD 
HETATM    4  H1  UNL     1     -11.733   5.849  68.870  1.00  0.00     0.000 HD 
HETATM    5  N   UNL     1     -10.820   8.471  70.306  1.00  0.00    -0.238 NA 
HETATM    6  N   UNL     1     -10.754   7.819  68.018  1.00  0.00    -0.424 NA 
HETATM    7  H1  UNL     1     -10.385   9.344  70.007  1.00  0.00     0.000 HD 
HETATM    8  H2  UNL     1     -11.076   8.257  71.269  1.00  0.00     0.000 HD 
HETATM    9  H   UNL     1     -10.948   7.106  67.316  1.00  0.00     0.000 HD 
ENDROOT
BRANCH   6  10
HETATM   10  C   UNL     1     -10.163   9.115  67.664  1.00  0.00    -0.236 C  
BRANCH  10  11
HETATM   11  C   UNL     1      -9.998   9.241  66.137  1.00  0.00    -0.277 C  
BRANCH  11  12
HETATM   12  N   UNL     1     -10.247  10.619  65.644  1.00  0.00    -0.261 NA 
HETATM   13  C   UNL     1      -9.807  11.640  66.603  1.00  0.00    -0.200 C  
HETATM   14  C   UNL     1     -10.435  13.028  66.417  1.00  0.00    -0.285 C  
HETATM   15  C   UNL     1     -11.923  12.999  66.056  1.00  0.00    -0.498 C  
HETATM   16  C   UNL     1     -12.211  13.224  64.569  1.00  0.00    -0.456 C  
HETATM   17  C   UNL     1     -11.751  12.128  63.603  1.00  0.00    -0.588 C  
HETATM   18  C   UNL     1     -10.229  11.972  63.498  1.00  0.00    -0.477 C  
HETATM   19  C   UNL     1      -9.659  10.798  64.310  1.00  0.00    -0.283 C  
ENDBRANCH  11  12
ENDBRANCH  10  11
ENDBRANCH   6  10
TORSDOF 3
ENDMDL
MODEL       77
REMARK 921   NORMALIZED FREE ENERGY PREDICTED BY IDOCK:   -4.13 KCAL/MOL
REMARK 922        TOTAL FREE ENERGY PREDICTED BY IDOCK:   -5.04 KCAL/MOL
REMARK 923 INTER-LIGAND FREE ENERGY PREDICTED BY IDOCK:   -4.85 KCAL/MOL
REMARK 924 INTRA-LIGAND FREE ENERGY PREDICTED BY IDOCK:   -0.19 KCAL/MOL
REMARK 927      BINDING AFFINITY PREDICTED BY RF-SCORE:    0.00 PKD
ROOT
HETATM    1  N   UNL     1     -12.206   7.007  70.696  1.00  0.00    -0.578 NA 
HETATM    2  C   UNL     1     -11.754   8.277  70.732  1.00  0.00    -0.202 C  
HETATM    3  H2  UNL     1     -12.497   6.476  71.516  1.00  0.00     0.000 HD 
HETATM    4  H1  UNL     1     -12.221   6.645  69.742  1.00  0.00     0.000 HD 
HETATM    5  N   UNL     1     -11.735   8.756  71.995  1.00  0.00    -0.359 NA 
HETATM    6  N   UNL     1     -11.439   8.868  69.636  1.00  0.00    -0.420 NA 
HETATM    7  H1  UNL     1     -11.393   9.717  72.023  1.00  0.00     0.000 HD 
HETATM    8  H2  UNL     1     -12.025   8.225  72.815  1.00  0.00     0.000 HD 
HETATM    9  H   UNL     1     -11.497   8.397  68.734  1.00  0.00     0.000 HD 
ENDROOT
BRANCH   6  10
HETATM   10  C   UNL     1     -10.991  10.260  69.757  1.00  0.00    -0.289 C  
BRANCH  10  11
HETATM   11  C   UNL     1     -12.064  11.228  69.220  1.00  0.00    -0.303 C  
BRANCH  11  12
HETATM   12  N   UNL     1     -11.565  12.082  68.113  1.00  0.00    -0.322 NA 
HETATM   13  C   UNL     1     -10.548  13.039  68.565  1.00  0.00    -0.258 C  
HETATM   14  C   UNL     1     -10.328  14.247  67.644  1.00  0.00    -0.248 C  
HETATM   15  C   UNL     1     -11.617  14.821  67.047  1.00  0.00    -0.352 C  
HETATM   16  C   UNL     1     -11.877  14.400  65.598  1.00  0.00    -0.355 C  
HETATM   17  C   UNL     1     -12.187  12.920  65.353  1.00  0.00    -0.528 C  
HETATM   18  C   UNL     1     -11.017  11.970  65.639  1.00  0.00    -0.343 C  
HETATM   19  C   UNL     1     -11.107  11.249  66.992  1.00  0.00    -0.293 C  
ENDBRANCH  11  12
ENDBRANCH  10  11
ENDBRANCH   6  10
TORSDOF 3
ENDMDL
MODEL       78
REMARK 921   NORMALIZED FREE ENERGY PREDICTED BY IDOCK:   -4.12 KCAL/MOL
REMARK 922        TOTAL FREE ENERGY PREDICTED BY IDOCK:   -5.03 KCAL/MOL
REMARK 923 INTER-LIGAND FREE ENERGY PREDICTED BY IDOCK:   -4.78 KCAL/MOL
REMARK 924 INTRA-LIGAND FREE ENERGY PREDICTED BY IDOCK:   -0.25 KCAL/MOL
REMARK 927      BINDING AFFINITY PREDICTED BY RF-SCORE:    0.00 PKD
ROOT
HETATM    1  N   UNL     1     -14.158   9.017  73.134  1.00  0.00    -1.223 NA 
HETATM    2  C   UNL     1     -13.559   8.398  72.095  1.00  0.00    -0.323 C  
HETATM    3  H2  UNL     1     -14.776   9.823  73.044  1.00  0.00     0.000 HD 
HETATM    4  H1  UNL     1     -13.913   8.576  74.020  1.00  0.00     0.000 HD 
HETATM    5  N   UNL     1     -13.883   8.983  70.922  1.00  0.00    -0.546 NA 
HETATM    6  N   UNL     1     -12.819   7.371  72.312  1.00  0.00    -0.507 NA 
HETATM    7  H1  UNL     1     -13.430   8.515  70.136  1.00  0.00     0.000 HD 
HETATM    8  H2  UNL     1     -14.501   9.789  70.832  1.00  0.00     0.000 HD 
HETATM    9  H   UNL     1     -12.648   7.020  73.254  1.00  0.00     0.000 HD 
ENDROOT
BRANCH   6  10
HETATM   10  C   UNL     1     -12.234   6.733  71.128  1.00  0.00    -0.360 C  
BRANCH  10  11
HETATM   11  C   UNL     1     -10.787   7.215  70.906  1.00  0.00    -0.244 C  
BRANCH  11  12
HETATM   12  N   UNL     1     -10.416   7.278  69.470  1.00  0.00    -0.225 NA 
HETATM   13  C   UNL     1     -11.187   6.330  68.656  1.00  0.00    -0.238 C  
HETATM   14  C   UNL     1     -10.568   5.979  67.296  1.00  0.00    -0.367 C  
HETATM   15  C   UNL     1      -9.046   5.804  67.327  1.00  0.00    -0.110 C  
HETATM   16  C   UNL     1      -8.266   7.014  66.805  1.00  0.00    -0.111 C  
HETATM   17  C   UNL     1      -8.336   8.295  67.642  1.00  0.00    -0.127 C  
HETATM   18  C   UNL     1      -9.722   8.947  67.691  1.00  0.00    -0.202 C  
HETATM   19  C   UNL     1     -10.509   8.659  68.978  1.00  0.00    -0.199 C  
ENDBRANCH  11  12
ENDBRANCH  10  11
ENDBRANCH   6  10
TORSDOF 3
ENDMDL
MODEL       79
REMARK 921   NORMALIZED FREE ENERGY PREDICTED BY IDOCK:   -4.11 KCAL/MOL
REMARK 922        TOTAL FREE ENERGY PREDICTED BY IDOCK:   -5.02 KCAL/MOL
REMARK 923 INTER-LIGAND FREE ENERGY PREDICTED BY IDOCK:   -4.78 KCAL/MOL
REMARK 924 INTRA-LIGAND FREE ENERGY PREDICTED BY IDOCK:   -0.24 KCAL/MOL
REMARK 927      BINDING AFFINITY PREDICTED BY RF-SCORE:    0.00 PKD
ROOT
HETATM    1  N   UNL     1      -8.904  20.396  66.591  1.00  0.00    -0.547 NA 
HETATM    2  C   UNL     1      -9.700  19.310  66.511  1.00  0.00    -0.367 C  
HETATM    3  H2  UNL     1      -9.137  21.241  67.111  1.00  0.00     0.000 HD 
HETATM    4  H1  UNL     1      -8.041  20.264  66.065  1.00  0.00     0.000 HD 
HETATM    5  N   UNL     1     -10.843  19.485  67.207  1.00  0.00    -0.491 NA 
HETATM    6  N   UNL     1      -9.302  18.282  65.851  1.00  0.00    -0.474 NA 
HETATM    7  H1  UNL     1     -11.445  18.663  67.147  1.00  0.00     0.000 HD 
HETATM    8  H2  UNL     1     -11.076  20.330  67.728  1.00  0.00     0.000 HD 
HETATM    9  H   UNL     1      -8.408  18.269  65.361  1.00  0.00     0.000 HD 
ENDROOT
BRANCH   6  10
HETATM   10  C   UNL     1     -10.208  17.128  65.842  1.00  0.00    -0.276 C  
BRANCH  10  11
HETATM   11  C   UNL     1      -9.422  15.815  66.033  1.00  0.00    -0.357 C  
BRANCH  11  12
HETATM   12  N   UNL     1      -9.823  15.078  67.257  1.00  0.00    -0.227 NA 
HETATM   13  C   UNL     1      -9.364  13.683  67.240  1.00  0.00    -0.233 C  
HETATM   14  C   UNL     1     -10.109  12.737  68.191  1.00  0.00    -0.239 C  
HETATM   15  C   UNL     1     -11.620  12.978  68.259  1.00  0.00    -0.375 C  
HETATM   16  C   UNL     1     -12.074  13.763  69.493  1.00  0.00    -0.386 C  
HETATM   17  C   UNL     1     -11.634  15.228  69.581  1.00  0.00    -0.340 C  
HETATM   18  C   UNL     1     -10.123  15.428  69.751  1.00  0.00    -0.266 C  
HETATM   19  C   UNL     1      -9.388  15.806  68.457  1.00  0.00    -0.198 C  
ENDBRANCH  11  12
ENDBRANCH  10  11
ENDBRANCH   6  10
TORSDOF 3
ENDMDL
MODEL       80
REMARK 921   NORMALIZED FREE ENERGY PREDICTED BY IDOCK:   -4.10 KCAL/MOL
REMARK 922        TOTAL FREE ENERGY PREDICTED BY IDOCK:   -5.01 KCAL/MOL
REMARK 923 INTER-LIGAND FREE ENERGY PREDICTED BY IDOCK:   -4.81 KCAL/MOL
REMARK 924 INTRA-LIGAND FREE ENERGY PREDICTED BY IDOCK:   -0.20 KCAL/MOL
REMARK 927      BINDING AFFINITY PREDICTED BY RF-SCORE:    0.00 PKD
ROOT
HETATM    1  N   UNL     1     -12.407  12.584  65.693  1.00  0.00    -0.638 NA 
HETATM    2  C   UNL     1     -11.679  13.093  66.707  1.00  0.00    -0.385 C  
HETATM    3  H2  UNL     1     -12.613  11.592  65.574  1.00  0.00     0.000 HD 
HETATM    4  H1  UNL     1     -12.725  13.317  65.059  1.00  0.00     0.000 HD 
HETATM    5  N   UNL     1     -11.258  12.122  67.546  1.00  0.00    -0.277 NA 
HETATM    6  N   UNL     1     -11.500  14.363  66.782  1.00  0.00    -0.357 NA 
HETATM    7  H1  UNL     1     -10.707  12.508  68.314  1.00  0.00     0.000 HD 
HETATM    8  H2  UNL     1     -11.464  11.131  67.428  1.00  0.00     0.000 HD 
HETATM    9  H   UNL     1     -11.872  15.002  66.080  1.00  0.00     0.000 HD 
ENDROOT
BRANCH   6  10
HETATM   10  C   UNL     1     -10.728  14.841  67.935  1.00  0.00    -0.259 C  
BRANCH  10  11
HETATM   11  C   UNL     1     -11.073  16.310  68.252  1.00  0.00    -0.346 C  
BRANCH  11  12
HETATM   12  N   UNL     1      -9.932  17.231  68.019  1.00  0.00    -0.290 NA 
HETATM   13  C   UNL     1     -10.145  18.545  68.638  1.00  0.00    -0.369 C  
HETATM   14  C   UNL     1      -9.286  19.684  68.071  1.00  0.00    -0.409 C  
HETATM   15  C   UNL     1      -9.117  19.643  66.549  1.00  0.00    -0.436 C  
HETATM   16  C   UNL     1      -7.774  19.073  66.083  1.00  0.00    -0.291 C  
HETATM   17  C   UNL     1      -7.525  17.586  66.351  1.00  0.00    -0.334 C  
HETATM   18  C   UNL     1      -7.403  17.219  67.835  1.00  0.00    -0.189 C  
HETATM   19  C   UNL     1      -8.673  16.601  68.438  1.00  0.00    -0.225 C  
ENDBRANCH  11  12
ENDBRANCH  10  11
ENDBRANCH   6  10
TORSDOF 3
ENDMDL
MODEL       81
REMARK 921   NORMALIZED FREE ENERGY PREDICTED BY IDOCK:   -4.10 KCAL/MOL
REMARK 922        TOTAL FREE ENERGY PREDICTED BY IDOCK:   -5.00 KCAL/MOL
REMARK 923 INTER-LIGAND FREE ENERGY PREDICTED BY IDOCK:   -4.80 KCAL/MOL
REMARK 924 INTRA-LIGAND FREE ENERGY PREDICTED BY IDOCK:   -0.21 KCAL/MOL
REMARK 927      BINDING AFFINITY PREDICTED BY RF-SCORE:    0.00 PKD
ROOT
HETATM    1  N   UNL     1     -11.247  14.690  64.434  1.00  0.00    -0.623 NA 
HETATM    2  C   UNL     1     -11.805  14.261  65.585  1.00  0.00    -0.373 C  
HETATM    3  H2  UNL     1     -11.745  14.768  63.548  1.00  0.00     0.000 HD 
HETATM    4  H1  UNL     1     -10.263  14.926  64.563  1.00  0.00     0.000 HD 
HETATM    5  N   UNL     1     -13.107  13.948  65.413  1.00  0.00    -0.740 NA 
HETATM    6  N   UNL     1     -11.097  14.226  66.656  1.00  0.00    -0.314 NA 
HETATM    7  H1  UNL     1     -13.529  13.624  66.284  1.00  0.00     0.000 HD 
HETATM    8  H2  UNL     1     -13.605  14.026  64.527  1.00  0.00     0.000 HD 
HETATM    9  H   UNL     1     -10.112  14.491  66.660  1.00  0.00     0.000 HD 
ENDROOT
BRANCH   6  10
HETATM   10  C   UNL     1     -11.786  13.784  67.873  1.00  0.00    -0.378 C  
BRANCH  10  11
HETATM   11  C   UNL     1     -10.953  14.121  69.126  1.00  0.00    -0.251 C  
BRANCH  11  12
HETATM   12  N   UNL     1     -11.766  14.725  70.211  1.00  0.00    -0.282 NA 
HETATM   13  C   UNL     1     -11.242  16.030  70.635  1.00  0.00    -0.372 C  
HETATM   14  C   UNL     1     -11.698  16.499  72.024  1.00  0.00    -0.301 C  
HETATM   15  C   UNL     1     -11.748  15.386  73.076  1.00  0.00    -0.477 C  
HETATM   16  C   UNL     1     -13.154  14.846  73.350  1.00  0.00    -0.506 C  
HETATM   17  C   UNL     1     -13.832  14.076  72.214  1.00  0.00    -0.655 C  
HETATM   18  C   UNL     1     -14.173  14.926  70.984  1.00  0.00    -0.211 C  
HETATM   19  C   UNL     1     -13.181  14.778  69.821  1.00  0.00     0.686 C  
ENDBRANCH  11  12
ENDBRANCH  10  11
ENDBRANCH   6  10
TORSDOF 3
ENDMDL
MODEL       82
REMARK 921   NORMALIZED FREE ENERGY PREDICTED BY IDOCK:   -4.09 KCAL/MOL
REMARK 922        TOTAL FREE ENERGY PREDICTED BY IDOCK:   -4.99 KCAL/MOL
REMARK 923 INTER-LIGAND FREE ENERGY PREDICTED BY IDOCK:   -4.81 KCAL/MOL
REMARK 924 INTRA-LIGAND FREE ENERGY PREDICTED BY IDOCK:   -0.18 KCAL/MOL
REMARK 927      BINDING AFFINITY PREDICTED BY RF-SCORE:    0.00 PKD
ROOT
HETATM    1  N   UNL     1     -11.917  16.348  72.157  1.00  0.00    -0.634 NA 
HETATM    2  C   UNL     1     -12.281  15.492  71.180  1.00  0.00    -0.396 C  
HETATM    3  H2  UNL     1     -12.449  17.177  72.423  1.00  0.00     0.000 HD 
HETATM    4  H1  UNL     1     -11.042  16.062  72.596  1.00  0.00     0.000 HD 
HETATM    5  N   UNL     1     -13.439  15.872  70.599  1.00  0.00    -0.624 NA 
HETATM    6  N   UNL     1     -11.554  14.460  70.942  1.00  0.00    -0.506 NA 
HETATM    7  H1  UNL     1     -13.714  15.224  69.860  1.00  0.00     0.000 HD 
HETATM    8  H2  UNL     1     -13.971  16.700  70.865  1.00  0.00     0.000 HD 
HETATM    9  H   UNL     1     -10.692  14.278  71.453  1.00  0.00     0.000 HD 
ENDROOT
BRANCH   6  10
HETATM   10  C   UNL     1     -12.037  13.558  69.890  1.00  0.00    -0.341 C  
BRANCH  10  11
HETATM   11  C   UNL     1     -10.861  13.012  69.056  1.00  0.00    -0.155 C  
BRANCH  11  12
HETATM   12  N   UNL     1     -10.776  11.530  69.084  1.00  0.00    -0.200 NA 
HETATM   13  C   UNL     1     -11.564  10.949  70.179  1.00  0.00    -0.338 C  
HETATM   14  C   UNL     1     -11.173   9.521  70.581  1.00  0.00    -0.364 C  
HETATM   15  C   UNL     1      -9.663   9.263  70.589  1.00  0.00    -0.334 C  
HETATM   16  C   UNL     1      -9.148   8.518  69.354  1.00  0.00    -0.150 C  
HETATM   17  C   UNL     1      -9.216   9.264  68.018  1.00  0.00    -0.138 C  
HETATM   18  C   UNL     1     -10.639   9.540  67.517  1.00  0.00    -0.338 C  
HETATM   19  C   UNL     1     -11.129  10.974  67.771  1.00  0.00    -0.295 C  
ENDBRANCH  11  12
ENDBRANCH  10  11
ENDBRANCH   6  10
TORSDOF 3
ENDMDL
MODEL       83
REMARK 921   NORMALIZED FREE ENERGY PREDICTED BY IDOCK:   -4.08 KCAL/MOL
REMARK 922        TOTAL FREE ENERGY PREDICTED BY IDOCK:   -4.99 KCAL/MOL
REMARK 923 INTER-LIGAND FREE ENERGY PREDICTED BY IDOCK:   -4.81 KCAL/MOL
REMARK 924 INTRA-LIGAND FREE ENERGY PREDICTED BY IDOCK:   -0.18 KCAL/MOL
REMARK 927      BINDING AFFINITY PREDICTED BY RF-SCORE:    0.00 PKD
ROOT
HETATM    1  N   UNL     1     -12.313  15.246  68.897  1.00  0.00    -0.604 NA 
HETATM    2  C   UNL     1     -11.850  14.045  69.301  1.00  0.00    -0.344 C  
HETATM    3  H2  UNL     1     -12.397  16.063  69.502  1.00  0.00     0.000 HD 
HETATM    4  H1  UNL     1     -12.569  15.233  67.910  1.00  0.00     0.000 HD 
HETATM    5  N   UNL     1     -11.511  14.063  70.608  1.00  0.00    -0.512 NA 
HETATM    6  N   UNL     1     -11.757  13.086  68.452  1.00  0.00    -0.331 NA 
HETATM    7  H1  UNL     1     -11.160  13.155  70.913  1.00  0.00     0.000 HD 
HETATM    8  H2  UNL     1     -11.594  14.880  71.213  1.00  0.00     0.000 HD 
HETATM    9  H   UNL     1     -12.047  13.195  67.481  1.00  0.00     0.000 HD 
ENDROOT
BRANCH   6  10
HETATM   10  C   UNL     1     -11.209  11.823  68.960  1.00  0.00    -0.265 C  
BRANCH  10  11
HETATM   11  C   UNL     1     -12.338  10.898  69.457  1.00  0.00    -0.171 C  
BRANCH  11  12
HETATM   12  N   UNL     1     -11.844   9.812  70.339  1.00  0.00    -0.231 NA 
HETATM   13  C   UNL     1     -10.384   9.842  70.493  1.00  0.00    -0.283 C  
HETATM   14  C   UNL     1      -9.748   8.528  70.968  1.00  0.00    -0.243 C  
HETATM   15  C   UNL     1     -10.363   7.272  70.343  1.00  0.00    -0.217 C  
HETATM   16  C   UNL     1     -11.351   6.538  71.254  1.00  0.00    -0.355 C  
HETATM   17  C   UNL     1     -12.662   7.262  71.578  1.00  0.00    -0.422 C  
HETATM   18  C   UNL     1     -12.496   8.527  72.427  1.00  0.00    -0.416 C  
HETATM   19  C   UNL     1     -12.554   9.837  71.626  1.00  0.00    -0.416 C  
ENDBRANCH  11  12
ENDBRANCH  10  11
ENDBRANCH   6  10
TORSDOF 3
ENDMDL
MODEL       84
REMARK 921   NORMALIZED FREE ENERGY PREDICTED BY IDOCK:   -4.08 KCAL/MOL
REMARK 922        TOTAL FREE ENERGY PREDICTED BY IDOCK:   -4.98 KCAL/MOL
REMARK 923 INTER-LIGAND FREE ENERGY PREDICTED BY IDOCK:   -4.77 KCAL/MOL
REMARK 924 INTRA-LIGAND FREE ENERGY PREDICTED BY IDOCK:   -0.21 KCAL/MOL
REMARK 927      BINDING AFFINITY PREDICTED BY RF-SCORE:    0.00 PKD
ROOT
HETATM    1  N   UNL     1     -11.411   4.444  64.836  1.00  0.00    -1.068 NA 
HETATM    2  C   UNL     1     -10.756   4.787  65.965  1.00  0.00    -0.158 C  
HETATM    3  H2  UNL     1     -11.286   3.560  64.344  1.00  0.00     0.000 HD 
HETATM    4  H1  UNL     1     -12.049   5.183  64.538  1.00  0.00     0.000 HD 
HETATM    5  N   UNL     1      -9.912   3.809  66.359  1.00  0.00    -0.410 NA 
HETATM    6  N   UNL     1     -11.007   5.915  66.524  1.00  0.00    -0.725 NA 
HETATM    7  H1  UNL     1      -9.417   4.067  67.213  1.00  0.00     0.000 HD 
HETATM    8  H2  UNL     1      -9.787   2.924  65.867  1.00  0.00     0.000 HD 
HETATM    9  H   UNL     1     -11.673   6.577  66.127  1.00  0.00     0.000 HD 
ENDROOT
BRANCH   6  10
HETATM   10  C   UNL     1     -10.281   6.197  67.768  1.00  0.00    -0.172 C  
BRANCH  10  11
HETATM   11  C   UNL     1     -11.254   6.297  68.959  1.00  0.00    -0.343 C  
BRANCH  11  12
HETATM   12  N   UNL     1     -10.559   6.507  70.253  1.00  0.00    -0.215 NA 
HETATM   13  C   UNL     1     -11.453   6.307  71.401  1.00  0.00    -0.293 C  
HETATM   14  C   UNL     1     -10.985   6.948  72.715  1.00  0.00    -0.315 C  
HETATM   15  C   UNL     1     -10.355   8.334  72.547  1.00  0.00    -0.401 C  
HETATM   16  C   UNL     1      -8.825   8.336  72.586  1.00  0.00    -0.304 C  
HETATM   17  C   UNL     1      -8.103   7.647  71.423  1.00  0.00    -0.096 C  
HETATM   18  C   UNL     1      -8.308   6.129  71.358  1.00  0.00    -0.123 C  
HETATM   19  C   UNL     1      -9.349   5.677  70.323  1.00  0.00    -0.152 C  
ENDBRANCH  11  12
ENDBRANCH  10  11
ENDBRANCH   6  10
TORSDOF 3
ENDMDL
MODEL       85
REMARK 921   NORMALIZED FREE ENERGY PREDICTED BY IDOCK:   -4.05 KCAL/MOL
REMARK 922        TOTAL FREE ENERGY PREDICTED BY IDOCK:   -4.95 KCAL/MOL
REMARK 923 INTER-LIGAND FREE ENERGY PREDICTED BY IDOCK:   -4.55 KCAL/MOL
REMARK 924 INTRA-LIGAND FREE ENERGY PREDICTED BY IDOCK:   -0.40 KCAL/MOL
REMARK 927      BINDING AFFINITY PREDICTED BY RF-SCORE:    0.00 PKD
ROOT
HETATM    1  N   UNL     1      -8.011  10.401  63.789  1.00  0.00    -0.286 NA 
HETATM    2  C   UNL     1      -9.216  10.943  64.063  1.00  0.00    -0.197 C  
HETATM    3  H2  UNL     1      -7.616   9.600  64.281  1.00  0.00     0.000 HD 
HETATM    4  H1  UNL     1      -7.546  10.894  63.027  1.00  0.00     0.000 HD 
HETATM    5  N   UNL     1      -9.831  10.290  65.072  1.00  0.00    -0.310 NA 
HETATM    6  N   UNL     1      -9.636  11.936  63.365  1.00  0.00    -0.571 NA 
HETATM    7  H1  UNL     1     -10.742  10.699  65.279  1.00  0.00     0.000 HD 
HETATM    8  H2  UNL     1      -9.436   9.489  65.564  1.00  0.00     0.000 HD 
HETATM    9  H   UNL     1      -9.074  12.347  62.620  1.00  0.00     0.000 HD 
ENDROOT
BRANCH   6  10
HETATM   10  C   UNL     1     -10.970  12.445  63.700  1.00  0.00    -0.470 C  
BRANCH  10  11
HETATM   11  C   UNL     1     -10.870  13.775  64.473  1.00  0.00    -0.387 C  
BRANCH  11  12
HETATM   12  N   UNL     1     -10.684  13.578  65.932  1.00  0.00    -0.274 NA 
HETATM   13  C   UNL     1      -9.434  14.177  66.418  1.00  0.00    -0.269 C  
HETATM   14  C   UNL     1      -8.926  13.634  67.761  1.00  0.00    -0.196 C  
HETATM   15  C   UNL     1      -9.092  12.120  67.928  1.00  0.00    -0.185 C  
HETATM   16  C   UNL     1     -10.290  11.713  68.789  1.00  0.00    -0.213 C  
HETATM   17  C   UNL     1     -11.682  12.004  68.219  1.00  0.00    -0.396 C  
HETATM   18  C   UNL     1     -12.016  13.494  68.089  1.00  0.00    -0.376 C  
HETATM   19  C   UNL     1     -11.865  14.052  66.666  1.00  0.00    -0.419 C  
ENDBRANCH  11  12
ENDBRANCH  10  11
ENDBRANCH   6  10
TORSDOF 3
ENDMDL
MODEL       86
REMARK 921   NORMALIZED FREE ENERGY PREDICTED BY IDOCK:   -4.05 KCAL/MOL
REMARK 922        TOTAL FREE ENERGY PREDICTED BY IDOCK:   -4.94 KCAL/MOL
REMARK 923 INTER-LIGAND FREE ENERGY PREDICTED BY IDOCK:   -4.70 KCAL/MOL
REMARK 924 INTRA-LIGAND FREE ENERGY PREDICTED BY IDOCK:   -0.24 KCAL/MOL
REMARK 927      BINDING AFFINITY PREDICTED BY RF-SCORE:    0.00 PKD
ROOT
HETATM    1  N   UNL     1     -11.408  14.993  71.823  1.00  0.00    -0.551 NA 
HETATM    2  C   UNL     1     -11.589  14.742  70.510  1.00  0.00    -0.279 C  
HETATM    3  H2  UNL     1     -11.470  14.289  72.557  1.00  0.00     0.000 HD 
HETATM    4  H1  UNL     1     -11.202  15.979  71.987  1.00  0.00     0.000 HD 
HETATM    5  N   UNL     1     -11.862  13.437  70.293  1.00  0.00    -0.505 NA 
HETATM    6  N   UNL     1     -11.462  15.696  69.660  1.00  0.00    -0.314 NA 
HETATM    7  H1  UNL     1     -11.999  13.246  69.300  1.00  0.00     0.000 HD 
HETATM    8  H2  UNL     1     -11.924  12.732  71.027  1.00  0.00     0.000 HD 
HETATM    9  H   UNL     1     -11.252  16.651  69.949  1.00  0.00     0.000 HD 
ENDROOT
BRANCH   6  10
HETATM   10  C   UNL     1     -11.638  15.334  68.249  1.00  0.00    -0.341 C  
BRANCH  10  11
HETATM   11  C   UNL     1     -10.273  15.140  67.560  1.00  0.00    -0.238 C  
BRANCH  11  12
HETATM   12  N   UNL     1      -9.515  16.408  67.418  1.00  0.00    -0.226 NA 
HETATM   13  C   UNL     1      -8.210  16.207  66.775  1.00  0.00    -0.269 C  
HETATM   14  C   UNL     1      -7.184  17.323  67.011  1.00  0.00    -0.218 C  
HETATM   15  C   UNL     1      -7.185  17.885  68.436  1.00  0.00    -0.256 C  
HETATM   16  C   UNL     1      -7.922  19.220  68.582  1.00  0.00    -0.405 C  
HETATM   17  C   UNL     1      -9.439  19.198  68.375  1.00  0.00    -0.425 C  
HETATM   18  C   UNL     1      -9.881  18.873  66.943  1.00  0.00    -0.371 C  
HETATM   19  C   UNL     1     -10.335  17.420  66.739  1.00  0.00    -0.305 C  
ENDBRANCH  11  12
ENDBRANCH  10  11
ENDBRANCH   6  10
TORSDOF 3
ENDMDL
MODEL       87
REMARK 921   NORMALIZED FREE ENERGY PREDICTED BY IDOCK:   -4.01 KCAL/MOL
REMARK 922        TOTAL FREE ENERGY PREDICTED BY IDOCK:   -4.90 KCAL/MOL
REMARK 923 INTER-LIGAND FREE ENERGY PREDICTED BY IDOCK:   -4.73 KCAL/MOL
REMARK 924 INTRA-LIGAND FREE ENERGY PREDICTED BY IDOCK:   -0.18 KCAL/MOL
REMARK 927      BINDING AFFINITY PREDICTED BY RF-SCORE:    0.00 PKD
ROOT
HETATM    1  N   UNL     1     -11.221   8.427  71.320  1.00  0.00    -0.250 NA 
HETATM    2  C   UNL     1     -11.515   9.636  70.799  1.00  0.00    -0.328 C  
HETATM    3  H2  UNL     1     -11.614   8.064  72.187  1.00  0.00     0.000 HD 
HETATM    4  H1  UNL     1     -10.556   7.922  70.734  1.00  0.00     0.000 HD 
HETATM    5  N   UNL     1     -12.395  10.305  71.575  1.00  0.00    -0.391 NA 
HETATM    6  N   UNL     1     -10.987   9.989  69.683  1.00  0.00    -0.250 NA 
HETATM    7  H1  UNL     1     -12.618  11.219  71.181  1.00  0.00     0.000 HD 
HETATM    8  H2  UNL     1     -12.788   9.942  72.443  1.00  0.00     0.000 HD 
HETATM    9  H   UNL     1     -10.329   9.391  69.185  1.00  0.00     0.000 HD 
ENDROOT
BRANCH   6  10
HETATM   10  C   UNL     1     -11.385  11.303  69.165  1.00  0.00    -0.282 C  
BRANCH  10  11
HETATM   11  C   UNL     1     -11.277  11.341  67.628  1.00  0.00    -0.292 C  
BRANCH  11  12
HETATM   12  N   UNL     1     -11.375  12.716  67.078  1.00  0.00    -0.304 NA 
HETATM   13  C   UNL     1     -12.154  12.763  65.835  1.00  0.00    -0.426 C  
HETATM   14  C   UNL     1     -11.917  14.000  64.958  1.00  0.00    -0.409 C  
HETATM   15  C   UNL     1     -10.453  14.446  64.887  1.00  0.00    -0.448 C  
HETATM   16  C   UNL     1     -10.117  15.639  65.786  1.00  0.00    -0.394 C  
HETATM   17  C   UNL     1     -10.180  15.404  67.298  1.00  0.00    -0.254 C  
HETATM   18  C   UNL     1     -11.587  15.126  67.840  1.00  0.00    -0.326 C  
HETATM   19  C   UNL     1     -11.879  13.641  68.102  1.00  0.00    -0.372 C  
ENDBRANCH  11  12
ENDBRANCH  10  11
ENDBRANCH   6  10
TORSDOF 3
ENDMDL
MODEL       88
REMARK 921   NORMALIZED FREE ENERGY PREDICTED BY IDOCK:   -3.99 KCAL/MOL
REMARK 922        TOTAL FREE ENERGY PREDICTED BY IDOCK:   -4.88 KCAL/MOL
REMARK 923 INTER-LIGAND FREE ENERGY PREDICTED BY IDOCK:   -4.68 KCAL/MOL
REMARK 924 INTRA-LIGAND FREE ENERGY PREDICTED BY IDOCK:   -0.20 KCAL/MOL
REMARK 927      BINDING AFFINITY PREDICTED BY RF-SCORE:    0.00 PKD
ROOT
HETATM    1  N   UNL     1     -10.527   6.553  66.397  1.00  0.00    -0.469 NA 
HETATM    2  C   UNL     1     -10.043   7.726  66.853  1.00  0.00    -0.286 C  
HETATM    3  H2  UNL     1      -9.951   5.741  66.174  1.00  0.00     0.000 HD 
HETATM    4  H1  UNL     1     -11.542   6.580  66.304  1.00  0.00     0.000 HD 
HETATM    5  N   UNL     1      -8.699   7.689  66.976  1.00  0.00    -0.124 NA 
HETATM    6  N   UNL     1     -10.856   8.680  67.132  1.00  0.00    -0.391 NA 
HETATM    7  H1  UNL     1      -8.332   8.577  67.321  1.00  0.00     0.000 HD 
HETATM    8  H2  UNL     1      -8.123   6.878  66.753  1.00  0.00     0.000 HD 
HETATM    9  H   UNL     1     -11.862   8.588  66.996  1.00  0.00     0.000 HD 
ENDROOT
BRANCH   6  10
HETATM   10  C   UNL     1     -10.255   9.911  67.658  1.00  0.00    -0.208 C  
BRANCH  10  11
HETATM   11  C   UNL     1     -11.301  10.747  68.422  1.00  0.00    -0.302 C  
BRANCH  11  12
HETATM   12  N   UNL     1     -11.578  10.218  69.780  1.00  0.00    -0.244 NA 
HETATM   13  C   UNL     1     -10.369   9.696  70.430  1.00  0.00    -0.291 C  
HETATM   14  C   UNL     1     -10.617   8.722  71.590  1.00  0.00    -0.401 C  
HETATM   15  C   UNL     1     -11.766   7.738  71.348  1.00  0.00    -0.310 C  
HETATM   16  C   UNL     1     -13.074   8.116  72.048  1.00  0.00    -0.317 C  
HETATM   17  C   UNL     1     -13.785   9.378  71.549  1.00  0.00    -0.363 C  
HETATM   18  C   UNL     1     -13.023  10.682  71.813  1.00  0.00    -0.577 C  
HETATM   19  C   UNL     1     -12.269  11.229  70.591  1.00  0.00    -0.393 C  
ENDBRANCH  11  12
ENDBRANCH  10  11
ENDBRANCH   6  10
TORSDOF 3
ENDMDL
MODEL       89
REMARK 921   NORMALIZED FREE ENERGY PREDICTED BY IDOCK:   -3.99 KCAL/MOL
REMARK 922        TOTAL FREE ENERGY PREDICTED BY IDOCK:   -4.87 KCAL/MOL
REMARK 923 INTER-LIGAND FREE ENERGY PREDICTED BY IDOCK:   -4.92 KCAL/MOL
REMARK 924 INTRA-LIGAND FREE ENERGY PREDICTED BY IDOCK:    0.05 KCAL/MOL
REMARK 927      BINDING AFFINITY PREDICTED BY RF-SCORE:    0.00 PKD
ROOT
HETATM    1  N   UNL     1     -14.301  15.255  71.821  1.00  0.00    -0.554 NA 
HETATM    2  C   UNL     1     -13.150  15.439  71.142  1.00  0.00    -0.498 C  
HETATM    3  H2  UNL     1     -14.494  15.647  72.742  1.00  0.00     0.000 HD 
HETATM    4  H1  UNL     1     -14.954  14.675  71.295  1.00  0.00     0.000 HD 
HETATM    5  N   UNL     1     -12.286  16.208  71.839  1.00  0.00    -0.578 NA 
HETATM    6  N   UNL     1     -13.017  14.925  69.973  1.00  0.00    -0.603 NA 
HETATM    7  H1  UNL     1     -11.415  16.347  71.326  1.00  0.00     0.000 HD 
HETATM    8  H2  UNL     1     -12.479  16.600  72.760  1.00  0.00     0.000 HD 
HETATM    9  H   UNL     1     -13.748  14.357  69.547  1.00  0.00     0.000 HD 
ENDROOT
BRANCH   6  10
HETATM   10  C   UNL     1     -11.750  15.201  69.285  1.00  0.00    -0.329 C  
BRANCH  10  11
HETATM   11  C   UNL     1     -11.747  14.578  67.875  1.00  0.00    -0.351 C  
BRANCH  11  12
HETATM   12  N   UNL     1     -10.968  13.316  67.806  1.00  0.00    -0.252 NA 
HETATM   13  C   UNL     1      -9.569  13.548  67.428  1.00  0.00    -0.227 C  
HETATM   14  C   UNL     1      -8.827  12.324  66.874  1.00  0.00    -0.207 C  
HETATM   15  C   UNL     1      -9.671  11.450  65.941  1.00  0.00    -0.257 C  
HETATM   16  C   UNL     1     -10.230  10.186  66.601  1.00  0.00    -0.287 C  
HETATM   17  C   UNL     1     -11.283  10.385  67.694  1.00  0.00    -0.287 C  
HETATM   18  C   UNL     1     -10.761  11.069  68.963  1.00  0.00    -0.258 C  
HETATM   19  C   UNL     1     -11.103  12.563  69.060  1.00  0.00    -0.234 C  
ENDBRANCH  11  12
ENDBRANCH  10  11
ENDBRANCH   6  10
TORSDOF 3
ENDMDL
MODEL       90
REMARK 921   NORMALIZED FREE ENERGY PREDICTED BY IDOCK:   -3.98 KCAL/MOL
REMARK 922        TOTAL FREE ENERGY PREDICTED BY IDOCK:   -4.87 KCAL/MOL
REMARK 923 INTER-LIGAND FREE ENERGY PREDICTED BY IDOCK:   -4.64 KCAL/MOL
REMARK 924 INTRA-LIGAND FREE ENERGY PREDICTED BY IDOCK:   -0.22 KCAL/MOL
REMARK 927      BINDING AFFINITY PREDICTED BY RF-SCORE:    0.00 PKD
ROOT
HETATM    1  N   UNL     1      -9.363  20.614  66.799  1.00  0.00    -0.640 NA 
HETATM    2  C   UNL     1      -9.233  19.290  67.025  1.00  0.00    -0.307 C  
HETATM    3  H2  UNL     1      -9.333  21.327  67.527  1.00  0.00     0.000 HD 
HETATM    4  H1  UNL     1      -9.495  20.810  65.807  1.00  0.00     0.000 HD 
HETATM    5  N   UNL     1      -9.058  19.031  68.338  1.00  0.00    -0.334 NA 
HETATM    6  N   UNL     1      -9.257  18.474  66.033  1.00  0.00    -0.493 NA 
HETATM    7  H1  UNL     1      -8.960  18.029  68.509  1.00  0.00     0.000 HD 
HETATM    8  H2  UNL     1      -9.028  19.744  69.067  1.00  0.00     0.000 HD 
HETATM    9  H   UNL     1      -9.397  18.794  65.075  1.00  0.00     0.000 HD 
ENDROOT
BRANCH   6  10
HETATM   10  C   UNL     1      -9.072  17.055  66.358  1.00  0.00    -0.270 C  
BRANCH  10  11
HETATM   11  C   UNL     1     -10.408  16.294  66.259  1.00  0.00    -0.326 C  
BRANCH  11  12
HETATM   12  N   UNL     1     -10.372  14.979  66.946  1.00  0.00    -0.262 NA 
HETATM   13  C   UNL     1      -9.099  14.750  67.640  1.00  0.00    -0.185 C  
HETATM   14  C   UNL     1      -8.780  13.283  67.960  1.00  0.00    -0.186 C  
HETATM   15  C   UNL     1      -9.159  12.302  66.845  1.00  0.00    -0.208 C  
HETATM   16  C   UNL     1     -10.469  11.548  67.092  1.00  0.00    -0.259 C  
HETATM   17  C   UNL     1     -11.757  12.377  67.075  1.00  0.00    -0.423 C  
HETATM   18  C   UNL     1     -11.879  13.386  68.223  1.00  0.00    -0.393 C  
HETATM   19  C   UNL     1     -11.537  14.831  67.830  1.00  0.00    -0.357 C  
ENDBRANCH  11  12
ENDBRANCH  10  11
ENDBRANCH   6  10
TORSDOF 3
ENDMDL
MODEL       91
REMARK 921   NORMALIZED FREE ENERGY PREDICTED BY IDOCK:   -3.98 KCAL/MOL
REMARK 922        TOTAL FREE ENERGY PREDICTED BY IDOCK:   -4.86 KCAL/MOL
REMARK 923 INTER-LIGAND FREE ENERGY PREDICTED BY IDOCK:   -4.69 KCAL/MOL
REMARK 924 INTRA-LIGAND FREE ENERGY PREDICTED BY IDOCK:   -0.17 KCAL/MOL
REMARK 927      BINDING AFFINITY PREDICTED BY RF-SCORE:    0.00 PKD
ROOT
HETATM    1  N   UNL     1      -9.534   9.635  63.749  1.00  0.00    -0.445 NA 
HETATM    2  C   UNL     1      -9.819  10.071  64.993  1.00  0.00    -0.304 C  
HETATM    3  H2  UNL     1      -9.248  10.239  62.979  1.00  0.00     0.000 HD 
HETATM    4  H1  UNL     1      -9.640   8.623  63.677  1.00  0.00     0.000 HD 
HETATM    5  N   UNL     1      -9.678  11.411  65.089  1.00  0.00    -0.239 NA 
HETATM    6  N   UNL     1     -10.143   9.224  65.902  1.00  0.00    -0.367 NA 
HETATM    7  H1  UNL     1      -9.893  11.741  66.030  1.00  0.00     0.000 HD 
HETATM    8  H2  UNL     1      -9.392  12.015  64.319  1.00  0.00     0.000 HD 
HETATM    9  H   UNL     1     -10.217   8.226  65.707  1.00  0.00     0.000 HD 
ENDROOT
BRANCH   6  10
HETATM   10  C   UNL     1     -10.402   9.773  67.237  1.00  0.00    -0.248 C  
BRANCH  10  11
HETATM   11  C   UNL     1     -10.302   8.671  68.311  1.00  0.00    -0.207 C  
BRANCH  11  12
HETATM   12  N   UNL     1     -10.809   9.111  69.635  1.00  0.00    -0.223 NA 
HETATM   13  C   UNL     1      -9.844   8.853  70.711  1.00  0.00    -0.223 C  
HETATM   14  C   UNL     1     -10.435   8.822  72.127  1.00  0.00    -0.384 C  
HETATM   15  C   UNL     1     -11.796   8.126  72.223  1.00  0.00    -0.441 C  
HETATM   16  C   UNL     1     -12.988   9.085  72.290  1.00  0.00    -0.490 C  
HETATM   17  C   UNL     1     -13.276   9.917  71.037  1.00  0.00    -0.375 C  
HETATM   18  C   UNL     1     -12.196  10.950  70.696  1.00  0.00    -0.472 C  
HETATM   19  C   UNL     1     -11.238  10.515  69.577  1.00  0.00    -0.271 C  
ENDBRANCH  11  12
ENDBRANCH  10  11
ENDBRANCH   6  10
TORSDOF 3
ENDMDL
MODEL       92
REMARK 921   NORMALIZED FREE ENERGY PREDICTED BY IDOCK:   -3.97 KCAL/MOL
REMARK 922        TOTAL FREE ENERGY PREDICTED BY IDOCK:   -4.85 KCAL/MOL
REMARK 923 INTER-LIGAND FREE ENERGY PREDICTED BY IDOCK:   -4.63 KCAL/MOL
REMARK 924 INTRA-LIGAND FREE ENERGY PREDICTED BY IDOCK:   -0.23 KCAL/MOL
REMARK 927      BINDING AFFINITY PREDICTED BY RF-SCORE:    0.00 PKD
ROOT
HETATM    1  N   UNL     1     -12.564  14.226  63.561  1.00  0.00    -1.015 NA 
HETATM    2  C   UNL     1     -12.204  12.926  63.539  1.00  0.00    -0.512 C  
HETATM    3  H2  UNL     1     -13.525  14.555  63.646  1.00  0.00     0.000 HD 
HETATM    4  H1  UNL     1     -11.752  14.837  63.481  1.00  0.00     0.000 HD 
HETATM    5  N   UNL     1     -13.280  12.116  63.645  1.00  0.00    -0.664 NA 
HETATM    6  N   UNL     1     -10.961  12.615  63.457  1.00  0.00    -0.520 NA 
HETATM    7  H1  UNL     1     -13.008  11.133  63.630  1.00  0.00     0.000 HD 
HETATM    8  H2  UNL     1     -14.241  12.445  63.731  1.00  0.00     0.000 HD 
HETATM    9  H   UNL     1     -10.232  13.324  63.381  1.00  0.00     0.000 HD 
ENDROOT
BRANCH   6  10
HETATM   10  C   UNL     1     -10.649  11.181  63.477  1.00  0.00    -0.324 C  
BRANCH  10  11
HETATM   11  C   UNL     1      -9.177  10.948  63.871  1.00  0.00    -0.203 C  
BRANCH  11  12
HETATM   12  N   UNL     1      -8.961  10.994  65.338  1.00  0.00    -0.197 NA 
HETATM   13  C   UNL     1      -9.982  10.237  66.074  1.00  0.00    -0.245 C  
HETATM   14  C   UNL     1     -10.131  10.606  67.556  1.00  0.00    -0.217 C  
HETATM   15  C   UNL     1     -10.029  12.107  67.841  1.00  0.00    -0.200 C  
HETATM   16  C   UNL     1      -8.669  12.551  68.386  1.00  0.00    -0.122 C  
HETATM   17  C   UNL     1      -7.475  12.449  67.431  1.00  0.00    -0.157 C  
HETATM   18  C   UNL     1      -7.088  11.015  67.049  1.00  0.00    -0.118 C  
HETATM   19  C   UNL     1      -7.592  10.574  65.667  1.00  0.00    -0.134 C  
ENDBRANCH  11  12
ENDBRANCH  10  11
ENDBRANCH   6  10
TORSDOF 3
ENDMDL
MODEL       93
REMARK 921   NORMALIZED FREE ENERGY PREDICTED BY IDOCK:   -3.92 KCAL/MOL
REMARK 922        TOTAL FREE ENERGY PREDICTED BY IDOCK:   -4.79 KCAL/MOL
REMARK 923 INTER-LIGAND FREE ENERGY PREDICTED BY IDOCK:   -4.53 KCAL/MOL
REMARK 924 INTRA-LIGAND FREE ENERGY PREDICTED BY IDOCK:   -0.26 KCAL/MOL
REMARK 927      BINDING AFFINITY PREDICTED BY RF-SCORE:    0.00 PKD
ROOT
HETATM    1  N   UNL     1     -13.724  15.545  70.927  1.00  0.00    -0.844 NA 
HETATM    2  C   UNL     1     -13.408  14.247  71.115  1.00  0.00    -0.299 C  
HETATM    3  H2  UNL     1     -14.422  16.051  71.471  1.00  0.00     0.000 HD 
HETATM    4  H1  UNL     1     -13.175  15.955  70.171  1.00  0.00     0.000 HD 
HETATM    5  N   UNL     1     -14.135  13.705  72.116  1.00  0.00    -0.501 NA 
HETATM    6  N   UNL     1     -12.492  13.708  70.395  1.00  0.00    -0.318 NA 
HETATM    7  H1  UNL     1     -13.896  12.723  72.259  1.00  0.00     0.000 HD 
HETATM    8  H2  UNL     1     -14.833  14.211  72.660  1.00  0.00     0.000 HD 
HETATM    9  H   UNL     1     -12.009  14.226  69.661  1.00  0.00     0.000 HD 
ENDROOT
BRANCH   6  10
HETATM   10  C   UNL     1     -12.181  12.304  70.686  1.00  0.00    -0.287 C  
BRANCH  10  11
HETATM   11  C   UNL     1     -11.985  11.506  69.382  1.00  0.00    -0.325 C  
BRANCH  11  12
HETATM   12  N   UNL     1     -11.163  12.231  68.382  1.00  0.00    -0.243 NA 
HETATM   13  C   UNL     1      -9.810  11.672  68.265  1.00  0.00    -0.199 C  
HETATM   14  C   UNL     1      -8.765  12.609  67.644  1.00  0.00    -0.179 C  
HETATM   15  C   UNL     1      -8.886  14.069  68.094  1.00  0.00    -0.182 C  
HETATM   16  C   UNL     1      -9.575  14.983  67.076  1.00  0.00    -0.233 C  
HETATM   17  C   UNL     1     -11.063  14.730  66.817  1.00  0.00    -0.338 C  
HETATM   18  C   UNL     1     -11.371  13.391  66.136  1.00  0.00    -0.324 C  
HETATM   19  C   UNL     1     -11.865  12.296  67.093  1.00  0.00    -0.258 C  
ENDBRANCH  11  12
ENDBRANCH  10  11
ENDBRANCH   6  10
TORSDOF 3
ENDMDL
MODEL       94
REMARK 921   NORMALIZED FREE ENERGY PREDICTED BY IDOCK:   -3.91 KCAL/MOL
REMARK 922        TOTAL FREE ENERGY PREDICTED BY IDOCK:   -4.79 KCAL/MOL
REMARK 923 INTER-LIGAND FREE ENERGY PREDICTED BY IDOCK:   -4.59 KCAL/MOL
REMARK 924 INTRA-LIGAND FREE ENERGY PREDICTED BY IDOCK:   -0.19 KCAL/MOL
REMARK 927      BINDING AFFINITY PREDICTED BY RF-SCORE:    0.00 PKD
ROOT
HETATM    1  N   UNL     1     -12.653  13.202  64.444  1.00  0.00    -0.653 NA 
HETATM    2  C   UNL     1     -11.684  12.640  65.196  1.00  0.00    -0.367 C  
HETATM    3  H2  UNL     1     -12.529  13.504  63.479  1.00  0.00     0.000 HD 
HETATM    4  H1  UNL     1     -13.526  13.285  64.965  1.00  0.00     0.000 HD 
HETATM    5  N   UNL     1     -10.528  12.530  64.506  1.00  0.00    -0.322 NA 
HETATM    6  N   UNL     1     -11.950  12.267  66.395  1.00  0.00    -0.624 NA 
HETATM    7  H1  UNL     1      -9.795  12.105  65.074  1.00  0.00     0.000 HD 
HETATM    8  H2  UNL     1     -10.404  12.833  63.540  1.00  0.00     0.000 HD 
HETATM    9  H   UNL     1     -12.871  12.404  66.811  1.00  0.00     0.000 HD 
ENDROOT
BRANCH   6  10
HETATM   10  C   UNL     1     -10.854  11.632  67.135  1.00  0.00    -0.261 C  
BRANCH  10  11
HETATM   11  C   UNL     1     -11.357  11.057  68.473  1.00  0.00    -0.287 C  
BRANCH  11  12
HETATM   12  N   UNL     1     -10.826   9.700  68.753  1.00  0.00    -0.201 NA 
HETATM   13  C   UNL     1      -9.964   9.208  67.671  1.00  0.00    -0.195 C  
HETATM   14  C   UNL     1      -9.764   7.687  67.633  1.00  0.00    -0.189 C  
HETATM   15  C   UNL     1     -11.028   6.880  67.946  1.00  0.00    -0.260 C  
HETATM   16  C   UNL     1     -11.083   6.332  69.375  1.00  0.00    -0.477 C  
HETATM   17  C   UNL     1     -11.216   7.358  70.504  1.00  0.00    -0.296 C  
HETATM   18  C   UNL     1      -9.998   8.273  70.679  1.00  0.00    -0.204 C  
HETATM   19  C   UNL     1     -10.165   9.671  70.065  1.00  0.00    -0.255 C  
ENDBRANCH  11  12
ENDBRANCH  10  11
ENDBRANCH   6  10
TORSDOF 3
ENDMDL
MODEL       95
REMARK 921   NORMALIZED FREE ENERGY PREDICTED BY IDOCK:   -3.89 KCAL/MOL
REMARK 922        TOTAL FREE ENERGY PREDICTED BY IDOCK:   -4.76 KCAL/MOL
REMARK 923 INTER-LIGAND FREE ENERGY PREDICTED BY IDOCK:   -4.58 KCAL/MOL
REMARK 924 INTRA-LIGAND FREE ENERGY PREDICTED BY IDOCK:   -0.18 KCAL/MOL
REMARK 927      BINDING AFFINITY PREDICTED BY RF-SCORE:    0.00 PKD
ROOT
HETATM    1  N   UNL     1      -9.423  12.184  68.478  1.00  0.00    -0.346 NA 
HETATM    2  C   UNL     1      -9.470  13.469  68.070  1.00  0.00    -0.220 C  
HETATM    3  H2  UNL     1      -9.863  11.834  69.328  1.00  0.00     0.000 HD 
HETATM    4  H1  UNL     1      -8.891  11.607  67.827  1.00  0.00     0.000 HD 
HETATM    5  N   UNL     1     -10.175  14.233  68.933  1.00  0.00    -0.310 NA 
HETATM    6  N   UNL     1      -8.905  13.804  66.967  1.00  0.00    -0.272 NA 
HETATM    7  H1  UNL     1     -10.211  15.205  68.624  1.00  0.00     0.000 HD 
HETATM    8  H2  UNL     1     -10.616  13.883  69.783  1.00  0.00     0.000 HD 
HETATM    9  H   UNL     1      -8.396  13.130  66.395  1.00  0.00     0.000 HD 
ENDROOT
BRANCH   6  10
HETATM   10  C   UNL     1      -9.032  15.212  66.575  1.00  0.00    -0.291 C  
BRANCH  10  11
HETATM   11  C   UNL     1      -7.751  15.994  66.923  1.00  0.00    -0.244 C  
BRANCH  11  12
HETATM   12  N   UNL     1      -8.008  17.434  67.179  1.00  0.00    -0.198 NA 
HETATM   13  C   UNL     1      -7.553  17.850  68.512  1.00  0.00    -0.289 C  
HETATM   14  C   UNL     1      -8.183  19.143  69.045  1.00  0.00    -0.256 C  
HETATM   15  C   UNL     1      -9.677  19.286  68.737  1.00  0.00    -0.510 C  
HETATM   16  C   UNL     1      -9.988  20.214  67.560  1.00  0.00    -0.571 C  
HETATM   17  C   UNL     1      -9.542  19.743  66.172  1.00  0.00    -0.484 C  
HETATM   18  C   UNL     1      -8.022  19.671  65.984  1.00  0.00    -0.337 C  
HETATM   19  C   UNL     1      -7.439  18.254  66.101  1.00  0.00    -0.256 C  
ENDBRANCH  11  12
ENDBRANCH  10  11
ENDBRANCH   6  10
TORSDOF 3
ENDMDL
MODEL       96
REMARK 921   NORMALIZED FREE ENERGY PREDICTED BY IDOCK:   -3.88 KCAL/MOL
REMARK 922        TOTAL FREE ENERGY PREDICTED BY IDOCK:   -4.75 KCAL/MOL
REMARK 923 INTER-LIGAND FREE ENERGY PREDICTED BY IDOCK:   -4.35 KCAL/MOL
REMARK 924 INTRA-LIGAND FREE ENERGY PREDICTED BY IDOCK:   -0.41 KCAL/MOL
REMARK 927      BINDING AFFINITY PREDICTED BY RF-SCORE:    0.00 PKD
ROOT
HETATM    1  N   UNL     1      -9.599   8.489  65.683  1.00  0.00    -0.444 NA 
HETATM    2  C   UNL     1     -10.311   8.878  66.760  1.00  0.00    -0.247 C  
HETATM    3  H2  UNL     1      -9.552   7.530  65.340  1.00  0.00     0.000 HD 
HETATM    4  H1  UNL     1      -9.113   9.277  65.254  1.00  0.00     0.000 HD 
HETATM    5  N   UNL     1     -10.954   7.835  67.328  1.00  0.00    -0.524 NA 
HETATM    6  N   UNL     1     -10.327  10.118  67.093  1.00  0.00    -0.224 NA 
HETATM    7  H1  UNL     1     -11.493   8.129  68.143  1.00  0.00     0.000 HD 
HETATM    8  H2  UNL     1     -10.907   6.876  66.986  1.00  0.00     0.000 HD 
HETATM    9  H   UNL     1      -9.795  10.821  66.581  1.00  0.00     0.000 HD 
ENDROOT
BRANCH   6  10
HETATM   10  C   UNL     1     -11.154  10.467  68.254  1.00  0.00    -0.281 C  
BRANCH  10  11
HETATM   11  C   UNL     1     -10.290  10.584  69.525  1.00  0.00    -0.221 C  
BRANCH  11  12
HETATM   12  N   UNL     1     -10.379   9.384  70.394  1.00  0.00    -0.242 NA 
HETATM   13  C   UNL     1      -9.070   8.985  70.925  1.00  0.00    -0.250 C  
HETATM   14  C   UNL     1      -8.977   7.534  71.417  1.00  0.00    -0.140 C  
HETATM   15  C   UNL     1      -9.715   6.524  70.533  1.00  0.00    -0.186 C  
HETATM   16  C   UNL     1     -11.079   6.092  71.078  1.00  0.00    -0.359 C  
HETATM   17  C   UNL     1     -12.176   7.160  71.119  1.00  0.00    -0.405 C  
HETATM   18  C   UNL     1     -11.912   8.306  72.103  1.00  0.00    -0.429 C  
HETATM   19  C   UNL     1     -11.383   9.590  71.447  1.00  0.00    -0.392 C  
ENDBRANCH  11  12
ENDBRANCH  10  11
ENDBRANCH   6  10
TORSDOF 3
ENDMDL
MODEL       97
REMARK 921   NORMALIZED FREE ENERGY PREDICTED BY IDOCK:   -3.86 KCAL/MOL
REMARK 922        TOTAL FREE ENERGY PREDICTED BY IDOCK:   -4.73 KCAL/MOL
REMARK 923 INTER-LIGAND FREE ENERGY PREDICTED BY IDOCK:   -4.46 KCAL/MOL
REMARK 924 INTRA-LIGAND FREE ENERGY PREDICTED BY IDOCK:   -0.26 KCAL/MOL
REMARK 927      BINDING AFFINITY PREDICTED BY RF-SCORE:    0.00 PKD
ROOT
HETATM    1  N   UNL     1      -8.054  10.003  70.320  1.00  0.00    -0.364 NA 
HETATM    2  C   UNL     1      -7.986  10.460  69.053  1.00  0.00    -0.131 C  
HETATM    3  H2  UNL     1      -7.973   9.021  70.582  1.00  0.00     0.000 HD 
HETATM    4  H1  UNL     1      -8.197  10.765  70.983  1.00  0.00     0.000 HD 
HETATM    5  N   UNL     1      -7.796   9.451  68.176  1.00  0.00    -0.087 NA 
HETATM    6  N   UNL     1      -8.071  11.722  68.831  1.00  0.00    -0.348 NA 
HETATM    7  H1  UNL     1      -7.744   9.797  67.217  1.00  0.00     0.000 HD 
HETATM    8  H2  UNL     1      -7.715   8.469  68.437  1.00  0.00     0.000 HD 
HETATM    9  H   UNL     1      -8.215  12.394  69.584  1.00  0.00     0.000 HD 
ENDROOT
BRANCH   6  10
HETATM   10  C   UNL     1      -7.951  12.143  67.430  1.00  0.00    -0.168 C  
BRANCH  10  11
HETATM   11  C   UNL     1      -8.906  13.314  67.127  1.00  0.00    -0.222 C  
BRANCH  11  12
HETATM   12  N   UNL     1     -10.040  12.921  66.255  1.00  0.00    -0.271 NA 
HETATM   13  C   UNL     1      -9.972  11.508  65.860  1.00  0.00    -0.230 C  
HETATM   14  C   UNL     1     -10.790  11.135  64.616  1.00  0.00    -0.295 C  
HETATM   15  C   UNL     1     -10.742  12.180  63.498  1.00  0.00    -0.509 C  
HETATM   16  C   UNL     1     -11.980  13.078  63.425  1.00  0.00    -0.592 C  
HETATM   17  C   UNL     1     -12.201  14.045  64.591  1.00  0.00    -0.460 C  
HETATM   18  C   UNL     1     -12.516  13.366  65.929  1.00  0.00    -0.468 C  
HETATM   19  C   UNL     1     -11.318  13.275  66.887  1.00  0.00    -0.318 C  
ENDBRANCH  11  12
ENDBRANCH  10  11
ENDBRANCH   6  10
TORSDOF 3
ENDMDL
MODEL       98
REMARK 921   NORMALIZED FREE ENERGY PREDICTED BY IDOCK:   -3.86 KCAL/MOL
REMARK 922        TOTAL FREE ENERGY PREDICTED BY IDOCK:   -4.72 KCAL/MOL
REMARK 923 INTER-LIGAND FREE ENERGY PREDICTED BY IDOCK:   -4.54 KCAL/MOL
REMARK 924 INTRA-LIGAND FREE ENERGY PREDICTED BY IDOCK:   -0.17 KCAL/MOL
REMARK 927      BINDING AFFINITY PREDICTED BY RF-SCORE:    0.00 PKD
ROOT
HETATM    1  N   UNL     1     -11.451   4.345  64.910  1.00  0.00    -1.068 NA 
HETATM    2  C   UNL     1     -10.877   4.946  65.973  1.00  0.00    -0.076 C  
HETATM    3  H2  UNL     1     -11.125   3.470  64.499  1.00  0.00     0.000 HD 
HETATM    4  H1  UNL     1     -12.252   4.876  64.570  1.00  0.00     0.000 HD 
HETATM    5  N   UNL     1      -9.816   4.241  66.422  1.00  0.00    -0.223 NA 
HETATM    6  N   UNL     1     -11.382   6.033  66.433  1.00  0.00    -0.657 NA 
HETATM    7  H1  UNL     1      -9.382   4.696  67.226  1.00  0.00     0.000 HD 
HETATM    8  H2  UNL     1      -9.490   3.367  66.011  1.00  0.00     0.000 HD 
HETATM    9  H   UNL     1     -12.194   6.474  66.003  1.00  0.00     0.000 HD 
ENDROOT
BRANCH   6  10
HETATM   10  C   UNL     1     -10.723   6.605  67.613  1.00  0.00    -0.302 C  
BRANCH  10  11
HETATM   11  C   UNL     1      -9.728   7.708  67.202  1.00  0.00    -0.183 C  
BRANCH  11  12
HETATM   12  N   UNL     1      -9.962   8.988  67.917  1.00  0.00    -0.168 NA 
HETATM   13  C   UNL     1      -9.636   8.892  69.346  1.00  0.00    -0.163 C  
HETATM   14  C   UNL     1     -10.275   9.966  70.237  1.00  0.00    -0.322 C  
HETATM   15  C   UNL     1     -11.722  10.307  69.868  1.00  0.00    -0.298 C  
HETATM   16  C   UNL     1     -11.875  11.600  69.062  1.00  0.00    -0.391 C  
HETATM   17  C   UNL     1     -11.301  11.602  67.642  1.00  0.00    -0.362 C  
HETATM   18  C   UNL     1      -9.773  11.494  67.574  1.00  0.00    -0.189 C  
HETATM   19  C   UNL     1      -9.255  10.086  67.244  1.00  0.00    -0.141 C  
ENDBRANCH  11  12
ENDBRANCH  10  11
ENDBRANCH   6  10
TORSDOF 3
ENDMDL
MODEL       99
REMARK 921   NORMALIZED FREE ENERGY PREDICTED BY IDOCK:   -3.84 KCAL/MOL
REMARK 922        TOTAL FREE ENERGY PREDICTED BY IDOCK:   -4.70 KCAL/MOL
REMARK 923 INTER-LIGAND FREE ENERGY PREDICTED BY IDOCK:   -4.50 KCAL/MOL
REMARK 924 INTRA-LIGAND FREE ENERGY PREDICTED BY IDOCK:   -0.20 KCAL/MOL
REMARK 927      BINDING AFFINITY PREDICTED BY RF-SCORE:    0.00 PKD
ROOT
HETATM    1  N   UNL     1     -13.963  14.433  72.457  1.00  0.00    -0.551 NA 
HETATM    2  C   UNL     1     -12.836  14.496  71.719  1.00  0.00    -0.343 C  
HETATM    3  H2  UNL     1     -14.122  14.968  73.311  1.00  0.00     0.000 HD 
HETATM    4  H1  UNL     1     -14.637  13.784  72.052  1.00  0.00     0.000 HD 
HETATM    5  N   UNL     1     -11.944  15.356  72.256  1.00  0.00    -0.398 NA 
HETATM    6  N   UNL     1     -12.746  13.802  70.642  1.00  0.00    -0.293 NA 
HETATM    7  H1  UNL     1     -11.091  15.404  71.698  1.00  0.00     0.000 HD 
HETATM    8  H2  UNL     1     -12.103  15.891  73.110  1.00  0.00     0.000 HD 
HETATM    9  H   UNL     1     -13.495  13.182  70.336  1.00  0.00     0.000 HD 
ENDROOT
BRANCH   6  10
HETATM   10  C   UNL     1     -11.504  13.953  69.876  1.00  0.00    -0.183 C  
BRANCH  10  11
HETATM   11  C   UNL     1     -11.752  14.758  68.585  1.00  0.00    -0.325 C  
BRANCH  11  12
HETATM   12  N   UNL     1     -11.086  14.163  67.400  1.00  0.00    -0.298 NA 
HETATM   13  C   UNL     1     -11.177  15.030  66.219  1.00  0.00    -0.309 C  
HETATM   14  C   UNL     1     -10.958  14.327  64.872  1.00  0.00    -0.413 C  
HETATM   15  C   UNL     1     -11.601  12.941  64.776  1.00  0.00    -0.373 C  
HETATM   16  C   UNL     1     -10.621  11.780  64.970  1.00  0.00    -0.338 C  
HETATM   17  C   UNL     1     -10.007  11.620  66.364  1.00  0.00    -0.235 C  
HETATM   18  C   UNL     1      -9.067  12.758  66.779  1.00  0.00    -0.209 C  
HETATM   19  C   UNL     1      -9.703  13.787  67.726  1.00  0.00    -0.230 C  
ENDBRANCH  11  12
ENDBRANCH  10  11
ENDBRANCH   6  10
TORSDOF 3
ENDMDL
MODEL      100
REMARK 921   NORMALIZED FREE ENERGY PREDICTED BY IDOCK:   -3.82 KCAL/MOL
REMARK 922        TOTAL FREE ENERGY PREDICTED BY IDOCK:   -4.68 KCAL/MOL
REMARK 923 INTER-LIGAND FREE ENERGY PREDICTED BY IDOCK:   -4.46 KCAL/MOL
REMARK 924 INTRA-LIGAND FREE ENERGY PREDICTED BY IDOCK:   -0.22 KCAL/MOL
REMARK 927      BINDING AFFINITY PREDICTED BY RF-SCORE:    0.00 PKD
ROOT
HETATM    1  N   UNL     1     -10.000  12.532  65.023  1.00  0.00    -0.436 NA 
HETATM    2  C   UNL     1     -10.683  11.806  65.933  1.00  0.00    -0.282 C  
HETATM    3  H2  UNL     1     -10.370  13.356  64.551  1.00  0.00     0.000 HD 
HETATM    4  H1  UNL     1      -9.067  12.150  64.869  1.00  0.00     0.000 HD 
HETATM    5  N   UNL     1     -11.919  12.311  66.137  1.00  0.00    -0.618 NA 
HETATM    6  N   UNL     1     -10.116  10.800  66.494  1.00  0.00    -0.220 NA 
HETATM    7  H1  UNL     1     -12.435  11.763  66.826  1.00  0.00     0.000 HD 
HETATM    8  H2  UNL     1     -12.288  13.136  65.665  1.00  0.00     0.000 HD 
HETATM    9  H   UNL     1      -9.168  10.512  66.254  1.00  0.00     0.000 HD 
ENDROOT
BRANCH   6  10
HETATM   10  C   UNL     1     -10.911  10.085  67.499  1.00  0.00    -0.212 C  
BRANCH  10  11
HETATM   11  C   UNL     1     -10.356  10.336  68.914  1.00  0.00    -0.204 C  
BRANCH  11  12
HETATM   12  N   UNL     1     -10.412   9.129  69.776  1.00  0.00    -0.215 NA 
HETATM   13  C   UNL     1     -10.157   7.896  69.021  1.00  0.00    -0.200 C  
HETATM   14  C   UNL     1     -10.652   6.605  69.688  1.00  0.00    -0.276 C  
HETATM   15  C   UNL     1     -12.013   6.738  70.377  1.00  0.00    -0.343 C  
HETATM   16  C   UNL     1     -11.933   6.897  71.898  1.00  0.00    -0.363 C  
HETATM   17  C   UNL     1     -11.315   8.196  72.425  1.00  0.00    -0.456 C  
HETATM   18  C   UNL     1      -9.821   8.359  72.120  1.00  0.00    -0.372 C  
HETATM   19  C   UNL     1      -9.518   9.285  70.932  1.00  0.00    -0.261 C  
ENDBRANCH  11  12
ENDBRANCH  10  11
ENDBRANCH   6  10
TORSDOF 3
ENDMDL
MODEL      101
REMARK 921   NORMALIZED FREE ENERGY PREDICTED BY IDOCK:   -3.81 KCAL/MOL
REMARK 922        TOTAL FREE ENERGY PREDICTED BY IDOCK:   -4.66 KCAL/MOL
REMARK 923 INTER-LIGAND FREE ENERGY PREDICTED BY IDOCK:   -4.43 KCAL/MOL
REMARK 924 INTRA-LIGAND FREE ENERGY PREDICTED BY IDOCK:   -0.23 KCAL/MOL
REMARK 927      BINDING AFFINITY PREDICTED BY RF-SCORE:    0.00 PKD
ROOT
HETATM    1  N   UNL     1     -11.461  12.590  63.098  1.00  0.00    -0.753 NA 
HETATM    2  C   UNL     1     -10.564  11.671  63.511  1.00  0.00    -0.435 C  
HETATM    3  H2  UNL     1     -11.412  13.080  62.205  1.00  0.00     0.000 HD 
HETATM    4  H1  UNL     1     -12.195  12.731  63.792  1.00  0.00     0.000 HD 
HETATM    5  N   UNL     1      -9.592  11.484  62.592  1.00  0.00    -0.508 NA 
HETATM    6  N   UNL     1     -10.731  11.089  64.644  1.00  0.00    -0.297 NA 
HETATM    7  H1  UNL     1      -8.914  10.789  62.904  1.00  0.00     0.000 HD 
HETATM    8  H2  UNL     1      -9.543  11.974  61.699  1.00  0.00     0.000 HD 
HETATM    9  H   UNL     1     -11.513  11.317  65.257  1.00  0.00     0.000 HD 
ENDROOT
BRANCH   6  10
HETATM   10  C   UNL     1      -9.733  10.076  65.005  1.00  0.00    -0.317 C  
BRANCH  10  11
HETATM   11  C   UNL     1      -8.720  10.644  66.019  1.00  0.00    -0.177 C  
BRANCH  11  12
HETATM   12  N   UNL     1      -9.360  11.093  67.280  1.00  0.00    -0.160 NA 
HETATM   13  C   UNL     1      -8.901  10.321  68.441  1.00  0.00    -0.129 C  
HETATM   14  C   UNL     1      -9.821  10.372  69.669  1.00  0.00    -0.179 C  
HETATM   15  C   UNL     1     -11.315  10.317  69.334  1.00  0.00    -0.279 C  
HETATM   16  C   UNL     1     -12.017  11.676  69.377  1.00  0.00    -0.381 C  
HETATM   17  C   UNL     1     -11.612  12.697  68.309  1.00  0.00    -0.377 C  
HETATM   18  C   UNL     1     -10.170  13.204  68.429  1.00  0.00    -0.247 C  
HETATM   19  C   UNL     1      -9.186  12.541  67.454  1.00  0.00    -0.186 C  
ENDBRANCH  11  12
ENDBRANCH  10  11
ENDBRANCH   6  10
TORSDOF 3
ENDMDL
MODEL      102
REMARK 921   NORMALIZED FREE ENERGY PREDICTED BY IDOCK:   -3.76 KCAL/MOL
REMARK 922        TOTAL FREE ENERGY PREDICTED BY IDOCK:   -4.60 KCAL/MOL
REMARK 923 INTER-LIGAND FREE ENERGY PREDICTED BY IDOCK:   -4.39 KCAL/MOL
REMARK 924 INTRA-LIGAND FREE ENERGY PREDICTED BY IDOCK:   -0.22 KCAL/MOL
REMARK 927      BINDING AFFINITY PREDICTED BY RF-SCORE:    0.00 PKD
ROOT
HETATM    1  N   UNL     1     -12.356  10.698  68.980  1.00  0.00    -0.779 NA 
HETATM    2  C   UNL     1     -11.101  10.593  68.499  1.00  0.00    -0.263 C  
HETATM    3  H2  UNL     1     -13.116  10.058  68.750  1.00  0.00     0.000 HD 
HETATM    4  H1  UNL     1     -12.449  11.499  69.605  1.00  0.00     0.000 HD 
HETATM    5  N   UNL     1     -10.979   9.532  67.672  1.00  0.00    -0.471 NA 
HETATM    6  N   UNL     1     -10.207  11.435  68.874  1.00  0.00    -0.307 NA 
HETATM    7  H1  UNL     1     -10.029   9.452  67.307  1.00  0.00     0.000 HD 
HETATM    8  H2  UNL     1     -11.739   8.892  67.441  1.00  0.00     0.000 HD 
HETATM    9  H   UNL     1     -10.422  12.202  69.510  1.00  0.00     0.000 HD 
ENDROOT
BRANCH   6  10
HETATM   10  C   UNL     1      -8.858  11.230  68.335  1.00  0.00    -0.159 C  
BRANCH  10  11
HETATM   11  C   UNL     1      -8.558  12.244  67.213  1.00  0.00    -0.183 C  
BRANCH  11  12
HETATM   12  N   UNL     1      -9.360  13.487  67.332  1.00  0.00    -0.219 NA 
HETATM   13  C   UNL     1      -8.528  14.694  67.253  1.00  0.00    -0.215 C  
HETATM   14  C   UNL     1      -9.162  15.967  67.830  1.00  0.00    -0.205 C  
HETATM   15  C   UNL     1      -9.953  15.743  69.122  1.00  0.00    -0.241 C  
HETATM   16  C   UNL     1     -11.470  15.680  68.925  1.00  0.00    -0.367 C  
HETATM   17  C   UNL     1     -12.017  14.479  68.147  1.00  0.00    -0.296 C  
HETATM   18  C   UNL     1     -11.613  14.444  66.668  1.00  0.00    -0.396 C  
HETATM   19  C   UNL     1     -10.455  13.485  66.353  1.00  0.00    -0.287 C  
ENDBRANCH  11  12
ENDBRANCH  10  11
ENDBRANCH   6  10
TORSDOF 3
ENDMDL
MODEL      103
REMARK 921   NORMALIZED FREE ENERGY PREDICTED BY IDOCK:   -3.75 KCAL/MOL
REMARK 922        TOTAL FREE ENERGY PREDICTED BY IDOCK:   -4.60 KCAL/MOL
REMARK 923 INTER-LIGAND FREE ENERGY PREDICTED BY IDOCK:   -4.40 KCAL/MOL
REMARK 924 INTRA-LIGAND FREE ENERGY PREDICTED BY IDOCK:   -0.20 KCAL/MOL
REMARK 927      BINDING AFFINITY PREDICTED BY RF-SCORE:    0.00 PKD
ROOT
HETATM    1  N   UNL     1     -13.377  15.215  70.519  1.00  0.00    -0.689 NA 
HETATM    2  C   UNL     1     -12.124  15.193  70.019  1.00  0.00    -0.345 C  
HETATM    3  H2  UNL     1     -13.669  14.721  71.362  1.00  0.00     0.000 HD 
HETATM    4  H1  UNL     1     -13.995  15.789  69.946  1.00  0.00     0.000 HD 
HETATM    5  N   UNL     1     -11.306  14.432  70.779  1.00  0.00    -0.520 NA 
HETATM    6  N   UNL     1     -11.851  15.873  68.965  1.00  0.00    -0.438 NA 
HETATM    7  H1  UNL     1     -10.358  14.415  70.401  1.00  0.00     0.000 HD 
HETATM    8  H2  UNL     1     -11.598  13.938  71.621  1.00  0.00     0.000 HD 
HETATM    9  H   UNL     1     -12.561  16.415  68.474  1.00  0.00     0.000 HD 
ENDROOT
BRANCH   6  10
HETATM   10  C   UNL     1     -10.458  15.826  68.507  1.00  0.00    -0.236 C  
BRANCH  10  11
HETATM   11  C   UNL     1     -10.224  16.836  67.366  1.00  0.00    -0.288 C  
BRANCH  11  12
HETATM   12  N   UNL     1      -8.882  17.468  67.425  1.00  0.00    -0.227 NA 
HETATM   13  C   UNL     1      -8.834  18.737  66.687  1.00  0.00    -0.314 C  
HETATM   14  C   UNL     1      -7.429  19.211  66.289  1.00  0.00    -0.286 C  
HETATM   15  C   UNL     1      -6.500  18.089  65.817  1.00  0.00    -0.293 C  
HETATM   16  C   UNL     1      -5.495  17.621  66.873  1.00  0.00    -0.181 C  
HETATM   17  C   UNL     1      -6.066  16.903  68.100  1.00  0.00    -0.132 C  
HETATM   18  C   UNL     1      -6.928  17.788  69.009  1.00  0.00    -0.236 C  
HETATM   19  C   UNL     1      -8.441  17.602  68.819  1.00  0.00    -0.213 C  
ENDBRANCH  11  12
ENDBRANCH  10  11
ENDBRANCH   6  10
TORSDOF 3
ENDMDL
MODEL      104
REMARK 921   NORMALIZED FREE ENERGY PREDICTED BY IDOCK:   -3.75 KCAL/MOL
REMARK 922        TOTAL FREE ENERGY PREDICTED BY IDOCK:   -4.60 KCAL/MOL
REMARK 923 INTER-LIGAND FREE ENERGY PREDICTED BY IDOCK:   -4.39 KCAL/MOL
REMARK 924 INTRA-LIGAND FREE ENERGY PREDICTED BY IDOCK:   -0.21 KCAL/MOL
REMARK 927      BINDING AFFINITY PREDICTED BY RF-SCORE:    0.00 PKD
ROOT
HETATM    1  N   UNL     1     -10.832   9.821  70.864  1.00  0.00    -0.328 NA 
HETATM    2  C   UNL     1     -11.565  10.732  70.192  1.00  0.00    -0.337 C  
HETATM    3  H2  UNL     1     -11.148   8.877  71.083  1.00  0.00     0.000 HD 
HETATM    4  H1  UNL     1      -9.920  10.197  71.125  1.00  0.00     0.000 HD 
HETATM    5  N   UNL     1     -12.772  10.234  69.846  1.00  0.00    -0.540 NA 
HETATM    6  N   UNL     1     -11.063  11.887  69.941  1.00  0.00    -0.466 NA 
HETATM    7  H1  UNL     1     -13.326  10.923  69.337  1.00  0.00     0.000 HD 
HETATM    8  H2  UNL     1     -13.088   9.290  70.065  1.00  0.00     0.000 HD 
HETATM    9  H   UNL     1     -10.130  12.150  70.257  1.00  0.00     0.000 HD 
ENDROOT
BRANCH   6  10
HETATM   10  C   UNL     1     -11.909  12.808  69.173  1.00  0.00    -0.301 C  
BRANCH  10  11
HETATM   11  C   UNL     1     -11.618  14.271  69.563  1.00  0.00    -0.301 C  
BRANCH  11  12
HETATM   12  N   UNL     1     -10.701  14.948  68.614  1.00  0.00    -0.243 NA 
HETATM   13  C   UNL     1     -10.851  14.445  67.242  1.00  0.00    -0.290 C  
HETATM   14  C   UNL     1      -9.662  14.717  66.310  1.00  0.00    -0.329 C  
HETATM   15  C   UNL     1      -8.293  14.546  66.975  1.00  0.00    -0.195 C  
HETATM   16  C   UNL     1      -7.626  15.863  67.385  1.00  0.00    -0.208 C  
HETATM   17  C   UNL     1      -8.297  16.656  68.510  1.00  0.00    -0.228 C  
HETATM   18  C   UNL     1      -9.677  17.223  68.154  1.00  0.00    -0.284 C  
HETATM   19  C   UNL     1     -10.855  16.406  68.706  1.00  0.00    -0.338 C  
ENDBRANCH  11  12
ENDBRANCH  10  11
ENDBRANCH   6  10
TORSDOF 3
ENDMDL
MODEL      105
REMARK 921   NORMALIZED FREE ENERGY PREDICTED BY IDOCK:   -3.74 KCAL/MOL
REMARK 922        TOTAL FREE ENERGY PREDICTED BY IDOCK:   -4.58 KCAL/MOL
REMARK 923 INTER-LIGAND FREE ENERGY PREDICTED BY IDOCK:   -4.41 KCAL/MOL
REMARK 924 INTRA-LIGAND FREE ENERGY PREDICTED BY IDOCK:   -0.17 KCAL/MOL
REMARK 927      BINDING AFFINITY PREDICTED BY RF-SCORE:    0.00 PKD
ROOT
HETATM    1  N   UNL     1      -8.700   8.751  64.003  1.00  0.00    -0.419 NA 
HETATM    2  C   UNL     1      -9.103   8.998  65.266  1.00  0.00    -0.167 C  
HETATM    3  H2  UNL     1      -8.218   9.427  63.411  1.00  0.00     0.000 HD 
HETATM    4  H1  UNL     1      -8.938   7.802  63.716  1.00  0.00     0.000 HD 
HETATM    5  N   UNL     1      -8.787  10.255  65.647  1.00  0.00    -0.161 NA 
HETATM    6  N   UNL     1      -9.678   8.068  65.940  1.00  0.00    -0.430 NA 
HETATM    7  H1  UNL     1      -9.091  10.442  66.603  1.00  0.00     0.000 HD 
HETATM    8  H2  UNL     1      -8.305  10.930  65.055  1.00  0.00     0.000 HD 
HETATM    9  H   UNL     1      -9.865   7.149  65.540  1.00  0.00     0.000 HD 
ENDROOT
BRANCH   6  10
HETATM   10  C   UNL     1     -10.054   8.404  67.318  1.00  0.00    -0.253 C  
BRANCH  10  11
HETATM   11  C   UNL     1     -10.147   7.132  68.184  1.00  0.00    -0.169 C  
BRANCH  11  12
HETATM   12  N   UNL     1     -10.562   7.417  69.580  1.00  0.00    -0.233 NA 
HETATM   13  C   UNL     1     -10.869   6.191  70.329  1.00  0.00    -0.319 C  
HETATM   14  C   UNL     1     -11.740   6.386  71.578  1.00  0.00    -0.369 C  
HETATM   15  C   UNL     1     -12.872   7.402  71.399  1.00  0.00    -0.408 C  
HETATM   16  C   UNL     1     -12.580   8.779  72.003  1.00  0.00    -0.447 C  
HETATM   17  C   UNL     1     -11.469   9.601  71.344  1.00  0.00    -0.455 C  
HETATM   18  C   UNL     1     -10.064   9.006  71.493  1.00  0.00    -0.409 C  
HETATM   19  C   UNL     1      -9.561   8.258  70.250  1.00  0.00    -0.168 C  
ENDBRANCH  11  12
ENDBRANCH  10  11
ENDBRANCH   6  10
TORSDOF 3
ENDMDL
MODEL      106
REMARK 921   NORMALIZED FREE ENERGY PREDICTED BY IDOCK:   -3.74 KCAL/MOL
REMARK 922        TOTAL FREE ENERGY PREDICTED BY IDOCK:   -4.58 KCAL/MOL
REMARK 923 INTER-LIGAND FREE ENERGY PREDICTED BY IDOCK:   -4.38 KCAL/MOL
REMARK 924 INTRA-LIGAND FREE ENERGY PREDICTED BY IDOCK:   -0.20 KCAL/MOL
REMARK 927      BINDING AFFINITY PREDICTED BY RF-SCORE:    0.00 PKD
ROOT
HETATM    1  N   UNL     1     -10.986   7.544  66.934  1.00  0.00    -0.537 NA 
HETATM    2  C   UNL     1     -10.482   8.688  67.441  1.00  0.00    -0.281 C  
HETATM    3  H2  UNL     1     -10.430   6.717  66.717  1.00  0.00     0.000 HD 
HETATM    4  H1  UNL     1     -11.995   7.611  66.796  1.00  0.00     0.000 HD 
HETATM    5  N   UNL     1      -9.147   8.598  67.624  1.00  0.00    -0.134 NA 
HETATM    6  N   UNL     1     -11.273   9.664  67.707  1.00  0.00    -0.471 NA 
HETATM    7  H1  UNL     1      -8.766   9.464  68.007  1.00  0.00     0.000 HD 
HETATM    8  H2  UNL     1      -8.591   7.772  67.407  1.00  0.00     0.000 HD 
HETATM    9  H   UNL     1     -12.274   9.613  67.523  1.00  0.00     0.000 HD 
ENDROOT
BRANCH   6  10
HETATM   10  C   UNL     1     -10.653  10.860  68.289  1.00  0.00    -0.190 C  
BRANCH  10  11
HETATM   11  C   UNL     1     -11.569  11.484  69.360  1.00  0.00    -0.321 C  
BRANCH  11  12
HETATM   12  N   UNL     1     -11.635  12.964  69.270  1.00  0.00    -0.296 NA 
HETATM   13  C   UNL     1     -12.031  13.420  67.931  1.00  0.00    -0.323 C  
HETATM   14  C   UNL     1     -11.671  14.876  67.603  1.00  0.00    -0.329 C  
HETATM   15  C   UNL     1     -10.296  15.313  68.116  1.00  0.00    -0.242 C  
HETATM   16  C   UNL     1     -10.341  16.143  69.402  1.00  0.00    -0.277 C  
HETATM   17  C   UNL     1     -10.808  15.424  70.671  1.00  0.00    -0.318 C  
HETATM   18  C   UNL     1     -12.279  14.991  70.652  1.00  0.00    -0.381 C  
HETATM   19  C   UNL     1     -12.493  13.503  70.333  1.00  0.00    -0.275 C  
ENDBRANCH  11  12
ENDBRANCH  10  11
ENDBRANCH   6  10
TORSDOF 3
ENDMDL
MODEL      107
REMARK 921   NORMALIZED FREE ENERGY PREDICTED BY IDOCK:   -3.72 KCAL/MOL
REMARK 922        TOTAL FREE ENERGY PREDICTED BY IDOCK:   -4.56 KCAL/MOL
REMARK 923 INTER-LIGAND FREE ENERGY PREDICTED BY IDOCK:   -4.24 KCAL/MOL
REMARK 924 INTRA-LIGAND FREE ENERGY PREDICTED BY IDOCK:   -0.32 KCAL/MOL
REMARK 927      BINDING AFFINITY PREDICTED BY RF-SCORE:    0.00 PKD
ROOT
HETATM    1  N   UNL     1      -9.347  11.826  67.923  1.00  0.00    -0.178 NA 
HETATM    2  C   UNL     1      -8.809  13.056  67.793  1.00  0.00    -0.188 C  
HETATM    3  H2  UNL     1      -9.742  11.287  67.153  1.00  0.00     0.000 HD 
HETATM    4  H1  UNL     1      -9.308  11.504  68.890  1.00  0.00     0.000 HD 
HETATM    5  N   UNL     1      -8.862  13.482  66.512  1.00  0.00    -0.453 NA 
HETATM    6  N   UNL     1      -8.311  13.641  68.822  1.00  0.00    -0.342 NA 
HETATM    7  H1  UNL     1      -8.455  14.413  66.413  1.00  0.00     0.000 HD 
HETATM    8  H2  UNL     1      -9.257  12.943  65.742  1.00  0.00     0.000 HD 
HETATM    9  H   UNL     1      -8.330  13.214  69.747  1.00  0.00     0.000 HD 
ENDROOT
BRANCH   6  10
HETATM   10  C   UNL     1      -7.712  14.960  68.590  1.00  0.00    -0.127 C  
BRANCH  10  11
HETATM   11  C   UNL     1      -8.603  16.075  69.173  1.00  0.00    -0.247 C  
BRANCH  11  12
HETATM   12  N   UNL     1      -8.862  17.169  68.204  1.00  0.00    -0.230 NA 
HETATM   13  C   UNL     1      -7.733  17.380  67.290  1.00  0.00    -0.200 C  
HETATM   14  C   UNL     1      -7.698  18.749  66.596  1.00  0.00    -0.262 C  
HETATM   15  C   UNL     1      -8.099  19.919  67.499  1.00  0.00    -0.341 C  
HETATM   16  C   UNL     1      -9.533  20.411  67.288  1.00  0.00    -0.568 C  
HETATM   17  C   UNL     1     -10.658  19.453  67.693  1.00  0.00    -0.575 C  
HETATM   18  C   UNL     1     -10.747  18.181  66.841  1.00  0.00    -0.246 C  
HETATM   19  C   UNL     1     -10.131  16.938  67.500  1.00  0.00    -0.282 C  
ENDBRANCH  11  12
ENDBRANCH  10  11
ENDBRANCH   6  10
TORSDOF 3
ENDMDL
MODEL      108
REMARK 921   NORMALIZED FREE ENERGY PREDICTED BY IDOCK:   -3.72 KCAL/MOL
REMARK 922        TOTAL FREE ENERGY PREDICTED BY IDOCK:   -4.56 KCAL/MOL
REMARK 923 INTER-LIGAND FREE ENERGY PREDICTED BY IDOCK:   -4.38 KCAL/MOL
REMARK 924 INTRA-LIGAND FREE ENERGY PREDICTED BY IDOCK:   -0.18 KCAL/MOL
REMARK 927      BINDING AFFINITY PREDICTED BY RF-SCORE:    0.00 PKD
ROOT
HETATM    1  N   UNL     1     -10.435  18.713  67.428  1.00  0.00    -0.405 NA 
HETATM    2  C   UNL     1     -10.526  17.494  66.857  1.00  0.00    -0.285 C  
HETATM    3  H2  UNL     1     -10.196  19.567  66.924  1.00  0.00     0.000 HD 
HETATM    4  H1  UNL     1     -10.637  18.672  68.427  1.00  0.00     0.000 HD 
HETATM    5  N   UNL     1     -10.259  17.549  65.534  1.00  0.00    -0.612 NA 
HETATM    6  N   UNL     1     -10.863  16.484  67.575  1.00  0.00    -0.284 NA 
HETATM    7  H1  UNL     1     -10.328  16.627  65.103  1.00  0.00     0.000 HD 
HETATM    8  H2  UNL     1     -10.019  18.403  65.031  1.00  0.00     0.000 HD 
HETATM    9  H   UNL     1     -11.041  16.569  68.575  1.00  0.00     0.000 HD 
ENDROOT
BRANCH   6  10
HETATM   10  C   UNL     1     -10.975  15.200  66.873  1.00  0.00    -0.323 C  
BRANCH  10  11
HETATM   11  C   UNL     1     -11.338  14.070  67.857  1.00  0.00    -0.291 C  
BRANCH  11  12
HETATM   12  N   UNL     1     -11.082  12.719  67.299  1.00  0.00    -0.265 NA 
HETATM   13  C   UNL     1     -11.730  11.662  68.086  1.00  0.00    -0.295 C  
HETATM   14  C   UNL     1     -11.153  10.253  67.891  1.00  0.00    -0.341 C  
HETATM   15  C   UNL     1      -9.626  10.210  67.781  1.00  0.00    -0.168 C  
HETATM   16  C   UNL     1      -9.105  10.076  66.348  1.00  0.00    -0.176 C  
HETATM   17  C   UNL     1      -9.339  11.267  65.413  1.00  0.00    -0.232 C  
HETATM   18  C   UNL     1     -10.811  11.529  65.075  1.00  0.00    -0.336 C  
HETATM   19  C   UNL     1     -11.447  12.675  65.877  1.00  0.00    -0.363 C  
ENDBRANCH  11  12
ENDBRANCH  10  11
ENDBRANCH   6  10
TORSDOF 3
ENDMDL
MODEL      109
REMARK 921   NORMALIZED FREE ENERGY PREDICTED BY IDOCK:   -3.72 KCAL/MOL
REMARK 922        TOTAL FREE ENERGY PREDICTED BY IDOCK:   -4.56 KCAL/MOL
REMARK 923 INTER-LIGAND FREE ENERGY PREDICTED BY IDOCK:   -4.32 KCAL/MOL
REMARK 924 INTRA-LIGAND FREE ENERGY PREDICTED BY IDOCK:   -0.23 KCAL/MOL
REMARK 927      BINDING AFFINITY PREDICTED BY RF-SCORE:    0.00 PKD
ROOT
HETATM    1  N   UNL     1      -9.703   9.429  66.385  1.00  0.00    -0.229 NA 
HETATM    2  C   UNL     1     -10.268  10.630  66.144  1.00  0.00    -0.248 C  
HETATM    3  H2  UNL     1      -8.959   9.020  65.820  1.00  0.00     0.000 HD 
HETATM    4  H1  UNL     1     -10.113   8.984  67.206  1.00  0.00     0.000 HD 
HETATM    5  N   UNL     1      -9.723  11.220  65.058  1.00  0.00    -0.243 NA 
HETATM    6  N   UNL     1     -11.179  11.071  66.934  1.00  0.00    -0.326 NA 
HETATM    7  H1  UNL     1     -10.150  12.129  64.875  1.00  0.00     0.000 HD 
HETATM    8  H2  UNL     1      -8.980  10.810  64.493  1.00  0.00     0.000 HD 
HETATM    9  H   UNL     1     -11.511  10.528  67.730  1.00  0.00     0.000 HD 
ENDROOT
BRANCH   6  10
HETATM   10  C   UNL     1     -11.717  12.400  66.624  1.00  0.00    -0.372 C  
BRANCH  10  11
HETATM   11  C   UNL     1     -11.665  13.313  67.865  1.00  0.00    -0.357 C  
BRANCH  11  12
HETATM   12  N   UNL     1     -11.059  14.638  67.580  1.00  0.00    -0.302 NA 
HETATM   13  C   UNL     1     -11.219  15.029  66.173  1.00  0.00    -0.307 C  
HETATM   14  C   UNL     1     -10.247  16.109  65.679  1.00  0.00    -0.390 C  
HETATM   15  C   UNL     1      -8.817  15.954  66.206  1.00  0.00    -0.386 C  
HETATM   16  C   UNL     1      -8.474  16.889  67.369  1.00  0.00    -0.204 C  
HETATM   17  C   UNL     1      -9.202  16.641  68.693  1.00  0.00    -0.248 C  
HETATM   18  C   UNL     1     -10.711  16.911  68.649  1.00  0.00    -0.345 C  
HETATM   19  C   UNL     1     -11.574  15.647  68.515  1.00  0.00    -0.370 C  
ENDBRANCH  11  12
ENDBRANCH  10  11
ENDBRANCH   6  10
TORSDOF 3
ENDMDL
MODEL      110
REMARK 921   NORMALIZED FREE ENERGY PREDICTED BY IDOCK:   -3.71 KCAL/MOL
REMARK 922        TOTAL FREE ENERGY PREDICTED BY IDOCK:   -4.55 KCAL/MOL
REMARK 923 INTER-LIGAND FREE ENERGY PREDICTED BY IDOCK:   -4.36 KCAL/MOL
REMARK 924 INTRA-LIGAND FREE ENERGY PREDICTED BY IDOCK:   -0.19 KCAL/MOL
REMARK 927      BINDING AFFINITY PREDICTED BY RF-SCORE:    0.00 PKD
ROOT
HETATM    1  N   UNL     1      -6.198  13.453  70.713  1.00  0.00    -0.470 NA 
HETATM    2  C   UNL     1      -6.659  13.806  69.496  1.00  0.00    -0.081 C  
HETATM    3  H2  UNL     1      -5.263  13.668  71.058  1.00  0.00     0.000 HD 
HETATM    4  H1  UNL     1      -6.904  12.943  71.244  1.00  0.00     0.000 HD 
HETATM    5  N   UNL     1      -5.724  14.482  68.793  1.00  0.00    -0.083 NA 
HETATM    6  N   UNL     1      -7.865  13.512  69.166  1.00  0.00    -0.327 NA 
HETATM    7  H1  UNL     1      -6.073  14.750  67.872  1.00  0.00     0.000 HD 
HETATM    8  H2  UNL     1      -4.790  14.697  69.138  1.00  0.00     0.000 HD 
HETATM    9  H   UNL     1      -8.483  12.993  69.790  1.00  0.00     0.000 HD 
ENDROOT
BRANCH   6  10
HETATM   10  C   UNL     1      -8.303  13.963  67.841  1.00  0.00    -0.167 C  
BRANCH  10  11
HETATM   11  C   UNL     1      -9.822  14.224  67.827  1.00  0.00    -0.223 C  
BRANCH  11  12
HETATM   12  N   UNL     1     -10.536  13.407  66.814  1.00  0.00    -0.276 NA 
HETATM   13  C   UNL     1     -10.426  11.968  67.084  1.00  0.00    -0.220 C  
HETATM   14  C   UNL     1     -10.701  11.053  65.884  1.00  0.00    -0.226 C  
HETATM   15  C   UNL     1     -10.125  11.565  64.560  1.00  0.00    -0.324 C  
HETATM   16  C   UNL     1     -11.155  12.235  63.646  1.00  0.00    -0.537 C  
HETATM   17  C   UNL     1     -11.750  13.560  64.130  1.00  0.00    -0.453 C  
HETATM   18  C   UNL     1     -12.629  13.443  65.381  1.00  0.00    -0.528 C  
HETATM   19  C   UNL     1     -11.928  13.858  66.684  1.00  0.00    -0.442 C  
ENDBRANCH  11  12
ENDBRANCH  10  11
ENDBRANCH   6  10
TORSDOF 3
ENDMDL
MODEL      111
REMARK 921   NORMALIZED FREE ENERGY PREDICTED BY IDOCK:   -3.71 KCAL/MOL
REMARK 922        TOTAL FREE ENERGY PREDICTED BY IDOCK:   -4.54 KCAL/MOL
REMARK 923 INTER-LIGAND FREE ENERGY PREDICTED BY IDOCK:   -4.41 KCAL/MOL
REMARK 924 INTRA-LIGAND FREE ENERGY PREDICTED BY IDOCK:   -0.13 KCAL/MOL
REMARK 927      BINDING AFFINITY PREDICTED BY RF-SCORE:    0.00 PKD
ROOT
HETATM    1  N   UNL     1      -6.322  18.928  64.593  1.00  0.00    -0.485 NA 
HETATM    2  C   UNL     1      -6.930  18.672  65.769  1.00  0.00    -0.255 C  
HETATM    3  H2  UNL     1      -5.518  19.546  64.483  1.00  0.00     0.000 HD 
HETATM    4  H1  UNL     1      -6.768  18.423  63.827  1.00  0.00     0.000 HD 
HETATM    5  N   UNL     1      -6.339  19.341  66.783  1.00  0.00    -0.185 NA 
HETATM    6  N   UNL     1      -7.920  17.854  65.805  1.00  0.00    -0.537 NA 
HETATM    7  H1  UNL     1      -6.799  19.147  67.674  1.00  0.00     0.000 HD 
HETATM    8  H2  UNL     1      -5.536  19.959  66.674  1.00  0.00     0.000 HD 
HETATM    9  H   UNL     1      -8.280  17.407  64.963  1.00  0.00     0.000 HD 
ENDROOT
BRANCH   6  10
HETATM   10  C   UNL     1      -8.503  17.602  67.127  1.00  0.00    -0.226 C  
BRANCH  10  11
HETATM   11  C   UNL     1      -9.994  17.231  67.005  1.00  0.00    -0.289 C  
BRANCH  11  12
HETATM   12  N   UNL     1     -10.239  15.775  67.155  1.00  0.00    -0.273 NA 
HETATM   13  C   UNL     1      -9.007  15.032  67.449  1.00  0.00    -0.186 C  
HETATM   14  C   UNL     1      -9.061  13.528  67.152  1.00  0.00    -0.232 C  
HETATM   15  C   UNL     1      -9.806  13.170  65.862  1.00  0.00    -0.241 C  
HETATM   16  C   UNL     1     -11.235  12.668  66.082  1.00  0.00    -0.350 C  
HETATM   17  C   UNL     1     -12.248  13.681  66.622  1.00  0.00    -0.437 C  
HETATM   18  C   UNL     1     -11.972  14.155  68.054  1.00  0.00    -0.372 C  
HETATM   19  C   UNL     1     -11.299  15.534  68.142  1.00  0.00    -0.345 C  
ENDBRANCH  11  12
ENDBRANCH  10  11
ENDBRANCH   6  10
TORSDOF 3
ENDMDL
MODEL      112
REMARK 921   NORMALIZED FREE ENERGY PREDICTED BY IDOCK:   -3.71 KCAL/MOL
REMARK 922        TOTAL FREE ENERGY PREDICTED BY IDOCK:   -4.54 KCAL/MOL
REMARK 923 INTER-LIGAND FREE ENERGY PREDICTED BY IDOCK:   -4.32 KCAL/MOL
REMARK 924 INTRA-LIGAND FREE ENERGY PREDICTED BY IDOCK:   -0.22 KCAL/MOL
REMARK 927      BINDING AFFINITY PREDICTED BY RF-SCORE:    0.00 PKD
ROOT
HETATM    1  N   UNL     1     -10.508  19.683  67.578  1.00  0.00    -0.448 NA 
HETATM    2  C   UNL     1     -10.529  18.507  66.919  1.00  0.00    -0.396 C  
HETATM    3  H2  UNL     1     -10.532  20.597  67.125  1.00  0.00     0.000 HD 
HETATM    4  H1  UNL     1     -10.465  19.543  68.587  1.00  0.00     0.000 HD 
HETATM    5  N   UNL     1     -10.586  18.693  65.582  1.00  0.00    -0.587 NA 
HETATM    6  N   UNL     1     -10.524  17.409  67.585  1.00  0.00    -0.361 NA 
HETATM    7  H1  UNL     1     -10.603  17.803  65.083  1.00  0.00     0.000 HD 
HETATM    8  H2  UNL     1     -10.610  19.606  65.130  1.00  0.00     0.000 HD 
HETATM    9  H   UNL     1     -10.479  17.396  68.603  1.00  0.00     0.000 HD 
ENDROOT
BRANCH   6  10
HETATM   10  C   UNL     1     -10.586  16.173  66.796  1.00  0.00    -0.277 C  
BRANCH  10  11
HETATM   11  C   UNL     1      -9.264  15.388  66.904  1.00  0.00    -0.233 C  
BRANCH  11  12
HETATM   12  N   UNL     1      -9.469  13.963  67.264  1.00  0.00    -0.230 NA 
HETATM   13  C   UNL     1      -8.199  13.248  67.445  1.00  0.00    -0.183 C  
HETATM   14  C   UNL     1      -8.288  11.719  67.343  1.00  0.00    -0.159 C  
HETATM   15  C   UNL     1      -9.225  11.218  66.240  1.00  0.00    -0.214 C  
HETATM   16  C   UNL     1     -10.597  10.761  66.744  1.00  0.00    -0.307 C  
HETATM   17  C   UNL     1     -11.520  11.843  67.313  1.00  0.00    -0.385 C  
HETATM   18  C   UNL     1     -11.022  12.481  68.615  1.00  0.00    -0.291 C  
HETATM   19  C   UNL     1     -10.356  13.853  68.430  1.00  0.00    -0.249 C  
ENDBRANCH  11  12
ENDBRANCH  10  11
ENDBRANCH   6  10
TORSDOF 3
ENDMDL
MODEL      113
REMARK 921   NORMALIZED FREE ENERGY PREDICTED BY IDOCK:   -3.68 KCAL/MOL
REMARK 922        TOTAL FREE ENERGY PREDICTED BY IDOCK:   -4.51 KCAL/MOL
REMARK 923 INTER-LIGAND FREE ENERGY PREDICTED BY IDOCK:   -4.33 KCAL/MOL
REMARK 924 INTRA-LIGAND FREE ENERGY PREDICTED BY IDOCK:   -0.18 KCAL/MOL
REMARK 927      BINDING AFFINITY PREDICTED BY RF-SCORE:    0.00 PKD
ROOT
HETATM    1  N   UNL     1     -13.488   6.843  72.043  1.00  0.00    -0.539 NA 
HETATM    2  C   UNL     1     -12.383   7.595  71.859  1.00  0.00    -0.306 C  
HETATM    3  H2  UNL     1     -13.779   6.459  72.941  1.00  0.00     0.000 HD 
HETATM    4  H1  UNL     1     -13.995   6.709  71.168  1.00  0.00     0.000 HD 
HETATM    5  N   UNL     1     -11.712   7.773  73.018  1.00  0.00    -0.616 NA 
HETATM    6  N   UNL     1     -12.119   8.057  70.691  1.00  0.00    -0.495 NA 
HETATM    7  H1  UNL     1     -10.876   8.343  72.880  1.00  0.00     0.000 HD 
HETATM    8  H2  UNL     1     -12.003   7.389  73.916  1.00  0.00     0.000 HD 
HETATM    9  H   UNL     1     -12.708   7.852  69.884  1.00  0.00     0.000 HD 
ENDROOT
BRANCH   6  10
HETATM   10  C   UNL     1     -10.920   8.897  70.581  1.00  0.00    -0.241 C  
BRANCH  10  11
HETATM   11  C   UNL     1     -10.306   8.792  69.172  1.00  0.00    -0.217 C  
BRANCH  11  12
HETATM   12  N   UNL     1     -10.225  10.102  68.481  1.00  0.00    -0.166 NA 
HETATM   13  C   UNL     1     -11.047  11.127  69.136  1.00  0.00    -0.248 C  
HETATM   14  C   UNL     1     -11.407  12.337  68.263  1.00  0.00    -0.339 C  
HETATM   15  C   UNL     1     -11.750  11.983  66.812  1.00  0.00    -0.339 C  
HETATM   16  C   UNL     1     -10.613  12.239  65.819  1.00  0.00    -0.289 C  
HETATM   17  C   UNL     1      -9.368  11.355  65.951  1.00  0.00    -0.247 C  
HETATM   18  C   UNL     1      -8.569  11.572  67.242  1.00  0.00    -0.150 C  
HETATM   19  C   UNL     1      -8.822  10.512  68.324  1.00  0.00    -0.139 C  
ENDBRANCH  11  12
ENDBRANCH  10  11
ENDBRANCH   6  10
TORSDOF 3
ENDMDL
MODEL      114
REMARK 921   NORMALIZED FREE ENERGY PREDICTED BY IDOCK:   -3.68 KCAL/MOL
REMARK 922        TOTAL FREE ENERGY PREDICTED BY IDOCK:   -4.51 KCAL/MOL
REMARK 923 INTER-LIGAND FREE ENERGY PREDICTED BY IDOCK:   -4.40 KCAL/MOL
REMARK 924 INTRA-LIGAND FREE ENERGY PREDICTED BY IDOCK:   -0.11 KCAL/MOL
REMARK 927      BINDING AFFINITY PREDICTED BY RF-SCORE:    0.00 PKD
ROOT
HETATM    1  N   UNL     1      -6.948  19.796  65.058  1.00  0.00    -0.366 NA 
HETATM    2  C   UNL     1      -7.571  19.633  66.243  1.00  0.00    -0.308 C  
HETATM    3  H2  UNL     1      -6.093  20.336  64.927  1.00  0.00     0.000 HD 
HETATM    4  H1  UNL     1      -7.442  19.311  64.309  1.00  0.00     0.000 HD 
HETATM    5  N   UNL     1      -6.917  20.276  67.235  1.00  0.00    -0.250 NA 
HETATM    6  N   UNL     1      -8.630  18.909  66.307  1.00  0.00    -0.414 NA 
HETATM    7  H1  UNL     1      -7.388  20.152  68.132  1.00  0.00     0.000 HD 
HETATM    8  H2  UNL     1      -6.062  20.815  67.104  1.00  0.00     0.000 HD 
HETATM    9  H   UNL     1      -9.034  18.470  65.480  1.00  0.00     0.000 HD 
ENDROOT
BRANCH   6  10
HETATM   10  C   UNL     1      -9.227  18.751  67.638  1.00  0.00    -0.285 C  
BRANCH  10  11
HETATM   11  C   UNL     1     -10.625  18.109  67.537  1.00  0.00    -0.401 C  
BRANCH  11  12
HETATM   12  N   UNL     1     -10.663  16.726  68.072  1.00  0.00    -0.352 NA 
HETATM   13  C   UNL     1      -9.669  15.855  67.431  1.00  0.00    -0.227 C  
HETATM   14  C   UNL     1      -9.939  14.350  67.555  1.00  0.00    -0.224 C  
HETATM   15  C   UNL     1     -11.413  13.963  67.403  1.00  0.00    -0.374 C  
HETATM   16  C   UNL     1     -12.129  13.690  68.729  1.00  0.00    -0.332 C  
HETATM   17  C   UNL     1     -12.333  14.887  69.663  1.00  0.00    -0.244 C  
HETATM   18  C   UNL     1     -11.038  15.468  70.242  1.00  0.00    -0.345 C  
HETATM   19  C   UNL     1     -10.548  16.741  69.536  1.00  0.00    -0.283 C  
ENDBRANCH  11  12
ENDBRANCH  10  11
ENDBRANCH   6  10
TORSDOF 3
ENDMDL
MODEL      115
REMARK 921   NORMALIZED FREE ENERGY PREDICTED BY IDOCK:   -3.67 KCAL/MOL
REMARK 922        TOTAL FREE ENERGY PREDICTED BY IDOCK:   -4.51 KCAL/MOL
REMARK 923 INTER-LIGAND FREE ENERGY PREDICTED BY IDOCK:   -4.23 KCAL/MOL
REMARK 924 INTRA-LIGAND FREE ENERGY PREDICTED BY IDOCK:   -0.27 KCAL/MOL
REMARK 927      BINDING AFFINITY PREDICTED BY RF-SCORE:    0.00 PKD
ROOT
HETATM    1  N   UNL     1     -11.840  12.008  63.312  1.00  0.00    -0.735 NA 
HETATM    2  C   UNL     1     -11.359  12.325  64.532  1.00  0.00    -0.329 C  
HETATM    3  H2  UNL     1     -11.258  11.795  62.503  1.00  0.00     0.000 HD 
HETATM    4  H1  UNL     1     -12.860  12.008  63.303  1.00  0.00     0.000 HD 
HETATM    5  N   UNL     1     -10.009  12.324  64.544  1.00  0.00    -0.458 NA 
HETATM    6  N   UNL     1     -12.178  12.549  65.496  1.00  0.00    -0.597 NA 
HETATM    7  H1  UNL     1      -9.645  12.564  65.467  1.00  0.00     0.000 HD 
HETATM    8  H2  UNL     1      -9.427  12.111  63.734  1.00  0.00     0.000 HD 
HETATM    9  H   UNL     1     -13.188  12.519  65.363  1.00  0.00     0.000 HD 
ENDROOT
BRANCH   6  10
HETATM   10  C   UNL     1     -11.577  12.851  66.800  1.00  0.00    -0.360 C  
BRANCH  10  11
HETATM   11  C   UNL     1     -11.862  11.721  67.808  1.00  0.00    -0.196 C  
BRANCH  11  12
HETATM   12  N   UNL     1     -10.733  10.766  67.937  1.00  0.00    -0.219 NA 
HETATM   13  C   UNL     1     -10.743   9.748  66.880  1.00  0.00    -0.122 C  
HETATM   14  C   UNL     1      -9.940   8.477  67.186  1.00  0.00    -0.304 C  
HETATM   15  C   UNL     1     -10.066   7.989  68.633  1.00  0.00    -0.212 C  
HETATM   16  C   UNL     1      -8.874   8.352  69.523  1.00  0.00    -0.145 C  
HETATM   17  C   UNL     1      -8.670   9.839  69.831  1.00  0.00    -0.238 C  
HETATM   18  C   UNL     1      -8.290  10.693  68.616  1.00  0.00    -0.137 C  
HETATM   19  C   UNL     1      -9.458  11.492  68.017  1.00  0.00    -0.181 C  
ENDBRANCH  11  12
ENDBRANCH  10  11
ENDBRANCH   6  10
TORSDOF 3
ENDMDL
MODEL      116
REMARK 921   NORMALIZED FREE ENERGY PREDICTED BY IDOCK:   -3.67 KCAL/MOL
REMARK 922        TOTAL FREE ENERGY PREDICTED BY IDOCK:   -4.50 KCAL/MOL
REMARK 923 INTER-LIGAND FREE ENERGY PREDICTED BY IDOCK:   -4.31 KCAL/MOL
REMARK 924 INTRA-LIGAND FREE ENERGY PREDICTED BY IDOCK:   -0.19 KCAL/MOL
REMARK 927      BINDING AFFINITY PREDICTED BY RF-SCORE:    0.00 PKD
ROOT
HETATM    1  N   UNL     1     -11.316   6.683  66.851  1.00  0.00    -0.824 NA 
HETATM    2  C   UNL     1     -10.366   7.637  66.937  1.00  0.00    -0.318 C  
HETATM    3  H2  UNL     1     -11.125   5.683  66.821  1.00  0.00     0.000 HD 
HETATM    4  H1  UNL     1     -12.251   7.092  66.820  1.00  0.00     0.000 HD 
HETATM    5  N   UNL     1      -9.129   7.096  66.979  1.00  0.00    -0.130 NA 
HETATM    6  N   UNL     1     -10.713   8.872  66.998  1.00  0.00    -0.304 NA 
HETATM    7  H1  UNL     1      -8.410   7.818  67.045  1.00  0.00     0.000 HD 
HETATM    8  H2  UNL     1      -8.938   6.095  66.949  1.00  0.00     0.000 HD 
HETATM    9  H   UNL     1     -11.691   9.160  66.957  1.00  0.00     0.000 HD 
ENDROOT
BRANCH   6  10
HETATM   10  C   UNL     1      -9.623   9.846  67.128  1.00  0.00    -0.162 C  
BRANCH  10  11
HETATM   11  C   UNL     1      -9.858  10.770  68.339  1.00  0.00    -0.169 C  
BRANCH  11  12
HETATM   12  N   UNL     1     -10.164  12.168  67.945  1.00  0.00    -0.193 NA 
HETATM   13  C   UNL     1     -11.124  12.804  68.856  1.00  0.00    -0.262 C  
HETATM   14  C   UNL     1     -11.852  14.030  68.288  1.00  0.00    -0.406 C  
HETATM   15  C   UNL     1     -12.264  13.890  66.820  1.00  0.00    -0.438 C  
HETATM   16  C   UNL     1     -11.337  14.613  65.837  1.00  0.00    -0.338 C  
HETATM   17  C   UNL     1      -9.914  14.064  65.698  1.00  0.00    -0.309 C  
HETATM   18  C   UNL     1      -9.048  14.219  66.954  1.00  0.00    -0.268 C  
HETATM   19  C   UNL     1      -8.923  12.939  67.795  1.00  0.00    -0.191 C  
ENDBRANCH  11  12
ENDBRANCH  10  11
ENDBRANCH   6  10
TORSDOF 3
ENDMDL
MODEL      117
REMARK 921   NORMALIZED FREE ENERGY PREDICTED BY IDOCK:   -3.66 KCAL/MOL
REMARK 922        TOTAL FREE ENERGY PREDICTED BY IDOCK:   -4.49 KCAL/MOL
REMARK 923 INTER-LIGAND FREE ENERGY PREDICTED BY IDOCK:   -4.27 KCAL/MOL
REMARK 924 INTRA-LIGAND FREE ENERGY PREDICTED BY IDOCK:   -0.21 KCAL/MOL
REMARK 927      BINDING AFFINITY PREDICTED BY RF-SCORE:    0.00 PKD
ROOT
HETATM    1  N   UNL     1     -12.260  15.684  70.889  1.00  0.00    -0.391 NA 
HETATM    2  C   UNL     1     -11.763  15.942  69.662  1.00  0.00    -0.317 C  
HETATM    3  H2  UNL     1     -12.906  14.924  71.099  1.00  0.00     0.000 HD 
HETATM    4  H1  UNL     1     -11.907  16.346  71.579  1.00  0.00     0.000 HD 
HETATM    5  N   UNL     1     -12.231  15.065  68.747  1.00  0.00    -0.597 NA 
HETATM    6  N   UNL     1     -10.932  16.909  69.506  1.00  0.00    -0.357 NA 
HETATM    7  H1  UNL     1     -11.855  15.260  67.819  1.00  0.00     0.000 HD 
HETATM    8  H2  UNL     1     -12.877  14.305  68.957  1.00  0.00     0.000 HD 
HETATM    9  H   UNL     1     -10.652  17.508  70.282  1.00  0.00     0.000 HD 
ENDROOT
BRANCH   6  10
HETATM   10  C   UNL     1     -10.409  17.102  68.149  1.00  0.00    -0.350 C  
BRANCH  10  11
HETATM   11  C   UNL     1      -8.949  16.619  68.052  1.00  0.00    -0.211 C  
BRANCH  11  12
HETATM   12  N   UNL     1      -8.005  17.709  67.702  1.00  0.00    -0.206 NA 
HETATM   13  C   UNL     1      -7.846  18.677  68.794  1.00  0.00    -0.289 C  
HETATM   14  C   UNL     1      -7.295  20.048  68.380  1.00  0.00    -0.285 C  
HETATM   15  C   UNL     1      -7.851  20.572  67.052  1.00  0.00    -0.345 C  
HETATM   16  C   UNL     1      -6.905  20.392  65.862  1.00  0.00    -0.276 C  
HETATM   17  C   UNL     1      -6.629  18.955  65.409  1.00  0.00    -0.288 C  
HETATM   18  C   UNL     1      -5.851  18.108  66.423  1.00  0.00    -0.202 C  
HETATM   19  C   UNL     1      -6.725  17.149  67.246  1.00  0.00    -0.160 C  
ENDBRANCH  11  12
ENDBRANCH  10  11
ENDBRANCH   6  10
TORSDOF 3
ENDMDL
MODEL      118
REMARK 921   NORMALIZED FREE ENERGY PREDICTED BY IDOCK:   -3.61 KCAL/MOL
REMARK 922        TOTAL FREE ENERGY PREDICTED BY IDOCK:   -4.43 KCAL/MOL
REMARK 923 INTER-LIGAND FREE ENERGY PREDICTED BY IDOCK:   -4.08 KCAL/MOL
REMARK 924 INTRA-LIGAND FREE ENERGY PREDICTED BY IDOCK:   -0.36 KCAL/MOL
REMARK 927      BINDING AFFINITY PREDICTED BY RF-SCORE:    0.00 PKD
ROOT
HETATM    1  N   UNL     1     -10.870  16.882  69.646  1.00  0.00    -0.381 NA 
HETATM    2  C   UNL     1     -11.009  15.541  69.585  1.00  0.00    -0.286 C  
HETATM    3  H2  UNL     1      -9.992  17.360  69.845  1.00  0.00     0.000 HD 
HETATM    4  H1  UNL     1     -11.755  17.355  69.466  1.00  0.00     0.000 HD 
HETATM    5  N   UNL     1      -9.836  14.914  69.823  1.00  0.00    -0.445 NA 
HETATM    6  N   UNL     1     -12.154  15.036  69.297  1.00  0.00    -0.506 NA 
HETATM    7  H1  UNL     1      -9.941  13.900  69.777  1.00  0.00     0.000 HD 
HETATM    8  H2  UNL     1      -8.959  15.393  70.023  1.00  0.00     0.000 HD 
HETATM    9  H   UNL     1     -12.975  15.619  69.136  1.00  0.00     0.000 HD 
ENDROOT
BRANCH   6  10
HETATM   10  C   UNL     1     -12.214  13.572  69.214  1.00  0.00    -0.211 C  
BRANCH  10  11
HETATM   11  C   UNL     1     -12.130  13.104  67.748  1.00  0.00    -0.215 C  
BRANCH  11  12
HETATM   12  N   UNL     1     -11.109  12.047  67.540  1.00  0.00    -0.258 NA 
HETATM   13  C   UNL     1      -9.894  12.567  66.900  1.00  0.00    -0.227 C  
HETATM   14  C   UNL     1      -9.008  11.512  66.223  1.00  0.00    -0.199 C  
HETATM   15  C   UNL     1      -9.786  10.426  65.475  1.00  0.00    -0.332 C  
HETATM   16  C   UNL     1      -9.908   9.104  66.239  1.00  0.00    -0.359 C  
HETATM   17  C   UNL     1     -10.759   9.118  67.512  1.00  0.00    -0.255 C  
HETATM   18  C   UNL     1     -10.182   9.965  68.653  1.00  0.00    -0.197 C  
HETATM   19  C   UNL     1     -10.833  11.348  68.803  1.00  0.00    -0.208 C  
ENDBRANCH  11  12
ENDBRANCH  10  11
ENDBRANCH   6  10
TORSDOF 3
ENDMDL
MODEL      119
REMARK 921   NORMALIZED FREE ENERGY PREDICTED BY IDOCK:   -3.60 KCAL/MOL
REMARK 922        TOTAL FREE ENERGY PREDICTED BY IDOCK:   -4.42 KCAL/MOL
REMARK 923 INTER-LIGAND FREE ENERGY PREDICTED BY IDOCK:   -4.18 KCAL/MOL
REMARK 924 INTRA-LIGAND FREE ENERGY PREDICTED BY IDOCK:   -0.24 KCAL/MOL
REMARK 927      BINDING AFFINITY PREDICTED BY RF-SCORE:    0.00 PKD
ROOT
HETATM    1  N   UNL     1     -10.345  19.752  68.070  1.00  0.00    -0.441 NA 
HETATM    2  C   UNL     1     -10.044  18.438  68.019  1.00  0.00    -0.368 C  
HETATM    3  H2  UNL     1     -10.519  20.334  67.252  1.00  0.00     0.000 HD 
HETATM    4  H1  UNL     1     -10.376  20.088  69.033  1.00  0.00     0.000 HD 
HETATM    5  N   UNL     1     -10.003  17.992  66.745  1.00  0.00    -0.327 NA 
HETATM    6  N   UNL     1      -9.870  17.786  69.112  1.00  0.00    -0.206 NA 
HETATM    7  H1  UNL     1      -9.776  16.998  66.706  1.00  0.00     0.000 HD 
HETATM    8  H2  UNL     1     -10.177  18.574  65.926  1.00  0.00     0.000 HD 
HETATM    9  H   UNL     1      -9.928  18.237  70.024  1.00  0.00     0.000 HD 
ENDROOT
BRANCH   6  10
HETATM   10  C   UNL     1      -9.583  16.354  68.972  1.00  0.00    -0.264 C  
BRANCH  10  11
HETATM   11  C   UNL     1     -10.559  15.515  69.821  1.00  0.00    -0.295 C  
BRANCH  11  12
HETATM   12  N   UNL     1     -10.939  14.239  69.166  1.00  0.00    -0.259 NA 
HETATM   13  C   UNL     1     -11.669  13.345  70.075  1.00  0.00    -0.227 C  
HETATM   14  C   UNL     1     -11.682  11.865  69.669  1.00  0.00    -0.413 C  
HETATM   15  C   UNL     1     -10.351  11.359  69.105  1.00  0.00    -0.122 C  
HETATM   16  C   UNL     1     -10.314  11.258  67.578  1.00  0.00    -0.224 C  
HETATM   17  C   UNL     1     -10.373  12.575  66.797  1.00  0.00    -0.241 C  
HETATM   18  C   UNL     1     -11.701  13.330  66.924  1.00  0.00    -0.437 C  
HETATM   19  C   UNL     1     -11.667  14.501  67.918  1.00  0.00    -0.351 C  
ENDBRANCH  11  12
ENDBRANCH  10  11
ENDBRANCH   6  10
TORSDOF 3
ENDMDL
MODEL      120
REMARK 921   NORMALIZED FREE ENERGY PREDICTED BY IDOCK:   -3.60 KCAL/MOL
REMARK 922        TOTAL FREE ENERGY PREDICTED BY IDOCK:   -4.42 KCAL/MOL
REMARK 923 INTER-LIGAND FREE ENERGY PREDICTED BY IDOCK:   -4.34 KCAL/MOL
REMARK 924 INTRA-LIGAND FREE ENERGY PREDICTED BY IDOCK:   -0.08 KCAL/MOL
REMARK 927      BINDING AFFINITY PREDICTED BY RF-SCORE:    0.00 PKD
ROOT
HETATM    1  N   UNL     1     -10.543   7.294  67.076  1.00  0.00    -0.353 NA 
HETATM    2  C   UNL     1     -10.326   8.514  67.609  1.00  0.00    -0.253 C  
HETATM    3  H2  UNL     1     -11.208   6.615  67.446  1.00  0.00     0.000 HD 
HETATM    4  H1  UNL     1      -9.956   7.138  66.256  1.00  0.00     0.000 HD 
HETATM    5  N   UNL     1     -11.103   8.721  68.695  1.00  0.00    -0.422 NA 
HETATM    6  N   UNL     1      -9.485   9.308  67.051  1.00  0.00    -0.153 NA 
HETATM    7  H1  UNL     1     -10.939   9.644  69.098  1.00  0.00     0.000 HD 
HETATM    8  H2  UNL     1     -11.768   8.042  69.064  1.00  0.00     0.000 HD 
HETATM    9  H   UNL     1      -8.953   9.036  66.225  1.00  0.00     0.000 HD 
ENDROOT
BRANCH   6  10
HETATM   10  C   UNL     1      -9.334  10.630  67.669  1.00  0.00    -0.146 C  
BRANCH  10  11
HETATM   11  C   UNL     1      -8.957  11.688  66.613  1.00  0.00    -0.189 C  
BRANCH  11  12
HETATM   12  N   UNL     1     -10.100  12.554  66.234  1.00  0.00    -0.245 NA 
HETATM   13  C   UNL     1     -11.285  11.775  65.854  1.00  0.00    -0.290 C  
HETATM   14  C   UNL     1     -12.323  12.529  65.012  1.00  0.00    -0.522 C  
HETATM   15  C   UNL     1     -11.718  13.451  63.949  1.00  0.00    -0.455 C  
HETATM   16  C   UNL     1     -11.700  14.931  64.339  1.00  0.00    -0.338 C  
HETATM   17  C   UNL     1     -10.778  15.329  65.496  1.00  0.00    -0.385 C  
HETATM   18  C   UNL     1     -11.187  14.759  66.859  1.00  0.00    -0.347 C  
HETATM   19  C   UNL     1     -10.376  13.530  67.297  1.00  0.00    -0.241 C  
ENDBRANCH  11  12
ENDBRANCH  10  11
ENDBRANCH   6  10
TORSDOF 3
ENDMDL
MODEL      121
REMARK 921   NORMALIZED FREE ENERGY PREDICTED BY IDOCK:   -3.59 KCAL/MOL
REMARK 922        TOTAL FREE ENERGY PREDICTED BY IDOCK:   -4.41 KCAL/MOL
REMARK 923 INTER-LIGAND FREE ENERGY PREDICTED BY IDOCK:   -4.14 KCAL/MOL
REMARK 924 INTRA-LIGAND FREE ENERGY PREDICTED BY IDOCK:   -0.27 KCAL/MOL
REMARK 927      BINDING AFFINITY PREDICTED BY RF-SCORE:    0.00 PKD
ROOT
HETATM    1  N   UNL     1     -11.908  12.864  68.650  1.00  0.00    -0.319 NA 
HETATM    2  C   UNL     1     -11.743  11.590  69.063  1.00  0.00    -0.335 C  
HETATM    3  H2  UNL     1     -12.281  13.129  67.739  1.00  0.00     0.000 HD 
HETATM    4  H1  UNL     1     -11.612  13.528  69.366  1.00  0.00     0.000 HD 
HETATM    5  N   UNL     1     -12.135  10.711  68.116  1.00  0.00    -0.707 NA 
HETATM    6  N   UNL     1     -11.291  11.362  70.243  1.00  0.00    -0.498 NA 
HETATM    7  H1  UNL     1     -12.011   9.748  68.428  1.00  0.00     0.000 HD 
HETATM    8  H2  UNL     1     -12.508  10.976  67.205  1.00  0.00     0.000 HD 
HETATM    9  H   UNL     1     -11.026  12.117  70.875  1.00  0.00     0.000 HD 
ENDROOT
BRANCH   6  10
HETATM   10  C   UNL     1     -11.175   9.951  70.631  1.00  0.00    -0.344 C  
BRANCH  10  11
HETATM   11  C   UNL     1      -9.759   9.418  70.338  1.00  0.00    -0.261 C  
BRANCH  11  12
HETATM   12  N   UNL     1      -9.768   8.060  69.740  1.00  0.00    -0.175 NA 
HETATM   13  C   UNL     1      -8.634   7.246  70.196  1.00  0.00    -0.140 C  
HETATM   14  C   UNL     1      -8.288   6.046  69.303  1.00  0.00    -0.115 C  
HETATM   15  C   UNL     1      -8.389   6.332  67.802  1.00  0.00    -0.117 C  
HETATM   16  C   UNL     1      -9.671   5.808  67.149  1.00  0.00    -0.147 C  
HETATM   17  C   UNL     1     -10.984   6.477  67.568  1.00  0.00    -0.444 C  
HETATM   18  C   UNL     1     -11.381   6.237  69.029  1.00  0.00    -0.319 C  
HETATM   19  C   UNL     1     -11.065   7.410  69.969  1.00  0.00    -0.220 C  
ENDBRANCH  11  12
ENDBRANCH  10  11
ENDBRANCH   6  10
TORSDOF 3
ENDMDL
MODEL      122
REMARK 921   NORMALIZED FREE ENERGY PREDICTED BY IDOCK:   -3.59 KCAL/MOL
REMARK 922        TOTAL FREE ENERGY PREDICTED BY IDOCK:   -4.40 KCAL/MOL
REMARK 923 INTER-LIGAND FREE ENERGY PREDICTED BY IDOCK:   -4.20 KCAL/MOL
REMARK 924 INTRA-LIGAND FREE ENERGY PREDICTED BY IDOCK:   -0.20 KCAL/MOL
REMARK 927      BINDING AFFINITY PREDICTED BY RF-SCORE:    0.00 PKD
ROOT
HETATM    1  N   UNL     1     -12.625  15.392  69.147  1.00  0.00    -0.492 NA 
HETATM    2  C   UNL     1     -11.939  14.312  69.573  1.00  0.00    -0.336 C  
HETATM    3  H2  UNL     1     -12.568  16.315  69.575  1.00  0.00     0.000 HD 
HETATM    4  H1  UNL     1     -13.208  15.167  68.341  1.00  0.00     0.000 HD 
HETATM    5  N   UNL     1     -11.166  14.610  70.640  1.00  0.00    -0.492 NA 
HETATM    6  N   UNL     1     -12.059  13.198  68.945  1.00  0.00    -0.264 NA 
HETATM    7  H1  UNL     1     -10.647  13.793  70.962  1.00  0.00     0.000 HD 
HETATM    8  H2  UNL     1     -11.109  15.533  71.069  1.00  0.00     0.000 HD 
HETATM    9  H   UNL     1     -12.680  13.095  68.143  1.00  0.00     0.000 HD 
ENDROOT
BRANCH   6  10
HETATM   10  C   UNL     1     -11.251  12.081  69.448  1.00  0.00    -0.196 C  
BRANCH  10  11
HETATM   11  C   UNL     1     -12.089  11.171  70.368  1.00  0.00    -0.385 C  
BRANCH  11  12
HETATM   12  N   UNL     1     -11.403   9.896  70.695  1.00  0.00    -0.312 NA 
HETATM   13  C   UNL     1     -12.289   8.951  71.387  1.00  0.00    -0.313 C  
HETATM   14  C   UNL     1     -11.578   7.841  72.172  1.00  0.00    -0.367 C  
HETATM   15  C   UNL     1     -10.326   8.306  72.921  1.00  0.00    -0.241 C  
HETATM   16  C   UNL     1      -9.010   7.960  72.219  1.00  0.00    -0.211 C  
HETATM   17  C   UNL     1      -8.726   8.673  70.894  1.00  0.00    -0.216 C  
HETATM   18  C   UNL     1      -9.677   8.295  69.752  1.00  0.00    -0.180 C  
HETATM   19  C   UNL     1     -10.788   9.324  69.490  1.00  0.00    -0.195 C  
ENDBRANCH  11  12
ENDBRANCH  10  11
ENDBRANCH   6  10
TORSDOF 3
ENDMDL
MODEL      123
REMARK 921   NORMALIZED FREE ENERGY PREDICTED BY IDOCK:   -3.59 KCAL/MOL
REMARK 922        TOTAL FREE ENERGY PREDICTED BY IDOCK:   -4.40 KCAL/MOL
REMARK 923 INTER-LIGAND FREE ENERGY PREDICTED BY IDOCK:   -4.20 KCAL/MOL
REMARK 924 INTRA-LIGAND FREE ENERGY PREDICTED BY IDOCK:   -0.20 KCAL/MOL
REMARK 927      BINDING AFFINITY PREDICTED BY RF-SCORE:    0.00 PKD
ROOT
HETATM    1  N   UNL     1      -9.842  10.121  62.906  1.00  0.00    -0.519 NA 
HETATM    2  C   UNL     1      -9.885  10.243  64.249  1.00  0.00    -0.288 C  
HETATM    3  H2  UNL     1      -9.516   9.289  62.415  1.00  0.00     0.000 HD 
HETATM    4  H1  UNL     1     -10.179  10.966  62.445  1.00  0.00     0.000 HD 
HETATM    5  N   UNL     1      -9.440   9.124  64.859  1.00  0.00    -0.433 NA 
HETATM    6  N   UNL     1     -10.341  11.324  64.771  1.00  0.00    -0.288 NA 
HETATM    7  H1  UNL     1      -9.472   9.216  65.875  1.00  0.00     0.000 HD 
HETATM    8  H2  UNL     1      -9.113   8.292  64.368  1.00  0.00     0.000 HD 
HETATM    9  H   UNL     1     -10.651  12.110  64.200  1.00  0.00     0.000 HD 
ENDROOT
BRANCH   6  10
HETATM   10  C   UNL     1     -10.389  11.365  66.237  1.00  0.00    -0.243 C  
BRANCH  10  11
HETATM   11  C   UNL     1     -11.416  12.408  66.721  1.00  0.00    -0.362 C  
BRANCH  11  12
HETATM   12  N   UNL     1     -10.779  13.593  67.348  1.00  0.00    -0.265 NA 
HETATM   13  C   UNL     1     -11.758  14.462  68.014  1.00  0.00    -0.340 C  
HETATM   14  C   UNL     1     -11.294  15.903  68.263  1.00  0.00    -0.342 C  
HETATM   15  C   UNL     1     -10.486  16.509  67.111  1.00  0.00    -0.300 C  
HETATM   16  C   UNL     1      -8.973  16.515  67.341  1.00  0.00    -0.207 C  
HETATM   17  C   UNL     1      -8.274  15.152  67.378  1.00  0.00    -0.215 C  
HETATM   18  C   UNL     1      -8.663  14.271  68.571  1.00  0.00    -0.175 C  
HETATM   19  C   UNL     1      -9.688  13.176  68.239  1.00  0.00    -0.223 C  
ENDBRANCH  11  12
ENDBRANCH  10  11
ENDBRANCH   6  10
TORSDOF 3
ENDMDL
MODEL      124
REMARK 921   NORMALIZED FREE ENERGY PREDICTED BY IDOCK:   -3.58 KCAL/MOL
REMARK 922        TOTAL FREE ENERGY PREDICTED BY IDOCK:   -4.40 KCAL/MOL
REMARK 923 INTER-LIGAND FREE ENERGY PREDICTED BY IDOCK:   -4.24 KCAL/MOL
REMARK 924 INTRA-LIGAND FREE ENERGY PREDICTED BY IDOCK:   -0.15 KCAL/MOL
REMARK 927      BINDING AFFINITY PREDICTED BY RF-SCORE:    0.00 PKD
ROOT
HETATM    1  N   UNL     1     -12.922  12.905  64.947  1.00  0.00    -0.823 NA 
HETATM    2  C   UNL     1     -11.658  13.349  65.101  1.00  0.00    -0.308 C  
HETATM    3  H2  UNL     1     -13.305  12.553  64.070  1.00  0.00     0.000 HD 
HETATM    4  H1  UNL     1     -13.447  12.967  65.819  1.00  0.00     0.000 HD 
HETATM    5  N   UNL     1     -10.964  13.267  63.946  1.00  0.00    -0.554 NA 
HETATM    6  N   UNL     1     -11.264  13.746  66.257  1.00  0.00    -0.303 NA 
HETATM    7  H1  UNL     1     -10.007  13.603  64.063  1.00  0.00     0.000 HD 
HETATM    8  H2  UNL     1     -11.346  12.915  63.069  1.00  0.00     0.000 HD 
HETATM    9  H   UNL     1     -11.888  13.761  67.064  1.00  0.00     0.000 HD 
ENDROOT
BRANCH   6  10
HETATM   10  C   UNL     1      -9.865  14.178  66.351  1.00  0.00    -0.296 C  
BRANCH  10  11
HETATM   11  C   UNL     1      -9.685  15.202  67.490  1.00  0.00    -0.205 C  
BRANCH  11  12
HETATM   12  N   UNL     1      -8.396  15.933  67.407  1.00  0.00    -0.162 NA 
HETATM   13  C   UNL     1      -7.240  15.028  67.459  1.00  0.00    -0.201 C  
HETATM   14  C   UNL     1      -5.911  15.685  67.856  1.00  0.00    -0.163 C  
HETATM   15  C   UNL     1      -6.036  16.729  68.970  1.00  0.00    -0.169 C  
HETATM   16  C   UNL     1      -6.026  18.178  68.474  1.00  0.00    -0.190 C  
HETATM   17  C   UNL     1      -7.227  18.632  67.640  1.00  0.00    -0.225 C  
HETATM   18  C   UNL     1      -7.348  17.946  66.274  1.00  0.00    -0.327 C  
HETATM   19  C   UNL     1      -8.381  16.810  66.228  1.00  0.00    -0.318 C  
ENDBRANCH  11  12
ENDBRANCH  10  11
ENDBRANCH   6  10
TORSDOF 3
ENDMDL
MODEL      125
REMARK 921   NORMALIZED FREE ENERGY PREDICTED BY IDOCK:   -3.58 KCAL/MOL
REMARK 922        TOTAL FREE ENERGY PREDICTED BY IDOCK:   -4.40 KCAL/MOL
REMARK 923 INTER-LIGAND FREE ENERGY PREDICTED BY IDOCK:   -4.21 KCAL/MOL
REMARK 924 INTRA-LIGAND FREE ENERGY PREDICTED BY IDOCK:   -0.19 KCAL/MOL
REMARK 927      BINDING AFFINITY PREDICTED BY RF-SCORE:    0.00 PKD
ROOT
HETATM    1  N   UNL     1      -8.465  13.720  67.874  1.00  0.00    -0.163 NA 
HETATM    2  C   UNL     1      -8.759  12.404  67.849  1.00  0.00    -0.175 C  
HETATM    3  H2  UNL     1      -8.059  14.234  67.093  1.00  0.00     0.000 HD 
HETATM    4  H1  UNL     1      -8.701  14.136  68.775  1.00  0.00     0.000 HD 
HETATM    5  N   UNL     1      -8.446  11.853  66.656  1.00  0.00    -0.284 NA 
HETATM    6  N   UNL     1      -9.295  11.856  68.879  1.00  0.00    -0.404 NA 
HETATM    7  H1  UNL     1      -8.669  10.858  66.636  1.00  0.00     0.000 HD 
HETATM    8  H2  UNL     1      -8.040  12.367  65.874  1.00  0.00     0.000 HD 
HETATM    9  H   UNL     1      -9.486  12.381  69.731  1.00  0.00     0.000 HD 
ENDROOT
BRANCH   6  10
HETATM   10  C   UNL     1      -9.618  10.429  68.759  1.00  0.00    -0.177 C  
BRANCH  10  11
HETATM   11  C   UNL     1      -9.100   9.647  69.981  1.00  0.00    -0.237 C  
BRANCH  11  12
HETATM   12  N   UNL     1     -10.108   8.707  70.532  1.00  0.00    -0.190 NA 
HETATM   13  C   UNL     1     -11.147   9.398  71.305  1.00  0.00    -0.376 C  
HETATM   14  C   UNL     1     -11.932   8.515  72.285  1.00  0.00    -0.454 C  
HETATM   15  C   UNL     1     -11.073   7.486  73.026  1.00  0.00    -0.413 C  
HETATM   16  C   UNL     1     -11.166   6.067  72.458  1.00  0.00    -0.333 C  
HETATM   17  C   UNL     1     -10.582   5.843  71.059  1.00  0.00    -0.312 C  
HETATM   18  C   UNL     1     -11.332   6.567  69.935  1.00  0.00    -0.469 C  
HETATM   19  C   UNL     1     -10.659   7.864  69.462  1.00  0.00    -0.219 C  
ENDBRANCH  11  12
ENDBRANCH  10  11
ENDBRANCH   6  10
TORSDOF 3
ENDMDL
MODEL      126
REMARK 921   NORMALIZED FREE ENERGY PREDICTED BY IDOCK:   -3.57 KCAL/MOL
REMARK 922        TOTAL FREE ENERGY PREDICTED BY IDOCK:   -4.39 KCAL/MOL
REMARK 923 INTER-LIGAND FREE ENERGY PREDICTED BY IDOCK:   -4.20 KCAL/MOL
REMARK 924 INTRA-LIGAND FREE ENERGY PREDICTED BY IDOCK:   -0.18 KCAL/MOL
REMARK 927      BINDING AFFINITY PREDICTED BY RF-SCORE:    0.00 PKD
ROOT
HETATM    1  N   UNL     1     -11.618  11.217  70.355  1.00  0.00    -0.472 NA 
HETATM    2  C   UNL     1     -12.098  10.107  70.951  1.00  0.00    -0.356 C  
HETATM    3  H2  UNL     1     -12.156  11.807  69.720  1.00  0.00     0.000 HD 
HETATM    4  H1  UNL     1     -10.649  11.393  70.621  1.00  0.00     0.000 HD 
HETATM    5  N   UNL     1     -13.381   9.875  70.599  1.00  0.00    -0.612 NA 
HETATM    6  N   UNL     1     -11.348   9.447  71.759  1.00  0.00    -0.375 NA 
HETATM    7  H1  UNL     1     -13.745   9.035  71.050  1.00  0.00     0.000 HD 
HETATM    8  H2  UNL     1     -13.919  10.464  69.964  1.00  0.00     0.000 HD 
HETATM    9  H   UNL     1     -10.385   9.724  71.947  1.00  0.00     0.000 HD 
ENDROOT
BRANCH   6  10
HETATM   10  C   UNL     1     -11.955   8.273  72.395  1.00  0.00    -0.384 C  
BRANCH  10  11
HETATM   11  C   UNL     1     -10.985   7.075  72.370  1.00  0.00    -0.248 C  
BRANCH  11  12
HETATM   12  N   UNL     1     -10.339   6.886  71.048  1.00  0.00    -0.204 NA 
HETATM   13  C   UNL     1      -8.928   7.291  71.056  1.00  0.00    -0.149 C  
HETATM   14  C   UNL     1      -8.321   7.584  69.677  1.00  0.00    -0.131 C  
HETATM   15  C   UNL     1      -9.261   8.331  68.726  1.00  0.00    -0.143 C  
HETATM   16  C   UNL     1      -9.936   7.437  67.682  1.00  0.00    -0.213 C  
HETATM   17  C   UNL     1     -10.951   6.414  68.200  1.00  0.00    -0.393 C  
HETATM   18  C   UNL     1     -10.346   5.302  69.066  1.00  0.00    -0.246 C  
HETATM   19  C   UNL     1     -10.534   5.508  70.577  1.00  0.00    -0.277 C  
ENDBRANCH  11  12
ENDBRANCH  10  11
ENDBRANCH   6  10
TORSDOF 3
ENDMDL
MODEL      127
REMARK 921   NORMALIZED FREE ENERGY PREDICTED BY IDOCK:   -3.56 KCAL/MOL
REMARK 922        TOTAL FREE ENERGY PREDICTED BY IDOCK:   -4.38 KCAL/MOL
REMARK 923 INTER-LIGAND FREE ENERGY PREDICTED BY IDOCK:   -4.17 KCAL/MOL
REMARK 924 INTRA-LIGAND FREE ENERGY PREDICTED BY IDOCK:   -0.21 KCAL/MOL
REMARK 927      BINDING AFFINITY PREDICTED BY RF-SCORE:    0.00 PKD
ROOT
HETATM    1  N   UNL     1     -10.077   7.945  66.205  1.00  0.00    -0.478 NA 
HETATM    2  C   UNL     1     -10.491   6.959  67.027  1.00  0.00    -0.304 C  
HETATM    3  H2  UNL     1     -10.241   7.962  65.199  1.00  0.00     0.000 HD 
HETATM    4  H1  UNL     1      -9.580   8.672  66.720  1.00  0.00     0.000 HD 
HETATM    5  N   UNL     1     -11.150   5.996  66.346  1.00  0.00    -0.736 NA 
HETATM    6  N   UNL     1     -10.260   7.046  68.287  1.00  0.00    -0.174 NA 
HETATM    7  H1  UNL     1     -11.464   5.250  66.967  1.00  0.00     0.000 HD 
HETATM    8  H2  UNL     1     -11.313   6.013  65.340  1.00  0.00     0.000 HD 
HETATM    9  H   UNL     1      -9.747   7.830  68.688  1.00  0.00     0.000 HD 
ENDROOT
BRANCH   6  10
HETATM   10  C   UNL     1     -10.774   5.951  69.117  1.00  0.00    -0.324 C  
BRANCH  10  11
HETATM   11  C   UNL     1     -11.614   6.501  70.287  1.00  0.00    -0.409 C  
BRANCH  11  12
HETATM   12  N   UNL     1     -10.826   6.665  71.534  1.00  0.00    -0.234 NA 
HETATM   13  C   UNL     1     -10.583   8.077  71.855  1.00  0.00    -0.245 C  
HETATM   14  C   UNL     1      -9.414   8.340  72.813  1.00  0.00    -0.343 C  
HETATM   15  C   UNL     1      -8.188   7.456  72.563  1.00  0.00    -0.123 C  
HETATM   16  C   UNL     1      -8.058   6.277  73.531  1.00  0.00    -0.107 C  
HETATM   17  C   UNL     1      -9.121   5.178  73.427  1.00  0.00    -0.124 C  
HETATM   18  C   UNL     1     -10.534   5.621  73.827  1.00  0.00    -0.295 C  
HETATM   19  C   UNL     1     -11.456   5.930  72.638  1.00  0.00    -0.272 C  
ENDBRANCH  11  12
ENDBRANCH  10  11
ENDBRANCH   6  10
TORSDOF 3
ENDMDL
MODEL      128
REMARK 921   NORMALIZED FREE ENERGY PREDICTED BY IDOCK:   -3.56 KCAL/MOL
REMARK 922        TOTAL FREE ENERGY PREDICTED BY IDOCK:   -4.37 KCAL/MOL
REMARK 923 INTER-LIGAND FREE ENERGY PREDICTED BY IDOCK:   -4.17 KCAL/MOL
REMARK 924 INTRA-LIGAND FREE ENERGY PREDICTED BY IDOCK:   -0.20 KCAL/MOL
REMARK 927      BINDING AFFINITY PREDICTED BY RF-SCORE:    0.00 PKD
ROOT
HETATM    1  N   UNL     1     -10.411  20.072  68.893  1.00  0.00    -0.517 NA 
HETATM    2  C   UNL     1     -10.008  18.843  68.510  1.00  0.00    -0.406 C  
HETATM    3  H2  UNL     1     -10.172  20.933  68.404  1.00  0.00     0.000 HD 
HETATM    4  H1  UNL     1     -10.987  20.028  69.734  1.00  0.00     0.000 HD 
HETATM    5  N   UNL     1      -9.246  18.900  67.396  1.00  0.00    -0.284 NA 
HETATM    6  N   UNL     1     -10.388  17.815  69.180  1.00  0.00    -0.397 NA 
HETATM    7  H1  UNL     1      -8.941  17.971  67.106  1.00  0.00     0.000 HD 
HETATM    8  H2  UNL     1      -9.007  19.762  66.907  1.00  0.00     0.000 HD 
HETATM    9  H   UNL     1     -10.970  17.899  70.013  1.00  0.00     0.000 HD 
ENDROOT
BRANCH   6  10
HETATM   10  C   UNL     1      -9.938  16.512  68.678  1.00  0.00    -0.248 C  
BRANCH  10  11
HETATM   11  C   UNL     1     -11.107  15.739  68.037  1.00  0.00    -0.337 C  
BRANCH  11  12
HETATM   12  N   UNL     1     -10.722  14.376  67.595  1.00  0.00    -0.260 NA 
HETATM   13  C   UNL     1     -11.834  13.666  66.950  1.00  0.00    -0.411 C  
HETATM   14  C   UNL     1     -11.694  12.139  66.897  1.00  0.00    -0.374 C  
HETATM   15  C   UNL     1     -11.109  11.518  68.169  1.00  0.00    -0.303 C  
HETATM   16  C   UNL     1      -9.626  11.154  68.064  1.00  0.00    -0.181 C  
HETATM   17  C   UNL     1      -8.636  12.317  67.936  1.00  0.00    -0.169 C  
HETATM   18  C   UNL     1      -8.750  13.107  66.627  1.00  0.00    -0.018 C  
HETATM   19  C   UNL     1      -9.518  14.432  66.756  1.00  0.00    -0.267 C  
ENDBRANCH  11  12
ENDBRANCH  10  11
ENDBRANCH   6  10
TORSDOF 3
ENDMDL
MODEL      129
REMARK 921   NORMALIZED FREE ENERGY PREDICTED BY IDOCK:   -3.56 KCAL/MOL
REMARK 922        TOTAL FREE ENERGY PREDICTED BY IDOCK:   -4.37 KCAL/MOL
REMARK 923 INTER-LIGAND FREE ENERGY PREDICTED BY IDOCK:   -4.17 KCAL/MOL
REMARK 924 INTRA-LIGAND FREE ENERGY PREDICTED BY IDOCK:   -0.20 KCAL/MOL
REMARK 927      BINDING AFFINITY PREDICTED BY RF-SCORE:    0.00 PKD
ROOT
HETATM    1  N   UNL     1      -6.489   8.616  64.966  1.00  0.00    -0.061 NA 
HETATM    2  C   UNL     1      -7.833   8.677  65.066  1.00  0.00    -0.116 C  
HETATM    3  H2  UNL     1      -5.989   8.314  64.131  1.00  0.00     0.000 HD 
HETATM    4  H1  UNL     1      -6.038   8.913  65.831  1.00  0.00     0.000 HD 
HETATM    5  N   UNL     1      -8.430   8.285  63.920  1.00  0.00    -0.395 NA 
HETATM    6  N   UNL     1      -8.367   9.100  66.155  1.00  0.00    -0.117 NA 
HETATM    7  H1  UNL     1      -9.447   8.331  63.996  1.00  0.00     0.000 HD 
HETATM    8  H2  UNL     1      -7.930   7.982  63.085  1.00  0.00     0.000 HD 
HETATM    9  H   UNL     1      -7.805   9.371  66.961  1.00  0.00     0.000 HD 
ENDROOT
BRANCH   6  10
HETATM   10  C   UNL     1      -9.833   9.171  66.172  1.00  0.00    -0.293 C  
BRANCH  10  11
HETATM   11  C   UNL     1     -10.311  10.403  66.966  1.00  0.00    -0.240 C  
BRANCH  11  12
HETATM   12  N   UNL     1     -10.548  11.587  66.102  1.00  0.00    -0.258 NA 
HETATM   13  C   UNL     1      -9.613  12.681  66.392  1.00  0.00    -0.248 C  
HETATM   14  C   UNL     1     -10.062  14.070  65.916  1.00  0.00    -0.336 C  
HETATM   15  C   UNL     1     -11.554  14.349  66.118  1.00  0.00    -0.372 C  
HETATM   16  C   UNL     1     -12.398  14.195  64.849  1.00  0.00    -0.446 C  
HETATM   17  C   UNL     1     -12.535  12.781  64.277  1.00  0.00    -0.461 C  
HETATM   18  C   UNL     1     -11.231  12.186  63.734  1.00  0.00    -0.509 C  
HETATM   19  C   UNL     1     -10.545  11.194  64.686  1.00  0.00    -0.318 C  
ENDBRANCH  11  12
ENDBRANCH  10  11
ENDBRANCH   6  10
TORSDOF 3
ENDMDL
MODEL      130
REMARK 921   NORMALIZED FREE ENERGY PREDICTED BY IDOCK:   -3.55 KCAL/MOL
REMARK 922        TOTAL FREE ENERGY PREDICTED BY IDOCK:   -4.36 KCAL/MOL
REMARK 923 INTER-LIGAND FREE ENERGY PREDICTED BY IDOCK:   -4.18 KCAL/MOL
REMARK 924 INTRA-LIGAND FREE ENERGY PREDICTED BY IDOCK:   -0.18 KCAL/MOL
REMARK 927      BINDING AFFINITY PREDICTED BY RF-SCORE:    0.00 PKD
ROOT
HETATM    1  N   UNL     1     -14.341  15.510  72.605  1.00  0.00    -0.354 NA 
HETATM    2  C   UNL     1     -13.288  15.156  71.839  1.00  0.00    -0.399 C  
HETATM    3  H2  UNL     1     -14.393  15.365  73.613  1.00  0.00     0.000 HD 
HETATM    4  H1  UNL     1     -15.078  15.941  72.047  1.00  0.00     0.000 HD 
HETATM    5  N   UNL     1     -12.312  14.586  72.579  1.00  0.00    -0.243 NA 
HETATM    6  N   UNL     1     -13.308  15.408  70.580  1.00  0.00    -0.742 NA 
HETATM    7  H1  UNL     1     -11.515  14.318  72.000  1.00  0.00     0.000 HD 
HETATM    8  H2  UNL     1     -12.364  14.441  73.587  1.00  0.00     0.000 HD 
HETATM    9  H   UNL     1     -14.111  15.848  70.132  1.00  0.00     0.000 HD 
ENDROOT
BRANCH   6  10
HETATM   10  C   UNL     1     -12.110  15.026  69.824  1.00  0.00    -0.314 C  
BRANCH  10  11
HETATM   11  C   UNL     1     -11.907  15.960  68.614  1.00  0.00    -0.234 C  
BRANCH  11  12
HETATM   12  N   UNL     1     -10.484  16.074  68.209  1.00  0.00    -0.260 NA 
HETATM   13  C   UNL     1      -9.788  14.782  68.255  1.00  0.00    -0.222 C  
HETATM   14  C   UNL     1      -8.257  14.864  68.324  1.00  0.00    -0.145 C  
HETATM   15  C   UNL     1      -7.730  15.978  69.233  1.00  0.00    -0.223 C  
HETATM   16  C   UNL     1      -7.261  17.228  68.483  1.00  0.00    -0.224 C  
HETATM   17  C   UNL     1      -8.337  18.049  67.766  1.00  0.00    -0.249 C  
HETATM   18  C   UNL     1      -8.999  17.332  66.582  1.00  0.00    -0.279 C  
HETATM   19  C   UNL     1     -10.377  16.732  66.900  1.00  0.00    -0.294 C  
ENDBRANCH  11  12
ENDBRANCH  10  11
ENDBRANCH   6  10
TORSDOF 3
ENDMDL
MODEL      131
REMARK 921   NORMALIZED FREE ENERGY PREDICTED BY IDOCK:   -3.55 KCAL/MOL
REMARK 922        TOTAL FREE ENERGY PREDICTED BY IDOCK:   -4.35 KCAL/MOL
REMARK 923 INTER-LIGAND FREE ENERGY PREDICTED BY IDOCK:   -4.14 KCAL/MOL
REMARK 924 INTRA-LIGAND FREE ENERGY PREDICTED BY IDOCK:   -0.21 KCAL/MOL
REMARK 927      BINDING AFFINITY PREDICTED BY RF-SCORE:    0.00 PKD
ROOT
HETATM    1  N   UNL     1     -12.658  13.819  70.721  1.00  0.00    -0.346 NA 
HETATM    2  C   UNL     1     -12.201  13.054  69.708  1.00  0.00    -0.177 C  
HETATM    3  H2  UNL     1     -12.976  14.782  70.616  1.00  0.00     0.000 HD 
HETATM    4  H1  UNL     1     -12.645  13.310  71.605  1.00  0.00     0.000 HD 
HETATM    5  N   UNL     1     -12.218  13.728  68.537  1.00  0.00    -0.444 NA 
HETATM    6  N   UNL     1     -11.849  11.841  69.940  1.00  0.00    -0.335 NA 
HETATM    7  H1  UNL     1     -11.873  13.149  67.770  1.00  0.00     0.000 HD 
HETATM    8  H2  UNL     1     -12.537  14.690  68.432  1.00  0.00     0.000 HD 
HETATM    9  H   UNL     1     -11.881  11.440  70.876  1.00  0.00     0.000 HD 
ENDROOT
BRANCH   6  10
HETATM   10  C   UNL     1     -11.398  11.064  68.779  1.00  0.00    -0.283 C  
BRANCH  10  11
HETATM   11  C   UNL     1     -10.039  10.396  69.064  1.00  0.00    -0.213 C  
BRANCH  11  12
HETATM   12  N   UNL     1     -10.160   9.184  69.912  1.00  0.00    -0.192 NA 
HETATM   13  C   UNL     1     -10.259   7.956  69.114  1.00  0.00    -0.216 C  
HETATM   14  C   UNL     1     -10.854   6.745  69.846  1.00  0.00    -0.310 C  
HETATM   15  C   UNL     1     -12.034   7.084  70.762  1.00  0.00    -0.392 C  
HETATM   16  C   UNL     1     -11.669   7.167  72.247  1.00  0.00    -0.296 C  
HETATM   17  C   UNL     1     -10.751   8.318  72.670  1.00  0.00    -0.384 C  
HETATM   18  C   UNL     1      -9.326   8.233  72.110  1.00  0.00    -0.303 C  
HETATM   19  C   UNL     1      -9.070   9.138  70.896  1.00  0.00    -0.252 C  
ENDBRANCH  11  12
ENDBRANCH  10  11
ENDBRANCH   6  10
TORSDOF 3
ENDMDL
MODEL      132
REMARK 921   NORMALIZED FREE ENERGY PREDICTED BY IDOCK:   -3.53 KCAL/MOL
REMARK 922        TOTAL FREE ENERGY PREDICTED BY IDOCK:   -4.34 KCAL/MOL
REMARK 923 INTER-LIGAND FREE ENERGY PREDICTED BY IDOCK:   -4.13 KCAL/MOL
REMARK 924 INTRA-LIGAND FREE ENERGY PREDICTED BY IDOCK:   -0.21 KCAL/MOL
REMARK 927      BINDING AFFINITY PREDICTED BY RF-SCORE:    0.00 PKD
ROOT
HETATM    1  N   UNL     1     -10.165   7.661  73.670  1.00  0.00    -0.340 NA 
HETATM    2  C   UNL     1     -10.921   8.113  72.649  1.00  0.00    -0.370 C  
HETATM    3  H2  UNL     1     -10.529   7.153  74.475  1.00  0.00     0.000 HD 
HETATM    4  H1  UNL     1      -9.181   7.893  73.534  1.00  0.00     0.000 HD 
HETATM    5  N   UNL     1     -12.224   7.806  72.830  1.00  0.00    -0.591 NA 
HETATM    6  N   UNL     1     -10.360   8.719  71.666  1.00  0.00    -0.292 NA 
HETATM    7  H1  UNL     1     -12.797   8.147  72.057  1.00  0.00     0.000 HD 
HETATM    8  H2  UNL     1     -12.589   7.297  73.634  1.00  0.00     0.000 HD 
HETATM    9  H   UNL     1      -9.356   8.894  71.643  1.00  0.00     0.000 HD 
ENDROOT
BRANCH   6  10
HETATM   10  C   UNL     1     -11.247   9.147  70.578  1.00  0.00    -0.264 C  
BRANCH  10  11
HETATM   11  C   UNL     1     -11.512  10.663  70.653  1.00  0.00    -0.281 C  
BRANCH  11  12
HETATM   12  N   UNL     1     -11.246  11.357  69.368  1.00  0.00    -0.259 NA 
HETATM   13  C   UNL     1     -11.331  10.449  68.218  1.00  0.00    -0.224 C  
HETATM   14  C   UNL     1     -10.624  10.934  66.945  1.00  0.00    -0.312 C  
HETATM   15  C   UNL     1      -9.279  11.622  67.199  1.00  0.00    -0.176 C  
HETATM   16  C   UNL     1      -9.338  13.151  67.146  1.00  0.00    -0.235 C  
HETATM   17  C   UNL     1     -10.131  13.851  68.254  1.00  0.00    -0.241 C  
HETATM   18  C   UNL     1     -11.641  13.584  68.220  1.00  0.00    -0.381 C  
HETATM   19  C   UNL     1     -12.118  12.532  69.232  1.00  0.00    -0.161 C  
ENDBRANCH  11  12
ENDBRANCH  10  11
ENDBRANCH   6  10
TORSDOF 3
ENDMDL
MODEL      133
REMARK 921   NORMALIZED FREE ENERGY PREDICTED BY IDOCK:   -3.53 KCAL/MOL
REMARK 922        TOTAL FREE ENERGY PREDICTED BY IDOCK:   -4.34 KCAL/MOL
REMARK 923 INTER-LIGAND FREE ENERGY PREDICTED BY IDOCK:   -4.15 KCAL/MOL
REMARK 924 INTRA-LIGAND FREE ENERGY PREDICTED BY IDOCK:   -0.19 KCAL/MOL
REMARK 927      BINDING AFFINITY PREDICTED BY RF-SCORE:    0.00 PKD
ROOT
HETATM    1  N   UNL     1     -12.344  14.019  70.789  1.00  0.00    -0.351 NA 
HETATM    2  C   UNL     1     -12.034  12.970  69.999  1.00  0.00    -0.312 C  
HETATM    3  H2  UNL     1     -12.549  14.956  70.446  1.00  0.00     0.000 HD 
HETATM    4  H1  UNL     1     -12.347  13.753  71.774  1.00  0.00     0.000 HD 
HETATM    5  N   UNL     1     -12.030  13.322  68.695  1.00  0.00    -0.342 NA 
HETATM    6  N   UNL     1     -11.820  11.820  70.529  1.00  0.00    -0.500 NA 
HETATM    7  H1  UNL     1     -11.797  12.529  68.097  1.00  0.00     0.000 HD 
HETATM    8  H2  UNL     1     -12.236  14.260  68.352  1.00  0.00     0.000 HD 
HETATM    9  H   UNL     1     -11.851  11.677  71.538  1.00  0.00     0.000 HD 
ENDROOT
BRANCH   6  10
HETATM   10  C   UNL     1     -11.525  10.724  69.599  1.00  0.00    -0.305 C  
BRANCH  10  11
HETATM   11  C   UNL     1     -10.168  10.074  69.933  1.00  0.00    -0.260 C  
BRANCH  11  12
HETATM   12  N   UNL     1     -10.310   8.761  70.609  1.00  0.00    -0.199 NA 
HETATM   13  C   UNL     1      -9.710   8.759  71.950  1.00  0.00    -0.316 C  
HETATM   14  C   UNL     1      -9.382   7.372  72.519  1.00  0.00    -0.185 C  
HETATM   15  C   UNL     1      -8.807   6.392  71.491  1.00  0.00    -0.137 C  
HETATM   16  C   UNL     1      -9.823   5.379  70.957  1.00  0.00    -0.246 C  
HETATM   17  C   UNL     1     -10.960   5.930  70.092  1.00  0.00    -0.412 C  
HETATM   18  C   UNL     1     -11.945   6.836  70.840  1.00  0.00    -0.437 C  
HETATM   19  C   UNL     1     -11.717   8.338  70.614  1.00  0.00    -0.147 C  
ENDBRANCH  11  12
ENDBRANCH  10  11
ENDBRANCH   6  10
TORSDOF 3
ENDMDL
MODEL      134
REMARK 921   NORMALIZED FREE ENERGY PREDICTED BY IDOCK:   -3.52 KCAL/MOL
REMARK 922        TOTAL FREE ENERGY PREDICTED BY IDOCK:   -4.32 KCAL/MOL
REMARK 923 INTER-LIGAND FREE ENERGY PREDICTED BY IDOCK:   -4.13 KCAL/MOL
REMARK 924 INTRA-LIGAND FREE ENERGY PREDICTED BY IDOCK:   -0.19 KCAL/MOL
REMARK 927      BINDING AFFINITY PREDICTED BY RF-SCORE:    0.00 PKD
ROOT
HETATM    1  N   UNL     1      -7.392  17.552  65.780  1.00  0.00    -0.445 NA 
HETATM    2  C   UNL     1      -8.537  16.910  66.090  1.00  0.00    -0.242 C  
HETATM    3  H2  UNL     1      -7.343  18.520  65.464  1.00  0.00     0.000 HD 
HETATM    4  H1  UNL     1      -6.581  16.946  65.903  1.00  0.00     0.000 HD 
HETATM    5  N   UNL     1      -9.611  17.713  65.928  1.00  0.00    -0.528 NA 
HETATM    6  N   UNL     1      -8.488  15.696  66.507  1.00  0.00    -0.284 NA 
HETATM    7  H1  UNL     1     -10.477  17.227  66.163  1.00  0.00     0.000 HD 
HETATM    8  H2  UNL     1      -9.562  18.681  65.612  1.00  0.00     0.000 HD 
HETATM    9  H   UNL     1      -7.607  15.189  66.588  1.00  0.00     0.000 HD 
ENDROOT
BRANCH   6  10
HETATM   10  C   UNL     1      -9.772  15.080  66.858  1.00  0.00    -0.238 C  
BRANCH  10  11
HETATM   11  C   UNL     1     -10.184  14.035  65.802  1.00  0.00    -0.328 C  
BRANCH  11  12
HETATM   12  N   UNL     1     -10.460  12.701  66.390  1.00  0.00    -0.246 NA 
HETATM   13  C   UNL     1     -11.749  12.659  67.091  1.00  0.00    -0.371 C  
HETATM   14  C   UNL     1     -11.905  11.520  68.109  1.00  0.00    -0.306 C  
HETATM   15  C   UNL     1     -10.646  11.243  68.936  1.00  0.00    -0.239 C  
HETATM   16  C   UNL     1      -9.838  10.032  68.461  1.00  0.00    -0.168 C  
HETATM   17  C   UNL     1      -9.156  10.150  67.095  1.00  0.00    -0.149 C  
HETATM   18  C   UNL     1     -10.123  10.234  65.907  1.00  0.00    -0.319 C  
HETATM   19  C   UNL     1     -10.333  11.655  65.365  1.00  0.00    -0.267 C  
ENDBRANCH  11  12
ENDBRANCH  10  11
ENDBRANCH   6  10
TORSDOF 3
ENDMDL
MODEL      135
REMARK 921   NORMALIZED FREE ENERGY PREDICTED BY IDOCK:   -3.52 KCAL/MOL
REMARK 922        TOTAL FREE ENERGY PREDICTED BY IDOCK:   -4.32 KCAL/MOL
REMARK 923 INTER-LIGAND FREE ENERGY PREDICTED BY IDOCK:   -4.07 KCAL/MOL
REMARK 924 INTRA-LIGAND FREE ENERGY PREDICTED BY IDOCK:   -0.25 KCAL/MOL
REMARK 927      BINDING AFFINITY PREDICTED BY RF-SCORE:    0.00 PKD
ROOT
HETATM    1  N   UNL     1      -6.118  13.238  70.967  1.00  0.00    -0.541 NA 
HETATM    2  C   UNL     1      -6.414  14.060  69.939  1.00  0.00    -0.098 C  
HETATM    3  H2  UNL     1      -5.408  13.433  71.672  1.00  0.00     0.000 HD 
HETATM    4  H1  UNL     1      -6.695  12.397  70.948  1.00  0.00     0.000 HD 
HETATM    5  N   UNL     1      -5.650  15.174  69.964  1.00  0.00    -0.118 NA 
HETATM    6  N   UNL     1      -7.347  13.735  69.118  1.00  0.00    -0.287 NA 
HETATM    7  H1  UNL     1      -5.875  15.795  69.187  1.00  0.00     0.000 HD 
HETATM    8  H2  UNL     1      -4.941  15.368  70.669  1.00  0.00     0.000 HD 
HETATM    9  H   UNL     1      -7.859  12.858  69.204  1.00  0.00     0.000 HD 
ENDROOT
BRANCH   6  10
HETATM   10  C   UNL     1      -7.634  14.699  68.050  1.00  0.00    -0.128 C  
BRANCH  10  11
HETATM   11  C   UNL     1      -9.003  15.371  68.273  1.00  0.00    -0.185 C  
BRANCH  11  12
HETATM   12  N   UNL     1      -8.999  16.813  67.925  1.00  0.00    -0.216 NA 
HETATM   13  C   UNL     1      -7.775  17.489  68.374  1.00  0.00    -0.260 C  
HETATM   14  C   UNL     1      -7.876  19.016  68.495  1.00  0.00    -0.375 C  
HETATM   15  C   UNL     1      -9.205  19.512  69.072  1.00  0.00    -0.298 C  
HETATM   16  C   UNL     1     -10.189  20.034  68.022  1.00  0.00    -0.538 C  
HETATM   17  C   UNL     1     -10.768  19.005  67.046  1.00  0.00    -0.516 C  
HETATM   18  C   UNL     1      -9.742  18.393  66.085  1.00  0.00    -0.236 C  
HETATM   19  C   UNL     1      -9.256  16.994  66.489  1.00  0.00    -0.271 C  
ENDBRANCH  11  12
ENDBRANCH  10  11
ENDBRANCH   6  10
TORSDOF 3
ENDMDL
MODEL      136
REMARK 921   NORMALIZED FREE ENERGY PREDICTED BY IDOCK:   -3.51 KCAL/MOL
REMARK 922        TOTAL FREE ENERGY PREDICTED BY IDOCK:   -4.31 KCAL/MOL
REMARK 923 INTER-LIGAND FREE ENERGY PREDICTED BY IDOCK:   -3.86 KCAL/MOL
REMARK 924 INTRA-LIGAND FREE ENERGY PREDICTED BY IDOCK:   -0.44 KCAL/MOL
REMARK 927      BINDING AFFINITY PREDICTED BY RF-SCORE:    0.00 PKD
ROOT
HETATM    1  N   UNL     1     -11.835  11.980  63.359  1.00  0.00    -0.689 NA 
HETATM    2  C   UNL     1     -11.410  12.259  64.608  1.00  0.00    -0.322 C  
HETATM    3  H2  UNL     1     -11.218  11.817  62.564  1.00  0.00     0.000 HD 
HETATM    4  H1  UNL     1     -12.854  11.951  63.311  1.00  0.00     0.000 HD 
HETATM    5  N   UNL     1     -10.061  12.297  64.672  1.00  0.00    -0.388 NA 
HETATM    6  N   UNL     1     -12.270  12.419  65.548  1.00  0.00    -0.604 NA 
HETATM    7  H1  UNL     1      -9.739  12.508  65.617  1.00  0.00     0.000 HD 
HETATM    8  H2  UNL     1      -9.444  12.135  63.877  1.00  0.00     0.000 HD 
HETATM    9  H   UNL     1     -13.274  12.366  65.376  1.00  0.00     0.000 HD 
ENDROOT
BRANCH   6  10
HETATM   10  C   UNL     1     -11.727  12.683  66.886  1.00  0.00    -0.383 C  
BRANCH  10  11
HETATM   11  C   UNL     1     -11.624  11.379  67.701  1.00  0.00    -0.238 C  
BRANCH  11  12
HETATM   12  N   UNL     1     -10.268  10.778  67.654  1.00  0.00    -0.182 NA 
HETATM   13  C   UNL     1      -9.356  11.388  68.630  1.00  0.00    -0.150 C  
HETATM   14  C   UNL     1      -7.861  11.189  68.345  1.00  0.00    -0.133 C  
HETATM   15  C   UNL     1      -7.485  11.305  66.865  1.00  0.00    -0.145 C  
HETATM   16  C   UNL     1      -7.284   9.959  66.162  1.00  0.00    -0.104 C  
HETATM   17  C   UNL     1      -8.526   9.080  65.984  1.00  0.00    -0.138 C  
HETATM   18  C   UNL     1      -9.119   8.545  67.293  1.00  0.00    -0.152 C  
HETATM   19  C   UNL     1     -10.351   9.317  67.788  1.00  0.00    -0.237 C  
ENDBRANCH  11  12
ENDBRANCH  10  11
ENDBRANCH   6  10
TORSDOF 3
ENDMDL
MODEL      137
REMARK 921   NORMALIZED FREE ENERGY PREDICTED BY IDOCK:   -3.50 KCAL/MOL
REMARK 922        TOTAL FREE ENERGY PREDICTED BY IDOCK:   -4.31 KCAL/MOL
REMARK 923 INTER-LIGAND FREE ENERGY PREDICTED BY IDOCK:   -4.02 KCAL/MOL
REMARK 924 INTRA-LIGAND FREE ENERGY PREDICTED BY IDOCK:   -0.29 KCAL/MOL
REMARK 927      BINDING AFFINITY PREDICTED BY RF-SCORE:    0.00 PKD
ROOT
HETATM    1  N   UNL     1      -9.163   8.496  64.997  1.00  0.00    -0.395 NA 
HETATM    2  C   UNL     1      -9.638   8.847  66.209  1.00  0.00    -0.260 C  
HETATM    3  H2  UNL     1      -9.458   7.666  64.482  1.00  0.00     0.000 HD 
HETATM    4  H1  UNL     1      -8.472   9.166  64.660  1.00  0.00     0.000 HD 
HETATM    5  N   UNL     1     -10.553   7.959  66.655  1.00  0.00    -0.428 NA 
HETATM    6  N   UNL     1      -9.223   9.929  66.762  1.00  0.00    -0.146 NA 
HETATM    7  H1  UNL     1     -10.913   8.224  67.572  1.00  0.00     0.000 HD 
HETATM    8  H2  UNL     1     -10.848   7.129  66.140  1.00  0.00     0.000 HD 
HETATM    9  H   UNL     1      -8.522  10.524  66.323  1.00  0.00     0.000 HD 
ENDROOT
BRANCH   6  10
HETATM   10  C   UNL     1      -9.815  10.260  68.063  1.00  0.00    -0.150 C  
BRANCH  10  11
HETATM   11  C   UNL     1      -8.942   9.721  69.214  1.00  0.00    -0.173 C  
BRANCH  11  12
HETATM   12  N   UNL     1      -9.648   8.720  70.051  1.00  0.00    -0.165 NA 
HETATM   13  C   UNL     1      -9.194   7.350  69.779  1.00  0.00    -0.140 C  
HETATM   14  C   UNL     1     -10.160   6.241  70.218  1.00  0.00    -0.226 C  
HETATM   15  C   UNL     1     -11.636   6.556  69.959  1.00  0.00    -0.455 C  
HETATM   16  C   UNL     1     -12.404   7.022  71.199  1.00  0.00    -0.423 C  
HETATM   17  C   UNL     1     -12.010   8.381  71.786  1.00  0.00    -0.380 C  
HETATM   18  C   UNL     1     -10.599   8.429  72.385  1.00  0.00    -0.405 C  
HETATM   19  C   UNL     1      -9.549   9.081  71.472  1.00  0.00    -0.270 C  
ENDBRANCH  11  12
ENDBRANCH  10  11
ENDBRANCH   6  10
TORSDOF 3
ENDMDL
MODEL      138
REMARK 921   NORMALIZED FREE ENERGY PREDICTED BY IDOCK:   -3.50 KCAL/MOL
REMARK 922        TOTAL FREE ENERGY PREDICTED BY IDOCK:   -4.30 KCAL/MOL
REMARK 923 INTER-LIGAND FREE ENERGY PREDICTED BY IDOCK:   -4.12 KCAL/MOL
REMARK 924 INTRA-LIGAND FREE ENERGY PREDICTED BY IDOCK:   -0.18 KCAL/MOL
REMARK 927      BINDING AFFINITY PREDICTED BY RF-SCORE:    0.00 PKD
ROOT
HETATM    1  N   UNL     1      -8.792   9.000  64.313  1.00  0.00    -0.409 NA 
HETATM    2  C   UNL     1      -9.486   9.161  65.459  1.00  0.00    -0.206 C  
HETATM    3  H2  UNL     1      -8.580   9.753  63.660  1.00  0.00     0.000 HD 
HETATM    4  H1  UNL     1      -8.507   8.029  64.185  1.00  0.00     0.000 HD 
HETATM    5  N   UNL     1      -9.864  10.446  65.629  1.00  0.00    -0.242 NA 
HETATM    6  N   UNL     1      -9.677   8.152  66.230  1.00  0.00    -0.409 NA 
HETATM    7  H1  UNL     1     -10.388  10.568  66.495  1.00  0.00     0.000 HD 
HETATM    8  H2  UNL     1      -9.651  11.199  64.975  1.00  0.00     0.000 HD 
HETATM    9  H   UNL     1      -9.339   7.220  65.991  1.00  0.00     0.000 HD 
ENDROOT
BRANCH   6  10
HETATM   10  C   UNL     1     -10.408   8.416  67.474  1.00  0.00    -0.265 C  
BRANCH  10  11
HETATM   11  C   UNL     1     -10.587   7.120  68.289  1.00  0.00    -0.188 C  
BRANCH  11  12
HETATM   12  N   UNL     1     -10.786   7.374  69.737  1.00  0.00    -0.240 NA 
HETATM   13  C   UNL     1     -11.145   8.772  70.011  1.00  0.00    -0.162 C  
HETATM   14  C   UNL     1     -10.905   9.239  71.453  1.00  0.00    -0.434 C  
HETATM   15  C   UNL     1      -9.608   8.712  72.076  1.00  0.00    -0.385 C  
HETATM   16  C   UNL     1      -9.806   7.527  73.026  1.00  0.00    -0.292 C  
HETATM   17  C   UNL     1     -10.276   6.211  72.400  1.00  0.00    -0.212 C  
HETATM   18  C   UNL     1     -11.696   6.253  71.823  1.00  0.00    -0.355 C  
HETATM   19  C   UNL     1     -11.751   6.418  70.296  1.00  0.00    -0.320 C  
ENDBRANCH  11  12
ENDBRANCH  10  11
ENDBRANCH   6  10
TORSDOF 3
ENDMDL
MODEL      139
REMARK 921   NORMALIZED FREE ENERGY PREDICTED BY IDOCK:   -3.50 KCAL/MOL
REMARK 922        TOTAL FREE ENERGY PREDICTED BY IDOCK:   -4.29 KCAL/MOL
REMARK 923 INTER-LIGAND FREE ENERGY PREDICTED BY IDOCK:   -4.09 KCAL/MOL
REMARK 924 INTRA-LIGAND FREE ENERGY PREDICTED BY IDOCK:   -0.20 KCAL/MOL
REMARK 927      BINDING AFFINITY PREDICTED BY RF-SCORE:    0.00 PKD
ROOT
HETATM    1  N   UNL     1     -11.557  12.657  69.542  1.00  0.00    -0.382 NA 
HETATM    2  C   UNL     1     -11.697  11.318  69.623  1.00  0.00    -0.350 C  
HETATM    3  H2  UNL     1     -11.844  13.218  68.740  1.00  0.00     0.000 HD 
HETATM    4  H1  UNL     1     -11.127  13.038  70.385  1.00  0.00     0.000 HD 
HETATM    5  N   UNL     1     -12.266  10.815  68.507  1.00  0.00    -0.822 NA 
HETATM    6  N   UNL     1     -11.329  10.707  70.691  1.00  0.00    -0.409 NA 
HETATM    7  H1  UNL     1     -12.373   9.802  68.568  1.00  0.00     0.000 HD 
HETATM    8  H2  UNL     1     -12.553  11.375  67.705  1.00  0.00     0.000 HD 
HETATM    9  H   UNL     1     -10.908  11.202  71.477  1.00  0.00     0.000 HD 
ENDROOT
BRANCH   6  10
HETATM   10  C   UNL     1     -11.549   9.257  70.716  1.00  0.00    -0.285 C  
BRANCH  10  11
HETATM   11  C   UNL     1     -10.208   8.500  70.651  1.00  0.00    -0.197 C  
BRANCH  11  12
HETATM   12  N   UNL     1     -10.093   7.443  71.686  1.00  0.00    -0.184 NA 
HETATM   13  C   UNL     1      -9.976   8.002  73.039  1.00  0.00    -0.279 C  
HETATM   14  C   UNL     1      -9.386   7.054  74.092  1.00  0.00    -0.276 C  
HETATM   15  C   UNL     1      -8.222   6.198  73.582  1.00  0.00    -0.114 C  
HETATM   16  C   UNL     1      -8.608   4.759  73.232  1.00  0.00    -0.102 C  
HETATM   17  C   UNL     1      -9.538   4.566  72.030  1.00  0.00    -0.209 C  
HETATM   18  C   UNL     1     -10.955   5.120  72.227  1.00  0.00    -0.209 C  
HETATM   19  C   UNL     1     -11.197   6.482  71.561  1.00  0.00    -0.276 C  
ENDBRANCH  11  12
ENDBRANCH  10  11
ENDBRANCH   6  10
TORSDOF 3
ENDMDL
MODEL      140
REMARK 921   NORMALIZED FREE ENERGY PREDICTED BY IDOCK:   -3.49 KCAL/MOL
REMARK 922        TOTAL FREE ENERGY PREDICTED BY IDOCK:   -4.29 KCAL/MOL
REMARK 923 INTER-LIGAND FREE ENERGY PREDICTED BY IDOCK:   -4.18 KCAL/MOL
REMARK 924 INTRA-LIGAND FREE ENERGY PREDICTED BY IDOCK:   -0.11 KCAL/MOL
REMARK 927      BINDING AFFINITY PREDICTED BY RF-SCORE:    0.00 PKD
ROOT
HETATM    1  N   UNL     1     -12.946  10.416  70.334  1.00  0.00    -0.517 NA 
HETATM    2  C   UNL     1     -12.236  11.202  69.499  1.00  0.00    -0.277 C  
HETATM    3  H2  UNL     1     -13.100  10.617  71.321  1.00  0.00     0.000 HD 
HETATM    4  H1  UNL     1     -13.310   9.594  69.851  1.00  0.00     0.000 HD 
HETATM    5  N   UNL     1     -11.755  12.290  70.139  1.00  0.00    -0.529 NA 
HETATM    6  N   UNL     1     -12.124  10.874  68.263  1.00  0.00    -0.810 NA 
HETATM    7  H1  UNL     1     -11.218  12.885  69.508  1.00  0.00     0.000 HD 
HETATM    8  H2  UNL     1     -11.909  12.491  71.127  1.00  0.00     0.000 HD 
HETATM    9  H   UNL     1     -12.537  10.019  67.893  1.00  0.00     0.000 HD 
ENDROOT
BRANCH   6  10
HETATM   10  C   UNL     1     -11.368  11.800  67.413  1.00  0.00    -0.311 C  
BRANCH  10  11
HETATM   11  C   UNL     1      -9.874  11.422  67.386  1.00  0.00    -0.182 C  
BRANCH  11  12
HETATM   12  N   UNL     1      -9.539  10.477  66.292  1.00  0.00    -0.180 NA 
HETATM   13  C   UNL     1      -9.720   9.076  66.693  1.00  0.00    -0.230 C  
HETATM   14  C   UNL     1      -8.969   8.047  65.837  1.00  0.00    -0.181 C  
HETATM   15  C   UNL     1      -7.559   8.484  65.426  1.00  0.00    -0.088 C  
HETATM   16  C   UNL     1      -7.459   9.005  63.989  1.00  0.00    -0.110 C  
HETATM   17  C   UNL     1      -8.174  10.324  63.681  1.00  0.00    -0.158 C  
HETATM   18  C   UNL     1      -9.703  10.254  63.770  1.00  0.00    -0.298 C  
HETATM   19  C   UNL     1     -10.285  10.822  65.074  1.00  0.00    -0.306 C  
ENDBRANCH  11  12
ENDBRANCH  10  11
ENDBRANCH   6  10
TORSDOF 3
ENDMDL
MODEL      141
REMARK 921   NORMALIZED FREE ENERGY PREDICTED BY IDOCK:   -3.48 KCAL/MOL
REMARK 922        TOTAL FREE ENERGY PREDICTED BY IDOCK:   -4.28 KCAL/MOL
REMARK 923 INTER-LIGAND FREE ENERGY PREDICTED BY IDOCK:   -4.07 KCAL/MOL
REMARK 924 INTRA-LIGAND FREE ENERGY PREDICTED BY IDOCK:   -0.20 KCAL/MOL
REMARK 927      BINDING AFFINITY PREDICTED BY RF-SCORE:    0.00 PKD
ROOT
HETATM    1  N   UNL     1      -9.726   8.013  70.027  1.00  0.00    -0.172 NA 
HETATM    2  C   UNL     1     -10.594   9.033  69.864  1.00  0.00    -0.228 C  
HETATM    3  H2  UNL     1      -9.614   7.487  70.892  1.00  0.00     0.000 HD 
HETATM    4  H1  UNL     1      -9.197   7.836  69.173  1.00  0.00     0.000 HD 
HETATM    5  N   UNL     1     -11.295   9.267  70.995  1.00  0.00    -0.293 NA 
HETATM    6  N   UNL     1     -10.680   9.615  68.723  1.00  0.00    -0.279 NA 
HETATM    7  H1  UNL     1     -11.952  10.038  70.873  1.00  0.00     0.000 HD 
HETATM    8  H2  UNL     1     -11.182   8.740  71.861  1.00  0.00     0.000 HD 
HETATM    9  H   UNL     1     -10.092   9.346  67.935  1.00  0.00     0.000 HD 
ENDROOT
BRANCH   6  10
HETATM   10  C   UNL     1     -11.673  10.690  68.617  1.00  0.00    -0.158 C  
BRANCH  10  11
HETATM   11  C   UNL     1     -10.988  12.041  68.332  1.00  0.00    -0.237 C  
BRANCH  11  12
HETATM   12  N   UNL     1     -11.112  12.460  66.914  1.00  0.00    -0.272 NA 
HETATM   13  C   UNL     1     -11.929  13.672  66.763  1.00  0.00    -0.414 C  
HETATM   14  C   UNL     1     -12.503  13.905  65.359  1.00  0.00    -0.528 C  
HETATM   15  C   UNL     1     -13.000  12.632  64.666  1.00  0.00    -0.225 C  
HETATM   16  C   UNL     1     -12.029  12.064  63.627  1.00  0.00    -0.612 C  
HETATM   17  C   UNL     1     -10.706  11.500  64.154  1.00  0.00    -0.428 C  
HETATM   18  C   UNL     1      -9.767  12.548  64.765  1.00  0.00     0.025 C  
HETATM   19  C   UNL     1      -9.784  12.589  66.301  1.00  0.00    -0.254 C  
ENDBRANCH  11  12
ENDBRANCH  10  11
ENDBRANCH   6  10
TORSDOF 3
ENDMDL
MODEL      142
REMARK 921   NORMALIZED FREE ENERGY PREDICTED BY IDOCK:   -3.47 KCAL/MOL
REMARK 922        TOTAL FREE ENERGY PREDICTED BY IDOCK:   -4.26 KCAL/MOL
REMARK 923 INTER-LIGAND FREE ENERGY PREDICTED BY IDOCK:   -3.87 KCAL/MOL
REMARK 924 INTRA-LIGAND FREE ENERGY PREDICTED BY IDOCK:   -0.39 KCAL/MOL
REMARK 927      BINDING AFFINITY PREDICTED BY RF-SCORE:    0.00 PKD
ROOT
HETATM    1  N   UNL     1     -10.211  15.300  67.897  1.00  0.00    -0.233 NA 
HETATM    2  C   UNL     1     -11.173  14.614  68.548  1.00  0.00    -0.271 C  
HETATM    3  H2  UNL     1     -10.390  15.988  67.166  1.00  0.00     0.000 HD 
HETATM    4  H1  UNL     1      -9.282  15.043  68.230  1.00  0.00     0.000 HD 
HETATM    5  N   UNL     1     -12.403  14.954  68.107  1.00  0.00    -0.538 NA 
HETATM    6  N   UNL     1     -10.844  13.788  69.475  1.00  0.00    -0.445 NA 
HETATM    7  H1  UNL     1     -13.131  14.435  68.599  1.00  0.00     0.000 HD 
HETATM    8  H2  UNL     1     -12.582  15.642  67.376  1.00  0.00     0.000 HD 
HETATM    9  H   UNL     1      -9.870  13.614  69.721  1.00  0.00     0.000 HD 
ENDROOT
BRANCH   6  10
HETATM   10  C   UNL     1     -11.950  13.108  70.159  1.00  0.00    -0.310 C  
BRANCH  10  11
HETATM   11  C   UNL     1     -11.871  11.584  69.945  1.00  0.00    -0.355 C  
BRANCH  11  12
HETATM   12  N   UNL     1     -10.758  11.186  69.047  1.00  0.00    -0.216 NA 
HETATM   13  C   UNL     1      -9.865  10.202  69.673  1.00  0.00    -0.225 C  
HETATM   14  C   UNL     1      -8.468  10.094  69.047  1.00  0.00    -0.151 C  
HETATM   15  C   UNL     1      -7.857  11.438  68.642  1.00  0.00    -0.139 C  
HETATM   16  C   UNL     1      -7.953  11.745  67.145  1.00  0.00    -0.166 C  
HETATM   17  C   UNL     1      -9.355  11.984  66.577  1.00  0.00    -0.226 C  
HETATM   18  C   UNL     1     -10.268  10.752  66.597  1.00  0.00    -0.283 C  
HETATM   19  C   UNL     1     -11.282  10.737  67.751  1.00  0.00    -0.316 C  
ENDBRANCH  11  12
ENDBRANCH  10  11
ENDBRANCH   6  10
TORSDOF 3
ENDMDL
MODEL      143
REMARK 921   NORMALIZED FREE ENERGY PREDICTED BY IDOCK:   -3.46 KCAL/MOL
REMARK 922        TOTAL FREE ENERGY PREDICTED BY IDOCK:   -4.25 KCAL/MOL
REMARK 923 INTER-LIGAND FREE ENERGY PREDICTED BY IDOCK:   -4.00 KCAL/MOL
REMARK 924 INTRA-LIGAND FREE ENERGY PREDICTED BY IDOCK:   -0.25 KCAL/MOL
REMARK 927      BINDING AFFINITY PREDICTED BY RF-SCORE:    0.00 PKD
ROOT
HETATM    1  N   UNL     1      -7.553  17.523  66.232  1.00  0.00    -0.310 NA 
HETATM    2  C   UNL     1      -8.437  17.355  67.238  1.00  0.00    -0.208 C  
HETATM    3  H2  UNL     1      -6.787  18.195  66.246  1.00  0.00     0.000 HD 
HETATM    4  H1  UNL     1      -7.749  16.890  65.456  1.00  0.00     0.000 HD 
HETATM    5  N   UNL     1      -8.177  18.193  68.265  1.00  0.00    -0.283 NA 
HETATM    6  N   UNL     1      -9.351  16.459  67.134  1.00  0.00    -0.216 NA 
HETATM    7  H1  UNL     1      -8.845  18.066  69.026  1.00  0.00     0.000 HD 
HETATM    8  H2  UNL     1      -7.411  18.865  68.279  1.00  0.00     0.000 HD 
HETATM    9  H   UNL     1      -9.447  15.882  66.300  1.00  0.00     0.000 HD 
ENDROOT
BRANCH   6  10
HETATM   10  C   UNL     1     -10.249  16.314  68.285  1.00  0.00    -0.253 C  
BRANCH  10  11
HETATM   11  C   UNL     1     -10.274  14.854  68.779  1.00  0.00    -0.243 C  
BRANCH  11  12
HETATM   12  N   UNL     1     -10.695  13.898  67.724  1.00  0.00    -0.244 NA 
HETATM   13  C   UNL     1     -10.399  12.506  68.088  1.00  0.00    -0.232 C  
HETATM   14  C   UNL     1     -10.349  11.519  66.914  1.00  0.00    -0.258 C  
HETATM   15  C   UNL     1      -9.674  12.075  65.656  1.00  0.00    -0.241 C  
HETATM   16  C   UNL     1     -10.652  12.536  64.572  1.00  0.00    -0.363 C  
HETATM   17  C   UNL     1     -11.513  13.761  64.893  1.00  0.00    -0.351 C  
HETATM   18  C   UNL     1     -12.535  13.542  66.016  1.00  0.00    -0.456 C  
HETATM   19  C   UNL     1     -12.106  14.109  67.377  1.00  0.00    -0.344 C  
ENDBRANCH  11  12
ENDBRANCH  10  11
ENDBRANCH   6  10
TORSDOF 3
ENDMDL
MODEL      144
REMARK 921   NORMALIZED FREE ENERGY PREDICTED BY IDOCK:   -3.46 KCAL/MOL
REMARK 922        TOTAL FREE ENERGY PREDICTED BY IDOCK:   -4.25 KCAL/MOL
REMARK 923 INTER-LIGAND FREE ENERGY PREDICTED BY IDOCK:   -4.04 KCAL/MOL
REMARK 924 INTRA-LIGAND FREE ENERGY PREDICTED BY IDOCK:   -0.21 KCAL/MOL
REMARK 927      BINDING AFFINITY PREDICTED BY RF-SCORE:    0.00 PKD
ROOT
HETATM    1  N   UNL     1      -6.360  17.942  66.607  1.00  0.00    -0.168 NA 
HETATM    2  C   UNL     1      -7.344  17.023  66.509  1.00  0.00    -0.285 C  
HETATM    3  H2  UNL     1      -6.416  18.886  66.226  1.00  0.00     0.000 HD 
HETATM    4  H1  UNL     1      -5.555  17.571  67.111  1.00  0.00     0.000 HD 
HETATM    5  N   UNL     1      -8.410  17.515  65.841  1.00  0.00    -0.549 NA 
HETATM    6  N   UNL     1      -7.187  15.869  67.048  1.00  0.00    -0.216 NA 
HETATM    7  H1  UNL     1      -9.154  16.820  65.767  1.00  0.00     0.000 HD 
HETATM    8  H2  UNL     1      -8.465  18.459  65.461  1.00  0.00     0.000 HD 
HETATM    9  H   UNL     1      -6.327  15.612  67.531  1.00  0.00     0.000 HD 
ENDROOT
BRANCH   6  10
HETATM   10  C   UNL     1      -8.316  14.939  66.929  1.00  0.00    -0.177 C  
BRANCH  10  11
HETATM   11  C   UNL     1      -8.517  14.152  68.239  1.00  0.00    -0.169 C  
BRANCH  11  12
HETATM   12  N   UNL     1      -9.948  13.976  68.591  1.00  0.00    -0.224 NA 
HETATM   13  C   UNL     1     -10.689  15.243  68.549  1.00  0.00    -0.247 C  
HETATM   14  C   UNL     1     -12.007  15.257  69.335  1.00  0.00    -0.342 C  
HETATM   15  C   UNL     1     -11.943  14.525  70.679  1.00  0.00    -0.387 C  
HETATM   16  C   UNL     1     -12.554  13.121  70.658  1.00  0.00    -0.286 C  
HETATM   17  C   UNL     1     -11.828  12.064  69.820  1.00  0.00    -0.401 C  
HETATM   18  C   UNL     1     -11.852  12.324  68.309  1.00  0.00    -0.367 C  
HETATM   19  C   UNL     1     -10.555  12.932  67.754  1.00  0.00    -0.222 C  
ENDBRANCH  11  12
ENDBRANCH  10  11
ENDBRANCH   6  10
TORSDOF 3
ENDMDL
MODEL      145
REMARK 921   NORMALIZED FREE ENERGY PREDICTED BY IDOCK:   -3.45 KCAL/MOL
REMARK 922        TOTAL FREE ENERGY PREDICTED BY IDOCK:   -4.24 KCAL/MOL
REMARK 923 INTER-LIGAND FREE ENERGY PREDICTED BY IDOCK:   -4.04 KCAL/MOL
REMARK 924 INTRA-LIGAND FREE ENERGY PREDICTED BY IDOCK:   -0.20 KCAL/MOL
REMARK 927      BINDING AFFINITY PREDICTED BY RF-SCORE:    0.00 PKD
ROOT
HETATM    1  N   UNL     1     -11.864  11.931  66.915  1.00  0.00    -0.610 NA 
HETATM    2  C   UNL     1     -11.147  11.205  67.798  1.00  0.00    -0.285 C  
HETATM    3  H2  UNL     1     -11.611  12.060  65.937  1.00  0.00     0.000 HD 
HETATM    4  H1  UNL     1     -12.693  12.333  67.352  1.00  0.00     0.000 HD 
HETATM    5  N   UNL     1     -10.050  10.672  67.218  1.00  0.00    -0.191 NA 
HETATM    6  N   UNL     1     -11.569  11.080  69.004  1.00  0.00    -0.296 NA 
HETATM    7  H1  UNL     1      -9.507  10.123  67.885  1.00  0.00     0.000 HD 
HETATM    8  H2  UNL     1      -9.796  10.802  66.240  1.00  0.00     0.000 HD 
HETATM    9  H   UNL     1     -12.422  11.535  69.327  1.00  0.00     0.000 HD 
ENDROOT
BRANCH   6  10
HETATM   10  C   UNL     1     -10.752  10.245  69.892  1.00  0.00    -0.294 C  
BRANCH  10  11
HETATM   11  C   UNL     1     -11.633   9.242  70.663  1.00  0.00    -0.252 C  
BRANCH  11  12
HETATM   12  N   UNL     1     -10.864   8.088  71.191  1.00  0.00    -0.234 NA 
HETATM   13  C   UNL     1      -9.525   7.994  70.595  1.00  0.00    -0.162 C  
HETATM   14  C   UNL     1      -8.855   6.617  70.701  1.00  0.00    -0.148 C  
HETATM   15  C   UNL     1      -9.808   5.438  70.479  1.00  0.00    -0.267 C  
HETATM   16  C   UNL     1     -10.270   4.755  71.769  1.00  0.00    -0.258 C  
HETATM   17  C   UNL     1     -11.176   5.570  72.697  1.00  0.00    -0.348 C  
HETATM   18  C   UNL     1     -10.498   6.787  73.338  1.00  0.00    -0.335 C  
HETATM   19  C   UNL     1     -10.832   8.124  72.660  1.00  0.00    -0.359 C  
ENDBRANCH  11  12
ENDBRANCH  10  11
ENDBRANCH   6  10
TORSDOF 3
ENDMDL
MODEL      146
REMARK 921   NORMALIZED FREE ENERGY PREDICTED BY IDOCK:   -3.36 KCAL/MOL
REMARK 922        TOTAL FREE ENERGY PREDICTED BY IDOCK:   -4.14 KCAL/MOL
REMARK 923 INTER-LIGAND FREE ENERGY PREDICTED BY IDOCK:   -3.77 KCAL/MOL
REMARK 924 INTRA-LIGAND FREE ENERGY PREDICTED BY IDOCK:   -0.37 KCAL/MOL
REMARK 927      BINDING AFFINITY PREDICTED BY RF-SCORE:    0.00 PKD
ROOT
HETATM    1  N   UNL     1     -10.354   8.351  66.547  1.00  0.00    -0.399 NA 
HETATM    2  C   UNL     1     -10.241   8.831  67.802  1.00  0.00    -0.228 C  
HETATM    3  H2  UNL     1      -9.689   7.711  66.114  1.00  0.00     0.000 HD 
HETATM    4  H1  UNL     1     -11.191   8.709  66.086  1.00  0.00     0.000 HD 
HETATM    5  N   UNL     1      -9.134   8.357  68.412  1.00  0.00    -0.136 NA 
HETATM    6  N   UNL     1     -11.150   9.612  68.265  1.00  0.00    -0.496 NA 
HETATM    7  H1  UNL     1      -9.049   8.720  69.362  1.00  0.00     0.000 HD 
HETATM    8  H2  UNL     1      -8.469   7.716  67.980  1.00  0.00     0.000 HD 
HETATM    9  H   UNL     1     -11.949   9.903  67.702  1.00  0.00     0.000 HD 
ENDROOT
BRANCH   6  10
HETATM   10  C   UNL     1     -10.974  10.062  69.650  1.00  0.00    -0.264 C  
BRANCH  10  11
HETATM   11  C   UNL     1     -11.880   9.259  70.605  1.00  0.00    -0.192 C  
BRANCH  11  12
HETATM   12  N   UNL     1     -11.174   8.123  71.248  1.00  0.00    -0.254 NA 
HETATM   13  C   UNL     1     -11.067   8.287  72.703  1.00  0.00    -0.330 C  
HETATM   14  C   UNL     1      -9.975   7.447  73.379  1.00  0.00    -0.365 C  
HETATM   15  C   UNL     1      -8.669   7.361  72.585  1.00  0.00    -0.155 C  
HETATM   16  C   UNL     1      -8.491   6.052  71.810  1.00  0.00    -0.127 C  
HETATM   17  C   UNL     1      -9.451   5.806  70.642  1.00  0.00    -0.198 C  
HETATM   18  C   UNL     1     -10.915   5.607  71.053  1.00  0.00    -0.247 C  
HETATM   19  C   UNL     1     -11.797   6.850  70.862  1.00  0.00    -0.376 C  
ENDBRANCH  11  12
ENDBRANCH  10  11
ENDBRANCH   6  10
TORSDOF 3
ENDMDL
MODEL      147
REMARK 921   NORMALIZED FREE ENERGY PREDICTED BY IDOCK:   -3.32 KCAL/MOL
REMARK 922        TOTAL FREE ENERGY PREDICTED BY IDOCK:   -4.09 KCAL/MOL
REMARK 923 INTER-LIGAND FREE ENERGY PREDICTED BY IDOCK:   -3.72 KCAL/MOL
REMARK 924 INTRA-LIGAND FREE ENERGY PREDICTED BY IDOCK:   -0.37 KCAL/MOL
REMARK 927      BINDING AFFINITY PREDICTED BY RF-SCORE:    0.00 PKD
ROOT
HETATM    1  N   UNL     1     -12.455  10.710  71.538  1.00  0.00    -0.380 NA 
HETATM    2  C   UNL     1     -12.801   9.425  71.321  1.00  0.00    -0.309 C  
HETATM    3  H2  UNL     1     -13.083  11.503  71.411  1.00  0.00     0.000 HD 
HETATM    4  H1  UNL     1     -11.486  10.788  71.847  1.00  0.00     0.000 HD 
HETATM    5  N   UNL     1     -14.084   9.322  70.913  1.00  0.00    -0.431 NA 
HETATM    6  N   UNL     1     -11.943   8.494  71.538  1.00  0.00    -0.290 NA 
HETATM    7  H1  UNL     1     -14.345   8.350  70.748  1.00  0.00     0.000 HD 
HETATM    8  H2  UNL     1     -14.712  10.116  70.785  1.00  0.00     0.000 HD 
HETATM    9  H   UNL     1     -10.993   8.698  71.849  1.00  0.00     0.000 HD 
ENDROOT
BRANCH   6  10
HETATM   10  C   UNL     1     -12.407   7.120  71.313  1.00  0.00    -0.379 C  
BRANCH  10  11
HETATM   11  C   UNL     1     -11.405   6.342  70.437  1.00  0.00    -0.372 C  
BRANCH  11  12
HETATM   12  N   UNL     1     -10.457   7.230  69.721  1.00  0.00    -0.221 NA 
HETATM   13  C   UNL     1      -9.058   6.927  70.048  1.00  0.00    -0.145 C  
HETATM   14  C   UNL     1      -8.057   8.052  69.755  1.00  0.00    -0.115 C  
HETATM   15  C   UNL     1      -8.571   9.454  70.100  1.00  0.00    -0.233 C  
HETATM   16  C   UNL     1      -9.060  10.257  68.891  1.00  0.00    -0.168 C  
HETATM   17  C   UNL     1     -10.323   9.748  68.190  1.00  0.00    -0.241 C  
HETATM   18  C   UNL     1     -10.159   8.395  67.488  1.00  0.00    -0.279 C  
HETATM   19  C   UNL     1     -10.723   7.204  68.276  1.00  0.00    -0.153 C  
ENDBRANCH  11  12
ENDBRANCH  10  11
ENDBRANCH   6  10
TORSDOF 3
ENDMDL
MODEL      148
REMARK 921   NORMALIZED FREE ENERGY PREDICTED BY IDOCK:   -3.29 KCAL/MOL
REMARK 922        TOTAL FREE ENERGY PREDICTED BY IDOCK:   -4.06 KCAL/MOL
REMARK 923 INTER-LIGAND FREE ENERGY PREDICTED BY IDOCK:   -3.90 KCAL/MOL
REMARK 924 INTRA-LIGAND FREE ENERGY PREDICTED BY IDOCK:   -0.16 KCAL/MOL
REMARK 927      BINDING AFFINITY PREDICTED BY RF-SCORE:    0.00 PKD
ROOT
HETATM    1  N   UNL     1      -8.096   9.865  70.731  1.00  0.00    -0.379 NA 
HETATM    2  C   UNL     1      -8.336  10.179  69.442  1.00  0.00    -0.168 C  
HETATM    3  H2  UNL     1      -7.773   8.952  71.050  1.00  0.00     0.000 HD 
HETATM    4  H1  UNL     1      -8.278  10.658  71.347  1.00  0.00     0.000 HD 
HETATM    5  N   UNL     1      -8.094   9.129  68.627  1.00  0.00    -0.101 NA 
HETATM    6  N   UNL     1      -8.713  11.368  69.140  1.00  0.00    -0.374 NA 
HETATM    7  H1  UNL     1      -8.275   9.366  67.651  1.00  0.00     0.000 HD 
HETATM    8  H2  UNL     1      -7.771   8.216  68.946  1.00  0.00     0.000 HD 
HETATM    9  H   UNL     1      -8.863  12.083  69.851  1.00  0.00     0.000 HD 
ENDROOT
BRANCH   6  10
HETATM   10  C   UNL     1      -8.918  11.641  67.713  1.00  0.00    -0.170 C  
BRANCH  10  11
HETATM   11  C   UNL     1      -8.624  13.119  67.391  1.00  0.00    -0.204 C  
BRANCH  11  12
HETATM   12  N   UNL     1      -9.824  13.853  66.916  1.00  0.00    -0.260 NA 
HETATM   13  C   UNL     1     -11.073  13.187  67.308  1.00  0.00    -0.279 C  
HETATM   14  C   UNL     1     -12.309  13.579  66.488  1.00  0.00    -0.382 C  
HETATM   15  C   UNL     1     -12.041  13.744  64.989  1.00  0.00    -0.424 C  
HETATM   16  C   UNL     1     -11.899  15.199  64.533  1.00  0.00    -0.335 C  
HETATM   17  C   UNL     1     -10.674  15.965  65.040  1.00  0.00    -0.426 C  
HETATM   18  C   UNL     1     -10.664  16.219  66.553  1.00  0.00    -0.187 C  
HETATM   19  C   UNL     1      -9.767  15.257  67.347  1.00  0.00    -0.208 C  
ENDBRANCH  11  12
ENDBRANCH  10  11
ENDBRANCH   6  10
TORSDOF 3
ENDMDL
MODEL      149
REMARK 921   NORMALIZED FREE ENERGY PREDICTED BY IDOCK:   -3.29 KCAL/MOL
REMARK 922        TOTAL FREE ENERGY PREDICTED BY IDOCK:   -4.05 KCAL/MOL
REMARK 923 INTER-LIGAND FREE ENERGY PREDICTED BY IDOCK:   -3.88 KCAL/MOL
REMARK 924 INTRA-LIGAND FREE ENERGY PREDICTED BY IDOCK:   -0.17 KCAL/MOL
REMARK 927      BINDING AFFINITY PREDICTED BY RF-SCORE:    0.00 PKD
ROOT
HETATM    1  N   UNL     1     -12.141  12.123  66.292  1.00  0.00    -0.589 NA 
HETATM    2  C   UNL     1     -11.452  11.847  67.418  1.00  0.00    -0.323 C  
HETATM    3  H2  UNL     1     -11.889  12.855  65.629  1.00  0.00     0.000 HD 
HETATM    4  H1  UNL     1     -12.947  11.507  66.189  1.00  0.00     0.000 HD 
HETATM    5  N   UNL     1     -10.385  12.663  67.555  1.00  0.00    -0.216 NA 
HETATM    6  N   UNL     1     -11.838  10.884  68.175  1.00  0.00    -0.753 NA 
HETATM    7  H1  UNL     1      -9.864  12.454  68.406  1.00  0.00     0.000 HD 
HETATM    8  H2  UNL     1     -10.133  13.395  66.891  1.00  0.00     0.000 HD 
HETATM    9  H   UNL     1     -12.669  10.332  67.965  1.00  0.00     0.000 HD 
ENDROOT
BRANCH   6  10
HETATM   10  C   UNL     1     -11.014  10.622  69.361  1.00  0.00    -0.255 C  
BRANCH  10  11
HETATM   11  C   UNL     1     -11.623   9.489  70.210  1.00  0.00    -0.169 C  
BRANCH  11  12
HETATM   12  N   UNL     1     -10.726   8.312  70.325  1.00  0.00    -0.232 NA 
HETATM   13  C   UNL     1     -11.472   7.047  70.350  1.00  0.00    -0.310 C  
HETATM   14  C   UNL     1     -10.710   5.849  70.933  1.00  0.00    -0.338 C  
HETATM   15  C   UNL     1      -9.857   6.185  72.159  1.00  0.00    -0.174 C  
HETATM   16  C   UNL     1      -8.364   6.346  71.859  1.00  0.00    -0.116 C  
HETATM   17  C   UNL     1      -7.958   7.547  70.999  1.00  0.00    -0.095 C  
HETATM   18  C   UNL     1      -8.456   7.488  69.550  1.00  0.00    -0.132 C  
HETATM   19  C   UNL     1      -9.699   8.348  69.276  1.00  0.00    -0.177 C  
ENDBRANCH  11  12
ENDBRANCH  10  11
ENDBRANCH   6  10
TORSDOF 3
ENDMDL
MODEL      150
REMARK 921   NORMALIZED FREE ENERGY PREDICTED BY IDOCK:   -3.28 KCAL/MOL
REMARK 922        TOTAL FREE ENERGY PREDICTED BY IDOCK:   -4.04 KCAL/MOL
REMARK 923 INTER-LIGAND FREE ENERGY PREDICTED BY IDOCK:   -3.79 KCAL/MOL
REMARK 924 INTRA-LIGAND FREE ENERGY PREDICTED BY IDOCK:   -0.25 KCAL/MOL
REMARK 927      BINDING AFFINITY PREDICTED BY RF-SCORE:    0.00 PKD
ROOT
HETATM    1  N   UNL     1      -6.945  14.151  70.215  1.00  0.00    -0.385 NA 
HETATM    2  C   UNL     1      -7.356  15.029  69.278  1.00  0.00    -0.184 C  
HETATM    3  H2  UNL     1      -6.381  14.399  71.028  1.00  0.00     0.000 HD 
HETATM    4  H1  UNL     1      -7.270  13.207  70.008  1.00  0.00     0.000 HD 
HETATM    5  N   UNL     1      -6.925  16.279  69.552  1.00  0.00    -0.212 NA 
HETATM    6  N   UNL     1      -8.089  14.620  68.306  1.00  0.00    -0.135 NA 
HETATM    7  H1  UNL     1      -7.237  16.944  68.843  1.00  0.00     0.000 HD 
HETATM    8  H2  UNL     1      -6.362  16.528  70.365  1.00  0.00     0.000 HD 
HETATM    9  H   UNL     1      -8.352  13.640  68.204  1.00  0.00     0.000 HD 
ENDROOT
BRANCH   6  10
HETATM   10  C   UNL     1      -8.526  15.642  67.348  1.00  0.00    -0.172 C  
BRANCH  10  11
HETATM   11  C   UNL     1      -9.937  16.152  67.699  1.00  0.00    -0.241 C  
BRANCH  11  12
HETATM   12  N   UNL     1     -10.928  15.055  67.831  1.00  0.00    -0.281 NA 
HETATM   13  C   UNL     1     -11.760  15.200  69.033  1.00  0.00    -0.335 C  
HETATM   14  C   UNL     1     -12.457  13.917  69.506  1.00  0.00    -0.141 C  
HETATM   15  C   UNL     1     -11.592  12.657  69.397  1.00  0.00    -0.369 C  
HETATM   16  C   UNL     1     -11.909  11.782  68.181  1.00  0.00    -0.324 C  
HETATM   17  C   UNL     1     -11.582  12.368  66.804  1.00  0.00    -0.444 C  
HETATM   18  C   UNL     1     -12.430  13.583  66.413  1.00  0.00    -0.349 C  
HETATM   19  C   UNL     1     -11.722  14.933  66.600  1.00  0.00    -0.217 C  
ENDBRANCH  11  12
ENDBRANCH  10  11
ENDBRANCH   6  10
TORSDOF 3
ENDMDL
MODEL      151
REMARK 921   NORMALIZED FREE ENERGY PREDICTED BY IDOCK:   -3.27 KCAL/MOL
REMARK 922        TOTAL FREE ENERGY PREDICTED BY IDOCK:   -4.04 KCAL/MOL
REMARK 923 INTER-LIGAND FREE ENERGY PREDICTED BY IDOCK:   -3.73 KCAL/MOL
REMARK 924 INTRA-LIGAND FREE ENERGY PREDICTED BY IDOCK:   -0.30 KCAL/MOL
REMARK 927      BINDING AFFINITY PREDICTED BY RF-SCORE:    0.00 PKD
ROOT
HETATM    1  N   UNL     1     -12.922  14.755  71.108  1.00  0.00    -0.337 NA 
HETATM    2  C   UNL     1     -12.402  14.689  69.865  1.00  0.00    -0.294 C  
HETATM    3  H2  UNL     1     -13.086  13.946  71.707  1.00  0.00     0.000 HD 
HETATM    4  H1  UNL     1     -13.130  15.717  71.373  1.00  0.00     0.000 HD 
HETATM    5  N   UNL     1     -12.126  13.414  69.515  1.00  0.00    -0.304 NA 
HETATM    6  N   UNL     1     -12.208  15.772  69.203  1.00  0.00    -0.552 NA 
HETATM    7  H1  UNL     1     -11.732  13.364  68.575  1.00  0.00     0.000 HD 
HETATM    8  H2  UNL     1     -12.290  12.605  70.113  1.00  0.00     0.000 HD 
HETATM    9  H   UNL     1     -12.459  16.686  69.578  1.00  0.00     0.000 HD 
ENDROOT
BRANCH   6  10
HETATM   10  C   UNL     1     -11.605  15.619  67.874  1.00  0.00    -0.190 C  
BRANCH  10  11
HETATM   11  C   UNL     1     -10.094  15.335  67.989  1.00  0.00    -0.229 C  
BRANCH  11  12
HETATM   12  N   UNL     1      -9.728  13.974  67.521  1.00  0.00    -0.227 NA 
HETATM   13  C   UNL     1      -9.793  13.854  66.059  1.00  0.00    -0.289 C  
HETATM   14  C   UNL     1      -9.904  12.420  65.524  1.00  0.00    -0.215 C  
HETATM   15  C   UNL     1     -10.827  11.514  66.345  1.00  0.00    -0.334 C  
HETATM   16  C   UNL     1     -10.091  10.566  67.297  1.00  0.00    -0.242 C  
HETATM   17  C   UNL     1      -9.345  11.208  68.471  1.00  0.00    -0.190 C  
HETATM   18  C   UNL     1      -8.143  12.070  68.065  1.00  0.00    -0.153 C  
HETATM   19  C   UNL     1      -8.423  13.581  68.068  1.00  0.00    -0.176 C  
ENDBRANCH  11  12
ENDBRANCH  10  11
ENDBRANCH   6  10
TORSDOF 3
ENDMDL
MODEL      152
REMARK 921   NORMALIZED FREE ENERGY PREDICTED BY IDOCK:   -3.25 KCAL/MOL
REMARK 922        TOTAL FREE ENERGY PREDICTED BY IDOCK:   -4.00 KCAL/MOL
REMARK 923 INTER-LIGAND FREE ENERGY PREDICTED BY IDOCK:   -4.33 KCAL/MOL
REMARK 924 INTRA-LIGAND FREE ENERGY PREDICTED BY IDOCK:    0.33 KCAL/MOL
REMARK 927      BINDING AFFINITY PREDICTED BY RF-SCORE:    0.00 PKD
ROOT
HETATM    1  N   UNL     1     -12.491  10.675  68.854  1.00  0.00    -0.730 NA 
HETATM    2  C   UNL     1     -11.205  10.900  69.195  1.00  0.00    -0.256 C  
HETATM    3  H2  UNL     1     -13.194  10.291  69.485  1.00  0.00     0.000 HD 
HETATM    4  H1  UNL     1     -12.670  10.939  67.885  1.00  0.00     0.000 HD 
HETATM    5  N   UNL     1     -10.969  10.551  70.478  1.00  0.00    -0.433 NA 
HETATM    6  N   UNL     1     -10.403  11.415  68.334  1.00  0.00    -0.188 NA 
HETATM    7  H1  UNL     1      -9.997  10.721  70.737  1.00  0.00     0.000 HD 
HETATM    8  H2  UNL     1     -11.672  10.167  71.109  1.00  0.00     0.000 HD 
HETATM    9  H   UNL     1     -10.702  11.639  67.386  1.00  0.00     0.000 HD 
ENDROOT
BRANCH   6  10
HETATM   10  C   UNL     1      -9.032  11.662  68.794  1.00  0.00    -0.009 C  
BRANCH  10  11
HETATM   11  C   UNL     1      -8.380  12.799  67.982  1.00  0.00    -0.173 C  
BRANCH  11  12
HETATM   12  N   UNL     1      -9.377  13.720  67.380  1.00  0.00    -0.217 NA 
HETATM   13  C   UNL     1     -10.320  14.244  68.376  1.00  0.00    -0.247 C  
HETATM   14  C   UNL     1     -11.634  14.797  67.807  1.00  0.00    -0.378 C  
HETATM   15  C   UNL     1     -12.215  13.970  66.656  1.00  0.00    -0.463 C  
HETATM   16  C   UNL     1     -11.952  14.558  65.267  1.00  0.00    -0.353 C  
HETATM   17  C   UNL     1     -10.497  14.571  64.787  1.00  0.00    -0.365 C  
HETATM   18  C   UNL     1      -9.574  15.501  65.585  1.00  0.00    -0.328 C  
HETATM   19  C   UNL     1      -8.699  14.781  66.622  1.00  0.00    -0.194 C  
ENDBRANCH  11  12
ENDBRANCH  10  11
ENDBRANCH   6  10
TORSDOF 3
ENDMDL
MODEL      153
REMARK 921   NORMALIZED FREE ENERGY PREDICTED BY IDOCK:   -3.25 KCAL/MOL
REMARK 922        TOTAL FREE ENERGY PREDICTED BY IDOCK:   -4.00 KCAL/MOL
REMARK 923 INTER-LIGAND FREE ENERGY PREDICTED BY IDOCK:   -3.80 KCAL/MOL
REMARK 924 INTRA-LIGAND FREE ENERGY PREDICTED BY IDOCK:   -0.20 KCAL/MOL
REMARK 927      BINDING AFFINITY PREDICTED BY RF-SCORE:    0.00 PKD
ROOT
HETATM    1  N   UNL     1     -11.376  14.198  66.266  1.00  0.00    -0.329 NA 
HETATM    2  C   UNL     1     -11.577  12.901  66.580  1.00  0.00    -0.372 C  
HETATM    3  H2  UNL     1     -11.649  14.624  65.381  1.00  0.00     0.000 HD 
HETATM    4  H1  UNL     1     -10.917  14.698  67.028  1.00  0.00     0.000 HD 
HETATM    5  N   UNL     1     -12.185  12.240  65.572  1.00  0.00    -0.578 NA 
HETATM    6  N   UNL     1     -11.221  12.468  67.736  1.00  0.00    -0.252 NA 
HETATM    7  H1  UNL     1     -12.337  11.259  65.809  1.00  0.00     0.000 HD 
HETATM    8  H2  UNL     1     -12.458  12.666  64.687  1.00  0.00     0.000 HD 
HETATM    9  H   UNL     1     -10.765  13.070  68.421  1.00  0.00     0.000 HD 
ENDROOT
BRANCH   6  10
HETATM   10  C   UNL     1     -11.507  11.056  68.014  1.00  0.00    -0.290 C  
BRANCH  10  11
HETATM   11  C   UNL     1     -10.206  10.229  68.036  1.00  0.00    -0.169 C  
BRANCH  11  12
HETATM   12  N   UNL     1     -10.207   9.184  69.089  1.00  0.00    -0.201 NA 
HETATM   13  C   UNL     1     -11.123   9.507  70.191  1.00  0.00    -0.255 C  
HETATM   14  C   UNL     1     -10.851   8.767  71.508  1.00  0.00    -0.374 C  
HETATM   15  C   UNL     1      -9.365   8.621  71.849  1.00  0.00    -0.357 C  
HETATM   16  C   UNL     1      -8.783   7.240  71.537  1.00  0.00    -0.120 C  
HETATM   17  C   UNL     1      -8.687   6.849  70.059  1.00  0.00    -0.142 C  
HETATM   18  C   UNL     1     -10.040   6.667  69.360  1.00  0.00    -0.192 C  
HETATM   19  C   UNL     1     -10.470   7.864  68.499  1.00  0.00    -0.167 C  
ENDBRANCH  11  12
ENDBRANCH  10  11
ENDBRANCH   6  10
TORSDOF 3
ENDMDL
MODEL      154
REMARK 921   NORMALIZED FREE ENERGY PREDICTED BY IDOCK:   -3.21 KCAL/MOL
REMARK 922        TOTAL FREE ENERGY PREDICTED BY IDOCK:   -3.96 KCAL/MOL
REMARK 923 INTER-LIGAND FREE ENERGY PREDICTED BY IDOCK:   -3.80 KCAL/MOL
REMARK 924 INTRA-LIGAND FREE ENERGY PREDICTED BY IDOCK:   -0.16 KCAL/MOL
REMARK 927      BINDING AFFINITY PREDICTED BY RF-SCORE:    0.00 PKD
ROOT
HETATM    1  N   UNL     1      -9.621   7.901  68.412  1.00  0.00    -0.148 NA 
HETATM    2  C   UNL     1     -10.416   8.989  68.351  1.00  0.00    -0.192 C  
HETATM    3  H2  UNL     1      -9.726   7.150  69.094  1.00  0.00     0.000 HD 
HETATM    4  H1  UNL     1      -8.901   7.925  67.690  1.00  0.00     0.000 HD 
HETATM    5  N   UNL     1     -11.369   8.957  69.307  1.00  0.00    -0.363 NA 
HETATM    6  N   UNL     1     -10.217   9.866  67.434  1.00  0.00    -0.208 NA 
HETATM    7  H1  UNL     1     -11.970   9.779  69.260  1.00  0.00     0.000 HD 
HETATM    8  H2  UNL     1     -11.474   8.206  69.989  1.00  0.00     0.000 HD 
HETATM    9  H   UNL     1      -9.456   9.780  66.761  1.00  0.00     0.000 HD 
ENDROOT
BRANCH   6  10
HETATM   10  C   UNL     1     -11.146  11.001  67.411  1.00  0.00    -0.305 C  
BRANCH  10  11
HETATM   11  C   UNL     1     -10.546  12.214  68.149  1.00  0.00    -0.216 C  
BRANCH  11  12
HETATM   12  N   UNL     1     -10.128  13.299  67.227  1.00  0.00    -0.232 NA 
HETATM   13  C   UNL     1      -8.736  13.709  67.447  1.00  0.00    -0.213 C  
HETATM   14  C   UNL     1      -8.367  15.096  66.903  1.00  0.00    -0.267 C  
HETATM   15  C   UNL     1      -9.452  16.158  67.108  1.00  0.00    -0.231 C  
HETATM   16  C   UNL     1     -10.290  16.446  65.859  1.00  0.00    -0.378 C  
HETATM   17  C   UNL     1     -11.203  15.319  65.365  1.00  0.00    -0.307 C  
HETATM   18  C   UNL     1     -10.462  14.085  64.838  1.00  0.00    -0.453 C  
HETATM   19  C   UNL     1     -10.397  12.917  65.834  1.00  0.00    -0.285 C  
ENDBRANCH  11  12
ENDBRANCH  10  11
ENDBRANCH   6  10
TORSDOF 3
ENDMDL
MODEL      155
REMARK 921   NORMALIZED FREE ENERGY PREDICTED BY IDOCK:   -3.21 KCAL/MOL
REMARK 922        TOTAL FREE ENERGY PREDICTED BY IDOCK:   -3.96 KCAL/MOL
REMARK 923 INTER-LIGAND FREE ENERGY PREDICTED BY IDOCK:   -3.68 KCAL/MOL
REMARK 924 INTRA-LIGAND FREE ENERGY PREDICTED BY IDOCK:   -0.27 KCAL/MOL
REMARK 927      BINDING AFFINITY PREDICTED BY RF-SCORE:    0.00 PKD
ROOT
HETATM    1  N   UNL     1      -6.543  13.660  70.524  1.00  0.00    -0.369 NA 
HETATM    2  C   UNL     1      -6.756  14.558  69.540  1.00  0.00    -0.151 C  
HETATM    3  H2  UNL     1      -5.861  13.778  71.272  1.00  0.00     0.000 HD 
HETATM    4  H1  UNL     1      -7.151  12.847  70.423  1.00  0.00     0.000 HD 
HETATM    5  N   UNL     1      -5.951  15.634  69.674  1.00  0.00    -0.129 NA 
HETATM    6  N   UNL     1      -7.660  14.327  68.658  1.00  0.00    -0.122 NA 
HETATM    7  H1  UNL     1      -6.112  16.314  68.930  1.00  0.00     0.000 HD 
HETATM    8  H2  UNL     1      -5.269  15.752  70.422  1.00  0.00     0.000 HD 
HETATM    9  H   UNL     1      -8.210  13.469  68.662  1.00  0.00     0.000 HD 
ENDROOT
BRANCH   6  10
HETATM   10  C   UNL     1      -7.857  15.369  67.644  1.00  0.00    -0.157 C  
BRANCH  10  11
HETATM   11  C   UNL     1      -9.251  16.011  67.782  1.00  0.00    -0.205 C  
BRANCH  11  12
HETATM   12  N   UNL     1      -9.231  17.480  67.578  1.00  0.00    -0.240 NA 
HETATM   13  C   UNL     1     -10.505  18.110  67.947  1.00  0.00    -0.392 C  
HETATM   14  C   UNL     1     -10.750  19.499  67.342  1.00  0.00    -0.589 C  
HETATM   15  C   UNL     1     -10.295  19.637  65.886  1.00  0.00    -0.584 C  
HETATM   16  C   UNL     1      -8.952  20.353  65.715  1.00  0.00     0.193 C  
HETATM   17  C   UNL     1      -7.710  19.628  66.244  1.00  0.00    -0.326 C  
HETATM   18  C   UNL     1      -7.668  19.469  67.768  1.00  0.00    -0.321 C  
HETATM   19  C   UNL     1      -8.079  18.076  68.268  1.00  0.00    -0.291 C  
ENDBRANCH  11  12
ENDBRANCH  10  11
ENDBRANCH   6  10
TORSDOF 3
ENDMDL
MODEL      156
REMARK 921   NORMALIZED FREE ENERGY PREDICTED BY IDOCK:   -3.19 KCAL/MOL
REMARK 922        TOTAL FREE ENERGY PREDICTED BY IDOCK:   -3.94 KCAL/MOL
REMARK 923 INTER-LIGAND FREE ENERGY PREDICTED BY IDOCK:   -3.78 KCAL/MOL
REMARK 924 INTRA-LIGAND FREE ENERGY PREDICTED BY IDOCK:   -0.16 KCAL/MOL
REMARK 927      BINDING AFFINITY PREDICTED BY RF-SCORE:    0.00 PKD
ROOT
HETATM    1  N   UNL     1      -8.888   7.786  74.238  1.00  0.00    -0.427 NA 
HETATM    2  C   UNL     1      -9.469   8.198  73.092  1.00  0.00    -0.246 C  
HETATM    3  H2  UNL     1      -9.378   7.300  74.988  1.00  0.00     0.000 HD 
HETATM    4  H1  UNL     1      -7.896   8.021  74.257  1.00  0.00     0.000 HD 
HETATM    5  N   UNL     1     -10.783   7.886  73.067  1.00  0.00    -0.376 NA 
HETATM    6  N   UNL     1      -8.756   8.777  72.195  1.00  0.00    -0.391 NA 
HETATM    7  H1  UNL     1     -11.222   8.197  72.201  1.00  0.00     0.000 HD 
HETATM    8  H2  UNL     1     -11.273   7.400  73.818  1.00  0.00     0.000 HD 
HETATM    9  H   UNL     1      -7.762   8.960  72.330  1.00  0.00     0.000 HD 
ENDROOT
BRANCH   6  10
HETATM   10  C   UNL     1      -9.454   9.162  70.963  1.00  0.00    -0.274 C  
BRANCH  10  11
HETATM   11  C   UNL     1      -8.467   9.755  69.938  1.00  0.00    -0.201 C  
BRANCH  11  12
HETATM   12  N   UNL     1      -9.132  10.621  68.933  1.00  0.00    -0.173 NA 
HETATM   13  C   UNL     1      -8.211  11.606  68.352  1.00  0.00    -0.155 C  
HETATM   14  C   UNL     1      -8.880  12.819  67.690  1.00  0.00    -0.189 C  
HETATM   15  C   UNL     1     -10.095  13.357  68.451  1.00  0.00    -0.244 C  
HETATM   16  C   UNL     1     -11.443  12.927  67.865  1.00  0.00    -0.362 C  
HETATM   17  C   UNL     1     -11.793  11.439  67.957  1.00  0.00    -0.273 C  
HETATM   18  C   UNL     1     -10.898  10.522  67.115  1.00  0.00    -0.319 C  
HETATM   19  C   UNL     1      -9.804   9.801  67.917  1.00  0.00    -0.149 C  
ENDBRANCH  11  12
ENDBRANCH  10  11
ENDBRANCH   6  10
TORSDOF 3
ENDMDL
MODEL      157
REMARK 921   NORMALIZED FREE ENERGY PREDICTED BY IDOCK:   -3.18 KCAL/MOL
REMARK 922        TOTAL FREE ENERGY PREDICTED BY IDOCK:   -3.93 KCAL/MOL
REMARK 923 INTER-LIGAND FREE ENERGY PREDICTED BY IDOCK:   -4.45 KCAL/MOL
REMARK 924 INTRA-LIGAND FREE ENERGY PREDICTED BY IDOCK:    0.52 KCAL/MOL
REMARK 927      BINDING AFFINITY PREDICTED BY RF-SCORE:    0.00 PKD
ROOT
HETATM    1  N   UNL     1     -13.196  12.820  65.070  1.00  0.00    -0.671 NA 
HETATM    2  C   UNL     1     -12.199  12.815  64.162  1.00  0.00    -0.429 C  
HETATM    3  H2  UNL     1     -14.048  13.375  64.985  1.00  0.00     0.000 HD 
HETATM    4  H1  UNL     1     -12.990  12.199  65.852  1.00  0.00     0.000 HD 
HETATM    5  N   UNL     1     -12.472  13.638  63.126  1.00  0.00    -1.045 NA 
HETATM    6  N   UNL     1     -11.178  12.058  64.348  1.00  0.00    -0.328 NA 
HETATM    7  H1  UNL     1     -11.718  13.633  62.439  1.00  0.00     0.000 HD 
HETATM    8  H2  UNL     1     -13.323  14.192  63.041  1.00  0.00     0.000 HD 
HETATM    9  H   UNL     1     -11.084  11.474  65.179  1.00  0.00     0.000 HD 
ENDROOT
BRANCH   6  10
HETATM   10  C   UNL     1     -10.154  12.081  63.297  1.00  0.00    -0.345 C  
BRANCH  10  11
HETATM   11  C   UNL     1      -9.400  10.738  63.240  1.00  0.00    -0.304 C  
BRANCH  11  12
HETATM   12  N   UNL     1      -9.303  10.076  64.564  1.00  0.00    -0.268 NA 
HETATM   13  C   UNL     1      -8.381   8.933  64.547  1.00  0.00    -0.170 C  
HETATM   14  C   UNL     1      -8.570   7.921  65.686  1.00  0.00    -0.159 C  
HETATM   15  C   UNL     1     -10.034   7.638  66.036  1.00  0.00     0.315 C  
HETATM   16  C   UNL     1     -10.535   8.374  67.282  1.00  0.00    -0.373 C  
HETATM   17  C   UNL     1     -10.645   9.899  67.186  1.00  0.00    -0.295 C  
HETATM   18  C   UNL     1      -9.302  10.625  67.041  1.00  0.00    -0.175 C  
HETATM   19  C   UNL     1      -8.973  11.059  65.605  1.00  0.00    -0.199 C  
ENDBRANCH  11  12
ENDBRANCH  10  11
ENDBRANCH   6  10
TORSDOF 3
ENDMDL
MODEL      158
REMARK 921   NORMALIZED FREE ENERGY PREDICTED BY IDOCK:   -3.18 KCAL/MOL
REMARK 922        TOTAL FREE ENERGY PREDICTED BY IDOCK:   -3.92 KCAL/MOL
REMARK 923 INTER-LIGAND FREE ENERGY PREDICTED BY IDOCK:   -3.91 KCAL/MOL
REMARK 924 INTRA-LIGAND FREE ENERGY PREDICTED BY IDOCK:   -0.01 KCAL/MOL
REMARK 927      BINDING AFFINITY PREDICTED BY RF-SCORE:    0.00 PKD
ROOT
HETATM    1  N   UNL     1     -12.969  15.343  70.083  1.00  0.00    -0.659 NA 
HETATM    2  C   UNL     1     -12.088  14.404  69.681  1.00  0.00    -0.334 C  
HETATM    3  H2  UNL     1     -12.805  15.994  70.851  1.00  0.00     0.000 HD 
HETATM    4  H1  UNL     1     -13.820  15.319  69.521  1.00  0.00     0.000 HD 
HETATM    5  N   UNL     1     -10.962  14.437  70.425  1.00  0.00    -0.467 NA 
HETATM    6  N   UNL     1     -12.379  13.651  68.683  1.00  0.00    -0.324 NA 
HETATM    7  H1  UNL     1     -10.295  13.727  70.121  1.00  0.00     0.000 HD 
HETATM    8  H2  UNL     1     -10.798  15.087  71.192  1.00  0.00     0.000 HD 
HETATM    9  H   UNL     1     -13.272  13.722  68.195  1.00  0.00     0.000 HD 
ENDROOT
BRANCH   6  10
HETATM   10  C   UNL     1     -11.354  12.680  68.284  1.00  0.00    -0.295 C  
BRANCH  10  11
HETATM   11  C   UNL     1     -11.379  11.447  69.208  1.00  0.00    -0.289 C  
BRANCH  11  12
HETATM   12  N   UNL     1     -10.470  10.366  68.751  1.00  0.00    -0.187 NA 
HETATM   13  C   UNL     1      -9.061  10.671  69.030  1.00  0.00    -0.166 C  
HETATM   14  C   UNL     1      -8.042   9.881  68.197  1.00  0.00    -0.104 C  
HETATM   15  C   UNL     1      -8.443   9.694  66.731  1.00  0.00    -0.129 C  
HETATM   16  C   UNL     1      -9.020   8.312  66.411  1.00  0.00    -0.202 C  
HETATM   17  C   UNL     1     -10.377   7.970  67.033  1.00  0.00    -0.414 C  
HETATM   18  C   UNL     1     -10.361   7.839  68.561  1.00  0.00    -0.226 C  
HETATM   19  C   UNL     1     -10.895   9.073  69.304  1.00  0.00    -0.113 C  
ENDBRANCH  11  12
ENDBRANCH  10  11
ENDBRANCH   6  10
TORSDOF 3
ENDMDL
MODEL      159
REMARK 921   NORMALIZED FREE ENERGY PREDICTED BY IDOCK:   -3.17 KCAL/MOL
REMARK 922        TOTAL FREE ENERGY PREDICTED BY IDOCK:   -3.91 KCAL/MOL
REMARK 923 INTER-LIGAND FREE ENERGY PREDICTED BY IDOCK:   -3.78 KCAL/MOL
REMARK 924 INTRA-LIGAND FREE ENERGY PREDICTED BY IDOCK:   -0.14 KCAL/MOL
REMARK 927      BINDING AFFINITY PREDICTED BY RF-SCORE:    0.00 PKD
ROOT
HETATM    1  N   UNL     1     -10.772   7.321  66.590  1.00  0.00    -0.494 NA 
HETATM    2  C   UNL     1     -10.471   8.570  67.002  1.00  0.00    -0.292 C  
HETATM    3  H2  UNL     1     -11.098   6.576  67.205  1.00  0.00     0.000 HD 
HETATM    4  H1  UNL     1     -10.632   7.218  65.585  1.00  0.00     0.000 HD 
HETATM    5  N   UNL     1     -10.657   8.707  68.333  1.00  0.00    -0.379 NA 
HETATM    6  N   UNL     1     -10.095   9.447  66.142  1.00  0.00    -0.284 NA 
HETATM    7  H1  UNL     1     -10.430   9.652  68.645  1.00  0.00     0.000 HD 
HETATM    8  H2  UNL     1     -10.983   7.962  68.948  1.00  0.00     0.000 HD 
HETATM    9  H   UNL     1      -9.992   9.222  65.153  1.00  0.00     0.000 HD 
ENDROOT
BRANCH   6  10
HETATM   10  C   UNL     1      -9.823  10.791  66.663  1.00  0.00    -0.200 C  
BRANCH  10  11
HETATM   11  C   UNL     1     -11.120  11.619  66.745  1.00  0.00    -0.309 C  
BRANCH  11  12
HETATM   12  N   UNL     1     -10.995  12.796  67.640  1.00  0.00    -0.237 NA 
HETATM   13  C   UNL     1     -11.172  12.440  69.054  1.00  0.00    -0.266 C  
HETATM   14  C   UNL     1     -11.533  13.607  69.984  1.00  0.00    -0.160 C  
HETATM   15  C   UNL     1     -12.527  14.604  69.381  1.00  0.00    -0.104 C  
HETATM   16  C   UNL     1     -11.883  15.887  68.848  1.00  0.00    -0.314 C  
HETATM   17  C   UNL     1     -10.974  15.746  67.623  1.00  0.00    -0.302 C  
HETATM   18  C   UNL     1      -9.685  14.955  67.875  1.00  0.00    -0.206 C  
HETATM   19  C   UNL     1      -9.732  13.501  67.384  1.00  0.00    -0.229 C  
ENDBRANCH  11  12
ENDBRANCH  10  11
ENDBRANCH   6  10
TORSDOF 3
ENDMDL
MODEL      160
REMARK 921   NORMALIZED FREE ENERGY PREDICTED BY IDOCK:   -3.15 KCAL/MOL
REMARK 922        TOTAL FREE ENERGY PREDICTED BY IDOCK:   -3.89 KCAL/MOL
REMARK 923 INTER-LIGAND FREE ENERGY PREDICTED BY IDOCK:   -3.49 KCAL/MOL
REMARK 924 INTRA-LIGAND FREE ENERGY PREDICTED BY IDOCK:   -0.40 KCAL/MOL
REMARK 927      BINDING AFFINITY PREDICTED BY RF-SCORE:    0.00 PKD
ROOT
HETATM    1  N   UNL     1      -6.136  16.287  68.038  1.00  0.00    -0.113 NA 
HETATM    2  C   UNL     1      -6.698  15.178  67.514  1.00  0.00    -0.160 C  
HETATM    3  H2  UNL     1      -6.318  17.234  67.708  1.00  0.00     0.000 HD 
HETATM    4  H1  UNL     1      -5.508  16.056  68.808  1.00  0.00     0.000 HD 
HETATM    5  N   UNL     1      -7.530  15.484  66.495  1.00  0.00    -0.217 NA 
HETATM    6  N   UNL     1      -6.425  14.030  68.021  1.00  0.00    -0.132 NA 
HETATM    7  H1  UNL     1      -7.955  14.645  66.098  1.00  0.00     0.000 HD 
HETATM    8  H2  UNL     1      -7.711  16.431  66.165  1.00  0.00     0.000 HD 
HETATM    9  H   UNL     1      -5.773  13.926  68.798  1.00  0.00     0.000 HD 
ENDROOT
BRANCH   6  10
HETATM   10  C   UNL     1      -7.104  12.878  67.418  1.00  0.00    -0.125 C  
BRANCH  10  11
HETATM   11  C   UNL     1      -8.416  12.565  68.164  1.00  0.00    -0.180 C  
BRANCH  11  12
HETATM   12  N   UNL     1      -9.622  12.963  67.396  1.00  0.00    -0.198 NA 
HETATM   13  C   UNL     1     -10.243  11.824  66.708  1.00  0.00    -0.211 C  
HETATM   14  C   UNL     1     -11.171  12.190  65.541  1.00  0.00    -0.381 C  
HETATM   15  C   UNL     1     -10.660  13.343  64.672  1.00  0.00    -0.431 C  
HETATM   16  C   UNL     1     -11.325  14.691  64.965  1.00  0.00    -0.390 C  
HETATM   17  C   UNL     1     -11.032  15.324  66.328  1.00  0.00    -0.300 C  
HETATM   18  C   UNL     1     -11.598  14.549  67.524  1.00  0.00    -0.403 C  
HETATM   19  C   UNL     1     -10.563  13.687  68.262  1.00  0.00    -0.253 C  
ENDBRANCH  11  12
ENDBRANCH  10  11
ENDBRANCH   6  10
TORSDOF 3
ENDMDL
MODEL      161
REMARK 921   NORMALIZED FREE ENERGY PREDICTED BY IDOCK:   -3.15 KCAL/MOL
REMARK 922        TOTAL FREE ENERGY PREDICTED BY IDOCK:   -3.89 KCAL/MOL
REMARK 923 INTER-LIGAND FREE ENERGY PREDICTED BY IDOCK:   -3.61 KCAL/MOL
REMARK 924 INTRA-LIGAND FREE ENERGY PREDICTED BY IDOCK:   -0.28 KCAL/MOL
REMARK 927      BINDING AFFINITY PREDICTED BY RF-SCORE:    0.00 PKD
ROOT
HETATM    1  N   UNL     1     -10.028   9.813  70.036  1.00  0.00    -0.242 NA 
HETATM    2  C   UNL     1     -10.885  10.677  69.454  1.00  0.00    -0.246 C  
HETATM    3  H2  UNL     1      -9.813   8.885  69.672  1.00  0.00     0.000 HD 
HETATM    4  H1  UNL     1      -9.624  10.206  70.885  1.00  0.00     0.000 HD 
HETATM    5  N   UNL     1     -11.420  10.156  68.328  1.00  0.00    -0.601 NA 
HETATM    6  N   UNL     1     -11.067  11.836  69.977  1.00  0.00    -0.443 NA 
HETATM    7  H1  UNL     1     -12.067  10.810  67.887  1.00  0.00     0.000 HD 
HETATM    8  H2  UNL     1     -11.204   9.229  67.965  1.00  0.00     0.000 HD 
HETATM    9  H   UNL     1     -10.600  12.118  70.838  1.00  0.00     0.000 HD 
ENDROOT
BRANCH   6  10
HETATM   10  C   UNL     1     -11.985  12.731  69.264  1.00  0.00    -0.246 C  
BRANCH  10  11
HETATM   11  C   UNL     1     -11.228  13.944  68.687  1.00  0.00    -0.270 C  
BRANCH  11  12
HETATM   12  N   UNL     1     -11.414  14.094  67.222  1.00  0.00    -0.331 NA 
HETATM   13  C   UNL     1     -12.749  13.664  66.786  1.00  0.00     0.193 C  
HETATM   14  C   UNL     1     -12.875  13.331  65.293  1.00  0.00    -0.368 C  
HETATM   15  C   UNL     1     -11.671  12.582  64.714  1.00  0.00    -0.411 C  
HETATM   16  C   UNL     1     -10.704  13.466  63.921  1.00  0.00    -0.011 C  
HETATM   17  C   UNL     1      -9.922  14.518  64.713  1.00  0.00     0.048 C  
HETATM   18  C   UNL     1     -10.785  15.636  65.309  1.00  0.00    -0.444 C  
HETATM   19  C   UNL     1     -11.093  15.466  66.804  1.00  0.00    -0.244 C  
ENDBRANCH  11  12
ENDBRANCH  10  11
ENDBRANCH   6  10
TORSDOF 3
ENDMDL
MODEL      162
REMARK 921   NORMALIZED FREE ENERGY PREDICTED BY IDOCK:   -3.13 KCAL/MOL
REMARK 922        TOTAL FREE ENERGY PREDICTED BY IDOCK:   -3.87 KCAL/MOL
REMARK 923 INTER-LIGAND FREE ENERGY PREDICTED BY IDOCK:   -3.89 KCAL/MOL
REMARK 924 INTRA-LIGAND FREE ENERGY PREDICTED BY IDOCK:    0.02 KCAL/MOL
REMARK 927      BINDING AFFINITY PREDICTED BY RF-SCORE:    0.00 PKD
ROOT
HETATM    1  N   UNL     1     -10.418   5.156  70.414  1.00  0.00    -0.252 NA 
HETATM    2  C   UNL     1     -10.914   5.935  69.430  1.00  0.00    -0.350 C  
HETATM    3  H2  UNL     1     -10.868   5.015  71.317  1.00  0.00     0.000 HD 
HETATM    4  H1  UNL     1      -9.536   4.725  70.137  1.00  0.00     0.000 HD 
HETATM    5  N   UNL     1     -12.082   6.506  69.797  1.00  0.00    -0.446 NA 
HETATM    6  N   UNL     1     -10.283   6.024  68.315  1.00  0.00    -0.164 NA 
HETATM    7  H1  UNL     1     -12.457   7.095  69.053  1.00  0.00     0.000 HD 
HETATM    8  H2  UNL     1     -12.532   6.365  70.701  1.00  0.00     0.000 HD 
HETATM    9  H   UNL     1      -9.400   5.540  68.155  1.00  0.00     0.000 HD 
ENDROOT
BRANCH   6  10
HETATM   10  C   UNL     1     -10.906   6.862  67.284  1.00  0.00    -0.356 C  
BRANCH  10  11
HETATM   11  C   UNL     1      -9.983   8.036  66.903  1.00  0.00    -0.268 C  
BRANCH  11  12
HETATM   12  N   UNL     1     -10.194   9.233  67.754  1.00  0.00    -0.205 NA 
HETATM   13  C   UNL     1      -9.677   9.045  69.115  1.00  0.00    -0.167 C  
HETATM   14  C   UNL     1     -10.254   9.995  70.173  1.00  0.00    -0.297 C  
HETATM   15  C   UNL     1     -11.755  10.263  70.023  1.00  0.00    -0.330 C  
HETATM   16  C   UNL     1     -12.089  11.603  69.363  1.00  0.00    -0.328 C  
HETATM   17  C   UNL     1     -11.710  11.760  67.887  1.00  0.00    -0.347 C  
HETATM   18  C   UNL     1     -10.201  11.766  67.616  1.00  0.00    -0.216 C  
HETATM   19  C   UNL     1      -9.649  10.429  67.098  1.00  0.00    -0.164 C  
ENDBRANCH  11  12
ENDBRANCH  10  11
ENDBRANCH   6  10
TORSDOF 3
ENDMDL
MODEL      163
REMARK 921   NORMALIZED FREE ENERGY PREDICTED BY IDOCK:   -3.12 KCAL/MOL
REMARK 922        TOTAL FREE ENERGY PREDICTED BY IDOCK:   -3.86 KCAL/MOL
REMARK 923 INTER-LIGAND FREE ENERGY PREDICTED BY IDOCK:   -3.70 KCAL/MOL
REMARK 924 INTRA-LIGAND FREE ENERGY PREDICTED BY IDOCK:   -0.16 KCAL/MOL
REMARK 927      BINDING AFFINITY PREDICTED BY RF-SCORE:    0.00 PKD
ROOT
HETATM    1  N   UNL     1     -10.211  10.781  62.950  1.00  0.00    -0.751 NA 
HETATM    2  C   UNL     1      -9.726  10.420  64.156  1.00  0.00    -0.324 C  
HETATM    3  H2  UNL     1      -9.748  10.586  62.063  1.00  0.00     0.000 HD 
HETATM    4  H1  UNL     1     -11.100  11.274  63.039  1.00  0.00     0.000 HD 
HETATM    5  N   UNL     1      -8.550   9.768  64.038  1.00  0.00    -0.180 NA 
HETATM    6  N   UNL     1     -10.401  10.689  65.215  1.00  0.00    -0.279 NA 
HETATM    7  H1  UNL     1      -8.183   9.494  64.950  1.00  0.00     0.000 HD 
HETATM    8  H2  UNL     1      -8.087   9.572  63.150  1.00  0.00     0.000 HD 
HETATM    9  H   UNL     1     -11.287  11.193  65.176  1.00  0.00     0.000 HD 
ENDROOT
BRANCH   6  10
HETATM   10  C   UNL     1      -9.825  10.231  66.484  1.00  0.00    -0.212 C  
BRANCH  10  11
HETATM   11  C   UNL     1     -10.360   8.834  66.855  1.00  0.00    -0.274 C  
BRANCH  11  12
HETATM   12  N   UNL     1     -10.158   8.503  68.287  1.00  0.00    -0.186 NA 
HETATM   13  C   UNL     1     -10.744   9.513  69.178  1.00  0.00    -0.210 C  
HETATM   14  C   UNL     1     -10.193   9.522  70.611  1.00  0.00    -0.364 C  
HETATM   15  C   UNL     1      -8.681   9.297  70.702  1.00  0.00    -0.282 C  
HETATM   16  C   UNL     1      -8.282   7.872  71.094  1.00  0.00    -0.109 C  
HETATM   17  C   UNL     1      -8.587   6.765  70.080  1.00  0.00    -0.140 C  
HETATM   18  C   UNL     1     -10.081   6.508  69.851  1.00  0.00    -0.202 C  
HETATM   19  C   UNL     1     -10.641   7.145  68.571  1.00  0.00    -0.187 C  
ENDBRANCH  11  12
ENDBRANCH  10  11
ENDBRANCH   6  10
TORSDOF 3
ENDMDL
MODEL      164
REMARK 921   NORMALIZED FREE ENERGY PREDICTED BY IDOCK:   -3.12 KCAL/MOL
REMARK 922        TOTAL FREE ENERGY PREDICTED BY IDOCK:   -3.86 KCAL/MOL
REMARK 923 INTER-LIGAND FREE ENERGY PREDICTED BY IDOCK:   -3.54 KCAL/MOL
REMARK 924 INTRA-LIGAND FREE ENERGY PREDICTED BY IDOCK:   -0.32 KCAL/MOL
REMARK 927      BINDING AFFINITY PREDICTED BY RF-SCORE:    0.00 PKD
ROOT
HETATM    1  N   UNL     1     -10.264   5.038  69.829  1.00  0.00    -0.277 NA 
HETATM    2  C   UNL     1     -10.704   6.058  69.063  1.00  0.00    -0.324 C  
HETATM    3  H2  UNL     1     -10.623   4.820  70.758  1.00  0.00     0.000 HD 
HETATM    4  H1  UNL     1      -9.526   4.513  69.360  1.00  0.00     0.000 HD 
HETATM    5  N   UNL     1     -11.681   6.753  69.685  1.00  0.00    -0.642 NA 
HETATM    6  N   UNL     1     -10.204   6.232  67.893  1.00  0.00    -0.151 NA 
HETATM    7  H1  UNL     1     -12.014   7.524  69.105  1.00  0.00     0.000 HD 
HETATM    8  H2  UNL     1     -12.041   6.535  70.613  1.00  0.00     0.000 HD 
HETATM    9  H   UNL     1      -9.462   5.635  67.530  1.00  0.00     0.000 HD 
ENDROOT
BRANCH   6  10
HETATM   10  C   UNL     1     -10.761   7.339  67.109  1.00  0.00    -0.343 C  
BRANCH  10  11
HETATM   11  C   UNL     1      -9.637   8.238  66.556  1.00  0.00    -0.244 C  
BRANCH  11  12
HETATM   12  N   UNL     1      -9.573   9.558  67.230  1.00  0.00    -0.146 NA 
HETATM   13  C   UNL     1     -10.894  10.017  67.678  1.00  0.00    -0.278 C  
HETATM   14  C   UNL     1     -11.009  11.525  67.940  1.00  0.00    -0.287 C  
HETATM   15  C   UNL     1     -10.272  12.397  66.919  1.00  0.00    -0.238 C  
HETATM   16  C   UNL     1      -8.920  12.926  67.407  1.00  0.00    -0.199 C  
HETATM   17  C   UNL     1      -7.811  11.891  67.624  1.00  0.00    -0.142 C  
HETATM   18  C   UNL     1      -8.075  10.908  68.770  1.00  0.00    -0.145 C  
HETATM   19  C   UNL     1      -8.581   9.531  68.314  1.00  0.00    -0.120 C  
ENDBRANCH  11  12
ENDBRANCH  10  11
ENDBRANCH   6  10
TORSDOF 3
ENDMDL
MODEL      165
REMARK 921   NORMALIZED FREE ENERGY PREDICTED BY IDOCK:   -3.10 KCAL/MOL
REMARK 922        TOTAL FREE ENERGY PREDICTED BY IDOCK:   -3.84 KCAL/MOL
REMARK 923 INTER-LIGAND FREE ENERGY PREDICTED BY IDOCK:   -3.57 KCAL/MOL
REMARK 924 INTRA-LIGAND FREE ENERGY PREDICTED BY IDOCK:   -0.26 KCAL/MOL
REMARK 927      BINDING AFFINITY PREDICTED BY RF-SCORE:    0.00 PKD
ROOT
HETATM    1  N   UNL     1     -10.429   6.005  68.385  1.00  0.00    -0.211 NA 
HETATM    2  C   UNL     1     -10.752   7.315  68.408  1.00  0.00    -0.121 C  
HETATM    3  H2  UNL     1     -10.385   5.438  67.539  1.00  0.00     0.000 HD 
HETATM    4  H1  UNL     1     -10.234   5.655  69.323  1.00  0.00     0.000 HD 
HETATM    5  N   UNL     1     -11.010   7.779  67.166  1.00  0.00    -0.498 NA 
HETATM    6  N   UNL     1     -10.750   7.947  69.525  1.00  0.00    -0.323 NA 
HETATM    7  H1  UNL     1     -11.254   8.770  67.183  1.00  0.00     0.000 HD 
HETATM    8  H2  UNL     1     -10.967   7.212  66.320  1.00  0.00     0.000 HD 
HETATM    9  H   UNL     1     -10.536   7.483  70.407  1.00  0.00     0.000 HD 
ENDROOT
BRANCH   6  10
HETATM   10  C   UNL     1     -11.076   9.377  69.461  1.00  0.00    -0.112 C  
BRANCH  10  11
HETATM   11  C   UNL     1      -9.793  10.226  69.371  1.00  0.00    -0.227 C  
BRANCH  11  12
HETATM   12  N   UNL     1     -10.000  11.505  68.648  1.00  0.00    -0.213 NA 
HETATM   13  C   UNL     1      -8.822  11.895  67.862  1.00  0.00    -0.172 C  
HETATM   14  C   UNL     1      -8.751  13.380  67.482  1.00  0.00    -0.205 C  
HETATM   15  C   UNL     1      -9.201  14.334  68.592  1.00  0.00    -0.167 C  
HETATM   16  C   UNL     1     -10.622  14.875  68.416  1.00  0.00    -0.244 C  
HETATM   17  C   UNL     1     -11.767  13.866  68.544  1.00  0.00    -0.390 C  
HETATM   18  C   UNL     1     -11.808  12.807  67.436  1.00  0.00    -0.404 C  
HETATM   19  C   UNL     1     -11.228  11.445  67.844  1.00  0.00    -0.288 C  
ENDBRANCH  11  12
ENDBRANCH  10  11
ENDBRANCH   6  10
TORSDOF 3
ENDMDL
MODEL      166
REMARK 921   NORMALIZED FREE ENERGY PREDICTED BY IDOCK:   -3.09 KCAL/MOL
REMARK 922        TOTAL FREE ENERGY PREDICTED BY IDOCK:   -3.82 KCAL/MOL
REMARK 923 INTER-LIGAND FREE ENERGY PREDICTED BY IDOCK:   -3.63 KCAL/MOL
REMARK 924 INTRA-LIGAND FREE ENERGY PREDICTED BY IDOCK:   -0.19 KCAL/MOL
REMARK 927      BINDING AFFINITY PREDICTED BY RF-SCORE:    0.00 PKD
ROOT
HETATM    1  N   UNL     1      -7.854   2.994  71.308  1.00  0.00    -0.050 NA 
HETATM    2  C   UNL     1      -8.338   4.062  71.974  1.00  0.00    -0.099 C  
HETATM    3  H2  UNL     1      -7.249   2.284  71.721  1.00  0.00     0.000 HD 
HETATM    4  H1  UNL     1      -8.170   2.986  70.338  1.00  0.00     0.000 HD 
HETATM    5  N   UNL     1      -7.919   4.071  73.259  1.00  0.00    -0.087 NA 
HETATM    6  N   UNL     1      -9.117   4.885  71.370  1.00  0.00    -0.139 NA 
HETATM    7  H1  UNL     1      -8.286   4.879  73.763  1.00  0.00     0.000 HD 
HETATM    8  H2  UNL     1      -7.315   3.362  73.671  1.00  0.00     0.000 HD 
HETATM    9  H   UNL     1      -9.364   4.770  70.388  1.00  0.00     0.000 HD 
ENDROOT
BRANCH   6  10
HETATM   10  C   UNL     1      -9.631   5.999  72.174  1.00  0.00    -0.151 C  
BRANCH  10  11
HETATM   11  C   UNL     1     -11.167   5.932  72.282  1.00  0.00    -0.291 C  
BRANCH  11  12
HETATM   12  N   UNL     1     -11.836   7.137  71.733  1.00  0.00    -0.288 NA 
HETATM   13  C   UNL     1     -11.207   7.602  70.490  1.00  0.00    -0.261 C  
HETATM   14  C   UNL     1     -11.498   9.062  70.114  1.00  0.00    -0.078 C  
HETATM   15  C   UNL     1     -11.500  10.027  71.304  1.00  0.00    -0.390 C  
HETATM   16  C   UNL     1     -12.897  10.403  71.803  1.00  0.00    -0.561 C  
HETATM   17  C   UNL     1     -13.724   9.288  72.450  1.00  0.00    -0.517 C  
HETATM   18  C   UNL     1     -14.141   8.167  71.489  1.00  0.00    -0.464 C  
HETATM   19  C   UNL     1     -13.278   6.900  71.587  1.00  0.00    -0.248 C  
ENDBRANCH  11  12
ENDBRANCH  10  11
ENDBRANCH   6  10
TORSDOF 3
ENDMDL
MODEL      167
REMARK 921   NORMALIZED FREE ENERGY PREDICTED BY IDOCK:   -3.08 KCAL/MOL
REMARK 922        TOTAL FREE ENERGY PREDICTED BY IDOCK:   -3.81 KCAL/MOL
REMARK 923 INTER-LIGAND FREE ENERGY PREDICTED BY IDOCK:   -3.59 KCAL/MOL
REMARK 924 INTRA-LIGAND FREE ENERGY PREDICTED BY IDOCK:   -0.22 KCAL/MOL
REMARK 927      BINDING AFFINITY PREDICTED BY RF-SCORE:    0.00 PKD
ROOT
HETATM    1  N   UNL     1      -7.307   4.379  66.800  1.00  0.00    -0.079 NA 
HETATM    2  C   UNL     1      -7.842   5.594  67.040  1.00  0.00    -0.101 C  
HETATM    3  H2  UNL     1      -6.631   4.184  66.062  1.00  0.00     0.000 HD 
HETATM    4  H1  UNL     1      -7.667   3.680  67.450  1.00  0.00     0.000 HD 
HETATM    5  N   UNL     1      -7.366   6.519  66.179  1.00  0.00    -0.078 NA 
HETATM    6  N   UNL     1      -8.666   5.741  68.014  1.00  0.00    -0.104 NA 
HETATM    7  H1  UNL     1      -7.770   7.439  66.361  1.00  0.00     0.000 HD 
HETATM    8  H2  UNL     1      -6.689   6.325  65.442  1.00  0.00     0.000 HD 
HETATM    9  H   UNL     1      -8.952   4.958  68.601  1.00  0.00     0.000 HD 
ENDROOT
BRANCH   6  10
HETATM   10  C   UNL     1      -9.174   7.100  68.233  1.00  0.00    -0.132 C  
BRANCH  10  11
HETATM   11  C   UNL     1     -10.704   7.088  68.424  1.00  0.00    -0.179 C  
BRANCH  11  12
HETATM   12  N   UNL     1     -11.115   7.467  69.798  1.00  0.00    -0.201 NA 
HETATM   13  C   UNL     1     -11.276   6.297  70.672  1.00  0.00    -0.337 C  
HETATM   14  C   UNL     1     -12.134   6.527  71.923  1.00  0.00    -0.388 C  
HETATM   15  C   UNL     1     -13.370   7.400  71.684  1.00  0.00    -0.426 C  
HETATM   16  C   UNL     1     -13.209   8.852  72.142  1.00  0.00    -0.478 C  
HETATM   17  C   UNL     1     -12.204   9.713  71.370  1.00  0.00    -0.471 C  
HETATM   18  C   UNL     1     -10.742   9.281  71.531  1.00  0.00    -0.425 C  
HETATM   19  C   UNL     1     -10.192   8.467  70.350  1.00  0.00    -0.195 C  
ENDBRANCH  11  12
ENDBRANCH  10  11
ENDBRANCH   6  10
TORSDOF 3
ENDMDL
MODEL      168
REMARK 921   NORMALIZED FREE ENERGY PREDICTED BY IDOCK:   -3.07 KCAL/MOL
REMARK 922        TOTAL FREE ENERGY PREDICTED BY IDOCK:   -3.80 KCAL/MOL
REMARK 923 INTER-LIGAND FREE ENERGY PREDICTED BY IDOCK:   -3.64 KCAL/MOL
REMARK 924 INTRA-LIGAND FREE ENERGY PREDICTED BY IDOCK:   -0.16 KCAL/MOL
REMARK 927      BINDING AFFINITY PREDICTED BY RF-SCORE:    0.00 PKD
ROOT
HETATM    1  N   UNL     1      -8.046   8.349  74.106  1.00  0.00    -0.347 NA 
HETATM    2  C   UNL     1      -8.671   8.340  72.911  1.00  0.00    -0.221 C  
HETATM    3  H2  UNL     1      -8.406   7.900  74.947  1.00  0.00     0.000 HD 
HETATM    4  H1  UNL     1      -7.165   8.862  74.061  1.00  0.00     0.000 HD 
HETATM    5  N   UNL     1      -9.836   7.660  72.971  1.00  0.00    -0.235 NA 
HETATM    6  N   UNL     1      -8.118   8.913  71.903  1.00  0.00    -0.362 NA 
HETATM    7  H1  UNL     1     -10.309   7.652  72.067  1.00  0.00     0.000 HD 
HETATM    8  H2  UNL     1     -10.197   7.210  73.812  1.00  0.00     0.000 HD 
HETATM    9  H   UNL     1      -7.226   9.400  71.983  1.00  0.00     0.000 HD 
ENDROOT
BRANCH   6  10
HETATM   10  C   UNL     1      -8.843   8.827  70.631  1.00  0.00    -0.182 C  
BRANCH  10  11
HETATM   11  C   UNL     1      -8.511  10.033  69.730  1.00  0.00    -0.172 C  
BRANCH  11  12
HETATM   12  N   UNL     1      -9.534  10.265  68.680  1.00  0.00    -0.161 NA 
HETATM   13  C   UNL     1      -9.702   9.101  67.802  1.00  0.00    -0.154 C  
HETATM   14  C   UNL     1     -10.353   9.393  66.443  1.00  0.00    -0.237 C  
HETATM   15  C   UNL     1      -9.889  10.701  65.794  1.00  0.00    -0.296 C  
HETATM   16  C   UNL     1     -10.874  11.863  65.951  1.00  0.00    -0.342 C  
HETATM   17  C   UNL     1     -11.082  12.406  67.368  1.00  0.00    -0.320 C  
HETATM   18  C   UNL     1     -11.762  11.425  68.331  1.00  0.00    -0.373 C  
HETATM   19  C   UNL     1     -10.796  10.709  69.287  1.00  0.00    -0.239 C  
ENDBRANCH  11  12
ENDBRANCH  10  11
ENDBRANCH   6  10
TORSDOF 3
ENDMDL
MODEL      169
REMARK 921   NORMALIZED FREE ENERGY PREDICTED BY IDOCK:   -3.07 KCAL/MOL
REMARK 922        TOTAL FREE ENERGY PREDICTED BY IDOCK:   -3.80 KCAL/MOL
REMARK 923 INTER-LIGAND FREE ENERGY PREDICTED BY IDOCK:   -3.62 KCAL/MOL
REMARK 924 INTRA-LIGAND FREE ENERGY PREDICTED BY IDOCK:   -0.17 KCAL/MOL
REMARK 927      BINDING AFFINITY PREDICTED BY RF-SCORE:    0.00 PKD
ROOT
HETATM    1  N   UNL     1     -11.954   5.229  72.978  1.00  0.00    -0.503 NA 
HETATM    2  C   UNL     1     -11.212   6.220  72.442  1.00  0.00    -0.280 C  
HETATM    3  H2  UNL     1     -12.418   5.283  73.884  1.00  0.00     0.000 HD 
HETATM    4  H1  UNL     1     -11.991   4.417  72.361  1.00  0.00     0.000 HD 
HETATM    5  N   UNL     1     -11.164   7.294  73.260  1.00  0.00    -0.587 NA 
HETATM    6  N   UNL     1     -10.691   6.063  71.279  1.00  0.00    -0.252 NA 
HETATM    7  H1  UNL     1     -10.603   8.045  72.855  1.00  0.00     0.000 HD 
HETATM    8  H2  UNL     1     -11.628   7.349  74.166  1.00  0.00     0.000 HD 
HETATM    9  H   UNL     1     -10.799   5.196  70.753  1.00  0.00     0.000 HD 
ENDROOT
BRANCH   6  10
HETATM   10  C   UNL     1      -9.930   7.201  70.751  1.00  0.00    -0.189 C  
BRANCH  10  11
HETATM   11  C   UNL     1     -10.701   7.889  69.607  1.00  0.00    -0.218 C  
BRANCH  11  12
HETATM   12  N   UNL     1     -10.303   7.393  68.266  1.00  0.00    -0.190 NA 
HETATM   13  C   UNL     1     -11.135   6.267  67.822  1.00  0.00    -0.258 C  
HETATM   14  C   UNL     1     -10.525   5.398  66.713  1.00  0.00    -0.347 C  
HETATM   15  C   UNL     1      -9.023   5.142  66.873  1.00  0.00    -0.109 C  
HETATM   16  C   UNL     1      -8.139   6.017  65.981  1.00  0.00    -0.113 C  
HETATM   17  C   UNL     1      -8.119   7.517  66.287  1.00  0.00    -0.113 C  
HETATM   18  C   UNL     1      -9.449   8.236  66.032  1.00  0.00    -0.189 C  
HETATM   19  C   UNL     1     -10.277   8.498  67.299  1.00  0.00    -0.276 C  
ENDBRANCH  11  12
ENDBRANCH  10  11
ENDBRANCH   6  10
TORSDOF 3
ENDMDL
MODEL      170
REMARK 921   NORMALIZED FREE ENERGY PREDICTED BY IDOCK:   -3.04 KCAL/MOL
REMARK 922        TOTAL FREE ENERGY PREDICTED BY IDOCK:   -3.76 KCAL/MOL
REMARK 923 INTER-LIGAND FREE ENERGY PREDICTED BY IDOCK:   -3.58 KCAL/MOL
REMARK 924 INTRA-LIGAND FREE ENERGY PREDICTED BY IDOCK:   -0.18 KCAL/MOL
REMARK 927      BINDING AFFINITY PREDICTED BY RF-SCORE:    0.00 PKD
ROOT
HETATM    1  N   UNL     1      -8.242  18.288  66.151  1.00  0.00    -0.469 NA 
HETATM    2  C   UNL     1      -8.926  17.155  66.411  1.00  0.00    -0.260 C  
HETATM    3  H2  UNL     1      -8.658  19.219  66.133  1.00  0.00     0.000 HD 
HETATM    4  H1  UNL     1      -7.256  18.096  65.976  1.00  0.00     0.000 HD 
HETATM    5  N   UNL     1     -10.231  17.410  66.643  1.00  0.00    -0.316 NA 
HETATM    6  N   UNL     1      -8.302  16.033  66.438  1.00  0.00    -0.313 NA 
HETATM    7  H1  UNL     1     -10.748  16.553  66.840  1.00  0.00     0.000 HD 
HETATM    8  H2  UNL     1     -10.647  18.341  66.625  1.00  0.00     0.000 HD 
HETATM    9  H   UNL     1      -7.303  15.966  66.244  1.00  0.00     0.000 HD 
ENDROOT
BRANCH   6  10
HETATM   10  C   UNL     1      -9.109  14.851  66.764  1.00  0.00    -0.270 C  
BRANCH  10  11
HETATM   11  C   UNL     1      -8.231  13.744  67.381  1.00  0.00    -0.184 C  
BRANCH  11  12
HETATM   12  N   UNL     1      -8.806  12.387  67.199  1.00  0.00    -0.190 NA 
HETATM   13  C   UNL     1      -8.246  11.416  68.147  1.00  0.00    -0.143 C  
HETATM   14  C   UNL     1      -8.401   9.943  67.745  1.00  0.00    -0.114 C  
HETATM   15  C   UNL     1      -8.183   9.674  66.253  1.00  0.00    -0.116 C  
HETATM   16  C   UNL     1      -9.476   9.508  65.450  1.00  0.00    -0.336 C  
HETATM   17  C   UNL     1     -10.362  10.749  65.302  1.00  0.00    -0.327 C  
HETATM   18  C   UNL     1     -10.991  11.241  66.611  1.00  0.00    -0.326 C  
HETATM   19  C   UNL     1     -10.273  12.444  67.242  1.00  0.00    -0.215 C  
ENDBRANCH  11  12
ENDBRANCH  10  11
ENDBRANCH   6  10
TORSDOF 3
ENDMDL
MODEL      171
REMARK 921   NORMALIZED FREE ENERGY PREDICTED BY IDOCK:   -3.03 KCAL/MOL
REMARK 922        TOTAL FREE ENERGY PREDICTED BY IDOCK:   -3.75 KCAL/MOL
REMARK 923 INTER-LIGAND FREE ENERGY PREDICTED BY IDOCK:   -3.57 KCAL/MOL
REMARK 924 INTRA-LIGAND FREE ENERGY PREDICTED BY IDOCK:   -0.18 KCAL/MOL
REMARK 927      BINDING AFFINITY PREDICTED BY RF-SCORE:    0.00 PKD
ROOT
HETATM    1  N   UNL     1      -9.382   7.543  74.052  1.00  0.00    -0.382 NA 
HETATM    2  C   UNL     1     -10.194   7.676  72.983  1.00  0.00    -0.320 C  
HETATM    3  H2  UNL     1      -9.703   7.315  74.993  1.00  0.00     0.000 HD 
HETATM    4  H1  UNL     1      -8.406   7.700  73.800  1.00  0.00     0.000 HD 
HETATM    5  N   UNL     1     -11.486   7.469  73.318  1.00  0.00    -0.632 NA 
HETATM    6  N   UNL     1      -9.686   7.938  71.833  1.00  0.00    -0.168 NA 
HETATM    7  H1  UNL     1     -12.100   7.569  72.509  1.00  0.00     0.000 HD 
HETATM    8  H2  UNL     1     -11.807   7.241  74.258  1.00  0.00     0.000 HD 
HETATM    9  H   UNL     1      -8.684   8.075  71.704  1.00  0.00     0.000 HD 
ENDROOT
BRANCH   6  10
HETATM   10  C   UNL     1     -10.631   8.031  70.714  1.00  0.00    -0.214 C  
BRANCH  10  11
HETATM   11  C   UNL     1     -10.952   9.503  70.390  1.00  0.00    -0.278 C  
BRANCH  11  12
HETATM   12  N   UNL     1     -10.286   9.978  69.152  1.00  0.00    -0.196 NA 
HETATM   13  C   UNL     1     -11.092  10.973  68.435  1.00  0.00    -0.251 C  
HETATM   14  C   UNL     1     -10.736  11.161  66.954  1.00  0.00    -0.322 C  
HETATM   15  C   UNL     1     -10.410   9.858  66.217  1.00  0.00    -0.233 C  
HETATM   16  C   UNL     1      -8.913   9.604  66.026  1.00  0.00    -0.195 C  
HETATM   17  C   UNL     1      -8.092   9.329  67.290  1.00  0.00    -0.113 C  
HETATM   18  C   UNL     1      -7.980  10.522  68.247  1.00  0.00    -0.113 C  
HETATM   19  C   UNL     1      -8.929  10.454  69.453  1.00  0.00    -0.151 C  
ENDBRANCH  11  12
ENDBRANCH  10  11
ENDBRANCH   6  10
TORSDOF 3
ENDMDL
MODEL      172
REMARK 921   NORMALIZED FREE ENERGY PREDICTED BY IDOCK:   -3.03 KCAL/MOL
REMARK 922        TOTAL FREE ENERGY PREDICTED BY IDOCK:   -3.75 KCAL/MOL
REMARK 923 INTER-LIGAND FREE ENERGY PREDICTED BY IDOCK:   -3.58 KCAL/MOL
REMARK 924 INTRA-LIGAND FREE ENERGY PREDICTED BY IDOCK:   -0.17 KCAL/MOL
REMARK 927      BINDING AFFINITY PREDICTED BY RF-SCORE:    0.00 PKD
ROOT
HETATM    1  N   UNL     1     -11.779  12.887  63.110  1.00  0.00    -0.844 NA 
HETATM    2  C   UNL     1     -11.173  11.871  63.759  1.00  0.00    -0.440 C  
HETATM    3  H2  UNL     1     -11.842  12.965  62.096  1.00  0.00     0.000 HD 
HETATM    4  H1  UNL     1     -12.167  13.566  63.765  1.00  0.00     0.000 HD 
HETATM    5  N   UNL     1     -10.659  10.972  62.892  1.00  0.00    -0.803 NA 
HETATM    6  N   UNL     1     -11.173  11.851  65.043  1.00  0.00    -0.310 NA 
HETATM    7  H1  UNL     1     -10.200  10.203  63.382  1.00  0.00     0.000 HD 
HETATM    8  H2  UNL     1     -10.722  11.050  61.877  1.00  0.00     0.000 HD 
HETATM    9  H   UNL     1     -11.599  12.595  65.594  1.00  0.00     0.000 HD 
ENDROOT
BRANCH   6  10
HETATM   10  C   UNL     1     -10.525  10.694  65.672  1.00  0.00    -0.165 C  
BRANCH  10  11
HETATM   11  C   UNL     1      -9.042  10.992  65.967  1.00  0.00    -0.195 C  
BRANCH  11  12
HETATM   12  N   UNL     1      -8.292   9.791  66.411  1.00  0.00    -0.119 NA 
HETATM   13  C   UNL     1      -8.099   8.823  65.324  1.00  0.00    -0.129 C  
HETATM   14  C   UNL     1      -7.778   7.390  65.770  1.00  0.00    -0.102 C  
HETATM   15  C   UNL     1      -8.572   6.923  66.994  1.00  0.00    -0.121 C  
HETATM   16  C   UNL     1      -7.786   6.972  68.307  1.00  0.00    -0.118 C  
HETATM   17  C   UNL     1      -7.407   8.359  68.834  1.00  0.00    -0.090 C  
HETATM   18  C   UNL     1      -6.400   9.117  67.961  1.00  0.00    -0.055 C  
HETATM   19  C   UNL     1      -7.031  10.185  67.054  1.00  0.00    -0.088 C  
ENDBRANCH  11  12
ENDBRANCH  10  11
ENDBRANCH   6  10
TORSDOF 3
ENDMDL
MODEL      173
REMARK 921   NORMALIZED FREE ENERGY PREDICTED BY IDOCK:   -3.02 KCAL/MOL
REMARK 922        TOTAL FREE ENERGY PREDICTED BY IDOCK:   -3.74 KCAL/MOL
REMARK 923 INTER-LIGAND FREE ENERGY PREDICTED BY IDOCK:   -3.28 KCAL/MOL
REMARK 924 INTRA-LIGAND FREE ENERGY PREDICTED BY IDOCK:   -0.46 KCAL/MOL
REMARK 927      BINDING AFFINITY PREDICTED BY RF-SCORE:    0.00 PKD
ROOT
HETATM    1  N   UNL     1      -7.623   8.768  73.927  1.00  0.00    -0.408 NA 
HETATM    2  C   UNL     1      -8.169   7.746  73.235  1.00  0.00    -0.158 C  
HETATM    3  H2  UNL     1      -8.052   9.203  74.743  1.00  0.00     0.000 HD 
HETATM    4  H1  UNL     1      -6.727   9.049  73.530  1.00  0.00     0.000 HD 
HETATM    5  N   UNL     1      -9.356   7.374  73.762  1.00  0.00    -0.248 NA 
HETATM    6  N   UNL     1      -7.533   7.248  72.237  1.00  0.00    -0.082 NA 
HETATM    7  H1  UNL     1      -9.768   6.601  73.239  1.00  0.00     0.000 HD 
HETATM    8  H2  UNL     1      -9.784   7.810  74.578  1.00  0.00     0.000 HD 
HETATM    9  H   UNL     1      -6.634   7.618  71.931  1.00  0.00     0.000 HD 
ENDROOT
BRANCH   6  10
HETATM   10  C   UNL     1      -8.176   6.116  71.560  1.00  0.00    -0.118 C  
BRANCH  10  11
HETATM   11  C   UNL     1      -8.819   6.566  70.233  1.00  0.00    -0.151 C  
BRANCH  11  12
HETATM   12  N   UNL     1     -10.106   7.278  70.430  1.00  0.00    -0.191 NA 
HETATM   13  C   UNL     1     -10.138   8.569  69.731  1.00  0.00    -0.197 C  
HETATM   14  C   UNL     1     -11.186   9.566  70.244  1.00  0.00    -0.307 C  
HETATM   15  C   UNL     1     -11.336   9.589  71.768  1.00  0.00    -0.303 C  
HETATM   16  C   UNL     1     -12.550   8.815  72.290  1.00  0.00    -0.460 C  
HETATM   17  C   UNL     1     -12.527   7.294  72.115  1.00  0.00    -0.203 C  
HETATM   18  C   UNL     1     -12.590   6.821  70.658  1.00  0.00    -0.041 C  
HETATM   19  C   UNL     1     -11.232   6.407  70.071  1.00  0.00    -0.411 C  
ENDBRANCH  11  12
ENDBRANCH  10  11
ENDBRANCH   6  10
TORSDOF 3
ENDMDL
MODEL      174
REMARK 921   NORMALIZED FREE ENERGY PREDICTED BY IDOCK:   -3.02 KCAL/MOL
REMARK 922        TOTAL FREE ENERGY PREDICTED BY IDOCK:   -3.74 KCAL/MOL
REMARK 923 INTER-LIGAND FREE ENERGY PREDICTED BY IDOCK:   -3.46 KCAL/MOL
REMARK 924 INTRA-LIGAND FREE ENERGY PREDICTED BY IDOCK:   -0.28 KCAL/MOL
REMARK 927      BINDING AFFINITY PREDICTED BY RF-SCORE:    0.00 PKD
ROOT
HETATM    1  N   UNL     1      -8.705   8.742  64.848  1.00  0.00    -0.330 NA 
HETATM    2  C   UNL     1      -9.287   8.686  66.064  1.00  0.00    -0.218 C  
HETATM    3  H2  UNL     1      -8.868   8.067  64.101  1.00  0.00     0.000 HD 
HETATM    4  H1  UNL     1      -8.082   9.546  64.771  1.00  0.00     0.000 HD 
HETATM    5  N   UNL     1     -10.112   7.621  66.165  1.00  0.00    -0.413 NA 
HETATM    6  N   UNL     1      -9.036   9.602  66.928  1.00  0.00    -0.137 NA 
HETATM    7  H1  UNL     1     -10.552   7.578  67.085  1.00  0.00     0.000 HD 
HETATM    8  H2  UNL     1     -10.275   6.947  65.418  1.00  0.00     0.000 HD 
HETATM    9  H   UNL     1      -8.388  10.364  66.733  1.00  0.00     0.000 HD 
ENDROOT
BRANCH   6  10
HETATM   10  C   UNL     1      -9.736   9.490  68.213  1.00  0.00    -0.147 C  
BRANCH  10  11
HETATM   11  C   UNL     1      -8.750   9.135  69.343  1.00  0.00    -0.140 C  
BRANCH  11  12
HETATM   12  N   UNL     1      -9.352   8.253  70.375  1.00  0.00    -0.157 NA 
HETATM   13  C   UNL     1     -10.461   7.452  69.842  1.00  0.00    -0.231 C  
HETATM   14  C   UNL     1     -11.429   6.892  70.893  1.00  0.00    -0.368 C  
HETATM   15  C   UNL     1     -11.749   7.865  72.032  1.00  0.00    -0.360 C  
HETATM   16  C   UNL     1     -10.978   7.589  73.326  1.00  0.00    -0.362 C  
HETATM   17  C   UNL     1      -9.464   7.816  73.290  1.00  0.00    -0.344 C  
HETATM   18  C   UNL     1      -8.698   6.847  72.382  1.00  0.00    -0.134 C  
HETATM   19  C   UNL     1      -8.314   7.434  71.015  1.00  0.00    -0.114 C  
ENDBRANCH  11  12
ENDBRANCH  10  11
ENDBRANCH   6  10
TORSDOF 3
ENDMDL
MODEL      175
REMARK 921   NORMALIZED FREE ENERGY PREDICTED BY IDOCK:   -3.02 KCAL/MOL
REMARK 922        TOTAL FREE ENERGY PREDICTED BY IDOCK:   -3.74 KCAL/MOL
REMARK 923 INTER-LIGAND FREE ENERGY PREDICTED BY IDOCK:   -3.58 KCAL/MOL
REMARK 924 INTRA-LIGAND FREE ENERGY PREDICTED BY IDOCK:   -0.16 KCAL/MOL
REMARK 927      BINDING AFFINITY PREDICTED BY RF-SCORE:    0.00 PKD
ROOT
HETATM    1  N   UNL     1     -11.629  12.904  63.128  1.00  0.00    -0.816 NA 
HETATM    2  C   UNL     1     -10.990  11.856  63.688  1.00  0.00    -0.440 C  
HETATM    3  H2  UNL     1     -11.751  13.034  62.125  1.00  0.00     0.000 HD 
HETATM    4  H1  UNL     1     -11.976  13.549  63.838  1.00  0.00     0.000 HD 
HETATM    5  N   UNL     1     -10.531  11.001  62.747  1.00  0.00    -0.786 NA 
HETATM    6  N   UNL     1     -10.915  11.770  64.967  1.00  0.00    -0.306 NA 
HETATM    7  H1  UNL     1     -10.048  10.208  63.170  1.00  0.00     0.000 HD 
HETATM    8  H2  UNL     1     -10.653  11.132  61.744  1.00  0.00     0.000 HD 
HETATM    9  H   UNL     1     -11.304  12.486  65.579  1.00  0.00     0.000 HD 
ENDROOT
BRANCH   6  10
HETATM   10  C   UNL     1     -10.236  10.582  65.497  1.00  0.00    -0.256 C  
BRANCH  10  11
HETATM   11  C   UNL     1      -8.742  10.871  65.744  1.00  0.00    -0.190 C  
BRANCH  11  12
HETATM   12  N   UNL     1      -8.221  10.203  66.962  1.00  0.00    -0.117 NA 
HETATM   13  C   UNL     1      -8.669  10.866  68.193  1.00  0.00    -0.133 C  
HETATM   14  C   UNL     1      -7.830  10.566  69.442  1.00  0.00    -0.151 C  
HETATM   15  C   UNL     1      -6.321  10.510  69.185  1.00  0.00    -0.051 C  
HETATM   16  C   UNL     1      -5.755   9.091  69.079  1.00  0.00    -0.040 C  
HETATM   17  C   UNL     1      -6.195   8.260  67.870  1.00  0.00    -0.052 C  
HETATM   18  C   UNL     1      -7.684   7.892  67.859  1.00  0.00    -0.125 C  
HETATM   19  C   UNL     1      -8.543   8.770  66.937  1.00  0.00    -0.115 C  
ENDBRANCH  11  12
ENDBRANCH  10  11
ENDBRANCH   6  10
TORSDOF 3
ENDMDL
MODEL      176
REMARK 921   NORMALIZED FREE ENERGY PREDICTED BY IDOCK:   -3.02 KCAL/MOL
REMARK 922        TOTAL FREE ENERGY PREDICTED BY IDOCK:   -3.73 KCAL/MOL
REMARK 923 INTER-LIGAND FREE ENERGY PREDICTED BY IDOCK:   -3.43 KCAL/MOL
REMARK 924 INTRA-LIGAND FREE ENERGY PREDICTED BY IDOCK:   -0.31 KCAL/MOL
REMARK 927      BINDING AFFINITY PREDICTED BY RF-SCORE:    0.00 PKD
ROOT
HETATM    1  N   UNL     1     -13.272  10.448  69.694  1.00  0.00    -0.239 NA 
HETATM    2  C   UNL     1     -11.955  10.242  69.900  1.00  0.00    -0.150 C  
HETATM    3  H2  UNL     1     -13.860  11.038  70.282  1.00  0.00     0.000 HD 
HETATM    4  H1  UNL     1     -13.604   9.941  68.874  1.00  0.00     0.000 HD 
HETATM    5  N   UNL     1     -11.516  10.915  70.985  1.00  0.00    -0.210 NA 
HETATM    6  N   UNL     1     -11.295   9.503  69.082  1.00  0.00    -0.449 NA 
HETATM    7  H1  UNL     1     -10.519  10.759  71.141  1.00  0.00     0.000 HD 
HETATM    8  H2  UNL     1     -12.104  11.504  71.574  1.00  0.00     0.000 HD 
HETATM    9  H   UNL     1     -11.742   9.043  68.290  1.00  0.00     0.000 HD 
ENDROOT
BRANCH   6  10
HETATM   10  C   UNL     1      -9.861   9.357  69.354  1.00  0.00    -0.178 C  
BRANCH  10  11
HETATM   11  C   UNL     1      -9.025   9.846  68.155  1.00  0.00    -0.118 C  
BRANCH  11  12
HETATM   12  N   UNL     1      -9.531  11.117  67.581  1.00  0.00    -0.164 NA 
HETATM   13  C   UNL     1      -8.554  12.207  67.697  1.00  0.00    -0.166 C  
HETATM   14  C   UNL     1      -9.134  13.623  67.583  1.00  0.00    -0.207 C  
HETATM   15  C   UNL     1     -10.479  13.808  68.291  1.00  0.00    -0.251 C  
HETATM   16  C   UNL     1     -11.690  13.779  67.354  1.00  0.00    -0.417 C  
HETATM   17  C   UNL     1     -12.005  12.444  66.673  1.00  0.00    -0.300 C  
HETATM   18  C   UNL     1     -10.949  11.981  65.663  1.00  0.00    -0.343 C  
HETATM   19  C   UNL     1      -9.990  10.908  66.201  1.00  0.00    -0.233 C  
ENDBRANCH  11  12
ENDBRANCH  10  11
ENDBRANCH   6  10
TORSDOF 3
ENDMDL
MODEL      177
REMARK 921   NORMALIZED FREE ENERGY PREDICTED BY IDOCK:   -3.02 KCAL/MOL
REMARK 922        TOTAL FREE ENERGY PREDICTED BY IDOCK:   -3.73 KCAL/MOL
REMARK 923 INTER-LIGAND FREE ENERGY PREDICTED BY IDOCK:   -3.52 KCAL/MOL
REMARK 924 INTRA-LIGAND FREE ENERGY PREDICTED BY IDOCK:   -0.22 KCAL/MOL
REMARK 927      BINDING AFFINITY PREDICTED BY RF-SCORE:    0.00 PKD
ROOT
HETATM    1  N   UNL     1      -6.597   8.367  64.901  1.00  0.00    -0.067 NA 
HETATM    2  C   UNL     1      -7.930   8.531  65.027  1.00  0.00    -0.131 C  
HETATM    3  H2  UNL     1      -6.132   8.071  64.044  1.00  0.00     0.000 HD 
HETATM    4  H1  UNL     1      -6.113   8.579  65.774  1.00  0.00     0.000 HD 
HETATM    5  N   UNL     1      -8.570   8.251  63.871  1.00  0.00    -0.400 NA 
HETATM    6  N   UNL     1      -8.416   8.936  66.144  1.00  0.00    -0.120 NA 
HETATM    7  H1  UNL     1      -9.579   8.375  63.965  1.00  0.00     0.000 HD 
HETATM    8  H2  UNL     1      -8.105   7.955  63.013  1.00  0.00     0.000 HD 
HETATM    9  H   UNL     1      -7.825   9.117  66.955  1.00  0.00     0.000 HD 
ENDROOT
BRANCH   6  10
HETATM   10  C   UNL     1      -9.870   9.125  66.188  1.00  0.00    -0.293 C  
BRANCH  10  11
HETATM   11  C   UNL     1     -10.253  10.174  67.251  1.00  0.00    -0.222 C  
BRANCH  11  12
HETATM   12  N   UNL     1     -10.684  11.463  66.656  1.00  0.00    -0.259 NA 
HETATM   13  C   UNL     1     -11.402  11.278  65.389  1.00  0.00     0.097 C  
HETATM   14  C   UNL     1     -11.462  12.514  64.481  1.00  0.00    -0.391 C  
HETATM   15  C   UNL     1     -10.163  13.324  64.440  1.00  0.00    -0.300 C  
HETATM   16  C   UNL     1     -10.181  14.583  65.311  1.00  0.00    -0.431 C  
HETATM   17  C   UNL     1     -10.237  14.374  66.827  1.00  0.00    -0.270 C  
HETATM   18  C   UNL     1     -11.543  13.751  67.335  1.00  0.00    -0.393 C  
HETATM   19  C   UNL     1     -11.448  12.248  67.635  1.00  0.00    -0.336 C  
ENDBRANCH  11  12
ENDBRANCH  10  11
ENDBRANCH   6  10
TORSDOF 3
ENDMDL
MODEL      178
REMARK 921   NORMALIZED FREE ENERGY PREDICTED BY IDOCK:   -2.98 KCAL/MOL
REMARK 922        TOTAL FREE ENERGY PREDICTED BY IDOCK:   -3.69 KCAL/MOL
REMARK 923 INTER-LIGAND FREE ENERGY PREDICTED BY IDOCK:   -3.52 KCAL/MOL
REMARK 924 INTRA-LIGAND FREE ENERGY PREDICTED BY IDOCK:   -0.18 KCAL/MOL
REMARK 927      BINDING AFFINITY PREDICTED BY RF-SCORE:    0.00 PKD
ROOT
HETATM    1  N   UNL     1     -11.135   5.496  66.080  1.00  0.00    -0.778 NA 
HETATM    2  C   UNL     1     -10.499   6.021  67.148  1.00  0.00    -0.264 C  
HETATM    3  H2  UNL     1     -10.684   4.928  65.364  1.00  0.00     0.000 HD 
HETATM    4  H1  UNL     1     -12.126   5.739  66.081  1.00  0.00     0.000 HD 
HETATM    5  N   UNL     1      -9.188   5.698  67.146  1.00  0.00    -0.114 NA 
HETATM    6  N   UNL     1     -11.166   6.699  68.010  1.00  0.00    -0.558 NA 
HETATM    7  H1  UNL     1      -8.707   6.095  67.954  1.00  0.00     0.000 HD 
HETATM    8  H2  UNL     1      -8.736   5.130  66.430  1.00  0.00     0.000 HD 
HETATM    9  H   UNL     1     -12.164   6.877  67.902  1.00  0.00     0.000 HD 
ENDROOT
BRANCH   6  10
HETATM   10  C   UNL     1     -10.410   7.205  69.161  1.00  0.00    -0.200 C  
BRANCH  10  11
HETATM   11  C   UNL     1     -10.853   8.637  69.520  1.00  0.00    -0.129 C  
BRANCH  11  12
HETATM   12  N   UNL     1     -10.200   9.669  68.677  1.00  0.00    -0.182 NA 
HETATM   13  C   UNL     1      -8.908   9.216  68.147  1.00  0.00    -0.129 C  
HETATM   14  C   UNL     1      -7.961  10.333  67.684  1.00  0.00    -0.102 C  
HETATM   15  C   UNL     1      -7.954  11.565  68.594  1.00  0.00    -0.135 C  
HETATM   16  C   UNL     1      -8.784  12.738  68.066  1.00  0.00    -0.194 C  
HETATM   17  C   UNL     1     -10.302  12.541  68.010  1.00  0.00    -0.226 C  
HETATM   18  C   UNL     1     -10.769  11.485  67.001  1.00  0.00    -0.300 C  
HETATM   19  C   UNL     1     -11.119  10.127  67.626  1.00  0.00    -0.206 C  
ENDBRANCH  11  12
ENDBRANCH  10  11
ENDBRANCH   6  10
TORSDOF 3
ENDMDL
MODEL      179
REMARK 921   NORMALIZED FREE ENERGY PREDICTED BY IDOCK:   -2.98 KCAL/MOL
REMARK 922        TOTAL FREE ENERGY PREDICTED BY IDOCK:   -3.69 KCAL/MOL
REMARK 923 INTER-LIGAND FREE ENERGY PREDICTED BY IDOCK:   -3.48 KCAL/MOL
REMARK 924 INTRA-LIGAND FREE ENERGY PREDICTED BY IDOCK:   -0.21 KCAL/MOL
REMARK 927      BINDING AFFINITY PREDICTED BY RF-SCORE:    0.00 PKD
ROOT
HETATM    1  N   UNL     1      -9.321   5.654  65.260  1.00  0.00    -0.361 NA 
HETATM    2  C   UNL     1      -8.986   6.640  66.117  1.00  0.00    -0.139 C  
HETATM    3  H2  UNL     1      -8.904   4.724  65.262  1.00  0.00     0.000 HD 
HETATM    4  H1  UNL     1     -10.046   5.957  64.610  1.00  0.00     0.000 HD 
HETATM    5  N   UNL     1      -8.026   6.238  66.978  1.00  0.00    -0.108 NA 
HETATM    6  N   UNL     1      -9.593   7.770  66.050  1.00  0.00    -0.433 NA 
HETATM    7  H1  UNL     1      -7.773   6.983  67.627  1.00  0.00     0.000 HD 
HETATM    8  H2  UNL     1      -7.609   5.308  66.981  1.00  0.00     0.000 HD 
HETATM    9  H   UNL     1     -10.309   7.956  65.349  1.00  0.00     0.000 HD 
ENDROOT
BRANCH   6  10
HETATM   10  C   UNL     1      -9.197   8.777  67.041  1.00  0.00    -0.142 C  
BRANCH  10  11
HETATM   11  C   UNL     1      -8.645  10.038  66.347  1.00  0.00    -0.129 C  
BRANCH  11  12
HETATM   12  N   UNL     1      -9.305  11.284  66.810  1.00  0.00    -0.174 NA 
HETATM   13  C   UNL     1     -10.194  11.049  67.955  1.00  0.00    -0.182 C  
HETATM   14  C   UNL     1     -11.255  12.132  68.194  1.00  0.00    -0.320 C  
HETATM   15  C   UNL     1     -11.891  12.680  66.913  1.00  0.00    -0.425 C  
HETATM   16  C   UNL     1     -11.334  14.035  66.467  1.00  0.00    -0.343 C  
HETATM   17  C   UNL     1      -9.877  14.061  65.993  1.00  0.00    -0.316 C  
HETATM   18  C   UNL     1      -8.847  13.763  67.089  1.00  0.00    -0.240 C  
HETATM   19  C   UNL     1      -8.303  12.327  67.070  1.00  0.00    -0.168 C  
ENDBRANCH  11  12
ENDBRANCH  10  11
ENDBRANCH   6  10
TORSDOF 3
ENDMDL
MODEL      180
REMARK 921   NORMALIZED FREE ENERGY PREDICTED BY IDOCK:   -2.96 KCAL/MOL
REMARK 922        TOTAL FREE ENERGY PREDICTED BY IDOCK:   -3.67 KCAL/MOL
REMARK 923 INTER-LIGAND FREE ENERGY PREDICTED BY IDOCK:   -3.50 KCAL/MOL
REMARK 924 INTRA-LIGAND FREE ENERGY PREDICTED BY IDOCK:   -0.17 KCAL/MOL
REMARK 927      BINDING AFFINITY PREDICTED BY RF-SCORE:    0.00 PKD
ROOT
HETATM    1  N   UNL     1     -13.243  10.113  70.703  1.00  0.00    -0.575 NA 
HETATM    2  C   UNL     1     -12.036  10.533  70.273  1.00  0.00    -0.325 C  
HETATM    3  H2  UNL     1     -13.384   9.366  71.383  1.00  0.00     0.000 HD 
HETATM    4  H1  UNL     1     -13.998  10.639  70.262  1.00  0.00     0.000 HD 
HETATM    5  N   UNL     1     -11.036   9.837  70.857  1.00  0.00    -0.334 NA 
HETATM    6  N   UNL     1     -11.965  11.503  69.435  1.00  0.00    -0.326 NA 
HETATM    7  H1  UNL     1     -10.123  10.155  70.532  1.00  0.00     0.000 HD 
HETATM    8  H2  UNL     1     -11.177   9.090  71.536  1.00  0.00     0.000 HD 
HETATM    9  H   UNL     1     -12.800  11.955  69.061  1.00  0.00     0.000 HD 
ENDROOT
BRANCH   6  10
HETATM   10  C   UNL     1     -10.615  11.925  69.044  1.00  0.00    -0.115 C  
BRANCH  10  11
HETATM   11  C   UNL     1     -10.616  12.506  67.617  1.00  0.00    -0.217 C  
BRANCH  11  12
HETATM   12  N   UNL     1      -9.509  13.468  67.387  1.00  0.00    -0.218 NA 
HETATM   13  C   UNL     1      -8.193  12.817  67.420  1.00  0.00    -0.186 C  
HETATM   14  C   UNL     1      -7.004  13.754  67.671  1.00  0.00    -0.186 C  
HETATM   15  C   UNL     1      -7.274  14.845  68.711  1.00  0.00    -0.123 C  
HETATM   16  C   UNL     1      -7.585  16.219  68.112  1.00  0.00    -0.151 C  
HETATM   17  C   UNL     1      -8.899  16.354  67.336  1.00  0.00    -0.194 C  
HETATM   18  C   UNL     1      -8.956  15.542  66.036  1.00  0.00    -0.250 C  
HETATM   19  C   UNL     1      -9.738  14.225  66.149  1.00  0.00    -0.303 C  
ENDBRANCH  11  12
ENDBRANCH  10  11
ENDBRANCH   6  10
TORSDOF 3
ENDMDL
MODEL      181
REMARK 921   NORMALIZED FREE ENERGY PREDICTED BY IDOCK:   -2.93 KCAL/MOL
REMARK 922        TOTAL FREE ENERGY PREDICTED BY IDOCK:   -3.63 KCAL/MOL
REMARK 923 INTER-LIGAND FREE ENERGY PREDICTED BY IDOCK:   -3.44 KCAL/MOL
REMARK 924 INTRA-LIGAND FREE ENERGY PREDICTED BY IDOCK:   -0.19 KCAL/MOL
REMARK 927      BINDING AFFINITY PREDICTED BY RF-SCORE:    0.00 PKD
ROOT
HETATM    1  N   UNL     1      -7.351   6.811  69.049  1.00  0.00    -0.091 NA 
HETATM    2  C   UNL     1      -8.210   7.321  68.142  1.00  0.00    -0.124 C  
HETATM    3  H2  UNL     1      -7.204   5.814  69.204  1.00  0.00     0.000 HD 
HETATM    4  H1  UNL     1      -6.867   7.550  69.559  1.00  0.00     0.000 HD 
HETATM    5  N   UNL     1      -8.850   6.343  67.466  1.00  0.00    -0.112 NA 
HETATM    6  N   UNL     1      -8.301   8.595  68.004  1.00  0.00    -0.122 NA 
HETATM    7  H1  UNL     1      -9.499   6.729  66.780  1.00  0.00     0.000 HD 
HETATM    8  H2  UNL     1      -8.703   5.346  67.621  1.00  0.00     0.000 HD 
HETATM    9  H   UNL     1      -7.759   9.240  68.579  1.00  0.00     0.000 HD 
ENDROOT
BRANCH   6  10
HETATM   10  C   UNL     1      -9.229   9.070  66.972  1.00  0.00    -0.136 C  
BRANCH  10  11
HETATM   11  C   UNL     1      -9.826  10.436  67.361  1.00  0.00    -0.178 C  
BRANCH  11  12
HETATM   12  N   UNL     1      -9.962  11.355  66.203  1.00  0.00    -0.219 NA 
HETATM   13  C   UNL     1      -9.511  12.717  66.520  1.00  0.00    -0.247 C  
HETATM   14  C   UNL     1     -10.039  13.815  65.588  1.00  0.00    -0.315 C  
HETATM   15  C   UNL     1     -11.504  13.638  65.177  1.00  0.00    -0.328 C  
HETATM   16  C   UNL     1     -11.696  13.055  63.775  1.00  0.00    -0.547 C  
HETATM   17  C   UNL     1     -11.253  11.604  63.563  1.00  0.00    -0.462 C  
HETATM   18  C   UNL     1      -9.741  11.379  63.677  1.00  0.00    -0.337 C  
HETATM   19  C   UNL     1      -9.291  10.793  65.024  1.00  0.00    -0.223 C  
ENDBRANCH  11  12
ENDBRANCH  10  11
ENDBRANCH   6  10
TORSDOF 3
ENDMDL
MODEL      182
REMARK 921   NORMALIZED FREE ENERGY PREDICTED BY IDOCK:   -2.92 KCAL/MOL
REMARK 922        TOTAL FREE ENERGY PREDICTED BY IDOCK:   -3.62 KCAL/MOL
REMARK 923 INTER-LIGAND FREE ENERGY PREDICTED BY IDOCK:   -3.33 KCAL/MOL
REMARK 924 INTRA-LIGAND FREE ENERGY PREDICTED BY IDOCK:   -0.30 KCAL/MOL
REMARK 927      BINDING AFFINITY PREDICTED BY RF-SCORE:    0.00 PKD
ROOT
HETATM    1  N   UNL     1      -8.001  10.308  67.584  1.00  0.00    -0.102 NA 
HETATM    2  C   UNL     1      -9.152  10.828  68.057  1.00  0.00    -0.150 C  
HETATM    3  H2  UNL     1      -7.221  10.863  67.232  1.00  0.00     0.000 HD 
HETATM    4  H1  UNL     1      -8.010   9.289  67.624  1.00  0.00     0.000 HD 
HETATM    5  N   UNL     1      -9.140  12.178  68.004  1.00  0.00    -0.184 NA 
HETATM    6  N   UNL     1     -10.064  10.043  68.505  1.00  0.00    -0.163 NA 
HETATM    7  H1  UNL     1     -10.011  12.571  68.362  1.00  0.00     0.000 HD 
HETATM    8  H2  UNL     1      -8.360  12.732  67.652  1.00  0.00     0.000 HD 
HETATM    9  H   UNL     1      -9.957   9.029  68.492  1.00  0.00     0.000 HD 
ENDROOT
BRANCH   6  10
HETATM   10  C   UNL     1     -11.271  10.687  69.035  1.00  0.00    -0.265 C  
BRANCH  10  11
HETATM   11  C   UNL     1     -11.529  10.250  70.491  1.00  0.00    -0.343 C  
BRANCH  11  12
HETATM   12  N   UNL     1     -11.031   8.881  70.777  1.00  0.00    -0.240 NA 
HETATM   13  C   UNL     1     -10.024   8.870  71.845  1.00  0.00    -0.314 C  
HETATM   14  C   UNL     1      -9.124   7.627  71.884  1.00  0.00    -0.158 C  
HETATM   15  C   UNL     1      -8.690   7.124  70.504  1.00  0.00    -0.149 C  
HETATM   16  C   UNL     1      -9.483   5.915  69.999  1.00  0.00    -0.189 C  
HETATM   17  C   UNL     1     -10.961   6.147  69.671  1.00  0.00    -0.459 C  
HETATM   18  C   UNL     1     -11.837   6.479  70.884  1.00  0.00    -0.391 C  
HETATM   19  C   UNL     1     -12.155   7.974  71.042  1.00  0.00    -0.217 C  
ENDBRANCH  11  12
ENDBRANCH  10  11
ENDBRANCH   6  10
TORSDOF 3
ENDMDL
MODEL      183
REMARK 921   NORMALIZED FREE ENERGY PREDICTED BY IDOCK:   -2.91 KCAL/MOL
REMARK 922        TOTAL FREE ENERGY PREDICTED BY IDOCK:   -3.61 KCAL/MOL
REMARK 923 INTER-LIGAND FREE ENERGY PREDICTED BY IDOCK:   -3.26 KCAL/MOL
REMARK 924 INTRA-LIGAND FREE ENERGY PREDICTED BY IDOCK:   -0.35 KCAL/MOL
REMARK 927      BINDING AFFINITY PREDICTED BY RF-SCORE:    0.00 PKD
ROOT
HETATM    1  N   UNL     1      -7.876   7.652  73.674  1.00  0.00    -0.127 NA 
HETATM    2  C   UNL     1      -9.144   7.963  73.334  1.00  0.00    -0.283 C  
HETATM    3  H2  UNL     1      -7.623   6.961  74.380  1.00  0.00     0.000 HD 
HETATM    4  H1  UNL     1      -7.203   8.194  73.133  1.00  0.00     0.000 HD 
HETATM    5  N   UNL     1     -10.036   7.244  74.050  1.00  0.00    -0.415 NA 
HETATM    6  N   UNL     1      -9.357   8.828  72.409  1.00  0.00    -0.351 NA 
HETATM    7  H1  UNL     1     -10.995   7.480  73.793  1.00  0.00     0.000 HD 
HETATM    8  H2  UNL     1      -9.783   6.554  74.757  1.00  0.00     0.000 HD 
HETATM    9  H   UNL     1      -8.593   9.310  71.936  1.00  0.00     0.000 HD 
ENDROOT
BRANCH   6  10
HETATM   10  C   UNL     1     -10.762   9.085  72.073  1.00  0.00    -0.263 C  
BRANCH  10  11
HETATM   11  C   UNL     1     -10.957   9.137  70.545  1.00  0.00    -0.258 C  
BRANCH  11  12
HETATM   12  N   UNL     1     -10.329   7.988  69.846  1.00  0.00    -0.216 NA 
HETATM   13  C   UNL     1     -11.054   6.733  70.077  1.00  0.00    -0.315 C  
HETATM   14  C   UNL     1     -10.250   5.452  69.813  1.00  0.00    -0.348 C  
HETATM   15  C   UNL     1      -8.794   5.519  70.284  1.00  0.00    -0.140 C  
HETATM   16  C   UNL     1      -7.785   5.784  69.163  1.00  0.00    -0.090 C  
HETATM   17  C   UNL     1      -7.841   7.160  68.494  1.00  0.00    -0.122 C  
HETATM   18  C   UNL     1      -9.119   7.424  67.689  1.00  0.00    -0.126 C  
HETATM   19  C   UNL     1     -10.155   8.292  68.419  1.00  0.00    -0.201 C  
ENDBRANCH  11  12
ENDBRANCH  10  11
ENDBRANCH   6  10
TORSDOF 3
ENDMDL
MODEL      184
REMARK 921   NORMALIZED FREE ENERGY PREDICTED BY IDOCK:   -2.91 KCAL/MOL
REMARK 922        TOTAL FREE ENERGY PREDICTED BY IDOCK:   -3.60 KCAL/MOL
REMARK 923 INTER-LIGAND FREE ENERGY PREDICTED BY IDOCK:   -3.46 KCAL/MOL
REMARK 924 INTRA-LIGAND FREE ENERGY PREDICTED BY IDOCK:   -0.15 KCAL/MOL
REMARK 927      BINDING AFFINITY PREDICTED BY RF-SCORE:    0.00 PKD
ROOT
HETATM    1  N   UNL     1     -12.882  10.025  72.050  1.00  0.00    -0.408 NA 
HETATM    2  C   UNL     1     -12.967   8.705  71.783  1.00  0.00    -0.359 C  
HETATM    3  H2  UNL     1     -13.641  10.690  71.907  1.00  0.00     0.000 HD 
HETATM    4  H1  UNL     1     -11.961  10.272  72.413  1.00  0.00     0.000 HD 
HETATM    5  N   UNL     1     -14.186   8.378  71.303  1.00  0.00    -0.632 NA 
HETATM    6  N   UNL     1     -11.961   7.945  72.025  1.00  0.00    -0.304 NA 
HETATM    7  H1  UNL     1     -14.251   7.380  71.102  1.00  0.00     0.000 HD 
HETATM    8  H2  UNL     1     -14.946   9.044  71.161  1.00  0.00     0.000 HD 
HETATM    9  H   UNL     1     -11.083   8.312  72.392  1.00  0.00     0.000 HD 
ENDROOT
BRANCH   6  10
HETATM   10  C   UNL     1     -12.145   6.517  71.743  1.00  0.00    -0.342 C  
BRANCH  10  11
HETATM   11  C   UNL     1     -10.907   5.935  71.033  1.00  0.00    -0.273 C  
BRANCH  11  12
HETATM   12  N   UNL     1      -9.648   6.181  71.780  1.00  0.00    -0.151 NA 
HETATM   13  C   UNL     1      -8.924   4.937  72.072  1.00  0.00    -0.131 C  
HETATM   14  C   UNL     1      -7.903   5.026  73.214  1.00  0.00    -0.097 C  
HETATM   15  C   UNL     1      -8.370   5.863  74.409  1.00  0.00    -0.112 C  
HETATM   16  C   UNL     1      -7.785   7.278  74.449  1.00  0.00    -0.158 C  
HETATM   17  C   UNL     1      -8.229   8.241  73.344  1.00  0.00    -0.242 C  
HETATM   18  C   UNL     1      -7.752   7.859  71.938  1.00  0.00    -0.104 C  
HETATM   19  C   UNL     1      -8.821   7.170  71.076  1.00  0.00    -0.145 C  
ENDBRANCH  11  12
ENDBRANCH  10  11
ENDBRANCH   6  10
TORSDOF 3
ENDMDL
MODEL      185
REMARK 921   NORMALIZED FREE ENERGY PREDICTED BY IDOCK:   -2.90 KCAL/MOL
REMARK 922        TOTAL FREE ENERGY PREDICTED BY IDOCK:   -3.60 KCAL/MOL
REMARK 923 INTER-LIGAND FREE ENERGY PREDICTED BY IDOCK:   -3.39 KCAL/MOL
REMARK 924 INTRA-LIGAND FREE ENERGY PREDICTED BY IDOCK:   -0.21 KCAL/MOL
REMARK 927      BINDING AFFINITY PREDICTED BY RF-SCORE:    0.00 PKD
ROOT
HETATM    1  N   UNL     1      -8.639   9.644  67.046  1.00  0.00    -0.127 NA 
HETATM    2  C   UNL     1      -8.393  10.970  67.017  1.00  0.00    -0.137 C  
HETATM    3  H2  UNL     1      -8.224   8.969  66.405  1.00  0.00     0.000 HD 
HETATM    4  H1  UNL     1      -9.293   9.404  67.790  1.00  0.00     0.000 HD 
HETATM    5  N   UNL     1      -7.527  11.288  66.030  1.00  0.00    -0.365 NA 
HETATM    6  N   UNL     1      -8.946  11.735  67.888  1.00  0.00    -0.172 NA 
HETATM    7  H1  UNL     1      -7.340  12.291  66.008  1.00  0.00     0.000 HD 
HETATM    8  H2  UNL     1      -7.111  10.613  65.390  1.00  0.00     0.000 HD 
HETATM    9  H   UNL     1      -9.589  11.374  68.591  1.00  0.00     0.000 HD 
ENDROOT
BRANCH   6  10
HETATM   10  C   UNL     1      -8.599  13.159  67.812  1.00  0.00    -0.188 C  
BRANCH  10  11
HETATM   11  C   UNL     1      -9.855  14.015  67.552  1.00  0.00    -0.236 C  
BRANCH  11  12
HETATM   12  N   UNL     1      -9.594  15.470  67.675  1.00  0.00    -0.210 NA 
HETATM   13  C   UNL     1     -10.827  16.239  67.889  1.00  0.00    -0.330 C  
HETATM   14  C   UNL     1     -10.734  17.734  67.555  1.00  0.00    -0.315 C  
HETATM   15  C   UNL     1      -9.922  18.045  66.294  1.00  0.00    -0.338 C  
HETATM   16  C   UNL     1      -8.497  18.532  66.570  1.00  0.00    -0.291 C  
HETATM   17  C   UNL     1      -7.528  17.518  67.186  1.00  0.00    -0.218 C  
HETATM   18  C   UNL     1      -7.881  17.088  68.615  1.00  0.00    -0.257 C  
HETATM   19  C   UNL     1      -8.579  15.723  68.707  1.00  0.00    -0.203 C  
ENDBRANCH  11  12
ENDBRANCH  10  11
ENDBRANCH   6  10
TORSDOF 3
ENDMDL
MODEL      186
REMARK 921   NORMALIZED FREE ENERGY PREDICTED BY IDOCK:   -2.90 KCAL/MOL
REMARK 922        TOTAL FREE ENERGY PREDICTED BY IDOCK:   -3.60 KCAL/MOL
REMARK 923 INTER-LIGAND FREE ENERGY PREDICTED BY IDOCK:   -3.41 KCAL/MOL
REMARK 924 INTRA-LIGAND FREE ENERGY PREDICTED BY IDOCK:   -0.19 KCAL/MOL
REMARK 927      BINDING AFFINITY PREDICTED BY RF-SCORE:    0.00 PKD
ROOT
HETATM    1  N   UNL     1      -9.039   5.047  64.990  1.00  0.00    -0.256 NA 
HETATM    2  C   UNL     1      -8.714   6.210  65.591  1.00  0.00    -0.126 C  
HETATM    3  H2  UNL     1      -8.382   4.286  64.818  1.00  0.00     0.000 HD 
HETATM    4  H1  UNL     1     -10.025   5.025  64.731  1.00  0.00     0.000 HD 
HETATM    5  N   UNL     1      -7.408   6.238  65.935  1.00  0.00    -0.078 NA 
HETATM    6  N   UNL     1      -9.623   7.096  65.787  1.00  0.00    -0.302 NA 
HETATM    7  H1  UNL     1      -7.163   7.118  66.390  1.00  0.00     0.000 HD 
HETATM    8  H2  UNL     1      -6.752   5.477  65.763  1.00  0.00     0.000 HD 
HETATM    9  H   UNL     1     -10.585   6.958  65.479  1.00  0.00     0.000 HD 
ENDROOT
BRANCH   6  10
HETATM   10  C   UNL     1      -9.198   8.317  66.480  1.00  0.00    -0.187 C  
BRANCH  10  11
HETATM   11  C   UNL     1     -10.410   9.053  67.085  1.00  0.00    -0.272 C  
BRANCH  11  12
HETATM   12  N   UNL     1     -10.195   9.449  68.498  1.00  0.00    -0.192 NA 
HETATM   13  C   UNL     1      -8.787   9.754  68.781  1.00  0.00    -0.129 C  
HETATM   14  C   UNL     1      -8.390   9.703  70.263  1.00  0.00    -0.216 C  
HETATM   15  C   UNL     1      -9.030   8.552  71.044  1.00  0.00    -0.219 C  
HETATM   16  C   UNL     1     -10.231   8.966  71.899  1.00  0.00    -0.403 C  
HETATM   17  C   UNL     1     -11.487   9.421  71.150  1.00  0.00    -0.422 C  
HETATM   18  C   UNL     1     -11.323  10.733  70.373  1.00  0.00    -0.342 C  
HETATM   19  C   UNL     1     -11.100  10.547  68.864  1.00  0.00    -0.261 C  
ENDBRANCH  11  12
ENDBRANCH  10  11
ENDBRANCH   6  10
TORSDOF 3
ENDMDL
MODEL      187
REMARK 921   NORMALIZED FREE ENERGY PREDICTED BY IDOCK:   -2.88 KCAL/MOL
REMARK 922        TOTAL FREE ENERGY PREDICTED BY IDOCK:   -3.58 KCAL/MOL
REMARK 923 INTER-LIGAND FREE ENERGY PREDICTED BY IDOCK:   -3.22 KCAL/MOL
REMARK 924 INTRA-LIGAND FREE ENERGY PREDICTED BY IDOCK:   -0.35 KCAL/MOL
REMARK 927      BINDING AFFINITY PREDICTED BY RF-SCORE:    0.00 PKD
ROOT
HETATM    1  N   UNL     1     -10.953   7.837  67.915  1.00  0.00    -0.484 NA 
HETATM    2  C   UNL     1     -10.531   8.179  69.150  1.00  0.00    -0.206 C  
HETATM    3  H2  UNL     1     -10.379   7.352  67.226  1.00  0.00     0.000 HD 
HETATM    4  H1  UNL     1     -11.918   8.127  67.758  1.00  0.00     0.000 HD 
HETATM    5  N   UNL     1      -9.253   7.796  69.357  1.00  0.00    -0.149 NA 
HETATM    6  N   UNL     1     -11.342   8.766  69.955  1.00  0.00    -0.445 NA 
HETATM    7  H1  UNL     1      -8.934   8.054  70.291  1.00  0.00     0.000 HD 
HETATM    8  H2  UNL     1      -8.680   7.310  68.668  1.00  0.00     0.000 HD 
HETATM    9  H   UNL     1     -12.294   9.006  69.681  1.00  0.00     0.000 HD 
ENDROOT
BRANCH   6  10
HETATM   10  C   UNL     1     -10.819   9.071  71.292  1.00  0.00    -0.315 C  
BRANCH  10  11
HETATM   11  C   UNL     1     -11.213   7.970  72.297  1.00  0.00    -0.341 C  
BRANCH  11  12
HETATM   12  N   UNL     1     -10.040   7.236  72.833  1.00  0.00    -0.205 NA 
HETATM   13  C   UNL     1      -8.843   8.083  72.912  1.00  0.00    -0.224 C  
HETATM   14  C   UNL     1      -7.509   7.328  72.988  1.00  0.00    -0.081 C  
HETATM   15  C   UNL     1      -7.437   6.091  72.088  1.00  0.00    -0.095 C  
HETATM   16  C   UNL     1      -7.654   4.766  72.824  1.00  0.00    -0.091 C  
HETATM   17  C   UNL     1      -9.052   4.514  73.396  1.00  0.00    -0.116 C  
HETATM   18  C   UNL     1      -9.450   5.455  74.540  1.00  0.00    -0.151 C  
HETATM   19  C   UNL     1     -10.376   6.605  74.117  1.00  0.00    -0.321 C  
ENDBRANCH  11  12
ENDBRANCH  10  11
ENDBRANCH   6  10
TORSDOF 3
ENDMDL
MODEL      188
REMARK 921   NORMALIZED FREE ENERGY PREDICTED BY IDOCK:   -2.88 KCAL/MOL
REMARK 922        TOTAL FREE ENERGY PREDICTED BY IDOCK:   -3.57 KCAL/MOL
REMARK 923 INTER-LIGAND FREE ENERGY PREDICTED BY IDOCK:   -3.36 KCAL/MOL
REMARK 924 INTRA-LIGAND FREE ENERGY PREDICTED BY IDOCK:   -0.22 KCAL/MOL
REMARK 927      BINDING AFFINITY PREDICTED BY RF-SCORE:    0.00 PKD
ROOT
HETATM    1  N   UNL     1      -6.208   9.848  68.661  1.00  0.00    -0.042 NA 
HETATM    2  C   UNL     1      -7.175   8.925  68.479  1.00  0.00    -0.073 C  
HETATM    3  H2  UNL     1      -5.540  10.129  67.944  1.00  0.00     0.000 HD 
HETATM    4  H1  UNL     1      -6.232  10.230  69.606  1.00  0.00     0.000 HD 
HETATM    5  N   UNL     1      -7.143   8.420  67.227  1.00  0.00    -0.078 NA 
HETATM    6  N   UNL     1      -7.987   8.662  69.439  1.00  0.00    -0.100 NA 
HETATM    7  H1  UNL     1      -7.875   7.722  67.089  1.00  0.00     0.000 HD 
HETATM    8  H2  UNL     1      -6.475   8.702  66.510  1.00  0.00     0.000 HD 
HETATM    9  H   UNL     1      -7.909   9.113  70.349  1.00  0.00     0.000 HD 
ENDROOT
BRANCH   6  10
HETATM   10  C   UNL     1      -9.032   7.674  69.150  1.00  0.00    -0.135 C  
BRANCH  10  11
HETATM   11  C   UNL     1     -10.392   8.365  68.929  1.00  0.00    -0.215 C  
BRANCH  11  12
HETATM   12  N   UNL     1     -11.242   8.363  70.145  1.00  0.00    -0.193 NA 
HETATM   13  C   UNL     1     -11.047   7.155  70.957  1.00  0.00    -0.260 C  
HETATM   14  C   UNL     1     -12.183   6.835  71.939  1.00  0.00    -0.377 C  
HETATM   15  C   UNL     1     -13.586   7.086  71.377  1.00  0.00    -0.312 C  
HETATM   16  C   UNL     1     -14.224   8.395  71.849  1.00  0.00    -0.541 C  
HETATM   17  C   UNL     1     -13.579   9.695  71.358  1.00  0.00    -0.343 C  
HETATM   18  C   UNL     1     -12.166   9.946  71.899  1.00  0.00    -0.333 C  
HETATM   19  C   UNL     1     -11.042   9.602  70.910  1.00  0.00    -0.352 C  
ENDBRANCH  11  12
ENDBRANCH  10  11
ENDBRANCH   6  10
TORSDOF 3
ENDMDL
MODEL      189
REMARK 921   NORMALIZED FREE ENERGY PREDICTED BY IDOCK:   -2.85 KCAL/MOL
REMARK 922        TOTAL FREE ENERGY PREDICTED BY IDOCK:   -3.54 KCAL/MOL
REMARK 923 INTER-LIGAND FREE ENERGY PREDICTED BY IDOCK:   -3.45 KCAL/MOL
REMARK 924 INTRA-LIGAND FREE ENERGY PREDICTED BY IDOCK:   -0.09 KCAL/MOL
REMARK 927      BINDING AFFINITY PREDICTED BY RF-SCORE:    0.00 PKD
ROOT
HETATM    1  N   UNL     1     -12.071   5.409  72.848  1.00  0.00    -0.479 NA 
HETATM    2  C   UNL     1     -11.040   5.900  72.131  1.00  0.00    -0.281 C  
HETATM    3  H2  UNL     1     -11.980   4.994  73.775  1.00  0.00     0.000 HD 
HETATM    4  H1  UNL     1     -12.953   5.506  72.346  1.00  0.00     0.000 HD 
HETATM    5  N   UNL     1      -9.872   5.772  72.797  1.00  0.00    -0.159 NA 
HETATM    6  N   UNL     1     -11.264   6.430  70.982  1.00  0.00    -0.298 NA 
HETATM    7  H1  UNL     1      -9.092   6.144  72.254  1.00  0.00     0.000 HD 
HETATM    8  H2  UNL     1      -9.781   5.357  73.723  1.00  0.00     0.000 HD 
HETATM    9  H   UNL     1     -12.200   6.469  70.580  1.00  0.00     0.000 HD 
ENDROOT
BRANCH   6  10
HETATM   10  C   UNL     1     -10.096   6.974  70.281  1.00  0.00    -0.187 C  
BRANCH  10  11
HETATM   11  C   UNL     1     -10.529   7.777  69.038  1.00  0.00    -0.205 C  
BRANCH  11  12
HETATM   12  N   UNL     1     -10.410   9.244  69.232  1.00  0.00    -0.209 NA 
HETATM   13  C   UNL     1     -11.222   9.723  70.358  1.00  0.00    -0.300 C  
HETATM   14  C   UNL     1     -11.542  11.224  70.343  1.00  0.00    -0.319 C  
HETATM   15  C   UNL     1     -11.870  11.781  68.954  1.00  0.00    -0.381 C  
HETATM   16  C   UNL     1     -10.712  12.533  68.292  1.00  0.00    -0.246 C  
HETATM   17  C   UNL     1      -9.489  11.704  67.890  1.00  0.00    -0.181 C  
HETATM   18  C   UNL     1      -8.706  11.115  69.070  1.00  0.00    -0.027 C  
HETATM   19  C   UNL     1      -8.997   9.631  69.341  1.00  0.00    -0.181 C  
ENDBRANCH  11  12
ENDBRANCH  10  11
ENDBRANCH   6  10
TORSDOF 3
ENDMDL
MODEL      190
REMARK 921   NORMALIZED FREE ENERGY PREDICTED BY IDOCK:   -2.84 KCAL/MOL
REMARK 922        TOTAL FREE ENERGY PREDICTED BY IDOCK:   -3.52 KCAL/MOL
REMARK 923 INTER-LIGAND FREE ENERGY PREDICTED BY IDOCK:   -3.70 KCAL/MOL
REMARK 924 INTRA-LIGAND FREE ENERGY PREDICTED BY IDOCK:    0.18 KCAL/MOL
REMARK 927      BINDING AFFINITY PREDICTED BY RF-SCORE:    0.00 PKD
ROOT
HETATM    1  N   UNL     1     -12.024  13.236  62.966  1.00  0.00    -0.769 NA 
HETATM    2  C   UNL     1     -11.545  12.709  64.112  1.00  0.00    -0.394 C  
HETATM    3  H2  UNL     1     -13.011  13.419  62.786  1.00  0.00     0.000 HD 
HETATM    4  H1  UNL     1     -11.273  13.429  62.304  1.00  0.00     0.000 HD 
HETATM    5  N   UNL     1     -12.540  12.454  64.989  1.00  0.00    -0.604 NA 
HETATM    6  N   UNL     1     -10.280  12.543  64.252  1.00  0.00    -0.471 NA 
HETATM    7  H1  UNL     1     -12.178  12.055  65.856  1.00  0.00     0.000 HD 
HETATM    8  H2  UNL     1     -13.527  12.637  64.809  1.00  0.00     0.000 HD 
HETATM    9  H   UNL     1      -9.620  12.776  63.510  1.00  0.00     0.000 HD 
ENDROOT
BRANCH   6  10
HETATM   10  C   UNL     1      -9.836  11.999  65.540  1.00  0.00    -0.229 C  
BRANCH  10  11
HETATM   11  C   UNL     1     -10.266  10.526  65.689  1.00  0.00    -0.246 C  
BRANCH  11  12
HETATM   12  N   UNL     1      -9.134   9.578  65.540  1.00  0.00    -0.195 NA 
HETATM   13  C   UNL     1      -9.398   8.292  66.197  1.00  0.00    -0.188 C  
HETATM   14  C   UNL     1      -8.154   7.449  66.511  1.00  0.00    -0.117 C  
HETATM   15  C   UNL     1      -6.958   8.262  67.015  1.00  0.00    -0.071 C  
HETATM   16  C   UNL     1      -5.890   8.529  65.951  1.00  0.00    -0.047 C  
HETATM   17  C   UNL     1      -6.283   9.451  64.792  1.00  0.00    -0.077 C  
HETATM   18  C   UNL     1      -7.363   8.880  63.865  1.00  0.00    -0.098 C  
HETATM   19  C   UNL     1      -8.772   9.432  64.124  1.00  0.00    -0.198 C  
ENDBRANCH  11  12
ENDBRANCH  10  11
ENDBRANCH   6  10
TORSDOF 3
ENDMDL
MODEL      191
REMARK 921   NORMALIZED FREE ENERGY PREDICTED BY IDOCK:   -2.83 KCAL/MOL
REMARK 922        TOTAL FREE ENERGY PREDICTED BY IDOCK:   -3.51 KCAL/MOL
REMARK 923 INTER-LIGAND FREE ENERGY PREDICTED BY IDOCK:   -3.34 KCAL/MOL
REMARK 924 INTRA-LIGAND FREE ENERGY PREDICTED BY IDOCK:   -0.18 KCAL/MOL
REMARK 927      BINDING AFFINITY PREDICTED BY RF-SCORE:    0.00 PKD
ROOT
HETATM    1  N   UNL     1      -8.397   9.790  66.588  1.00  0.00    -0.123 NA 
HETATM    2  C   UNL     1      -8.936  11.027  66.592  1.00  0.00    -0.168 C  
HETATM    3  H2  UNL     1      -8.887   8.951  66.279  1.00  0.00     0.000 HD 
HETATM    4  H1  UNL     1      -7.438   9.802  66.933  1.00  0.00     0.000 HD 
HETATM    5  N   UNL     1     -10.206  11.011  66.134  1.00  0.00    -0.240 NA 
HETATM    6  N   UNL     1      -8.224  12.025  66.974  1.00  0.00    -0.172 NA 
HETATM    7  H1  UNL     1     -10.614  11.947  66.137  1.00  0.00     0.000 HD 
HETATM    8  H2  UNL     1     -10.696  10.172  65.825  1.00  0.00     0.000 HD 
HETATM    9  H   UNL     1      -7.266  11.910  67.301  1.00  0.00     0.000 HD 
ENDROOT
BRANCH   6  10
HETATM   10  C   UNL     1      -8.870  13.342  66.914  1.00  0.00    -0.178 C  
BRANCH  10  11
HETATM   11  C   UNL     1      -7.876  14.456  67.300  1.00  0.00    -0.163 C  
BRANCH  11  12
HETATM   12  N   UNL     1      -8.465  15.814  67.191  1.00  0.00    -0.191 NA 
HETATM   13  C   UNL     1      -7.507  16.793  66.663  1.00  0.00    -0.273 C  
HETATM   14  C   UNL     1      -7.842  18.262  66.956  1.00  0.00    -0.237 C  
HETATM   15  C   UNL     1      -8.397  18.509  68.362  1.00  0.00    -0.355 C  
HETATM   16  C   UNL     1      -9.919  18.675  68.415  1.00  0.00    -0.428 C  
HETATM   17  C   UNL     1     -10.760  17.438  68.084  1.00  0.00    -0.343 C  
HETATM   18  C   UNL     1     -10.652  16.968  66.628  1.00  0.00    -0.182 C  
HETATM   19  C   UNL     1      -9.716  15.768  66.422  1.00  0.00    -0.282 C  
ENDBRANCH  11  12
ENDBRANCH  10  11
ENDBRANCH   6  10
TORSDOF 3
ENDMDL
MODEL      192
REMARK 921   NORMALIZED FREE ENERGY PREDICTED BY IDOCK:   -2.82 KCAL/MOL
REMARK 922        TOTAL FREE ENERGY PREDICTED BY IDOCK:   -3.50 KCAL/MOL
REMARK 923 INTER-LIGAND FREE ENERGY PREDICTED BY IDOCK:   -3.15 KCAL/MOL
REMARK 924 INTRA-LIGAND FREE ENERGY PREDICTED BY IDOCK:   -0.34 KCAL/MOL
REMARK 927      BINDING AFFINITY PREDICTED BY RF-SCORE:    0.00 PKD
ROOT
HETATM    1  N   UNL     1      -8.162   8.387  74.156  1.00  0.00    -0.339 NA 
HETATM    2  C   UNL     1      -8.698   8.337  72.919  1.00  0.00    -0.221 C  
HETATM    3  H2  UNL     1      -8.507   7.854  74.953  1.00  0.00     0.000 HD 
HETATM    4  H1  UNL     1      -7.367   9.025  74.191  1.00  0.00     0.000 HD 
HETATM    5  N   UNL     1      -9.750   7.492  72.872  1.00  0.00    -0.186 NA 
HETATM    6  N   UNL     1      -8.170   9.027  71.973  1.00  0.00    -0.330 NA 
HETATM    7  H1  UNL     1     -10.156   7.454  71.937  1.00  0.00     0.000 HD 
HETATM    8  H2  UNL     1     -10.096   6.959  73.670  1.00  0.00     0.000 HD 
HETATM    9  H   UNL     1      -7.368   9.636  72.132  1.00  0.00     0.000 HD 
ENDROOT
BRANCH   6  10
HETATM   10  C   UNL     1      -8.788   8.891  70.649  1.00  0.00    -0.198 C  
BRANCH  10  11
HETATM   11  C   UNL     1      -8.081   7.796  69.826  1.00  0.00    -0.117 C  
BRANCH  11  12
HETATM   12  N   UNL     1      -9.025   6.790  69.276  1.00  0.00    -0.137 NA 
HETATM   13  C   UNL     1      -8.860   5.473  69.903  1.00  0.00    -0.127 C  
HETATM   14  C   UNL     1      -9.424   4.291  69.104  1.00  0.00    -0.245 C  
HETATM   15  C   UNL     1      -9.184   4.385  67.593  1.00  0.00    -0.169 C  
HETATM   16  C   UNL     1     -10.402   4.857  66.794  1.00  0.00    -0.264 C  
HETATM   17  C   UNL     1     -10.855   6.303  67.015  1.00  0.00    -0.458 C  
HETATM   18  C   UNL     1     -11.403   6.591  68.417  1.00  0.00    -0.154 C  
HETATM   19  C   UNL     1     -10.405   7.289  69.353  1.00  0.00    -0.208 C  
ENDBRANCH  11  12
ENDBRANCH  10  11
ENDBRANCH   6  10
TORSDOF 3
ENDMDL
MODEL      193
REMARK 921   NORMALIZED FREE ENERGY PREDICTED BY IDOCK:   -2.81 KCAL/MOL
REMARK 922        TOTAL FREE ENERGY PREDICTED BY IDOCK:   -3.49 KCAL/MOL
REMARK 923 INTER-LIGAND FREE ENERGY PREDICTED BY IDOCK:   -3.29 KCAL/MOL
REMARK 924 INTRA-LIGAND FREE ENERGY PREDICTED BY IDOCK:   -0.20 KCAL/MOL
REMARK 927      BINDING AFFINITY PREDICTED BY RF-SCORE:    0.00 PKD
ROOT
HETATM    1  N   UNL     1      -7.585   5.717  71.718  1.00  0.00    -0.094 NA 
HETATM    2  C   UNL     1      -8.215   6.483  70.804  1.00  0.00    -0.125 C  
HETATM    3  H2  UNL     1      -6.791   5.111  71.512  1.00  0.00     0.000 HD 
HETATM    4  H1  UNL     1      -8.004   5.822  72.642  1.00  0.00     0.000 HD 
HETATM    5  N   UNL     1      -7.660   6.345  69.580  1.00  0.00    -0.092 NA 
HETATM    6  N   UNL     1      -9.189   7.235  71.171  1.00  0.00    -0.156 NA 
HETATM    7  H1  UNL     1      -8.136   6.924  68.888  1.00  0.00     0.000 HD 
HETATM    8  H2  UNL     1      -6.866   5.739  69.374  1.00  0.00     0.000 HD 
HETATM    9  H   UNL     1      -9.521   7.254  72.135  1.00  0.00     0.000 HD 
ENDROOT
BRANCH   6  10
HETATM   10  C   UNL     1      -9.797   8.065  70.125  1.00  0.00    -0.184 C  
BRANCH  10  11
HETATM   11  C   UNL     1      -9.552   9.561  70.403  1.00  0.00    -0.269 C  
BRANCH  11  12
HETATM   12  N   UNL     1     -10.793  10.372  70.319  1.00  0.00    -0.284 NA 
HETATM   13  C   UNL     1     -11.168  10.670  68.931  1.00  0.00    -0.275 C  
HETATM   14  C   UNL     1     -12.118  11.861  68.750  1.00  0.00    -0.182 C  
HETATM   15  C   UNL     1     -11.814  13.050  69.667  1.00  0.00    -0.385 C  
HETATM   16  C   UNL     1     -12.731  13.149  70.889  1.00  0.00    -0.313 C  
HETATM   17  C   UNL     1     -12.598  12.046  71.944  1.00  0.00    -0.049 C  
HETATM   18  C   UNL     1     -13.036  10.656  71.468  1.00  0.00    -0.527 C  
HETATM   19  C   UNL     1     -11.875   9.729  71.076  1.00  0.00    -0.356 C  
ENDBRANCH  11  12
ENDBRANCH  10  11
ENDBRANCH   6  10
TORSDOF 3
ENDMDL
MODEL      194
REMARK 921   NORMALIZED FREE ENERGY PREDICTED BY IDOCK:   -2.75 KCAL/MOL
REMARK 922        TOTAL FREE ENERGY PREDICTED BY IDOCK:   -3.42 KCAL/MOL
REMARK 923 INTER-LIGAND FREE ENERGY PREDICTED BY IDOCK:   -3.24 KCAL/MOL
REMARK 924 INTRA-LIGAND FREE ENERGY PREDICTED BY IDOCK:   -0.19 KCAL/MOL
REMARK 927      BINDING AFFINITY PREDICTED BY RF-SCORE:    0.00 PKD
ROOT
HETATM    1  N   UNL     1      -9.204   5.193  65.097  1.00  0.00    -0.308 NA 
HETATM    2  C   UNL     1      -8.913   6.103  66.049  1.00  0.00    -0.145 C  
HETATM    3  H2  UNL     1      -8.710   4.309  64.976  1.00  0.00     0.000 HD 
HETATM    4  H1  UNL     1      -9.980   5.502  64.512  1.00  0.00     0.000 HD 
HETATM    5  N   UNL     1      -7.885   5.693  66.824  1.00  0.00    -0.100 NA 
HETATM    6  N   UNL     1      -9.615   7.175  66.135  1.00  0.00    -0.407 NA 
HETATM    7  H1  UNL     1      -7.666   6.380  67.545  1.00  0.00     0.000 HD 
HETATM    8  H2  UNL     1      -7.392   4.809  66.703  1.00  0.00     0.000 HD 
HETATM    9  H   UNL     1     -10.375   7.375  65.486  1.00  0.00     0.000 HD 
ENDROOT
BRANCH   6  10
HETATM   10  C   UNL     1      -9.260   8.096  67.220  1.00  0.00    -0.138 C  
BRANCH  10  11
HETATM   11  C   UNL     1      -9.012   9.516  66.673  1.00  0.00    -0.146 C  
BRANCH  11  12
HETATM   12  N   UNL     1     -10.127  10.449  66.969  1.00  0.00    -0.206 NA 
HETATM   13  C   UNL     1     -10.746  10.979  65.747  1.00  0.00    -0.148 C  
HETATM   14  C   UNL     1     -11.553  12.272  65.928  1.00  0.00    -0.450 C  
HETATM   15  C   UNL     1     -10.912  13.281  66.886  1.00  0.00    -0.298 C  
HETATM   16  C   UNL     1     -11.529  13.294  68.288  1.00  0.00    -0.351 C  
HETATM   17  C   UNL     1     -11.318  12.043  69.147  1.00  0.00    -0.338 C  
HETATM   18  C   UNL     1     -12.022  10.786  68.621  1.00  0.00    -0.103 C  
HETATM   19  C   UNL     1     -11.099   9.815  67.870  1.00  0.00    -0.096 C  
ENDBRANCH  11  12
ENDBRANCH  10  11
ENDBRANCH   6  10
TORSDOF 3
ENDMDL
MODEL      195
REMARK 921   NORMALIZED FREE ENERGY PREDICTED BY IDOCK:   -2.75 KCAL/MOL
REMARK 922        TOTAL FREE ENERGY PREDICTED BY IDOCK:   -3.42 KCAL/MOL
REMARK 923 INTER-LIGAND FREE ENERGY PREDICTED BY IDOCK:   -3.19 KCAL/MOL
REMARK 924 INTRA-LIGAND FREE ENERGY PREDICTED BY IDOCK:   -0.22 KCAL/MOL
REMARK 927      BINDING AFFINITY PREDICTED BY RF-SCORE:    0.00 PKD
ROOT
HETATM    1  N   UNL     1      -6.806   6.896  64.123  1.00  0.00    -0.045 NA 
HETATM    2  C   UNL     1      -7.856   6.420  64.823  1.00  0.00    -0.111 C  
HETATM    3  H2  UNL     1      -6.677   6.766  63.120  1.00  0.00     0.000 HD 
HETATM    4  H1  UNL     1      -6.158   7.405  64.725  1.00  0.00     0.000 HD 
HETATM    5  N   UNL     1      -8.714   5.747  64.025  1.00  0.00    -0.347 NA 
HETATM    6  N   UNL     1      -7.941   6.664  66.080  1.00  0.00    -0.106 NA 
HETATM    7  H1  UNL     1      -9.508   5.387  64.554  1.00  0.00     0.000 HD 
HETATM    8  H2  UNL     1      -8.584   5.616  63.022  1.00  0.00     0.000 HD 
HETATM    9  H   UNL     1      -7.223   7.190  66.577  1.00  0.00     0.000 HD 
ENDROOT
BRANCH   6  10
HETATM   10  C   UNL     1      -9.131   6.143  66.763  1.00  0.00    -0.133 C  
BRANCH  10  11
HETATM   11  C   UNL     1     -10.038   7.296  67.236  1.00  0.00    -0.225 C  
BRANCH  11  12
HETATM   12  N   UNL     1     -10.174   7.352  68.713  1.00  0.00    -0.187 NA 
HETATM   13  C   UNL     1     -10.235   6.014  69.315  1.00  0.00    -0.207 C  
HETATM   14  C   UNL     1     -10.840   5.957  70.724  1.00  0.00    -0.352 C  
HETATM   15  C   UNL     1     -12.051   6.873  70.924  1.00  0.00    -0.424 C  
HETATM   16  C   UNL     1     -11.735   8.179  71.658  1.00  0.00    -0.330 C  
HETATM   17  C   UNL     1     -10.842   9.185  70.925  1.00  0.00    -0.345 C  
HETATM   18  C   UNL     1      -9.400   8.714  70.707  1.00  0.00    -0.231 C  
HETATM   19  C   UNL     1      -9.115   8.190  69.292  1.00  0.00    -0.151 C  
ENDBRANCH  11  12
ENDBRANCH  10  11
ENDBRANCH   6  10
TORSDOF 3
ENDMDL
MODEL      196
REMARK 921   NORMALIZED FREE ENERGY PREDICTED BY IDOCK:   -2.73 KCAL/MOL
REMARK 922        TOTAL FREE ENERGY PREDICTED BY IDOCK:   -3.40 KCAL/MOL
REMARK 923 INTER-LIGAND FREE ENERGY PREDICTED BY IDOCK:   -3.22 KCAL/MOL
REMARK 924 INTRA-LIGAND FREE ENERGY PREDICTED BY IDOCK:   -0.18 KCAL/MOL
REMARK 927      BINDING AFFINITY PREDICTED BY RF-SCORE:    0.00 PKD
ROOT
HETATM    1  N   UNL     1     -13.874  15.533  70.647  1.00  0.00    -0.834 NA 
HETATM    2  C   UNL     1     -12.826  14.690  70.549  1.00  0.00    -0.317 C  
HETATM    3  H2  UNL     1     -14.069  16.117  71.459  1.00  0.00     0.000 HD 
HETATM    4  H1  UNL     1     -14.447  15.512  69.803  1.00  0.00     0.000 HD 
HETATM    5  N   UNL     1     -12.067  14.717  71.667  1.00  0.00    -0.341 NA 
HETATM    6  N   UNL     1     -12.652  14.018  69.469  1.00  0.00    -0.407 NA 
HETATM    7  H1  UNL     1     -11.274  14.080  71.593  1.00  0.00     0.000 HD 
HETATM    8  H2  UNL     1     -12.262  15.301  72.480  1.00  0.00     0.000 HD 
HETATM    9  H   UNL     1     -13.300  14.082  68.684  1.00  0.00     0.000 HD 
ENDROOT
BRANCH   6  10
HETATM   10  C   UNL     1     -11.469  13.152  69.428  1.00  0.00    -0.260 C  
BRANCH  10  11
HETATM   11  C   UNL     1     -10.662  13.390  68.136  1.00  0.00    -0.253 C  
BRANCH  11  12
HETATM   12  N   UNL     1      -9.362  14.061  68.387  1.00  0.00    -0.211 NA 
HETATM   13  C   UNL     1      -9.520  15.316  69.132  1.00  0.00    -0.236 C  
HETATM   14  C   UNL     1      -8.343  16.295  69.024  1.00  0.00    -0.239 C  
HETATM   15  C   UNL     1      -7.726  16.382  67.625  1.00  0.00    -0.162 C  
HETATM   16  C   UNL     1      -6.427  15.587  67.462  1.00  0.00    -0.186 C  
HETATM   17  C   UNL     1      -6.536  14.061  67.538  1.00  0.00    -0.101 C  
HETATM   18  C   UNL     1      -6.940  13.520  68.914  1.00  0.00    -0.108 C  
HETATM   19  C   UNL     1      -8.422  13.132  69.028  1.00  0.00     0.433 C  
ENDBRANCH  11  12
ENDBRANCH  10  11
ENDBRANCH   6  10
TORSDOF 3
ENDMDL
MODEL      197
REMARK 921   NORMALIZED FREE ENERGY PREDICTED BY IDOCK:   -2.73 KCAL/MOL
REMARK 922        TOTAL FREE ENERGY PREDICTED BY IDOCK:   -3.40 KCAL/MOL
REMARK 923 INTER-LIGAND FREE ENERGY PREDICTED BY IDOCK:   -3.21 KCAL/MOL
REMARK 924 INTRA-LIGAND FREE ENERGY PREDICTED BY IDOCK:   -0.19 KCAL/MOL
REMARK 927      BINDING AFFINITY PREDICTED BY RF-SCORE:    0.00 PKD
ROOT
HETATM    1  N   UNL     1      -6.490   9.376  64.977  1.00  0.00    -0.074 NA 
HETATM    2  C   UNL     1      -7.649  10.067  64.980  1.00  0.00    -0.139 C  
HETATM    3  H2  UNL     1      -6.204   8.737  64.237  1.00  0.00     0.000 HD 
HETATM    4  H1  UNL     1      -5.938   9.575  65.811  1.00  0.00     0.000 HD 
HETATM    5  N   UNL     1      -8.381   9.803  63.876  1.00  0.00    -0.159 NA 
HETATM    6  N   UNL     1      -7.905  10.870  65.949  1.00  0.00    -0.284 NA 
HETATM    7  H1  UNL     1      -9.257  10.326  63.877  1.00  0.00     0.000 HD 
HETATM    8  H2  UNL     1      -8.094   9.164  63.135  1.00  0.00     0.000 HD 
HETATM    9  H   UNL     1      -7.267  10.986  66.736  1.00  0.00     0.000 HD 
ENDROOT
BRANCH   6  10
HETATM   10  C   UNL     1      -9.168  11.612  65.859  1.00  0.00    -0.196 C  
BRANCH  10  11
HETATM   11  C   UNL     1      -9.153  12.832  66.801  1.00  0.00    -0.209 C  
BRANCH  11  12
HETATM   12  N   UNL     1     -10.389  12.946  67.614  1.00  0.00    -0.216 NA 
HETATM   13  C   UNL     1     -11.256  14.039  67.156  1.00  0.00    -0.313 C  
HETATM   14  C   UNL     1     -12.282  14.537  68.184  1.00  0.00    -0.120 C  
HETATM   15  C   UNL     1     -11.745  14.619  69.616  1.00  0.00    -0.358 C  
HETATM   16  C   UNL     1     -12.165  13.449  70.511  1.00  0.00    -0.425 C  
HETATM   17  C   UNL     1     -11.592  12.072  70.162  1.00  0.00    -0.228 C  
HETATM   18  C   UNL     1     -12.083  11.499  68.827  1.00  0.00    -0.234 C  
HETATM   19  C   UNL     1     -11.085  11.653  67.670  1.00  0.00    -0.255 C  
ENDBRANCH  11  12
ENDBRANCH  10  11
ENDBRANCH   6  10
TORSDOF 3
ENDMDL
MODEL      198
REMARK 921   NORMALIZED FREE ENERGY PREDICTED BY IDOCK:   -2.71 KCAL/MOL
REMARK 922        TOTAL FREE ENERGY PREDICTED BY IDOCK:   -3.37 KCAL/MOL
REMARK 923 INTER-LIGAND FREE ENERGY PREDICTED BY IDOCK:   -3.19 KCAL/MOL
REMARK 924 INTRA-LIGAND FREE ENERGY PREDICTED BY IDOCK:   -0.17 KCAL/MOL
REMARK 927      BINDING AFFINITY PREDICTED BY RF-SCORE:    0.00 PKD
ROOT
HETATM    1  N   UNL     1     -11.236   5.910  66.280  1.00  0.00    -0.697 NA 
HETATM    2  C   UNL     1     -10.276   5.583  67.169  1.00  0.00    -0.218 C  
HETATM    3  H2  UNL     1     -11.630   5.266  65.595  1.00  0.00     0.000 HD 
HETATM    4  H1  UNL     1     -11.518   6.885  66.381  1.00  0.00     0.000 HD 
HETATM    5  N   UNL     1      -9.902   4.291  67.035  1.00  0.00    -0.205 NA 
HETATM    6  N   UNL     1      -9.866   6.462  68.011  1.00  0.00    -0.121 NA 
HETATM    7  H1  UNL     1      -9.176   4.043  67.708  1.00  0.00     0.000 HD 
HETATM    8  H2  UNL     1     -10.296   3.647  66.351  1.00  0.00     0.000 HD 
HETATM    9  H   UNL     1     -10.228   7.415  68.014  1.00  0.00     0.000 HD 
ENDROOT
BRANCH   6  10
HETATM   10  C   UNL     1      -8.847   6.017  68.968  1.00  0.00    -0.121 C  
BRANCH  10  11
HETATM   11  C   UNL     1      -8.815   6.941  70.201  1.00  0.00    -0.145 C  
BRANCH  11  12
HETATM   12  N   UNL     1      -9.185   6.240  71.455  1.00  0.00    -0.146 NA 
HETATM   13  C   UNL     1      -8.059   5.489  72.025  1.00  0.00    -0.115 C  
HETATM   14  C   UNL     1      -8.443   4.380  73.013  1.00  0.00    -0.098 C  
HETATM   15  C   UNL     1      -9.685   3.581  72.606  1.00  0.00    -0.200 C  
HETATM   16  C   UNL     1     -10.963   3.989  73.345  1.00  0.00    -0.342 C  
HETATM   17  C   UNL     1     -11.517   5.386  73.048  1.00  0.00    -0.324 C  
HETATM   18  C   UNL     1     -10.625   6.538  73.522  1.00  0.00    -0.312 C  
HETATM   19  C   UNL     1      -9.783   7.183  72.410  1.00  0.00    -0.149 C  
ENDBRANCH  11  12
ENDBRANCH  10  11
ENDBRANCH   6  10
TORSDOF 3
ENDMDL
MODEL      199
REMARK 921   NORMALIZED FREE ENERGY PREDICTED BY IDOCK:   -2.67 KCAL/MOL
REMARK 922        TOTAL FREE ENERGY PREDICTED BY IDOCK:   -3.32 KCAL/MOL
REMARK 923 INTER-LIGAND FREE ENERGY PREDICTED BY IDOCK:   -3.13 KCAL/MOL
REMARK 924 INTRA-LIGAND FREE ENERGY PREDICTED BY IDOCK:   -0.19 KCAL/MOL
REMARK 927      BINDING AFFINITY PREDICTED BY RF-SCORE:    0.00 PKD
ROOT
HETATM    1  N   UNL     1      -7.043   3.448  66.150  1.00  0.00    -0.061 NA 
HETATM    2  C   UNL     1      -8.092   4.173  66.590  1.00  0.00    -0.101 C  
HETATM    3  H2  UNL     1      -6.829   3.286  65.167  1.00  0.00     0.000 HD 
HETATM    4  H1  UNL     1      -6.491   3.084  66.927  1.00  0.00     0.000 HD 
HETATM    5  N   UNL     1      -8.823   4.655  65.562  1.00  0.00    -0.129 NA 
HETATM    6  N   UNL     1      -8.259   4.343  67.852  1.00  0.00    -0.094 NA 
HETATM    7  H1  UNL     1      -9.616   5.204  65.894  1.00  0.00     0.000 HD 
HETATM    8  H2  UNL     1      -8.608   4.492  64.578  1.00  0.00     0.000 HD 
HETATM    9  H   UNL     1      -7.633   3.924  68.540  1.00  0.00     0.000 HD 
ENDROOT
BRANCH   6  10
HETATM   10  C   UNL     1      -9.402   5.174  68.249  1.00  0.00    -0.122 C  
BRANCH  10  11
HETATM   11  C   UNL     1      -8.927   6.433  69.000  1.00  0.00    -0.128 C  
BRANCH  11  12
HETATM   12  N   UNL     1     -10.039   7.164  69.656  1.00  0.00    -0.188 NA 
HETATM   13  C   UNL     1     -10.282   8.475  69.040  1.00  0.00    -0.207 C  
HETATM   14  C   UNL     1     -11.051   9.477  69.912  1.00  0.00    -0.244 C  
HETATM   15  C   UNL     1     -10.649   9.459  71.390  1.00  0.00    -0.381 C  
HETATM   16  C   UNL     1     -11.620   8.695  72.294  1.00  0.00    -0.424 C  
HETATM   17  C   UNL     1     -11.704   7.179  72.092  1.00  0.00    -0.322 C  
HETATM   18  C   UNL     1     -12.293   6.749  70.743  1.00  0.00    -0.289 C  
HETATM   19  C   UNL     1     -11.244   6.325  69.704  1.00  0.00    -0.437 C  
ENDBRANCH  11  12
ENDBRANCH  10  11
ENDBRANCH   6  10
TORSDOF 3
ENDMDL
MODEL      200
REMARK 921   NORMALIZED FREE ENERGY PREDICTED BY IDOCK:   -2.65 KCAL/MOL
REMARK 922        TOTAL FREE ENERGY PREDICTED BY IDOCK:   -3.30 KCAL/MOL
REMARK 923 INTER-LIGAND FREE ENERGY PREDICTED BY IDOCK:   -3.89 KCAL/MOL
REMARK 924 INTRA-LIGAND FREE ENERGY PREDICTED BY IDOCK:    0.59 KCAL/MOL
REMARK 927      BINDING AFFINITY PREDICTED BY RF-SCORE:    0.00 PKD
ROOT
HETATM    1  N   UNL     1      -7.783   9.442  64.371  1.00  0.00    -0.114 NA 
HETATM    2  C   UNL     1      -8.576  10.487  64.058  1.00  0.00    -0.147 C  
HETATM    3  H2  UNL     1      -6.970   9.155  63.827  1.00  0.00     0.000 HD 
HETATM    4  H1  UNL     1      -8.099   8.977  65.221  1.00  0.00     0.000 HD 
HETATM    5  N   UNL     1      -8.157  11.103  62.932  1.00  0.00    -0.421 NA 
HETATM    6  N   UNL     1      -9.561  10.786  64.826  1.00  0.00    -0.239 NA 
HETATM    7  H1  UNL     1      -8.756  11.894  62.695  1.00  0.00     0.000 HD 
HETATM    8  H2  UNL     1      -7.344  10.816  62.388  1.00  0.00     0.000 HD 
HETATM    9  H   UNL     1      -9.780  10.239  65.659  1.00  0.00     0.000 HD 
ENDROOT
BRANCH   6  10
HETATM   10  C   UNL     1     -10.354  11.958  64.438  1.00  0.00    -0.299 C  
BRANCH  10  11
HETATM   11  C   UNL     1     -11.605  12.091  65.328  1.00  0.00    -0.279 C  
BRANCH  11  12
HETATM   12  N   UNL     1     -11.278  12.144  66.775  1.00  0.00    -0.303 NA 
HETATM   13  C   UNL     1     -10.809  10.849  67.285  1.00  0.00    -0.287 C  
HETATM   14  C   UNL     1     -10.905  10.671  68.807  1.00  0.00    -0.269 C  
HETATM   15  C   UNL     1     -12.180  11.251  69.426  1.00  0.00    -0.315 C  
HETATM   16  C   UNL     1     -11.987  12.610  70.103  1.00  0.00    -0.375 C  
HETATM   17  C   UNL     1     -11.653  13.795  69.191  1.00  0.00    -0.363 C  
HETATM   18  C   UNL     1     -10.283  13.705  68.508  1.00  0.00    -0.234 C  
HETATM   19  C   UNL     1     -10.336  13.239  67.046  1.00  0.00    -0.246 C  
ENDBRANCH  11  12
ENDBRANCH  10  11
ENDBRANCH   6  10
TORSDOF 3
ENDMDL
MODEL      201
REMARK 921   NORMALIZED FREE ENERGY PREDICTED BY IDOCK:   -2.64 KCAL/MOL
REMARK 922        TOTAL FREE ENERGY PREDICTED BY IDOCK:   -3.29 KCAL/MOL
REMARK 923 INTER-LIGAND FREE ENERGY PREDICTED BY IDOCK:   -3.11 KCAL/MOL
REMARK 924 INTRA-LIGAND FREE ENERGY PREDICTED BY IDOCK:   -0.17 KCAL/MOL
REMARK 927      BINDING AFFINITY PREDICTED BY RF-SCORE:    0.00 PKD
ROOT
HETATM    1  N   UNL     1      -6.930  13.122  67.256  1.00  0.00    -0.338 NA 
HETATM    2  C   UNL     1      -7.453  11.888  67.405  1.00  0.00    -0.148 C  
HETATM    3  H2  UNL     1      -6.395  13.424  66.442  1.00  0.00     0.000 HD 
HETATM    4  H1  UNL     1      -7.138  13.714  68.060  1.00  0.00     0.000 HD 
HETATM    5  N   UNL     1      -7.177  11.104  66.340  1.00  0.00    -0.257 NA 
HETATM    6  N   UNL     1      -8.137  11.614  68.457  1.00  0.00    -0.148 NA 
HETATM    7  H1  UNL     1      -7.574  10.170  66.453  1.00  0.00     0.000 HD 
HETATM    8  H2  UNL     1      -6.642  11.407  65.527  1.00  0.00     0.000 HD 
HETATM    9  H   UNL     1      -8.278  12.296  69.201  1.00  0.00     0.000 HD 
ENDROOT
BRANCH   6  10
HETATM   10  C   UNL     1      -8.704  10.262  68.528  1.00  0.00    -0.130 C  
BRANCH  10  11
HETATM   11  C   UNL     1      -9.816  10.191  69.593  1.00  0.00    -0.225 C  
BRANCH  11  12
HETATM   12  N   UNL     1      -9.788   8.928  70.371  1.00  0.00    -0.179 NA 
HETATM   13  C   UNL     1     -10.604   7.876  69.752  1.00  0.00    -0.242 C  
HETATM   14  C   UNL     1     -11.021   6.733  70.687  1.00  0.00    -0.313 C  
HETATM   15  C   UNL     1     -11.412   7.188  72.097  1.00  0.00    -0.306 C  
HETATM   16  C   UNL     1     -10.320   6.980  73.149  1.00  0.00    -0.314 C  
HETATM   17  C   UNL     1      -9.054   7.831  73.009  1.00  0.00    -0.269 C  
HETATM   18  C   UNL     1      -8.210   7.516  71.768  1.00  0.00    -0.114 C  
HETATM   19  C   UNL     1      -8.401   8.506  70.609  1.00  0.00    -0.133 C  
ENDBRANCH  11  12
ENDBRANCH  10  11
ENDBRANCH   6  10
TORSDOF 3
ENDMDL
MODEL      202
REMARK 921   NORMALIZED FREE ENERGY PREDICTED BY IDOCK:   -2.61 KCAL/MOL
REMARK 922        TOTAL FREE ENERGY PREDICTED BY IDOCK:   -3.25 KCAL/MOL
REMARK 923 INTER-LIGAND FREE ENERGY PREDICTED BY IDOCK:   -2.90 KCAL/MOL
REMARK 924 INTRA-LIGAND FREE ENERGY PREDICTED BY IDOCK:   -0.35 KCAL/MOL
REMARK 927      BINDING AFFINITY PREDICTED BY RF-SCORE:    0.00 PKD
ROOT
HETATM    1  N   UNL     1      -6.034   9.007  69.393  1.00  0.00    -0.037 NA 
HETATM    2  C   UNL     1      -6.970   9.250  70.333  1.00  0.00    -0.085 C  
HETATM    3  H2  UNL     1      -5.405   9.713  69.012  1.00  0.00     0.000 HD 
HETATM    4  H1  UNL     1      -6.036   8.026  69.112  1.00  0.00     0.000 HD 
HETATM    5  N   UNL     1      -6.967  10.549  70.705  1.00  0.00    -0.449 NA 
HETATM    6  N   UNL     1      -7.696   8.284  70.768  1.00  0.00    -0.074 NA 
HETATM    7  H1  UNL     1      -7.675  10.733  71.416  1.00  0.00     0.000 HD 
HETATM    8  H2  UNL     1      -6.338  11.255  70.324  1.00  0.00     0.000 HD 
HETATM    9  H   UNL     1      -7.604   7.336  70.406  1.00  0.00     0.000 HD 
ENDROOT
BRANCH   6  10
HETATM   10  C   UNL     1      -8.665   8.623  71.816  1.00  0.00    -0.197 C  
BRANCH  10  11
HETATM   11  C   UNL     1     -10.066   8.847  71.213  1.00  0.00    -0.295 C  
BRANCH  11  12
HETATM   12  N   UNL     1     -10.222   8.225  69.875  1.00  0.00    -0.197 NA 
HETATM   13  C   UNL     1     -11.223   7.151  69.876  1.00  0.00    -0.208 C  
HETATM   14  C   UNL     1     -11.118   6.156  68.712  1.00  0.00    -0.398 C  
HETATM   15  C   UNL     1      -9.681   5.777  68.340  1.00  0.00    -0.161 C  
HETATM   16  C   UNL     1      -9.141   6.504  67.106  1.00  0.00    -0.122 C  
HETATM   17  C   UNL     1      -8.921   8.015  67.236  1.00  0.00    -0.148 C  
HETATM   18  C   UNL     1     -10.206   8.831  67.412  1.00  0.00    -0.318 C  
HETATM   19  C   UNL     1     -10.490   9.254  68.861  1.00  0.00    -0.215 C  
ENDBRANCH  11  12
ENDBRANCH  10  11
ENDBRANCH   6  10
TORSDOF 3
ENDMDL
MODEL      203
REMARK 921   NORMALIZED FREE ENERGY PREDICTED BY IDOCK:   -2.60 KCAL/MOL
REMARK 922        TOTAL FREE ENERGY PREDICTED BY IDOCK:   -3.25 KCAL/MOL
REMARK 923 INTER-LIGAND FREE ENERGY PREDICTED BY IDOCK:   -2.86 KCAL/MOL
REMARK 924 INTRA-LIGAND FREE ENERGY PREDICTED BY IDOCK:   -0.39 KCAL/MOL
REMARK 927      BINDING AFFINITY PREDICTED BY RF-SCORE:    0.00 PKD
ROOT
HETATM    1  N   UNL     1     -11.190   5.910  66.331  1.00  0.00    -0.739 NA 
HETATM    2  C   UNL     1     -10.700   5.504  67.520  1.00  0.00    -0.126 C  
HETATM    3  H2  UNL     1     -10.915   5.517  65.432  1.00  0.00     0.000 HD 
HETATM    4  H1  UNL     1     -11.872   6.659  66.447  1.00  0.00     0.000 HD 
HETATM    5  N   UNL     1      -9.797   4.512  67.367  1.00  0.00    -0.177 NA 
HETATM    6  N   UNL     1     -11.134   6.044  68.602  1.00  0.00    -0.291 NA 
HETATM    7  H1  UNL     1      -9.426   4.204  68.266  1.00  0.00     0.000 HD 
HETATM    8  H2  UNL     1      -9.521   4.119  66.467  1.00  0.00     0.000 HD 
HETATM    9  H   UNL     1     -11.825   6.794  68.590  1.00  0.00     0.000 HD 
ENDROOT
BRANCH   6  10
HETATM   10  C   UNL     1     -10.578   5.522  69.855  1.00  0.00    -0.317 C  
BRANCH  10  11
HETATM   11  C   UNL     1      -9.954   6.657  70.691  1.00  0.00    -0.184 C  
BRANCH  11  12
HETATM   12  N   UNL     1      -9.011   7.495  69.909  1.00  0.00    -0.141 NA 
HETATM   13  C   UNL     1      -8.668   8.741  70.606  1.00  0.00    -0.180 C  
HETATM   14  C   UNL     1      -8.109   9.859  69.714  1.00  0.00    -0.185 C  
HETATM   15  C   UNL     1      -8.805   9.983  68.356  1.00  0.00    -0.117 C  
HETATM   16  C   UNL     1      -8.029   9.356  67.194  1.00  0.00    -0.102 C  
HETATM   17  C   UNL     1      -7.883   7.831  67.204  1.00  0.00    -0.113 C  
HETATM   18  C   UNL     1      -7.023   7.283  68.349  1.00  0.00    -0.079 C  
HETATM   19  C   UNL     1      -7.829   6.712  69.525  1.00  0.00    -0.106 C  
ENDBRANCH  11  12
ENDBRANCH  10  11
ENDBRANCH   6  10
TORSDOF 3
ENDMDL
MODEL      204
REMARK 921   NORMALIZED FREE ENERGY PREDICTED BY IDOCK:   -2.59 KCAL/MOL
REMARK 922        TOTAL FREE ENERGY PREDICTED BY IDOCK:   -3.23 KCAL/MOL
REMARK 923 INTER-LIGAND FREE ENERGY PREDICTED BY IDOCK:   -3.03 KCAL/MOL
REMARK 924 INTRA-LIGAND FREE ENERGY PREDICTED BY IDOCK:   -0.20 KCAL/MOL
REMARK 927      BINDING AFFINITY PREDICTED BY RF-SCORE:    0.00 PKD
ROOT
HETATM    1  N   UNL     1     -11.375   5.172  73.588  1.00  0.00    -0.429 NA 
HETATM    2  C   UNL     1     -10.676   6.293  73.316  1.00  0.00    -0.260 C  
HETATM    3  H2  UNL     1     -11.792   4.961  74.494  1.00  0.00     0.000 HD 
HETATM    4  H1  UNL     1     -11.434   4.563  72.772  1.00  0.00     0.000 HD 
HETATM    5  N   UNL     1     -10.598   7.099  74.397  1.00  0.00    -0.401 NA 
HETATM    6  N   UNL     1     -10.215   6.478  72.131  1.00  0.00    -0.184 NA 
HETATM    7  H1  UNL     1     -10.070   7.947  74.190  1.00  0.00     0.000 HD 
HETATM    8  H2  UNL     1     -11.015   6.888  75.303  1.00  0.00     0.000 HD 
HETATM    9  H   UNL     1     -10.340   5.789  71.390  1.00  0.00     0.000 HD 
ENDROOT
BRANCH   6  10
HETATM   10  C   UNL     1      -9.498   7.738  71.906  1.00  0.00    -0.153 C  
BRANCH  10  11
HETATM   11  C   UNL     1     -10.351   8.710  71.066  1.00  0.00    -0.217 C  
BRANCH  11  12
HETATM   12  N   UNL     1      -9.659   9.164  69.834  1.00  0.00    -0.181 NA 
HETATM   13  C   UNL     1      -8.445   9.934  70.131  1.00  0.00    -0.111 C  
HETATM   14  C   UNL     1      -7.941  10.830  68.991  1.00  0.00    -0.137 C  
HETATM   15  C   UNL     1      -9.054  11.543  68.216  1.00  0.00    -0.185 C  
HETATM   16  C   UNL     1      -9.402  10.890  66.875  1.00  0.00    -0.186 C  
HETATM   17  C   UNL     1     -10.054   9.505  66.930  1.00  0.00    -0.295 C  
HETATM   18  C   UNL     1      -9.144   8.395  67.472  1.00  0.00    -0.145 C  
HETATM   19  C   UNL     1      -9.408   8.026  68.940  1.00  0.00    -0.150 C  
ENDBRANCH  11  12
ENDBRANCH  10  11
ENDBRANCH   6  10
TORSDOF 3
ENDMDL
MODEL      205
REMARK 921   NORMALIZED FREE ENERGY PREDICTED BY IDOCK:   -2.58 KCAL/MOL
REMARK 922        TOTAL FREE ENERGY PREDICTED BY IDOCK:   -3.22 KCAL/MOL
REMARK 923 INTER-LIGAND FREE ENERGY PREDICTED BY IDOCK:   -2.80 KCAL/MOL
REMARK 924 INTRA-LIGAND FREE ENERGY PREDICTED BY IDOCK:   -0.41 KCAL/MOL
REMARK 927      BINDING AFFINITY PREDICTED BY RF-SCORE:    0.00 PKD
ROOT
HETATM    1  N   UNL     1      -7.290   5.926  71.489  1.00  0.00    -0.086 NA 
HETATM    2  C   UNL     1      -8.378   6.497  70.934  1.00  0.00    -0.126 C  
HETATM    3  H2  UNL     1      -6.580   5.412  70.967  1.00  0.00     0.000 HD 
HETATM    4  H1  UNL     1      -7.267   6.074  72.498  1.00  0.00     0.000 HD 
HETATM    5  N   UNL     1      -8.408   6.301  69.598  1.00  0.00    -0.124 NA 
HETATM    6  N   UNL     1      -9.199   7.148  71.676  1.00  0.00    -0.145 NA 
HETATM    7  H1  UNL     1      -9.231   6.733  69.177  1.00  0.00     0.000 HD 
HETATM    8  H2  UNL     1      -7.699   5.787  69.076  1.00  0.00     0.000 HD 
HETATM    9  H   UNL     1      -9.068   7.228  72.684  1.00  0.00     0.000 HD 
ENDROOT
BRANCH   6  10
HETATM   10  C   UNL     1     -10.338   7.771  70.991  1.00  0.00    -0.202 C  
BRANCH  10  11
HETATM   11  C   UNL     1     -10.206   9.307  70.997  1.00  0.00    -0.314 C  
BRANCH  11  12
HETATM   12  N   UNL     1      -9.877   9.861  69.660  1.00  0.00    -0.219 NA 
HETATM   13  C   UNL     1      -8.431  10.030  69.470  1.00  0.00    -0.176 C  
HETATM   14  C   UNL     1      -8.027  11.010  68.359  1.00  0.00    -0.131 C  
HETATM   15  C   UNL     1      -8.897  12.268  68.286  1.00  0.00    -0.178 C  
HETATM   16  C   UNL     1      -9.955  12.235  67.179  1.00  0.00    -0.213 C  
HETATM   17  C   UNL     1     -11.089  11.217  67.337  1.00  0.00    -0.370 C  
HETATM   18  C   UNL     1     -10.645   9.752  67.245  1.00  0.00    -0.320 C  
HETATM   19  C   UNL     1     -10.500   9.051  68.604  1.00  0.00    -0.200 C  
ENDBRANCH  11  12
ENDBRANCH  10  11
ENDBRANCH   6  10
TORSDOF 3
ENDMDL
MODEL      206
REMARK 921   NORMALIZED FREE ENERGY PREDICTED BY IDOCK:   -2.55 KCAL/MOL
REMARK 922        TOTAL FREE ENERGY PREDICTED BY IDOCK:   -3.19 KCAL/MOL
REMARK 923 INTER-LIGAND FREE ENERGY PREDICTED BY IDOCK:   -2.95 KCAL/MOL
REMARK 924 INTRA-LIGAND FREE ENERGY PREDICTED BY IDOCK:   -0.24 KCAL/MOL
REMARK 927      BINDING AFFINITY PREDICTED BY RF-SCORE:    0.00 PKD
ROOT
HETATM    1  N   UNL     1      -6.236   5.820  72.121  1.00  0.00    -0.043 NA 
HETATM    2  C   UNL     1      -6.775   5.576  70.909  1.00  0.00    -0.044 C  
HETATM    3  H2  UNL     1      -5.338   6.279  72.268  1.00  0.00     0.000 HD 
HETATM    4  H1  UNL     1      -6.841   5.486  72.871  1.00  0.00     0.000 HD 
HETATM    5  N   UNL     1      -5.974   6.018  69.916  1.00  0.00    -0.024 NA 
HETATM    6  N   UNL     1      -7.928   5.015  70.831  1.00  0.00    -0.090 NA 
HETATM    7  H1  UNL     1      -6.382   5.833  68.999  1.00  0.00     0.000 HD 
HETATM    8  H2  UNL     1      -5.076   6.477  70.063  1.00  0.00     0.000 HD 
HETATM    9  H   UNL     1      -8.443   4.723  71.662  1.00  0.00     0.000 HD 
ENDROOT
BRANCH   6  10
HETATM   10  C   UNL     1      -8.463   4.818  69.479  1.00  0.00    -0.082 C  
BRANCH  10  11
HETATM   11  C   UNL     1      -9.243   6.063  69.013  1.00  0.00    -0.121 C  
BRANCH  11  12
HETATM   12  N   UNL     1      -9.903   6.780  70.132  1.00  0.00    -0.177 NA 
HETATM   13  C   UNL     1      -9.770   8.238  70.013  1.00  0.00    -0.176 C  
HETATM   14  C   UNL     1      -9.982   9.024  71.313  1.00  0.00    -0.381 C  
HETATM   15  C   UNL     1      -9.371   8.363  72.552  1.00  0.00    -0.346 C  
HETATM   16  C   UNL     1     -10.383   7.619  73.428  1.00  0.00    -0.374 C  
HETATM   17  C   UNL     1     -11.026   6.364  72.829  1.00  0.00    -0.289 C  
HETATM   18  C   UNL     1     -11.944   6.631  71.631  1.00  0.00    -0.395 C  
HETATM   19  C   UNL     1     -11.300   6.344  70.266  1.00  0.00    -0.403 C  
ENDBRANCH  11  12
ENDBRANCH  10  11
ENDBRANCH   6  10
TORSDOF 3
ENDMDL
MODEL      207
REMARK 921   NORMALIZED FREE ENERGY PREDICTED BY IDOCK:   -2.55 KCAL/MOL
REMARK 922        TOTAL FREE ENERGY PREDICTED BY IDOCK:   -3.19 KCAL/MOL
REMARK 923 INTER-LIGAND FREE ENERGY PREDICTED BY IDOCK:   -3.23 KCAL/MOL
REMARK 924 INTRA-LIGAND FREE ENERGY PREDICTED BY IDOCK:    0.04 KCAL/MOL
REMARK 927      BINDING AFFINITY PREDICTED BY RF-SCORE:    0.00 PKD
ROOT
HETATM    1  N   UNL     1      -6.295   5.406  69.734  1.00  0.00    -0.029 NA 
HETATM    2  C   UNL     1      -7.292   5.670  68.865  1.00  0.00    -0.082 C  
HETATM    3  H2  UNL     1      -5.337   5.186  69.461  1.00  0.00     0.000 HD 
HETATM    4  H1  UNL     1      -6.620   5.454  70.700  1.00  0.00     0.000 HD 
HETATM    5  N   UNL     1      -6.860   5.607  67.587  1.00  0.00    -0.059 NA 
HETATM    6  N   UNL     1      -8.459   5.964  69.313  1.00  0.00    -0.112 NA 
HETATM    7  H1  UNL     1      -7.614   5.807  66.930  1.00  0.00     0.000 HD 
HETATM    8  H2  UNL     1      -5.903   5.387  67.314  1.00  0.00     0.000 HD 
HETATM    9  H   UNL     1      -8.666   5.980  70.311  1.00  0.00     0.000 HD 
ENDROOT
BRANCH   6  10
HETATM   10  C   UNL     1      -9.480   6.275  68.305  1.00  0.00    -0.117 C  
BRANCH  10  11
HETATM   11  C   UNL     1     -10.832   6.587  68.975  1.00  0.00    -0.306 C  
BRANCH  11  12
HETATM   12  N   UNL     1     -10.863   7.928  69.610  1.00  0.00    -0.218 NA 
HETATM   13  C   UNL     1     -10.488   7.880  71.029  1.00  0.00    -0.203 C  
HETATM   14  C   UNL     1     -10.940   9.083  71.868  1.00  0.00    -0.423 C  
HETATM   15  C   UNL     1     -12.345   9.591  71.530  1.00  0.00    -0.465 C  
HETATM   16  C   UNL     1     -12.364  10.840  70.644  1.00  0.00    -0.465 C  
HETATM   17  C   UNL     1     -11.860  10.676  69.207  1.00  0.00    -0.309 C  
HETATM   18  C   UNL     1     -10.364  10.360  69.090  1.00  0.00    -0.241 C  
HETATM   19  C   UNL     1     -10.051   8.878  68.837  1.00  0.00    -0.197 C  
ENDBRANCH  11  12
ENDBRANCH  10  11
ENDBRANCH   6  10
TORSDOF 3
ENDMDL
MODEL      208
REMARK 921   NORMALIZED FREE ENERGY PREDICTED BY IDOCK:   -2.55 KCAL/MOL
REMARK 922        TOTAL FREE ENERGY PREDICTED BY IDOCK:   -3.19 KCAL/MOL
REMARK 923 INTER-LIGAND FREE ENERGY PREDICTED BY IDOCK:   -2.98 KCAL/MOL
REMARK 924 INTRA-LIGAND FREE ENERGY PREDICTED BY IDOCK:   -0.20 KCAL/MOL
REMARK 927      BINDING AFFINITY PREDICTED BY RF-SCORE:    0.00 PKD
ROOT
HETATM    1  N   UNL     1     -11.337  13.433  62.996  1.00  0.00    -0.076 NA 
HETATM    2  C   UNL     1     -12.056  13.003  64.053  1.00  0.00    -0.450 C  
HETATM    3  H2  UNL     1     -11.677  13.443  62.035  1.00  0.00     0.000 HD 
HETATM    4  H1  UNL     1     -10.409  13.748  63.281  1.00  0.00     0.000 HD 
HETATM    5  N   UNL     1     -13.284  12.587  63.675  1.00  0.00    -0.370 NA 
HETATM    6  N   UNL     1     -11.545  13.058  65.230  1.00  0.00    -0.315 NA 
HETATM    7  H1  UNL     1     -13.828  12.262  64.475  1.00  0.00     0.000 HD 
HETATM    8  H2  UNL     1     -13.624  12.597  62.714  1.00  0.00     0.000 HD 
HETATM    9  H   UNL     1     -10.597  13.396  65.391  1.00  0.00     0.000 HD 
ENDROOT
BRANCH   6  10
HETATM   10  C   UNL     1     -12.404  12.607  66.330  1.00  0.00     0.110 C  
BRANCH  10  11
HETATM   11  C   UNL     1     -11.641  11.641  67.258  1.00  0.00    -0.238 C  
BRANCH  11  12
HETATM   12  N   UNL     1     -11.663  12.070  68.679  1.00  0.00    -0.309 NA 
HETATM   13  C   UNL     1     -11.455  10.947  69.601  1.00  0.00    -0.305 C  
HETATM   14  C   UNL     1     -11.926  11.186  71.042  1.00  0.00    -0.268 C  
HETATM   15  C   UNL     1     -13.251  11.947  71.150  1.00  0.00     0.038 C  
HETATM   16  C   UNL     1     -13.095  13.432  71.488  1.00  0.00    -0.427 C  
HETATM   17  C   UNL     1     -12.442  14.318  70.423  1.00  0.00    -0.426 C  
HETATM   18  C   UNL     1     -10.964  14.009  70.157  1.00  0.00     0.224 C  
HETATM   19  C   UNL     1     -10.713  13.169  68.895  1.00  0.00    -0.169 C  
ENDBRANCH  11  12
ENDBRANCH  10  11
ENDBRANCH   6  10
TORSDOF 3
ENDMDL
MODEL      209
REMARK 921   NORMALIZED FREE ENERGY PREDICTED BY IDOCK:   -2.54 KCAL/MOL
REMARK 922        TOTAL FREE ENERGY PREDICTED BY IDOCK:   -3.18 KCAL/MOL
REMARK 923 INTER-LIGAND FREE ENERGY PREDICTED BY IDOCK:   -2.99 KCAL/MOL
REMARK 924 INTRA-LIGAND FREE ENERGY PREDICTED BY IDOCK:   -0.19 KCAL/MOL
REMARK 927      BINDING AFFINITY PREDICTED BY RF-SCORE:    0.00 PKD
ROOT
HETATM    1  N   UNL     1      -7.782   5.944  71.454  1.00  0.00    -0.105 NA 
HETATM    2  C   UNL     1      -8.385   6.650  70.476  1.00  0.00    -0.130 C  
HETATM    3  H2  UNL     1      -7.088   5.214  71.292  1.00  0.00     0.000 HD 
HETATM    4  H1  UNL     1      -8.108   6.234  72.376  1.00  0.00     0.000 HD 
HETATM    5  N   UNL     1      -7.954   6.267  69.255  1.00  0.00    -0.108 NA 
HETATM    6  N   UNL     1      -9.226   7.570  70.786  1.00  0.00    -0.158 NA 
HETATM    7  H1  UNL     1      -8.410   6.801  68.515  1.00  0.00     0.000 HD 
HETATM    8  H2  UNL     1      -7.260   5.537  69.093  1.00  0.00     0.000 HD 
HETATM    9  H   UNL     1      -9.474   7.769  71.755  1.00  0.00     0.000 HD 
ENDROOT
BRANCH   6  10
HETATM   10  C   UNL     1      -9.811   8.317  69.667  1.00  0.00    -0.184 C  
BRANCH  10  11
HETATM   11  C   UNL     1      -9.353   9.789  69.694  1.00  0.00    -0.219 C  
BRANCH  11  12
HETATM   12  N   UNL     1     -10.130  10.649  68.767  1.00  0.00    -0.183 NA 
HETATM   13  C   UNL     1     -10.500   9.944  67.533  1.00  0.00    -0.255 C  
HETATM   14  C   UNL     1     -10.866  10.847  66.347  1.00  0.00    -0.210 C  
HETATM   15  C   UNL     1      -9.981  12.089  66.208  1.00  0.00    -0.249 C  
HETATM   16  C   UNL     1     -10.619  13.376  66.737  1.00  0.00    -0.277 C  
HETATM   17  C   UNL     1     -10.848  13.463  68.249  1.00  0.00    -0.275 C  
HETATM   18  C   UNL     1     -11.889  12.477  68.792  1.00  0.00    -0.347 C  
HETATM   19  C   UNL     1     -11.288  11.231  69.460  1.00  0.00    -0.294 C  
ENDBRANCH  11  12
ENDBRANCH  10  11
ENDBRANCH   6  10
TORSDOF 3
ENDMDL
MODEL      210
REMARK 921   NORMALIZED FREE ENERGY PREDICTED BY IDOCK:   -2.53 KCAL/MOL
REMARK 922        TOTAL FREE ENERGY PREDICTED BY IDOCK:   -3.17 KCAL/MOL
REMARK 923 INTER-LIGAND FREE ENERGY PREDICTED BY IDOCK:   -3.07 KCAL/MOL
REMARK 924 INTRA-LIGAND FREE ENERGY PREDICTED BY IDOCK:   -0.09 KCAL/MOL
REMARK 927      BINDING AFFINITY PREDICTED BY RF-SCORE:    0.00 PKD
ROOT
HETATM    1  N   UNL     1      -7.019   6.070  65.688  1.00  0.00    -0.059 NA 
HETATM    2  C   UNL     1      -8.233   6.232  66.255  1.00  0.00    -0.117 C  
HETATM    3  H2  UNL     1      -6.696   6.579  64.866  1.00  0.00     0.000 HD 
HETATM    4  H1  UNL     1      -6.466   5.375  66.189  1.00  0.00     0.000 HD 
HETATM    5  N   UNL     1      -8.965   7.154  65.592  1.00  0.00    -0.372 NA 
HETATM    6  N   UNL     1      -8.533   5.563  67.309  1.00  0.00    -0.110 NA 
HETATM    7  H1  UNL     1      -9.883   7.276  66.021  1.00  0.00     0.000 HD 
HETATM    8  H2  UNL     1      -8.642   7.662  64.770  1.00  0.00     0.000 HD 
HETATM    9  H   UNL     1      -7.889   4.889  67.721  1.00  0.00     0.000 HD 
ENDROOT
BRANCH   6  10
HETATM   10  C   UNL     1      -9.857   5.823  67.885  1.00  0.00    -0.127 C  
BRANCH  10  11
HETATM   11  C   UNL     1      -9.816   7.048  68.819  1.00  0.00    -0.152 C  
BRANCH  11  12
HETATM   12  N   UNL     1     -10.464   6.795  70.130  1.00  0.00    -0.202 NA 
HETATM   13  C   UNL     1     -11.883   7.173  70.130  1.00  0.00    -0.065 C  
HETATM   14  C   UNL     1     -12.500   7.400  71.517  1.00  0.00    -0.394 C  
HETATM   15  C   UNL     1     -11.580   8.127  72.501  1.00  0.00    -0.468 C  
HETATM   16  C   UNL     1     -10.892   7.206  73.513  1.00  0.00    -0.296 C  
HETATM   17  C   UNL     1      -9.855   6.223  72.960  1.00  0.00    -0.175 C  
HETATM   18  C   UNL     1     -10.435   5.135  72.048  1.00  0.00    -0.278 C  
HETATM   19  C   UNL     1     -10.245   5.403  70.547  1.00  0.00    -0.256 C  
ENDBRANCH  11  12
ENDBRANCH  10  11
ENDBRANCH   6  10
TORSDOF 3
ENDMDL
MODEL      211
REMARK 921   NORMALIZED FREE ENERGY PREDICTED BY IDOCK:   -2.53 KCAL/MOL
REMARK 922        TOTAL FREE ENERGY PREDICTED BY IDOCK:   -3.16 KCAL/MOL
REMARK 923 INTER-LIGAND FREE ENERGY PREDICTED BY IDOCK:   -2.98 KCAL/MOL
REMARK 924 INTRA-LIGAND FREE ENERGY PREDICTED BY IDOCK:   -0.19 KCAL/MOL
REMARK 927      BINDING AFFINITY PREDICTED BY RF-SCORE:    0.00 PKD
ROOT
HETATM    1  N   UNL     1      -9.660  12.785  65.454  1.00  0.00    -0.468 NA 
HETATM    2  C   UNL     1      -9.307  11.674  66.132  1.00  0.00    -0.224 C  
HETATM    3  H2  UNL     1      -8.999  13.435  65.031  1.00  0.00     0.000 HD 
HETATM    4  H1  UNL     1     -10.674  12.893  65.418  1.00  0.00     0.000 HD 
HETATM    5  N   UNL     1      -7.965  11.532  66.178  1.00  0.00    -0.375 NA 
HETATM    6  N   UNL     1     -10.220  10.904  66.603  1.00  0.00    -0.226 NA 
HETATM    7  H1  UNL     1      -7.697  10.691  66.691  1.00  0.00     0.000 HD 
HETATM    8  H2  UNL     1      -7.303  12.182  65.755  1.00  0.00     0.000 HD 
HETATM    9  H   UNL     1     -11.212  11.119  66.503  1.00  0.00     0.000 HD 
ENDROOT
BRANCH   6  10
HETATM   10  C   UNL     1      -9.756   9.696  67.295  1.00  0.00    -0.166 C  
BRANCH  10  11
HETATM   11  C   UNL     1     -10.680   8.501  66.990  1.00  0.00    -0.120 C  
BRANCH  11  12
HETATM   12  N   UNL     1      -9.962   7.203  66.994  1.00  0.00    -0.198 NA 
HETATM   13  C   UNL     1      -9.100   7.049  68.173  1.00  0.00    -0.128 C  
HETATM   14  C   UNL     1      -7.987   6.001  68.040  1.00  0.00    -0.109 C  
HETATM   15  C   UNL     1      -7.308   5.979  66.667  1.00  0.00    -0.078 C  
HETATM   16  C   UNL     1      -7.789   4.852  65.748  1.00  0.00    -0.095 C  
HETATM   17  C   UNL     1      -9.236   4.933  65.254  1.00  0.00    -0.144 C  
HETATM   18  C   UNL     1     -10.293   4.771  66.353  1.00  0.00    -0.312 C  
HETATM   19  C   UNL     1     -10.911   6.093  66.834  1.00  0.00    -0.335 C  
ENDBRANCH  11  12
ENDBRANCH  10  11
ENDBRANCH   6  10
TORSDOF 3
ENDMDL
MODEL      212
REMARK 921   NORMALIZED FREE ENERGY PREDICTED BY IDOCK:   -2.52 KCAL/MOL
REMARK 922        TOTAL FREE ENERGY PREDICTED BY IDOCK:   -3.15 KCAL/MOL
REMARK 923 INTER-LIGAND FREE ENERGY PREDICTED BY IDOCK:   -2.87 KCAL/MOL
REMARK 924 INTRA-LIGAND FREE ENERGY PREDICTED BY IDOCK:   -0.28 KCAL/MOL
REMARK 927      BINDING AFFINITY PREDICTED BY RF-SCORE:    0.00 PKD
ROOT
HETATM    1  N   UNL     1     -11.131   5.148  65.678  1.00  0.00    -0.785 NA 
HETATM    2  C   UNL     1     -10.369   5.798  66.581  1.00  0.00    -0.243 C  
HETATM    3  H2  UNL     1     -10.775   4.463  65.013  1.00  0.00     0.000 HD 
HETATM    4  H1  UNL     1     -12.109   5.428  65.747  1.00  0.00     0.000 HD 
HETATM    5  N   UNL     1      -9.073   5.426  66.490  1.00  0.00    -0.131 NA 
HETATM    6  N   UNL     1     -10.920   6.623  67.397  1.00  0.00    -0.454 NA 
HETATM    7  H1  UNL     1      -8.497   5.918  67.173  1.00  0.00     0.000 HD 
HETATM    8  H2  UNL     1      -8.717   4.741  65.825  1.00  0.00     0.000 HD 
HETATM    9  H   UNL     1     -11.919   6.823  67.368  1.00  0.00     0.000 HD 
ENDROOT
BRANCH   6  10
HETATM   10  C   UNL     1     -10.029   7.262  68.372  1.00  0.00    -0.161 C  
BRANCH  10  11
HETATM   11  C   UNL     1     -10.085   8.797  68.240  1.00  0.00    -0.188 C  
BRANCH  11  12
HETATM   12  N   UNL     1      -8.741   9.411  68.095  1.00  0.00    -0.124 NA 
HETATM   13  C   UNL     1      -8.449  10.367  69.171  1.00  0.00    -0.164 C  
HETATM   14  C   UNL     1      -7.336  11.378  68.864  1.00  0.00    -0.114 C  
HETATM   15  C   UNL     1      -7.358  11.918  67.431  1.00  0.00    -0.145 C  
HETATM   16  C   UNL     1      -6.331  11.267  66.500  1.00  0.00    -0.119 C  
HETATM   17  C   UNL     1      -6.547   9.789  66.160  1.00  0.00    -0.080 C  
HETATM   18  C   UNL     1      -6.387   8.833  67.348  1.00  0.00    -0.057 C  
HETATM   19  C   UNL     1      -7.714   8.368  67.965  1.00  0.00    -0.103 C  
ENDBRANCH  11  12
ENDBRANCH  10  11
ENDBRANCH   6  10
TORSDOF 3
ENDMDL
MODEL      213
REMARK 921   NORMALIZED FREE ENERGY PREDICTED BY IDOCK:   -2.52 KCAL/MOL
REMARK 922        TOTAL FREE ENERGY PREDICTED BY IDOCK:   -3.15 KCAL/MOL
REMARK 923 INTER-LIGAND FREE ENERGY PREDICTED BY IDOCK:   -3.01 KCAL/MOL
REMARK 924 INTRA-LIGAND FREE ENERGY PREDICTED BY IDOCK:   -0.14 KCAL/MOL
REMARK 927      BINDING AFFINITY PREDICTED BY RF-SCORE:    0.00 PKD
ROOT
HETATM    1  N   UNL     1     -11.015   7.246  66.771  1.00  0.00    -0.545 NA 
HETATM    2  C   UNL     1     -10.376   8.001  67.688  1.00  0.00    -0.246 C  
HETATM    3  H2  UNL     1     -11.868   7.527  66.289  1.00  0.00     0.000 HD 
HETATM    4  H1  UNL     1     -10.535   6.358  66.622  1.00  0.00     0.000 HD 
HETATM    5  N   UNL     1     -11.010   9.177  67.885  1.00  0.00    -0.498 NA 
HETATM    6  N   UNL     1      -9.290   7.567  68.219  1.00  0.00    -0.141 NA 
HETATM    7  H1  UNL     1     -10.527   9.748  68.579  1.00  0.00     0.000 HD 
HETATM    8  H2  UNL     1     -11.863   9.458  67.403  1.00  0.00     0.000 HD 
HETATM    9  H   UNL     1      -8.904   6.653  67.987  1.00  0.00     0.000 HD 
ENDROOT
BRANCH   6  10
HETATM   10  C   UNL     1      -8.635   8.463  69.179  1.00  0.00    -0.134 C  
BRANCH  10  11
HETATM   11  C   UNL     1      -7.630   7.687  70.054  1.00  0.00    -0.087 C  
BRANCH  11  12
HETATM   12  N   UNL     1      -8.264   7.063  71.241  1.00  0.00    -0.112 NA 
HETATM   13  C   UNL     1      -9.588   7.631  71.527  1.00  0.00    -0.154 C  
HETATM   14  C   UNL     1     -10.100   7.412  72.957  1.00  0.00    -0.323 C  
HETATM   15  C   UNL     1      -9.024   7.558  74.038  1.00  0.00    -0.292 C  
HETATM   16  C   UNL     1      -8.481   6.228  74.566  1.00  0.00    -0.135 C  
HETATM   17  C   UNL     1      -7.666   5.377  73.587  1.00  0.00    -0.102 C  
HETATM   18  C   UNL     1      -8.471   4.819  72.407  1.00  0.00    -0.116 C  
HETATM   19  C   UNL     1      -8.291   5.601  71.097  1.00  0.00    -0.122 C  
ENDBRANCH  11  12
ENDBRANCH  10  11
ENDBRANCH   6  10
TORSDOF 3
ENDMDL
MODEL      214
REMARK 921   NORMALIZED FREE ENERGY PREDICTED BY IDOCK:   -2.49 KCAL/MOL
REMARK 922        TOTAL FREE ENERGY PREDICTED BY IDOCK:   -3.12 KCAL/MOL
REMARK 923 INTER-LIGAND FREE ENERGY PREDICTED BY IDOCK:   -2.91 KCAL/MOL
REMARK 924 INTRA-LIGAND FREE ENERGY PREDICTED BY IDOCK:   -0.21 KCAL/MOL
REMARK 927      BINDING AFFINITY PREDICTED BY RF-SCORE:    0.00 PKD
ROOT
HETATM    1  N   UNL     1      -7.930   4.109  65.361  1.00  0.00    -0.096 NA 
HETATM    2  C   UNL     1      -8.842   4.877  65.992  1.00  0.00    -0.126 C  
HETATM    3  H2  UNL     1      -7.467   4.364  64.490  1.00  0.00     0.000 HD 
HETATM    4  H1  UNL     1      -7.762   3.240  65.868  1.00  0.00     0.000 HD 
HETATM    5  N   UNL     1      -9.065   6.027  65.320  1.00  0.00    -0.370 NA 
HETATM    6  N   UNL     1      -9.347   4.476  67.102  1.00  0.00    -0.136 NA 
HETATM    7  H1  UNL     1      -9.755   6.609  65.797  1.00  0.00     0.000 HD 
HETATM    8  H2  UNL     1      -8.602   6.283  64.448  1.00  0.00     0.000 HD 
HETATM    9  H   UNL     1      -9.098   3.578  67.515  1.00  0.00     0.000 HD 
ENDROOT
BRANCH   6  10
HETATM   10  C   UNL     1     -10.304   5.385  67.744  1.00  0.00    -0.166 C  
BRANCH  10  11
HETATM   11  C   UNL     1     -10.514   5.003  69.222  1.00  0.00    -0.035 C  
BRANCH  11  12
HETATM   12  N   UNL     1     -10.323   6.150  70.145  1.00  0.00    -0.197 NA 
HETATM   13  C   UNL     1      -9.174   5.956  71.039  1.00  0.00    -0.150 C  
HETATM   14  C   UNL     1      -9.178   6.820  72.308  1.00  0.00    -0.138 C  
HETATM   15  C   UNL     1     -10.557   6.972  72.958  1.00  0.00    -0.323 C  
HETATM   16  C   UNL     1     -11.250   8.304  72.654  1.00  0.00    -0.410 C  
HETATM   17  C   UNL     1     -11.685   8.542  71.205  1.00  0.00    -0.331 C  
HETATM   18  C   UNL     1     -10.529   8.677  70.208  1.00  0.00    -0.229 C  
HETATM   19  C   UNL     1     -10.251   7.407  69.389  1.00  0.00    -0.201 C  
ENDBRANCH  11  12
ENDBRANCH  10  11
ENDBRANCH   6  10
TORSDOF 3
ENDMDL
MODEL      215
REMARK 921   NORMALIZED FREE ENERGY PREDICTED BY IDOCK:   -2.49 KCAL/MOL
REMARK 922        TOTAL FREE ENERGY PREDICTED BY IDOCK:   -3.11 KCAL/MOL
REMARK 923 INTER-LIGAND FREE ENERGY PREDICTED BY IDOCK:   -2.86 KCAL/MOL
REMARK 924 INTRA-LIGAND FREE ENERGY PREDICTED BY IDOCK:   -0.26 KCAL/MOL
REMARK 927      BINDING AFFINITY PREDICTED BY RF-SCORE:    0.00 PKD
ROOT
HETATM    1  N   UNL     1      -7.805   5.426  68.886  1.00  0.00    -0.083 NA 
HETATM    2  C   UNL     1      -8.655   6.387  69.304  1.00  0.00    -0.125 C  
HETATM    3  H2  UNL     1      -6.803   5.424  69.073  1.00  0.00     0.000 HD 
HETATM    4  H1  UNL     1      -8.293   4.702  68.359  1.00  0.00     0.000 HD 
HETATM    5  N   UNL     1      -8.008   7.345  70.003  1.00  0.00    -0.117 NA 
HETATM    6  N   UNL     1      -9.907   6.282  69.040  1.00  0.00    -0.140 NA 
HETATM    7  H1  UNL     1      -8.650   8.072  70.320  1.00  0.00     0.000 HD 
HETATM    8  H2  UNL     1      -7.006   7.343  70.190  1.00  0.00     0.000 HD 
HETATM    9  H   UNL     1     -10.281   5.503  68.499  1.00  0.00     0.000 HD 
ENDROOT
BRANCH   6  10
HETATM   10  C   UNL     1     -10.770   7.348  69.562  1.00  0.00    -0.224 C  
BRANCH  10  11
HETATM   11  C   UNL     1     -11.720   6.801  70.646  1.00  0.00    -0.386 C  
BRANCH  11  12
HETATM   12  N   UNL     1     -11.009   6.408  71.888  1.00  0.00    -0.242 NA 
HETATM   13  C   UNL     1     -10.657   7.567  72.717  1.00  0.00    -0.313 C  
HETATM   14  C   UNL     1      -9.539   7.327  73.740  1.00  0.00    -0.330 C  
HETATM   15  C   UNL     1      -8.388   6.462  73.217  1.00  0.00    -0.118 C  
HETATM   16  C   UNL     1      -8.439   5.004  73.682  1.00  0.00    -0.105 C  
HETATM   17  C   UNL     1      -9.590   4.148  73.146  1.00  0.00    -0.147 C  
HETATM   18  C   UNL     1     -10.980   4.572  73.637  1.00  0.00    -0.382 C  
HETATM   19  C   UNL     1     -11.783   5.397  72.621  1.00  0.00    -0.144 C  
ENDBRANCH  11  12
ENDBRANCH  10  11
ENDBRANCH   6  10
TORSDOF 3
ENDMDL
MODEL      216
REMARK 921   NORMALIZED FREE ENERGY PREDICTED BY IDOCK:   -2.48 KCAL/MOL
REMARK 922        TOTAL FREE ENERGY PREDICTED BY IDOCK:   -3.10 KCAL/MOL
REMARK 923 INTER-LIGAND FREE ENERGY PREDICTED BY IDOCK:   -2.90 KCAL/MOL
REMARK 924 INTRA-LIGAND FREE ENERGY PREDICTED BY IDOCK:   -0.20 KCAL/MOL
REMARK 927      BINDING AFFINITY PREDICTED BY RF-SCORE:    0.00 PKD
ROOT
HETATM    1  N   UNL     1     -11.944   5.975  72.634  1.00  0.00    -0.533 NA 
HETATM    2  C   UNL     1     -10.757   6.314  72.090  1.00  0.00    -0.231 C  
HETATM    3  H2  UNL     1     -12.051   5.492  73.526  1.00  0.00     0.000 HD 
HETATM    4  H1  UNL     1     -12.721   6.264  72.040  1.00  0.00     0.000 HD 
HETATM    5  N   UNL     1      -9.728   5.931  72.877  1.00  0.00    -0.155 NA 
HETATM    6  N   UNL     1     -10.731   6.947  70.974  1.00  0.00    -0.228 NA 
HETATM    7  H1  UNL     1      -8.830   6.187  72.466  1.00  0.00     0.000 HD 
HETATM    8  H2  UNL     1      -9.835   5.448  73.769  1.00  0.00     0.000 HD 
HETATM    9  H   UNL     1     -11.584   7.184  70.468  1.00  0.00     0.000 HD 
ENDROOT
BRANCH   6  10
HETATM   10  C   UNL     1      -9.403   7.312  70.467  1.00  0.00    -0.158 C  
BRANCH  10  11
HETATM   11  C   UNL     1      -9.328   7.116  68.940  1.00  0.00    -0.139 C  
BRANCH  11  12
HETATM   12  N   UNL     1      -9.274   8.400  68.197  1.00  0.00    -0.138 NA 
HETATM   13  C   UNL     1     -10.432   8.578  67.312  1.00  0.00    -0.296 C  
HETATM   14  C   UNL     1     -10.242   9.599  66.182  1.00  0.00    -0.276 C  
HETATM   15  C   UNL     1      -8.858   9.559  65.528  1.00  0.00    -0.201 C  
HETATM   16  C   UNL     1      -7.909  10.663  66.004  1.00  0.00    -0.156 C  
HETATM   17  C   UNL     1      -7.443  10.592  67.461  1.00  0.00    -0.093 C  
HETATM   18  C   UNL     1      -8.553  10.813  68.495  1.00  0.00    -0.148 C  
HETATM   19  C   UNL     1      -9.091   9.521  69.128  1.00  0.00    -0.152 C  
ENDBRANCH  11  12
ENDBRANCH  10  11
ENDBRANCH   6  10
TORSDOF 3
ENDMDL
MODEL      217
REMARK 921   NORMALIZED FREE ENERGY PREDICTED BY IDOCK:   -2.45 KCAL/MOL
REMARK 922        TOTAL FREE ENERGY PREDICTED BY IDOCK:   -3.06 KCAL/MOL
REMARK 923 INTER-LIGAND FREE ENERGY PREDICTED BY IDOCK:   -2.87 KCAL/MOL
REMARK 924 INTRA-LIGAND FREE ENERGY PREDICTED BY IDOCK:   -0.20 KCAL/MOL
REMARK 927      BINDING AFFINITY PREDICTED BY RF-SCORE:    0.00 PKD
ROOT
HETATM    1  N   UNL     1      -5.609  10.843  64.766  1.00  0.00    -0.403 NA 
HETATM    2  C   UNL     1      -6.207  10.560  65.942  1.00  0.00    -0.128 C  
HETATM    3  H2  UNL     1      -5.617  11.762  64.324  1.00  0.00     0.000 HD 
HETATM    4  H1  UNL     1      -5.148  10.021  64.377  1.00  0.00     0.000 HD 
HETATM    5  N   UNL     1      -6.817  11.649  66.459  1.00  0.00    -0.365 NA 
HETATM    6  N   UNL     1      -6.114   9.375  66.430  1.00  0.00    -0.059 NA 
HETATM    7  H1  UNL     1      -7.268  11.435  67.348  1.00  0.00     0.000 HD 
HETATM    8  H2  UNL     1      -6.825  12.567  66.016  1.00  0.00     0.000 HD 
HETATM    9  H   UNL     1      -5.621   8.629  65.941  1.00  0.00     0.000 HD 
ENDROOT
BRANCH   6  10
HETATM   10  C   UNL     1      -6.759   9.157  67.729  1.00  0.00    -0.065 C  
BRANCH  10  11
HETATM   11  C   UNL     1      -8.160   8.541  67.548  1.00  0.00    -0.107 C  
BRANCH  11  12
HETATM   12  N   UNL     1      -8.781   8.136  68.833  1.00  0.00    -0.137 NA 
HETATM   13  C   UNL     1     -10.023   7.377  68.635  1.00  0.00    -0.169 C  
HETATM   14  C   UNL     1     -10.964   7.333  69.846  1.00  0.00    -0.262 C  
HETATM   15  C   UNL     1     -11.064   8.656  70.611  1.00  0.00    -0.282 C  
HETATM   16  C   UNL     1     -10.231   8.703  71.895  1.00  0.00    -0.404 C  
HETATM   17  C   UNL     1      -8.708   8.682  71.731  1.00  0.00    -0.266 C  
HETATM   18  C   UNL     1      -8.148   7.371  71.167  1.00  0.00    -0.101 C  
HETATM   19  C   UNL     1      -7.806   7.425  69.670  1.00  0.00    -0.117 C  
ENDBRANCH  11  12
ENDBRANCH  10  11
ENDBRANCH   6  10
TORSDOF 3
ENDMDL
MODEL      218
REMARK 921   NORMALIZED FREE ENERGY PREDICTED BY IDOCK:   -2.41 KCAL/MOL
REMARK 922        TOTAL FREE ENERGY PREDICTED BY IDOCK:   -3.02 KCAL/MOL
REMARK 923 INTER-LIGAND FREE ENERGY PREDICTED BY IDOCK:   -2.90 KCAL/MOL
REMARK 924 INTRA-LIGAND FREE ENERGY PREDICTED BY IDOCK:   -0.11 KCAL/MOL
REMARK 927      BINDING AFFINITY PREDICTED BY RF-SCORE:    0.00 PKD
ROOT
HETATM    1  N   UNL     1     -11.128   5.703  66.818  1.00  0.00    -0.507 NA 
HETATM    2  C   UNL     1      -9.938   5.390  67.372  1.00  0.00    -0.168 C  
HETATM    3  H2  UNL     1     -11.707   5.048  66.294  1.00  0.00     0.000 HD 
HETATM    4  H1  UNL     1     -11.374   6.677  66.991  1.00  0.00     0.000 HD 
HETATM    5  N   UNL     1      -9.613   4.100  67.143  1.00  0.00    -0.193 NA 
HETATM    6  N   UNL     1      -9.298   6.282  68.038  1.00  0.00    -0.116 NA 
HETATM    7  H1  UNL     1      -8.713   3.863  67.562  1.00  0.00     0.000 HD 
HETATM    8  H2  UNL     1     -10.193   3.445  66.619  1.00  0.00     0.000 HD 
HETATM    9  H   UNL     1      -9.649   7.233  68.143  1.00  0.00     0.000 HD 
ENDROOT
BRANCH   6  10
HETATM   10  C   UNL     1      -8.030   5.853  68.641  1.00  0.00    -0.103 C  
BRANCH  10  11
HETATM   11  C   UNL     1      -7.563   6.863  69.708  1.00  0.00    -0.104 C  
BRANCH  11  12
HETATM   12  N   UNL     1      -8.430   6.866  70.913  1.00  0.00    -0.134 NA 
HETATM   13  C   UNL     1      -8.944   5.528  71.231  1.00  0.00    -0.142 C  
HETATM   14  C   UNL     1     -10.188   5.500  72.129  1.00  0.00    -0.247 C  
HETATM   15  C   UNL     1     -11.216   6.590  71.810  1.00  0.00    -0.312 C  
HETATM   16  C   UNL     1     -11.174   7.789  72.762  1.00  0.00    -0.456 C  
HETATM   17  C   UNL     1      -9.923   8.672  72.706  1.00  0.00    -0.053 C  
HETATM   18  C   UNL     1      -8.638   7.984  73.181  1.00  0.00    -0.281 C  
HETATM   19  C   UNL     1      -7.730   7.491  72.044  1.00  0.00    -0.089 C  
ENDBRANCH  11  12
ENDBRANCH  10  11
ENDBRANCH   6  10
TORSDOF 3
ENDMDL
MODEL      219
REMARK 921   NORMALIZED FREE ENERGY PREDICTED BY IDOCK:   -2.40 KCAL/MOL
REMARK 922        TOTAL FREE ENERGY PREDICTED BY IDOCK:   -3.01 KCAL/MOL
REMARK 923 INTER-LIGAND FREE ENERGY PREDICTED BY IDOCK:   -2.81 KCAL/MOL
REMARK 924 INTRA-LIGAND FREE ENERGY PREDICTED BY IDOCK:   -0.20 KCAL/MOL
REMARK 927      BINDING AFFINITY PREDICTED BY RF-SCORE:    0.00 PKD
ROOT
HETATM    1  N   UNL     1      -8.452   6.874  69.003  1.00  0.00    -0.128 NA 
HETATM    2  C   UNL     1      -8.148   8.187  69.071  1.00  0.00    -0.115 C  
HETATM    3  H2  UNL     1      -7.761   6.125  68.971  1.00  0.00     0.000 HD 
HETATM    4  H1  UNL     1      -9.461   6.727  68.988  1.00  0.00     0.000 HD 
HETATM    5  N   UNL     1      -6.811   8.381  69.092  1.00  0.00    -0.054 NA 
HETATM    6  N   UNL     1      -9.094   9.053  69.135  1.00  0.00    -0.139 NA 
HETATM    7  H1  UNL     1      -6.581   9.374  69.143  1.00  0.00     0.000 HD 
HETATM    8  H2  UNL     1      -6.121   7.632  69.060  1.00  0.00     0.000 HD 
HETATM    9  H   UNL     1     -10.076   8.781  69.111  1.00  0.00     0.000 HD 
ENDROOT
BRANCH   6  10
HETATM   10  C   UNL     1      -8.681  10.456  69.244  1.00  0.00    -0.150 C  
BRANCH  10  11
HETATM   11  C   UNL     1      -8.760  11.157  67.874  1.00  0.00    -0.136 C  
BRANCH  11  12
HETATM   12  N   UNL     1      -9.579  12.395  67.907  1.00  0.00    -0.198 NA 
HETATM   13  C   UNL     1      -9.043  13.439  67.026  1.00  0.00    -0.243 C  
HETATM   14  C   UNL     1      -9.511  14.866  67.340  1.00  0.00    -0.206 C  
HETATM   15  C   UNL     1      -9.593  15.184  68.836  1.00  0.00    -0.223 C  
HETATM   16  C   UNL     1     -11.011  15.130  69.412  1.00  0.00    -0.268 C  
HETATM   17  C   UNL     1     -11.684  13.755  69.463  1.00  0.00    -0.380 C  
HETATM   18  C   UNL     1     -11.994  13.148  68.089  1.00  0.00    -0.333 C  
HETATM   19  C   UNL     1     -10.987  12.082  67.630  1.00  0.00    -0.238 C  
ENDBRANCH  11  12
ENDBRANCH  10  11
ENDBRANCH   6  10
TORSDOF 3
ENDMDL
MODEL      220
REMARK 921   NORMALIZED FREE ENERGY PREDICTED BY IDOCK:   -2.36 KCAL/MOL
REMARK 922        TOTAL FREE ENERGY PREDICTED BY IDOCK:   -2.96 KCAL/MOL
REMARK 923 INTER-LIGAND FREE ENERGY PREDICTED BY IDOCK:   -2.71 KCAL/MOL
REMARK 924 INTRA-LIGAND FREE ENERGY PREDICTED BY IDOCK:   -0.25 KCAL/MOL
REMARK 927      BINDING AFFINITY PREDICTED BY RF-SCORE:    0.00 PKD
ROOT
HETATM    1  N   UNL     1      -8.988   3.635  73.386  1.00  0.00    -0.094 NA 
HETATM    2  C   UNL     1      -9.680   4.657  72.841  1.00  0.00    -0.136 C  
HETATM    3  H2  UNL     1      -9.032   3.370  74.369  1.00  0.00     0.000 HD 
HETATM    4  H1  UNL     1      -8.416   3.160  72.687  1.00  0.00     0.000 HD 
HETATM    5  N   UNL     1     -10.438   5.285  73.766  1.00  0.00    -0.244 NA 
HETATM    6  N   UNL     1      -9.577   4.892  71.583  1.00  0.00    -0.152 NA 
HETATM    7  H1  UNL     1     -10.961   6.058  73.355  1.00  0.00     0.000 HD 
HETATM    8  H2  UNL     1     -10.481   5.020  74.750  1.00  0.00     0.000 HD 
HETATM    9  H   UNL     1      -8.965   4.342  70.981  1.00  0.00     0.000 HD 
ENDROOT
BRANCH   6  10
HETATM   10  C   UNL     1     -10.389   5.997  71.061  1.00  0.00    -0.216 C  
BRANCH  10  11
HETATM   11  C   UNL     1      -9.493   7.164  70.603  1.00  0.00    -0.161 C  
BRANCH  11  12
HETATM   12  N   UNL     1      -9.370   7.250  69.127  1.00  0.00    -0.146 NA 
HETATM   13  C   UNL     1      -8.107   6.680  68.641  1.00  0.00    -0.119 C  
HETATM   14  C   UNL     1      -7.678   7.137  67.240  1.00  0.00    -0.109 C  
HETATM   15  C   UNL     1      -7.933   8.621  66.959  1.00  0.00    -0.096 C  
HETATM   16  C   UNL     1      -9.183   8.893  66.116  1.00  0.00    -0.273 C  
HETATM   17  C   UNL     1     -10.535   8.577  66.763  1.00  0.00    -0.308 C  
HETATM   18  C   UNL     1     -10.781   7.086  67.025  1.00  0.00    -0.423 C  
HETATM   19  C   UNL     1     -10.549   6.655  68.481  1.00  0.00    -0.233 C  
ENDBRANCH  11  12
ENDBRANCH  10  11
ENDBRANCH   6  10
TORSDOF 3
ENDMDL
MODEL      221
REMARK 921   NORMALIZED FREE ENERGY PREDICTED BY IDOCK:   -2.34 KCAL/MOL
REMARK 922        TOTAL FREE ENERGY PREDICTED BY IDOCK:   -2.94 KCAL/MOL
REMARK 923 INTER-LIGAND FREE ENERGY PREDICTED BY IDOCK:   -2.87 KCAL/MOL
REMARK 924 INTRA-LIGAND FREE ENERGY PREDICTED BY IDOCK:   -0.07 KCAL/MOL
REMARK 927      BINDING AFFINITY PREDICTED BY RF-SCORE:    0.00 PKD
ROOT
HETATM    1  N   UNL     1     -10.825   4.454  73.315  1.00  0.00    -0.233 NA 
HETATM    2  C   UNL     1      -9.868   4.289  72.378  1.00  0.00    -0.158 C  
HETATM    3  H2  UNL     1     -10.652   4.457  74.319  1.00  0.00     0.000 HD 
HETATM    4  H1  UNL     1     -11.744   4.576  72.890  1.00  0.00     0.000 HD 
HETATM    5  N   UNL     1      -8.651   4.128  72.942  1.00  0.00    -0.100 NA 
HETATM    6  N   UNL     1     -10.187   4.330  71.135  1.00  0.00    -0.091 NA 
HETATM    7  H1  UNL     1      -7.927   4.004  72.234  1.00  0.00     0.000 HD 
HETATM    8  H2  UNL     1      -8.478   4.131  73.946  1.00  0.00     0.000 HD 
HETATM    9  H   UNL     1     -11.150   4.460  70.829  1.00  0.00     0.000 HD 
ENDROOT
BRANCH   6  10
HETATM   10  C   UNL     1      -9.084   4.180  70.179  1.00  0.00    -0.113 C  
BRANCH  10  11
HETATM   11  C   UNL     1      -8.469   5.550  69.834  1.00  0.00    -0.116 C  
BRANCH  11  12
HETATM   12  N   UNL     1      -9.156   6.677  70.513  1.00  0.00    -0.152 NA 
HETATM   13  C   UNL     1      -8.228   7.503  71.295  1.00  0.00    -0.100 C  
HETATM   14  C   UNL     1      -8.878   8.367  72.384  1.00  0.00    -0.294 C  
HETATM   15  C   UNL     1     -10.010   7.670  73.145  1.00  0.00    -0.363 C  
HETATM   16  C   UNL     1     -11.414   8.076  72.690  1.00  0.00    -0.465 C  
HETATM   17  C   UNL     1     -11.833   7.653  71.279  1.00  0.00    -0.316 C  
HETATM   18  C   UNL     1     -11.044   8.331  70.152  1.00  0.00    -0.189 C  
HETATM   19  C   UNL     1      -9.937   7.458  69.544  1.00  0.00    -0.179 C  
ENDBRANCH  11  12
ENDBRANCH  10  11
ENDBRANCH   6  10
TORSDOF 3
ENDMDL
MODEL      222
REMARK 921   NORMALIZED FREE ENERGY PREDICTED BY IDOCK:   -2.30 KCAL/MOL
REMARK 922        TOTAL FREE ENERGY PREDICTED BY IDOCK:   -2.89 KCAL/MOL
REMARK 923 INTER-LIGAND FREE ENERGY PREDICTED BY IDOCK:   -2.69 KCAL/MOL
REMARK 924 INTRA-LIGAND FREE ENERGY PREDICTED BY IDOCK:   -0.19 KCAL/MOL
REMARK 927      BINDING AFFINITY PREDICTED BY RF-SCORE:    0.00 PKD
ROOT
HETATM    1  N   UNL     1      -6.796   5.941  66.724  1.00  0.00    -0.058 NA 
HETATM    2  C   UNL     1      -7.357   6.984  67.369  1.00  0.00    -0.092 C  
HETATM    3  H2  UNL     1      -6.167   5.267  67.159  1.00  0.00     0.000 HD 
HETATM    4  H1  UNL     1      -7.081   5.913  65.745  1.00  0.00     0.000 HD 
HETATM    5  N   UNL     1      -6.979   7.021  68.666  1.00  0.00    -0.076 NA 
HETATM    6  N   UNL     1      -8.160   7.762  66.737  1.00  0.00    -0.113 NA 
HETATM    7  H1  UNL     1      -7.404   7.809  69.154  1.00  0.00     0.000 HD 
HETATM    8  H2  UNL     1      -6.351   6.346  69.101  1.00  0.00     0.000 HD 
HETATM    9  H   UNL     1      -8.370   7.631  65.748  1.00  0.00     0.000 HD 
ENDROOT
BRANCH   6  10
HETATM   10  C   UNL     1      -8.757   8.850  67.518  1.00  0.00    -0.123 C  
BRANCH  10  11
HETATM   11  C   UNL     1      -7.961  10.157  67.333  1.00  0.00    -0.110 C  
BRANCH  11  12
HETATM   12  N   UNL     1      -8.831  11.324  67.043  1.00  0.00    -0.149 NA 
HETATM   13  C   UNL     1      -8.204  12.594  67.430  1.00  0.00    -0.184 C  
HETATM   14  C   UNL     1      -9.169  13.772  67.618  1.00  0.00    -0.207 C  
HETATM   15  C   UNL     1     -10.485  13.400  68.309  1.00  0.00    -0.256 C  
HETATM   16  C   UNL     1     -11.669  13.234  67.354  1.00  0.00    -0.419 C  
HETATM   17  C   UNL     1     -11.613  12.051  66.382  1.00  0.00    -0.381 C  
HETATM   18  C   UNL     1     -10.506  12.149  65.326  1.00  0.00    -0.311 C  
HETATM   19  C   UNL     1      -9.261  11.305  65.638  1.00  0.00    -0.213 C  
ENDBRANCH  11  12
ENDBRANCH  10  11
ENDBRANCH   6  10
TORSDOF 3
ENDMDL
MODEL      223
REMARK 921   NORMALIZED FREE ENERGY PREDICTED BY IDOCK:   -2.29 KCAL/MOL
REMARK 922        TOTAL FREE ENERGY PREDICTED BY IDOCK:   -2.88 KCAL/MOL
REMARK 923 INTER-LIGAND FREE ENERGY PREDICTED BY IDOCK:   -2.84 KCAL/MOL
REMARK 924 INTRA-LIGAND FREE ENERGY PREDICTED BY IDOCK:   -0.04 KCAL/MOL
REMARK 927      BINDING AFFINITY PREDICTED BY RF-SCORE:    0.00 PKD
ROOT
HETATM    1  N   UNL     1     -11.550   9.012  69.709  1.00  0.00    -0.419 NA 
HETATM    2  C   UNL     1     -11.608   8.185  70.773  1.00  0.00    -0.238 C  
HETATM    3  H2  UNL     1     -12.065   8.869  68.841  1.00  0.00     0.000 HD 
HETATM    4  H1  UNL     1     -10.926   9.799  69.884  1.00  0.00     0.000 HD 
HETATM    5  N   UNL     1     -12.435   7.143  70.542  1.00  0.00    -0.614 NA 
HETATM    6  N   UNL     1     -10.941   8.470  71.833  1.00  0.00    -0.299 NA 
HETATM    7  H1  UNL     1     -12.479   6.517  71.347  1.00  0.00     0.000 HD 
HETATM    8  H2  UNL     1     -12.950   6.999  69.674  1.00  0.00     0.000 HD 
HETATM    9  H   UNL     1     -10.344   9.295  71.889  1.00  0.00     0.000 HD 
ENDROOT
BRANCH   6  10
HETATM   10  C   UNL     1     -11.086   7.541  72.959  1.00  0.00    -0.362 C  
BRANCH  10  11
HETATM   11  C   UNL     1     -10.306   6.237  72.696  1.00  0.00    -0.199 C  
BRANCH  11  12
HETATM   12  N   UNL     1      -8.887   6.479  72.334  1.00  0.00    -0.133 NA 
HETATM   13  C   UNL     1      -7.996   6.394  73.498  1.00  0.00    -0.099 C  
HETATM   14  C   UNL     1      -6.633   7.079  73.332  1.00  0.00    -0.066 C  
HETATM   15  C   UNL     1      -6.691   8.417  72.588  1.00  0.00    -0.103 C  
HETATM   16  C   UNL     1      -6.266   8.337  71.119  1.00  0.00    -0.036 C  
HETATM   17  C   UNL     1      -7.179   7.546  70.178  1.00  0.00    -0.068 C  
HETATM   18  C   UNL     1      -7.234   6.040  70.462  1.00  0.00    -0.083 C  
HETATM   19  C   UNL     1      -8.480   5.590  71.238  1.00  0.00    -0.127 C  
ENDBRANCH  11  12
ENDBRANCH  10  11
ENDBRANCH   6  10
TORSDOF 3
ENDMDL
MODEL      224
REMARK 921   NORMALIZED FREE ENERGY PREDICTED BY IDOCK:   -2.25 KCAL/MOL
REMARK 922        TOTAL FREE ENERGY PREDICTED BY IDOCK:   -2.83 KCAL/MOL
REMARK 923 INTER-LIGAND FREE ENERGY PREDICTED BY IDOCK:   -2.44 KCAL/MOL
REMARK 924 INTRA-LIGAND FREE ENERGY PREDICTED BY IDOCK:   -0.40 KCAL/MOL
REMARK 927      BINDING AFFINITY PREDICTED BY RF-SCORE:    0.00 PKD
ROOT
HETATM    1  N   UNL     1     -11.363   8.783  69.645  1.00  0.00    -0.434 NA 
HETATM    2  C   UNL     1     -10.943   7.601  70.140  1.00  0.00    -0.246 C  
HETATM    3  H2  UNL     1     -12.261   8.926  69.184  1.00  0.00     0.000 HD 
HETATM    4  H1  UNL     1     -10.668   9.515  69.790  1.00  0.00     0.000 HD 
HETATM    5  N   UNL     1     -11.863   6.632  69.947  1.00  0.00    -0.653 NA 
HETATM    6  N   UNL     1      -9.804   7.532  70.730  1.00  0.00    -0.178 NA 
HETATM    7  H1  UNL     1     -11.545   5.738  70.323  1.00  0.00     0.000 HD 
HETATM    8  H2  UNL     1     -12.761   6.775  69.486  1.00  0.00     0.000 HD 
HETATM    9  H   UNL     1      -9.190   8.342  70.815  1.00  0.00     0.000 HD 
ENDROOT
BRANCH   6  10
HETATM   10  C   UNL     1      -9.435   6.220  71.274  1.00  0.00    -0.159 C  
BRANCH  10  11
HETATM   11  C   UNL     1      -8.245   5.621  70.498  1.00  0.00    -0.116 C  
BRANCH  11  12
HETATM   12  N   UNL     1      -7.684   6.559  69.493  1.00  0.00    -0.098 NA 
HETATM   13  C   UNL     1      -6.306   6.954  69.812  1.00  0.00    -0.039 C  
HETATM   14  C   UNL     1      -5.821   8.244  69.136  1.00  0.00    -0.035 C  
HETATM   15  C   UNL     1      -6.875   9.354  69.076  1.00  0.00    -0.054 C  
HETATM   16  C   UNL     1      -7.561   9.494  67.714  1.00  0.00    -0.087 C  
HETATM   17  C   UNL     1      -8.464   8.338  67.274  1.00  0.00    -0.124 C  
HETATM   18  C   UNL     1      -7.725   7.023  67.000  1.00  0.00    -0.107 C  
HETATM   19  C   UNL     1      -7.818   5.999  68.142  1.00  0.00    -0.106 C  
ENDBRANCH  11  12
ENDBRANCH  10  11
ENDBRANCH   6  10
TORSDOF 3
ENDMDL
MODEL      225
REMARK 921   NORMALIZED FREE ENERGY PREDICTED BY IDOCK:   -2.25 KCAL/MOL
REMARK 922        TOTAL FREE ENERGY PREDICTED BY IDOCK:   -2.83 KCAL/MOL
REMARK 923 INTER-LIGAND FREE ENERGY PREDICTED BY IDOCK:   -2.61 KCAL/MOL
REMARK 924 INTRA-LIGAND FREE ENERGY PREDICTED BY IDOCK:   -0.22 KCAL/MOL
REMARK 927      BINDING AFFINITY PREDICTED BY RF-SCORE:    0.00 PKD
ROOT
HETATM    1  N   UNL     1      -7.711   5.794  68.849  1.00  0.00    -0.089 NA 
HETATM    2  C   UNL     1      -8.505   6.642  69.534  1.00  0.00    -0.132 C  
HETATM    3  H2  UNL     1      -7.149   5.060  69.277  1.00  0.00     0.000 HD 
HETATM    4  H1  UNL     1      -7.745   5.982  67.847  1.00  0.00     0.000 HD 
HETATM    5  N   UNL     1      -8.460   6.394  70.861  1.00  0.00    -0.130 NA 
HETATM    6  N   UNL     1      -9.196   7.517  68.896  1.00  0.00    -0.143 NA 
HETATM    7  H1  UNL     1      -9.061   7.035  71.380  1.00  0.00     0.000 HD 
HETATM    8  H2  UNL     1      -7.898   5.659  71.290  1.00  0.00     0.000 HD 
HETATM    9  H   UNL     1      -9.146   7.609  67.882  1.00  0.00     0.000 HD 
ENDROOT
BRANCH   6  10
HETATM   10  C   UNL     1     -10.063   8.377  69.711  1.00  0.00    -0.197 C  
BRANCH  10  11
HETATM   11  C   UNL     1      -9.399   9.747  69.955  1.00  0.00    -0.231 C  
BRANCH  11  12
HETATM   12  N   UNL     1      -9.467  10.638  68.770  1.00  0.00    -0.176 NA 
HETATM   13  C   UNL     1     -10.661  11.492  68.785  1.00  0.00    -0.211 C  
HETATM   14  C   UNL     1     -11.066  12.078  67.426  1.00  0.00    -0.337 C  
HETATM   15  C   UNL     1     -10.915  11.103  66.254  1.00  0.00    -0.227 C  
HETATM   16  C   UNL     1      -9.657  11.326  65.410  1.00  0.00    -0.261 C  
HETATM   17  C   UNL     1      -8.312  11.037  66.084  1.00  0.00    -0.163 C  
HETATM   18  C   UNL     1      -7.962  11.986  67.236  1.00  0.00    -0.174 C  
HETATM   19  C   UNL     1      -8.220  11.403  68.634  1.00  0.00    -0.142 C  
ENDBRANCH  11  12
ENDBRANCH  10  11
ENDBRANCH   6  10
TORSDOF 3
ENDMDL
MODEL      226
REMARK 921   NORMALIZED FREE ENERGY PREDICTED BY IDOCK:   -2.25 KCAL/MOL
REMARK 922        TOTAL FREE ENERGY PREDICTED BY IDOCK:   -2.83 KCAL/MOL
REMARK 923 INTER-LIGAND FREE ENERGY PREDICTED BY IDOCK:   -2.50 KCAL/MOL
REMARK 924 INTRA-LIGAND FREE ENERGY PREDICTED BY IDOCK:   -0.33 KCAL/MOL
REMARK 927      BINDING AFFINITY PREDICTED BY RF-SCORE:    0.00 PKD
ROOT
HETATM    1  N   UNL     1      -8.078   7.984  74.282  1.00  0.00    -0.241 NA 
HETATM    2  C   UNL     1      -7.773   7.979  72.968  1.00  0.00    -0.144 C  
HETATM    3  H2  UNL     1      -8.564   7.228  74.762  1.00  0.00     0.000 HD 
HETATM    4  H1  UNL     1      -7.759   8.841  74.733  1.00  0.00     0.000 HD 
HETATM    5  N   UNL     1      -8.196   6.844  72.370  1.00  0.00    -0.104 NA 
HETATM    6  N   UNL     1      -7.132   8.970  72.463  1.00  0.00    -0.315 NA 
HETATM    7  H1  UNL     1      -7.965   6.839  71.376  1.00  0.00     0.000 HD 
HETATM    8  H2  UNL     1      -8.682   6.087  72.850  1.00  0.00     0.000 HD 
HETATM    9  H   UNL     1      -6.864   9.780  73.022  1.00  0.00     0.000 HD 
ENDROOT
BRANCH   6  10
HETATM   10  C   UNL     1      -6.807   8.872  71.036  1.00  0.00    -0.081 C  
BRANCH  10  11
HETATM   11  C   UNL     1      -7.682   9.834  70.208  1.00  0.00    -0.172 C  
BRANCH  11  12
HETATM   12  N   UNL     1      -8.335   9.167  69.053  1.00  0.00    -0.124 NA 
HETATM   13  C   UNL     1      -7.585   7.991  68.596  1.00  0.00    -0.100 C  
HETATM   14  C   UNL     1      -7.894   7.532  67.164  1.00  0.00    -0.117 C  
HETATM   15  C   UNL     1      -8.080   8.679  66.165  1.00  0.00    -0.108 C  
HETATM   16  C   UNL     1      -9.543   8.998  65.843  1.00  0.00    -0.317 C  
HETATM   17  C   UNL     1     -10.389   9.583  66.977  1.00  0.00    -0.319 C  
HETATM   18  C   UNL     1     -10.639   8.621  68.145  1.00  0.00    -0.189 C  
HETATM   19  C   UNL     1      -9.738   8.863  69.365  1.00  0.00    -0.169 C  
ENDBRANCH  11  12
ENDBRANCH  10  11
ENDBRANCH   6  10
TORSDOF 3
ENDMDL
MODEL      227
REMARK 921   NORMALIZED FREE ENERGY PREDICTED BY IDOCK:   -2.22 KCAL/MOL
REMARK 922        TOTAL FREE ENERGY PREDICTED BY IDOCK:   -2.80 KCAL/MOL
REMARK 923 INTER-LIGAND FREE ENERGY PREDICTED BY IDOCK:   -2.51 KCAL/MOL
REMARK 924 INTRA-LIGAND FREE ENERGY PREDICTED BY IDOCK:   -0.29 KCAL/MOL
REMARK 927      BINDING AFFINITY PREDICTED BY RF-SCORE:    0.00 PKD
ROOT
HETATM    1  N   UNL     1      -6.040   1.716  72.876  1.00  0.00    -0.008 NA 
HETATM    2  C   UNL     1      -6.402   3.011  72.767  1.00  0.00    -0.010 C  
HETATM    3  H2  UNL     1      -6.030   1.194  73.752  1.00  0.00     0.000 HD 
HETATM    4  H1  UNL     1      -5.778   1.326  71.971  1.00  0.00     0.000 HD 
HETATM    5  N   UNL     1      -6.749   3.527  73.965  1.00  0.00    -0.042 NA 
HETATM    6  N   UNL     1      -6.408   3.570  71.611  1.00  0.00    -0.014 NA 
HETATM    7  H1  UNL     1      -7.023   4.507  73.883  1.00  0.00     0.000 HD 
HETATM    8  H2  UNL     1      -6.739   3.006  74.841  1.00  0.00     0.000 HD 
HETATM    9  H   UNL     1      -6.122   3.071  70.769  1.00  0.00     0.000 HD 
ENDROOT
BRANCH   6  10
HETATM   10  C   UNL     1      -6.849   4.969  71.570  1.00  0.00    -0.048 C  
BRANCH  10  11
HETATM   11  C   UNL     1      -8.202   5.094  70.843  1.00  0.00    -0.110 C  
BRANCH  11  12
HETATM   12  N   UNL     1      -9.162   5.970  71.561  1.00  0.00    -0.143 NA 
HETATM   13  C   UNL     1     -10.305   5.220  72.095  1.00  0.00    -0.212 C  
HETATM   14  C   UNL     1     -11.548   6.060  72.418  1.00  0.00    -0.349 C  
HETATM   15  C   UNL     1     -11.846   7.158  71.392  1.00  0.00    -0.344 C  
HETATM   16  C   UNL     1     -11.404   8.558  71.826  1.00  0.00    -0.377 C  
HETATM   17  C   UNL     1      -9.896   8.801  71.945  1.00  0.00    -0.395 C  
HETATM   18  C   UNL     1      -9.212   8.010  73.067  1.00  0.00    -0.337 C  
HETATM   19  C   UNL     1      -8.465   6.756  72.588  1.00  0.00    -0.121 C  
ENDBRANCH  11  12
ENDBRANCH  10  11
ENDBRANCH   6  10
TORSDOF 3
ENDMDL
MODEL      228
REMARK 921   NORMALIZED FREE ENERGY PREDICTED BY IDOCK:   -2.22 KCAL/MOL
REMARK 922        TOTAL FREE ENERGY PREDICTED BY IDOCK:   -2.79 KCAL/MOL
REMARK 923 INTER-LIGAND FREE ENERGY PREDICTED BY IDOCK:   -2.60 KCAL/MOL
REMARK 924 INTRA-LIGAND FREE ENERGY PREDICTED BY IDOCK:   -0.19 KCAL/MOL
REMARK 927      BINDING AFFINITY PREDICTED BY RF-SCORE:    0.00 PKD
ROOT
HETATM    1  N   UNL     1      -7.716   8.454  73.816  1.00  0.00    -0.342 NA 
HETATM    2  C   UNL     1      -8.527   7.693  73.052  1.00  0.00    -0.144 C  
HETATM    3  H2  UNL     1      -8.012   8.938  74.663  1.00  0.00     0.000 HD 
HETATM    4  H1  UNL     1      -6.769   8.482  73.438  1.00  0.00     0.000 HD 
HETATM    5  N   UNL     1      -9.781   7.655  73.553  1.00  0.00    -0.300 NA 
HETATM    6  N   UNL     1      -8.049   7.100  72.018  1.00  0.00    -0.099 NA 
HETATM    7  H1  UNL     1     -10.394   7.079  72.975  1.00  0.00     0.000 HD 
HETATM    8  H2  UNL     1     -10.077   8.139  74.399  1.00  0.00     0.000 HD 
HETATM    9  H   UNL     1      -7.074   7.206  71.738  1.00  0.00     0.000 HD 
ENDROOT
BRANCH   6  10
HETATM   10  C   UNL     1      -8.985   6.262  71.261  1.00  0.00    -0.139 C  
BRANCH  10  11
HETATM   11  C   UNL     1      -8.292   5.638  70.034  1.00  0.00    -0.121 C  
BRANCH  11  12
HETATM   12  N   UNL     1      -8.688   6.285  68.759  1.00  0.00    -0.121 NA 
HETATM   13  C   UNL     1      -7.580   7.026  68.144  1.00  0.00    -0.108 C  
HETATM   14  C   UNL     1      -7.992   8.091  67.119  1.00  0.00    -0.113 C  
HETATM   15  C   UNL     1      -9.238   8.890  67.512  1.00  0.00    -0.153 C  
HETATM   16  C   UNL     1     -10.521   8.438  66.808  1.00  0.00    -0.315 C  
HETATM   17  C   UNL     1     -11.053   7.048  67.169  1.00  0.00    -0.298 C  
HETATM   18  C   UNL     1     -10.153   5.888  66.726  1.00  0.00    -0.235 C  
HETATM   19  C   UNL     1      -9.288   5.298  67.850  1.00  0.00    -0.116 C  
ENDBRANCH  11  12
ENDBRANCH  10  11
ENDBRANCH   6  10
TORSDOF 3
ENDMDL
MODEL      229
REMARK 921   NORMALIZED FREE ENERGY PREDICTED BY IDOCK:   -2.18 KCAL/MOL
REMARK 922        TOTAL FREE ENERGY PREDICTED BY IDOCK:   -2.75 KCAL/MOL
REMARK 923 INTER-LIGAND FREE ENERGY PREDICTED BY IDOCK:   -2.50 KCAL/MOL
REMARK 924 INTRA-LIGAND FREE ENERGY PREDICTED BY IDOCK:   -0.25 KCAL/MOL
REMARK 927      BINDING AFFINITY PREDICTED BY RF-SCORE:    0.00 PKD
ROOT
HETATM    1  N   UNL     1      -7.216   3.545  66.103  1.00  0.00    -0.066 NA 
HETATM    2  C   UNL     1      -8.378   4.202  65.909  1.00  0.00    -0.109 C  
HETATM    3  H2  UNL     1      -6.561   3.304  65.360  1.00  0.00     0.000 HD 
HETATM    4  H1  UNL     1      -7.077   3.320  67.088  1.00  0.00     0.000 HD 
HETATM    5  N   UNL     1      -8.562   4.501  64.605  1.00  0.00    -0.133 NA 
HETATM    6  N   UNL     1      -9.122   4.483  66.918  1.00  0.00    -0.119 NA 
HETATM    7  H1  UNL     1      -9.441   4.999  64.458  1.00  0.00     0.000 HD 
HETATM    8  H2  UNL     1      -7.907   4.260  63.862  1.00  0.00     0.000 HD 
HETATM    9  H   UNL     1      -8.873   4.202  67.866  1.00  0.00     0.000 HD 
ENDROOT
BRANCH   6  10
HETATM   10  C   UNL     1     -10.350   5.232  66.628  1.00  0.00    -0.283 C  
BRANCH  10  11
HETATM   11  C   UNL     1     -10.771   6.083  67.843  1.00  0.00    -0.284 C  
BRANCH  11  12
HETATM   12  N   UNL     1     -10.241   7.468  67.785  1.00  0.00    -0.188 NA 
HETATM   13  C   UNL     1      -9.019   7.629  68.584  1.00  0.00    -0.133 C  
HETATM   14  C   UNL     1      -8.676   9.073  68.974  1.00  0.00    -0.138 C  
HETATM   15  C   UNL     1      -9.889   9.921  69.367  1.00  0.00    -0.231 C  
HETATM   16  C   UNL     1     -10.377  10.866  68.265  1.00  0.00    -0.194 C  
HETATM   17  C   UNL     1     -10.984  10.218  67.017  1.00  0.00    -0.189 C  
HETATM   18  C   UNL     1      -9.990   9.411  66.174  1.00  0.00    -0.351 C  
HETATM   19  C   UNL     1     -10.069   7.892  66.389  1.00  0.00    -0.079 C  
ENDBRANCH  11  12
ENDBRANCH  10  11
ENDBRANCH   6  10
TORSDOF 3
ENDMDL
MODEL      230
REMARK 921   NORMALIZED FREE ENERGY PREDICTED BY IDOCK:   -2.17 KCAL/MOL
REMARK 922        TOTAL FREE ENERGY PREDICTED BY IDOCK:   -2.74 KCAL/MOL
REMARK 923 INTER-LIGAND FREE ENERGY PREDICTED BY IDOCK:   -2.44 KCAL/MOL
REMARK 924 INTRA-LIGAND FREE ENERGY PREDICTED BY IDOCK:   -0.30 KCAL/MOL
REMARK 927      BINDING AFFINITY PREDICTED BY RF-SCORE:    0.00 PKD
ROOT
HETATM    1  N   UNL     1      -6.668   8.638  70.284  1.00  0.00    -0.038 NA 
HETATM    2  C   UNL     1      -8.010   8.634  70.420  1.00  0.00    -0.101 C  
HETATM    3  H2  UNL     1      -6.073   9.446  70.466  1.00  0.00     0.000 HD 
HETATM    4  H1  UNL     1      -6.323   7.728  69.976  1.00  0.00     0.000 HD 
HETATM    5  N   UNL     1      -8.465   9.839  70.828  1.00  0.00    -0.378 NA 
HETATM    6  N   UNL     1      -8.666   7.554  70.193  1.00  0.00    -0.141 NA 
HETATM    7  H1  UNL     1      -9.480   9.837  70.931  1.00  0.00     0.000 HD 
HETATM    8  H2  UNL     1      -7.871  10.647  71.010  1.00  0.00     0.000 HD 
HETATM    9  H   UNL     1      -8.205   6.698  69.886  1.00  0.00     0.000 HD 
ENDROOT
BRANCH   6  10
HETATM   10  C   UNL     1     -10.117   7.622  70.399  1.00  0.00    -0.190 C  
BRANCH  10  11
HETATM   11  C   UNL     1     -10.841   7.963  69.081  1.00  0.00    -0.038 C  
BRANCH  11  12
HETATM   12  N   UNL     1     -10.200   7.342  67.896  1.00  0.00    -0.180 NA 
HETATM   13  C   UNL     1     -11.024   6.275  67.314  1.00  0.00    -0.366 C  
HETATM   14  C   UNL     1     -10.273   5.279  66.421  1.00  0.00    -0.289 C  
HETATM   15  C   UNL     1      -8.887   4.889  66.945  1.00  0.00    -0.106 C  
HETATM   16  C   UNL     1      -7.729   5.613  66.252  1.00  0.00    -0.099 C  
HETATM   17  C   UNL     1      -7.615   7.121  66.491  1.00  0.00    -0.092 C  
HETATM   18  C   UNL     1      -8.761   7.947  65.896  1.00  0.00    -0.180 C  
HETATM   19  C   UNL     1      -9.827   8.372  66.917  1.00  0.00    -0.245 C  
ENDBRANCH  11  12
ENDBRANCH  10  11
ENDBRANCH   6  10
TORSDOF 3
ENDMDL
MODEL      231
REMARK 921   NORMALIZED FREE ENERGY PREDICTED BY IDOCK:   -2.16 KCAL/MOL
REMARK 922        TOTAL FREE ENERGY PREDICTED BY IDOCK:   -2.72 KCAL/MOL
REMARK 923 INTER-LIGAND FREE ENERGY PREDICTED BY IDOCK:   -3.20 KCAL/MOL
REMARK 924 INTRA-LIGAND FREE ENERGY PREDICTED BY IDOCK:    0.48 KCAL/MOL
REMARK 927      BINDING AFFINITY PREDICTED BY RF-SCORE:    0.00 PKD
ROOT
HETATM    1  N   UNL     1      -7.913   7.661  73.967  1.00  0.00    -0.147 NA 
HETATM    2  C   UNL     1      -9.145   7.866  73.460  1.00  0.00    -0.282 C  
HETATM    3  H2  UNL     1      -7.711   7.054  74.761  1.00  0.00     0.000 HD 
HETATM    4  H1  UNL     1      -7.207   8.190  73.454  1.00  0.00     0.000 HD 
HETATM    5  N   UNL     1     -10.079   7.166  74.139  1.00  0.00    -0.442 NA 
HETATM    6  N   UNL     1      -9.290   8.630  72.437  1.00  0.00    -0.326 NA 
HETATM    7  H1  UNL     1     -11.012   7.320  73.756  1.00  0.00     0.000 HD 
HETATM    8  H2  UNL     1      -9.878   6.559  74.933  1.00  0.00     0.000 HD 
HETATM    9  H   UNL     1      -8.500   9.109  72.007  1.00  0.00     0.000 HD 
ENDROOT
BRANCH   6  10
HETATM   10  C   UNL     1     -10.657   8.772  71.923  1.00  0.00    -0.354 C  
BRANCH  10  11
HETATM   11  C   UNL     1     -10.700   9.780  70.758  1.00  0.00    -0.323 C  
BRANCH  11  12
HETATM   12  N   UNL     1     -10.163   9.219  69.493  1.00  0.00    -0.198 NA 
HETATM   13  C   UNL     1      -9.328  10.185  68.768  1.00  0.00    -0.168 C  
HETATM   14  C   UNL     1      -9.130   9.890  67.275  1.00  0.00    -0.149 C  
HETATM   15  C   UNL     1     -10.387   9.376  66.566  1.00  0.00    -0.268 C  
HETATM   16  C   UNL     1     -10.409   7.861  66.348  1.00  0.00     0.054 C  
HETATM   17  C   UNL     1     -10.514   6.984  67.599  1.00  0.00    -0.301 C  
HETATM   18  C   UNL     1      -9.290   7.044  68.522  1.00  0.00    -0.135 C  
HETATM   19  C   UNL     1      -9.472   7.948  69.750  1.00  0.00    -0.163 C  
ENDBRANCH  11  12
ENDBRANCH  10  11
ENDBRANCH   6  10
TORSDOF 3
ENDMDL
MODEL      232
REMARK 921   NORMALIZED FREE ENERGY PREDICTED BY IDOCK:   -2.13 KCAL/MOL
REMARK 922        TOTAL FREE ENERGY PREDICTED BY IDOCK:   -2.69 KCAL/MOL
REMARK 923 INTER-LIGAND FREE ENERGY PREDICTED BY IDOCK:   -3.17 KCAL/MOL
REMARK 924 INTRA-LIGAND FREE ENERGY PREDICTED BY IDOCK:    0.48 KCAL/MOL
REMARK 927      BINDING AFFINITY PREDICTED BY RF-SCORE:    0.00 PKD
ROOT
HETATM    1  N   UNL     1     -12.890  10.027  72.049  1.00  0.00    -0.408 NA 
HETATM    2  C   UNL     1     -12.990   8.707  71.789  1.00  0.00    -0.359 C  
HETATM    3  H2  UNL     1     -13.638  10.702  71.890  1.00  0.00     0.000 HD 
HETATM    4  H1  UNL     1     -11.972  10.263  72.425  1.00  0.00     0.000 HD 
HETATM    5  N   UNL     1     -14.206   8.394  71.291  1.00  0.00    -0.632 NA 
HETATM    6  N   UNL     1     -11.998   7.934  72.052  1.00  0.00    -0.304 NA 
HETATM    7  H1  UNL     1     -14.281   7.396  71.094  1.00  0.00     0.000 HD 
HETATM    8  H2  UNL     1     -14.953   9.069  71.132  1.00  0.00     0.000 HD 
HETATM    9  H   UNL     1     -11.122   8.291  72.431  1.00  0.00     0.000 HD 
ENDROOT
BRANCH   6  10
HETATM   10  C   UNL     1     -12.199   6.507  71.775  1.00  0.00    -0.322 C  
BRANCH  10  11
HETATM   11  C   UNL     1     -10.950   5.900  71.105  1.00  0.00    -0.260 C  
BRANCH  11  12
HETATM   12  N   UNL     1      -9.713   6.111  71.896  1.00  0.00    -0.154 NA 
HETATM   13  C   UNL     1      -9.082   7.405  71.606  1.00  0.00    -0.130 C  
HETATM   14  C   UNL     1      -7.600   7.512  71.989  1.00  0.00    -0.084 C  
HETATM   15  C   UNL     1      -6.783   6.250  71.693  1.00  0.00    -0.063 C  
HETATM   16  C   UNL     1      -6.518   5.373  72.919  1.00  0.00    -0.064 C  
HETATM   17  C   UNL     1      -7.731   4.682  73.549  1.00  0.00    -0.091 C  
HETATM   18  C   UNL     1      -8.744   5.637  74.192  1.00  0.00    -0.119 C  
HETATM   19  C   UNL     1      -9.982   5.916  73.327  1.00  0.00    -0.181 C  
ENDBRANCH  11  12
ENDBRANCH  10  11
ENDBRANCH   6  10
TORSDOF 3
ENDMDL
MODEL      233
REMARK 921   NORMALIZED FREE ENERGY PREDICTED BY IDOCK:   -2.11 KCAL/MOL
REMARK 922        TOTAL FREE ENERGY PREDICTED BY IDOCK:   -2.67 KCAL/MOL
REMARK 923 INTER-LIGAND FREE ENERGY PREDICTED BY IDOCK:   -2.43 KCAL/MOL
REMARK 924 INTRA-LIGAND FREE ENERGY PREDICTED BY IDOCK:   -0.24 KCAL/MOL
REMARK 927      BINDING AFFINITY PREDICTED BY RF-SCORE:    0.00 PKD
ROOT
HETATM    1  N   UNL     1     -10.520   8.542  71.759  1.00  0.00    -0.272 NA 
HETATM    2  C   UNL     1     -10.804   7.236  71.582  1.00  0.00    -0.220 C  
HETATM    3  H2  UNL     1     -11.082   9.182  72.319  1.00  0.00     0.000 HD 
HETATM    4  H1  UNL     1      -9.670   8.809  71.261  1.00  0.00     0.000 HD 
HETATM    5  N   UNL     1     -11.929   6.883  72.241  1.00  0.00    -0.449 NA 
HETATM    6  N   UNL     1     -10.014   6.507  70.879  1.00  0.00    -0.184 NA 
HETATM    7  H1  UNL     1     -12.144   5.895  72.108  1.00  0.00     0.000 HD 
HETATM    8  H2  UNL     1     -12.491   7.523  72.801  1.00  0.00     0.000 HD 
HETATM    9  H   UNL     1      -9.186   6.891  70.425  1.00  0.00     0.000 HD 
ENDROOT
BRANCH   6  10
HETATM   10  C   UNL     1     -10.373   5.088  70.764  1.00  0.00    -0.195 C  
BRANCH  10  11
HETATM   11  C   UNL     1      -9.252   4.296  70.063  1.00  0.00    -0.137 C  
BRANCH  11  12
HETATM   12  N   UNL     1      -8.806   4.930  68.797  1.00  0.00    -0.093 NA 
HETATM   13  C   UNL     1      -7.346   4.886  68.639  1.00  0.00    -0.062 C  
HETATM   14  C   UNL     1      -6.764   5.901  67.645  1.00  0.00    -0.058 C  
HETATM   15  C   UNL     1      -7.423   7.282  67.702  1.00  0.00    -0.101 C  
HETATM   16  C   UNL     1      -8.443   7.536  66.589  1.00  0.00    -0.130 C  
HETATM   17  C   UNL     1      -9.727   6.702  66.625  1.00  0.00    -0.210 C  
HETATM   18  C   UNL     1      -9.518   5.203  66.378  1.00  0.00    -0.158 C  
HETATM   19  C   UNL     1      -9.521   4.347  67.654  1.00  0.00    -0.165 C  
ENDBRANCH  11  12
ENDBRANCH  10  11
ENDBRANCH   6  10
TORSDOF 3
ENDMDL
MODEL      234
REMARK 921   NORMALIZED FREE ENERGY PREDICTED BY IDOCK:   -2.06 KCAL/MOL
REMARK 922        TOTAL FREE ENERGY PREDICTED BY IDOCK:   -2.61 KCAL/MOL
REMARK 923 INTER-LIGAND FREE ENERGY PREDICTED BY IDOCK:   -2.42 KCAL/MOL
REMARK 924 INTRA-LIGAND FREE ENERGY PREDICTED BY IDOCK:   -0.18 KCAL/MOL
REMARK 927      BINDING AFFINITY PREDICTED BY RF-SCORE:    0.00 PKD
ROOT
HETATM    1  N   UNL     1      -7.081  15.636  69.089  1.00  0.00    -0.154 NA 
HETATM    2  C   UNL     1      -7.912  14.630  68.748  1.00  0.00    -0.151 C  
HETATM    3  H2  UNL     1      -7.352  16.619  69.125  1.00  0.00     0.000 HD 
HETATM    4  H1  UNL     1      -6.147  15.289  69.308  1.00  0.00     0.000 HD 
HETATM    5  N   UNL     1      -9.148  15.091  68.458  1.00  0.00    -0.181 NA 
HETATM    6  N   UNL     1      -7.481  13.421  68.761  1.00  0.00    -0.204 NA 
HETATM    7  H1  UNL     1      -9.777  14.330  68.200  1.00  0.00     0.000 HD 
HETATM    8  H2  UNL     1      -9.419  16.073  68.494  1.00  0.00     0.000 HD 
HETATM    9  H   UNL     1      -6.515  13.196  69.000  1.00  0.00     0.000 HD 
ENDROOT
BRANCH   6  10
HETATM   10  C   UNL     1      -8.456  12.381  68.413  1.00  0.00    -0.131 C  
BRANCH  10  11
HETATM   11  C   UNL     1      -7.752  11.032  68.166  1.00  0.00    -0.105 C  
BRANCH  11  12
HETATM   12  N   UNL     1      -8.371   9.914  68.919  1.00  0.00    -0.117 NA 
HETATM   13  C   UNL     1      -8.345   8.655  68.164  1.00  0.00    -0.127 C  
HETATM   14  C   UNL     1      -9.352   7.592  68.626  1.00  0.00    -0.147 C  
HETATM   15  C   UNL     1     -10.725   8.154  69.008  1.00  0.00    -0.099 C  
HETATM   16  C   UNL     1     -10.946   8.296  70.516  1.00  0.00    -0.253 C  
HETATM   17  C   UNL     1     -10.094   9.341  71.244  1.00  0.00    -0.361 C  
HETATM   18  C   UNL     1      -8.595   9.022  71.283  1.00  0.00    -0.221 C  
HETATM   19  C   UNL     1      -7.760   9.793  70.249  1.00  0.00    -0.172 C  
ENDBRANCH  11  12
ENDBRANCH  10  11
ENDBRANCH   6  10
TORSDOF 3
ENDMDL
MODEL      235
REMARK 921   NORMALIZED FREE ENERGY PREDICTED BY IDOCK:   -2.04 KCAL/MOL
REMARK 922        TOTAL FREE ENERGY PREDICTED BY IDOCK:   -2.59 KCAL/MOL
REMARK 923 INTER-LIGAND FREE ENERGY PREDICTED BY IDOCK:   -2.58 KCAL/MOL
REMARK 924 INTRA-LIGAND FREE ENERGY PREDICTED BY IDOCK:   -0.01 KCAL/MOL
REMARK 927      BINDING AFFINITY PREDICTED BY RF-SCORE:    0.00 PKD
ROOT
HETATM    1  N   UNL     1      -6.208   1.760  72.843  1.00  0.00    -0.009 NA 
HETATM    2  C   UNL     1      -6.720   2.930  73.276  1.00  0.00    -0.023 C  
HETATM    3  H2  UNL     1      -6.169   0.908  73.402  1.00  0.00     0.000 HD 
HETATM    4  H1  UNL     1      -5.866   1.836  71.885  1.00  0.00     0.000 HD 
HETATM    5  N   UNL     1      -7.174   2.830  74.544  1.00  0.00    -0.041 NA 
HETATM    6  N   UNL     1      -6.749   3.940  72.483  1.00  0.00    -0.038 NA 
HETATM    7  H1  UNL     1      -7.561   3.715  74.872  1.00  0.00     0.000 HD 
HETATM    8  H2  UNL     1      -7.134   1.978  75.103  1.00  0.00     0.000 HD 
HETATM    9  H   UNL     1      -6.372   3.893  71.537  1.00  0.00     0.000 HD 
ENDROOT
BRANCH   6  10
HETATM   10  C   UNL     1      -7.354   5.165  73.016  1.00  0.00    -0.091 C  
BRANCH  10  11
HETATM   11  C   UNL     1      -8.892   5.056  73.026  1.00  0.00    -0.116 C  
BRANCH  11  12
HETATM   12  N   UNL     1      -9.549   6.111  72.216  1.00  0.00    -0.153 NA 
HETATM   13  C   UNL     1      -8.899   7.418  72.375  1.00  0.00    -0.124 C  
HETATM   14  C   UNL     1      -9.756   8.629  71.982  1.00  0.00    -0.391 C  
HETATM   15  C   UNL     1     -11.225   8.520  72.401  1.00  0.00    -0.399 C  
HETATM   16  C   UNL     1     -12.172   8.116  71.267  1.00  0.00    -0.302 C  
HETATM   17  C   UNL     1     -12.017   6.698  70.710  1.00  0.00    -0.412 C  
HETATM   18  C   UNL     1     -10.695   6.443  69.977  1.00  0.00    -0.316 C  
HETATM   19  C   UNL     1      -9.647   5.691  70.811  1.00  0.00    -0.169 C  
ENDBRANCH  11  12
ENDBRANCH  10  11
ENDBRANCH   6  10
TORSDOF 3
ENDMDL
MODEL      236
REMARK 921   NORMALIZED FREE ENERGY PREDICTED BY IDOCK:   -2.01 KCAL/MOL
REMARK 922        TOTAL FREE ENERGY PREDICTED BY IDOCK:   -2.55 KCAL/MOL
REMARK 923 INTER-LIGAND FREE ENERGY PREDICTED BY IDOCK:   -2.32 KCAL/MOL
REMARK 924 INTRA-LIGAND FREE ENERGY PREDICTED BY IDOCK:   -0.23 KCAL/MOL
REMARK 927      BINDING AFFINITY PREDICTED BY RF-SCORE:    0.00 PKD
ROOT
HETATM    1  N   UNL     1      -6.115   8.756  69.193  1.00  0.00    -0.042 NA 
HETATM    2  C   UNL     1      -7.057   8.965  68.250  1.00  0.00    -0.078 C  
HETATM    3  H2  UNL     1      -5.111   8.780  69.019  1.00  0.00     0.000 HD 
HETATM    4  H1  UNL     1      -6.536   8.570  70.103  1.00  0.00     0.000 HD 
HETATM    5  N   UNL     1      -6.499   9.211  67.045  1.00  0.00    -0.063 NA 
HETATM    6  N   UNL     1      -8.298   8.941  68.579  1.00  0.00    -0.123 NA 
HETATM    7  H1  UNL     1      -7.211   9.370  66.331  1.00  0.00     0.000 HD 
HETATM    8  H2  UNL     1      -5.495   9.235  66.870  1.00  0.00     0.000 HD 
HETATM    9  H   UNL     1      -8.599   8.743  69.532  1.00  0.00     0.000 HD 
ENDROOT
BRANCH   6  10
HETATM   10  C   UNL     1      -9.258   9.215  67.504  1.00  0.00    -0.128 C  
BRANCH  10  11
HETATM   11  C   UNL     1     -10.530   8.362  67.676  1.00  0.00    -0.239 C  
BRANCH  11  12
HETATM   12  N   UNL     1     -10.232   6.936  67.961  1.00  0.00    -0.166 NA 
HETATM   13  C   UNL     1     -10.733   6.516  69.276  1.00  0.00    -0.280 C  
HETATM   14  C   UNL     1     -10.080   5.253  69.854  1.00  0.00    -0.333 C  
HETATM   15  C   UNL     1      -8.569   5.164  69.617  1.00  0.00    -0.100 C  
HETATM   16  C   UNL     1      -8.168   4.237  68.466  1.00  0.00    -0.087 C  
HETATM   17  C   UNL     1      -8.566   4.676  67.054  1.00  0.00    -0.104 C  
HETATM   18  C   UNL     1     -10.077   4.689  66.794  1.00  0.00    -0.246 C  
HETATM   19  C   UNL     1     -10.717   6.084  66.867  1.00  0.00    -0.334 C  
ENDBRANCH  11  12
ENDBRANCH  10  11
ENDBRANCH   6  10
TORSDOF 3
ENDMDL
MODEL      237
REMARK 921   NORMALIZED FREE ENERGY PREDICTED BY IDOCK:   -2.00 KCAL/MOL
REMARK 922        TOTAL FREE ENERGY PREDICTED BY IDOCK:   -2.54 KCAL/MOL
REMARK 923 INTER-LIGAND FREE ENERGY PREDICTED BY IDOCK:   -2.35 KCAL/MOL
REMARK 924 INTRA-LIGAND FREE ENERGY PREDICTED BY IDOCK:   -0.19 KCAL/MOL
REMARK 927      BINDING AFFINITY PREDICTED BY RF-SCORE:    0.00 PKD
ROOT
HETATM    1  N   UNL     1      -8.728   9.001  72.192  1.00  0.00    -0.322 NA 
HETATM    2  C   UNL     1      -9.471   8.766  71.091  1.00  0.00    -0.240 C  
HETATM    3  H2  UNL     1      -8.912   8.592  73.108  1.00  0.00     0.000 HD 
HETATM    4  H1  UNL     1      -7.959   9.641  71.992  1.00  0.00     0.000 HD 
HETATM    5  N   UNL     1     -10.489   7.919  71.356  1.00  0.00    -0.205 NA 
HETATM    6  N   UNL     1      -9.138   9.309  69.976  1.00  0.00    -0.191 NA 
HETATM    7  H1  UNL     1     -11.050   7.741  70.523  1.00  0.00     0.000 HD 
HETATM    8  H2  UNL     1     -10.673   7.510  72.272  1.00  0.00     0.000 HD 
HETATM    9  H   UNL     1      -8.339   9.938  69.900  1.00  0.00     0.000 HD 
ENDROOT
BRANCH   6  10
HETATM   10  C   UNL     1      -9.974   8.975  68.818  1.00  0.00    -0.182 C  
BRANCH  10  11
HETATM   11  C   UNL     1     -10.053  10.163  67.839  1.00  0.00    -0.176 C  
BRANCH  11  12
HETATM   12  N   UNL     1      -9.580   9.817  66.475  1.00  0.00    -0.182 NA 
HETATM   13  C   UNL     1      -9.526   8.366  66.258  1.00  0.00    -0.224 C  
HETATM   14  C   UNL     1      -8.626   7.910  65.102  1.00  0.00    -0.052 C  
HETATM   15  C   UNL     1      -7.311   8.687  64.987  1.00  0.00    -0.086 C  
HETATM   16  C   UNL     1      -7.313   9.762  63.896  1.00  0.00    -0.127 C  
HETATM   17  C   UNL     1      -8.237  10.965  64.113  1.00  0.00     0.230 C  
HETATM   18  C   UNL     1      -9.733  10.631  64.078  1.00  0.00    -0.373 C  
HETATM   19  C   UNL     1     -10.385  10.515  65.464  1.00  0.00    -0.217 C  
ENDBRANCH  11  12
ENDBRANCH  10  11
ENDBRANCH   6  10
TORSDOF 3
ENDMDL
MODEL      238
REMARK 921   NORMALIZED FREE ENERGY PREDICTED BY IDOCK:   -1.97 KCAL/MOL
REMARK 922        TOTAL FREE ENERGY PREDICTED BY IDOCK:   -2.50 KCAL/MOL
REMARK 923 INTER-LIGAND FREE ENERGY PREDICTED BY IDOCK:   -2.30 KCAL/MOL
REMARK 924 INTRA-LIGAND FREE ENERGY PREDICTED BY IDOCK:   -0.20 KCAL/MOL
REMARK 927      BINDING AFFINITY PREDICTED BY RF-SCORE:    0.00 PKD
ROOT
HETATM    1  N   UNL     1     -13.204  10.575  69.770  1.00  0.00    -0.408 NA 
HETATM    2  C   UNL     1     -11.861  10.467  69.842  1.00  0.00    -0.238 C  
HETATM    3  H2  UNL     1     -13.775  11.097  70.433  1.00  0.00     0.000 HD 
HETATM    4  H1  UNL     1     -13.574  10.068  68.966  1.00  0.00     0.000 HD 
HETATM    5  N   UNL     1     -11.371  11.138  70.907  1.00  0.00    -0.092 NA 
HETATM    6  N   UNL     1     -11.230   9.809  68.939  1.00  0.00    -0.455 NA 
HETATM    7  H1  UNL     1     -10.355  11.057  70.962  1.00  0.00     0.000 HD 
HETATM    8  H2  UNL     1     -11.942  11.660  71.571  1.00  0.00     0.000 HD 
HETATM    9  H   UNL     1     -11.715   9.340  68.175  1.00  0.00     0.000 HD 
ENDROOT
BRANCH   6  10
HETATM   10  C   UNL     1      -9.769   9.769  69.068  1.00  0.00    -0.177 C  
BRANCH  10  11
HETATM   11  C   UNL     1      -9.093  10.384  67.827  1.00  0.00    -0.131 C  
BRANCH  11  12
HETATM   12  N   UNL     1      -8.379   9.378  67.002  1.00  0.00    -0.126 NA 
HETATM   13  C   UNL     1      -9.287   8.652  66.104  1.00  0.00    -0.226 C  
HETATM   14  C   UNL     1      -8.757   7.310  65.582  1.00  0.00    -0.092 C  
HETATM   15  C   UNL     1      -7.996   6.487  66.626  1.00  0.00    -0.109 C  
HETATM   16  C   UNL     1      -6.472   6.566  66.497  1.00  0.00    -0.043 C  
HETATM   17  C   UNL     1      -5.822   7.921  66.798  1.00  0.00    -0.044 C  
HETATM   18  C   UNL     1      -6.174   9.030  65.799  1.00  0.00    -0.056 C  
HETATM   19  C   UNL     1      -7.255  10.003  66.293  1.00  0.00    -0.106 C  
ENDBRANCH  11  12
ENDBRANCH  10  11
ENDBRANCH   6  10
TORSDOF 3
ENDMDL
MODEL      239
REMARK 921   NORMALIZED FREE ENERGY PREDICTED BY IDOCK:   -1.96 KCAL/MOL
REMARK 922        TOTAL FREE ENERGY PREDICTED BY IDOCK:   -2.49 KCAL/MOL
REMARK 923 INTER-LIGAND FREE ENERGY PREDICTED BY IDOCK:   -2.29 KCAL/MOL
REMARK 924 INTRA-LIGAND FREE ENERGY PREDICTED BY IDOCK:   -0.20 KCAL/MOL
REMARK 927      BINDING AFFINITY PREDICTED BY RF-SCORE:    0.00 PKD
ROOT
HETATM    1  N   UNL     1      -5.172   5.261  72.222  1.00  0.00    -0.011 NA 
HETATM    2  C   UNL     1      -5.978   5.384  71.147  1.00  0.00    -0.025 C  
HETATM    3  H2  UNL     1      -4.286   4.758  72.221  1.00  0.00     0.000 HD 
HETATM    4  H1  UNL     1      -5.563   5.736  73.035  1.00  0.00     0.000 HD 
HETATM    5  N   UNL     1      -5.460   4.755  70.070  1.00  0.00    -0.007 NA 
HETATM    6  N   UNL     1      -7.062   6.064  71.244  1.00  0.00    -0.072 NA 
HETATM    7  H1  UNL     1      -6.068   4.848  69.256  1.00  0.00     0.000 HD 
HETATM    8  H2  UNL     1      -4.573   4.251  70.069  1.00  0.00     0.000 HD 
HETATM    9  H   UNL     1      -7.350   6.498  72.120  1.00  0.00     0.000 HD 
ENDROOT
BRANCH   6  10
HETATM   10  C   UNL     1      -7.865   6.182  70.021  1.00  0.00    -0.106 C  
BRANCH  10  11
HETATM   11  C   UNL     1      -7.753   7.600  69.428  1.00  0.00    -0.107 C  
BRANCH  11  12
HETATM   12  N   UNL     1      -9.070   8.174  69.057  1.00  0.00    -0.148 NA 
HETATM   13  C   UNL     1      -9.572   7.636  67.786  1.00  0.00    -0.144 C  
HETATM   14  C   UNL     1     -10.647   8.485  67.094  1.00  0.00    -0.314 C  
HETATM   15  C   UNL     1     -10.397   9.994  67.168  1.00  0.00    -0.300 C  
HETATM   16  C   UNL     1     -11.229  10.715  68.233  1.00  0.00    -0.362 C  
HETATM   17  C   UNL     1     -10.911  10.389  69.695  1.00  0.00    -0.325 C  
HETATM   18  C   UNL     1     -11.242   8.951  70.111  1.00  0.00    -0.175 C  
HETATM   19  C   UNL     1     -10.026   8.013  70.161  1.00  0.00    -0.191 C  
ENDBRANCH  11  12
ENDBRANCH  10  11
ENDBRANCH   6  10
TORSDOF 3
ENDMDL
MODEL      240
REMARK 921   NORMALIZED FREE ENERGY PREDICTED BY IDOCK:   -1.95 KCAL/MOL
REMARK 922        TOTAL FREE ENERGY PREDICTED BY IDOCK:   -2.47 KCAL/MOL
REMARK 923 INTER-LIGAND FREE ENERGY PREDICTED BY IDOCK:   -2.27 KCAL/MOL
REMARK 924 INTRA-LIGAND FREE ENERGY PREDICTED BY IDOCK:   -0.21 KCAL/MOL
REMARK 927      BINDING AFFINITY PREDICTED BY RF-SCORE:    0.00 PKD
ROOT
HETATM    1  N   UNL     1     -12.710  10.114  69.894  1.00  0.00    -0.480 NA 
HETATM    2  C   UNL     1     -11.513   9.638  70.293  1.00  0.00    -0.233 C  
HETATM    3  H2  UNL     1     -13.207  10.877  70.353  1.00  0.00     0.000 HD 
HETATM    4  H1  UNL     1     -13.055   9.614  69.075  1.00  0.00     0.000 HD 
HETATM    5  N   UNL     1     -11.057  10.300  71.378  1.00  0.00    -0.019 NA 
HETATM    6  N   UNL     1     -10.956   8.690  69.628  1.00  0.00    -0.398 NA 
HETATM    7  H1  UNL     1     -10.151   9.941  71.680  1.00  0.00     0.000 HD 
HETATM    8  H2  UNL     1     -11.554  11.063  71.836  1.00  0.00     0.000 HD 
HETATM    9  H   UNL     1     -11.403   8.266  68.817  1.00  0.00     0.000 HD 
ENDROOT
BRANCH   6  10
HETATM   10  C   UNL     1      -9.638   8.254  70.104  1.00  0.00    -0.167 C  
BRANCH  10  11
HETATM   11  C   UNL     1      -8.678   8.025  68.920  1.00  0.00    -0.131 C  
BRANCH  11  12
HETATM   12  N   UNL     1      -8.170   9.292  68.339  1.00  0.00    -0.114 NA 
HETATM   13  C   UNL     1      -6.801   9.594  68.777  1.00  0.00    -0.051 C  
HETATM   14  C   UNL     1      -6.375  11.062  68.633  1.00  0.00    -0.047 C  
HETATM   15  C   UNL     1      -7.468  12.070  68.999  1.00  0.00     0.017 C  
HETATM   16  C   UNL     1      -8.185  12.683  67.792  1.00  0.00    -0.171 C  
HETATM   17  C   UNL     1      -9.055  11.742  66.954  1.00  0.00    -0.192 C  
HETATM   18  C   UNL     1      -8.275  10.656  66.203  1.00  0.00    -0.156 C  
HETATM   19  C   UNL     1      -8.309   9.276  66.877  1.00  0.00    -0.123 C  
ENDBRANCH  11  12
ENDBRANCH  10  11
ENDBRANCH   6  10
TORSDOF 3
ENDMDL
MODEL      241
REMARK 921   NORMALIZED FREE ENERGY PREDICTED BY IDOCK:   -1.93 KCAL/MOL
REMARK 922        TOTAL FREE ENERGY PREDICTED BY IDOCK:   -2.46 KCAL/MOL
REMARK 923 INTER-LIGAND FREE ENERGY PREDICTED BY IDOCK:   -2.22 KCAL/MOL
REMARK 924 INTRA-LIGAND FREE ENERGY PREDICTED BY IDOCK:   -0.24 KCAL/MOL
REMARK 927      BINDING AFFINITY PREDICTED BY RF-SCORE:    0.00 PKD
ROOT
HETATM    1  N   UNL     1     -11.213   4.152  73.375  1.00  0.00    -0.267 NA 
HETATM    2  C   UNL     1      -9.934   3.930  73.006  1.00  0.00    -0.137 C  
HETATM    3  H2  UNL     1     -11.643   3.770  74.217  1.00  0.00     0.000 HD 
HETATM    4  H1  UNL     1     -11.694   4.751  72.705  1.00  0.00     0.000 HD 
HETATM    5  N   UNL     1      -9.297   3.137  73.894  1.00  0.00    -0.088 NA 
HETATM    6  N   UNL     1      -9.479   4.482  71.940  1.00  0.00    -0.140 NA 
HETATM    7  H1  UNL     1      -8.330   2.969  73.615  1.00  0.00     0.000 HD 
HETATM    8  H2  UNL     1      -9.727   2.755  74.736  1.00  0.00     0.000 HD 
HETATM    9  H   UNL     1     -10.064   5.068  71.344  1.00  0.00     0.000 HD 
ENDROOT
BRANCH   6  10
HETATM   10  C   UNL     1      -8.069   4.222  71.627  1.00  0.00    -0.091 C  
BRANCH  10  11
HETATM   11  C   UNL     1      -7.861   4.098  70.105  1.00  0.00    -0.051 C  
BRANCH  11  12
HETATM   12  N   UNL     1      -8.479   5.215  69.347  1.00  0.00    -0.089 NA 
HETATM   13  C   UNL     1      -7.476   6.147  68.817  1.00  0.00    -0.087 C  
HETATM   14  C   UNL     1      -8.006   7.540  68.451  1.00  0.00    -0.123 C  
HETATM   15  C   UNL     1      -9.032   8.101  69.440  1.00  0.00    -0.147 C  
HETATM   16  C   UNL     1     -10.485   7.978  68.973  1.00  0.00    -0.212 C  
HETATM   17  C   UNL     1     -11.060   6.562  68.870  1.00  0.00    -0.371 C  
HETATM   18  C   UNL     1     -10.418   5.693  67.783  1.00  0.00    -0.275 C  
HETATM   19  C   UNL     1      -9.377   4.692  68.309  1.00  0.00    -0.136 C  
ENDBRANCH  11  12
ENDBRANCH  10  11
ENDBRANCH   6  10
TORSDOF 3
ENDMDL
MODEL      242
REMARK 921   NORMALIZED FREE ENERGY PREDICTED BY IDOCK:   -1.91 KCAL/MOL
REMARK 922        TOTAL FREE ENERGY PREDICTED BY IDOCK:   -2.43 KCAL/MOL
REMARK 923 INTER-LIGAND FREE ENERGY PREDICTED BY IDOCK:   -2.87 KCAL/MOL
REMARK 924 INTRA-LIGAND FREE ENERGY PREDICTED BY IDOCK:    0.43 KCAL/MOL
REMARK 927      BINDING AFFINITY PREDICTED BY RF-SCORE:    0.00 PKD
ROOT
HETATM    1  N   UNL     1      -5.982   5.819  72.009  1.00  0.00    -0.033 NA 
HETATM    2  C   UNL     1      -6.728   5.595  70.907  1.00  0.00    -0.049 C  
HETATM    3  H2  UNL     1      -4.970   5.942  72.002  1.00  0.00     0.000 HD 
HETATM    4  H1  UNL     1      -6.560   5.850  72.848  1.00  0.00     0.000 HD 
HETATM    5  N   UNL     1      -5.963   5.553  69.795  1.00  0.00    -0.017 NA 
HETATM    6  N   UNL     1      -8.003   5.481  71.019  1.00  0.00    -0.104 NA 
HETATM    7  H1  UNL     1      -6.527   5.384  68.962  1.00  0.00     0.000 HD 
HETATM    8  H2  UNL     1      -4.951   5.677  69.789  1.00  0.00     0.000 HD 
HETATM    9  H   UNL     1      -8.471   5.531  71.923  1.00  0.00     0.000 HD 
ENDROOT
BRANCH   6  10
HETATM   10  C   UNL     1      -8.746   5.275  69.771  1.00  0.00    -0.105 C  
BRANCH  10  11
HETATM   11  C   UNL     1      -9.398   6.590  69.299  1.00  0.00    -0.141 C  
BRANCH  11  12
HETATM   12  N   UNL     1     -10.314   7.173  70.312  1.00  0.00    -0.198 NA 
HETATM   13  C   UNL     1     -10.754   6.179  71.299  1.00  0.00    -0.256 C  
HETATM   14  C   UNL     1     -12.031   6.541  72.069  1.00  0.00    -0.372 C  
HETATM   15  C   UNL     1     -13.112   7.208  71.213  1.00  0.00    -0.361 C  
HETATM   16  C   UNL     1     -13.187   8.729  71.370  1.00  0.00    -0.290 C  
HETATM   17  C   UNL     1     -11.994   9.537  70.850  1.00  0.00    -0.372 C  
HETATM   18  C   UNL     1     -10.689   9.312  71.622  1.00  0.00    -0.393 C  
HETATM   19  C   UNL     1      -9.704   8.358  70.930  1.00  0.00    -0.174 C  
ENDBRANCH  11  12
ENDBRANCH  10  11
ENDBRANCH   6  10
TORSDOF 3
ENDMDL
MODEL      243
REMARK 921   NORMALIZED FREE ENERGY PREDICTED BY IDOCK:   -1.90 KCAL/MOL
REMARK 922        TOTAL FREE ENERGY PREDICTED BY IDOCK:   -2.42 KCAL/MOL
REMARK 923 INTER-LIGAND FREE ENERGY PREDICTED BY IDOCK:   -2.14 KCAL/MOL
REMARK 924 INTRA-LIGAND FREE ENERGY PREDICTED BY IDOCK:   -0.28 KCAL/MOL
REMARK 927      BINDING AFFINITY PREDICTED BY RF-SCORE:    0.00 PKD
ROOT
HETATM    1  N   UNL     1      -7.266   8.249  73.923  1.00  0.00    -0.173 NA 
HETATM    2  C   UNL     1      -7.117   7.574  72.765  1.00  0.00    -0.071 C  
HETATM    3  H2  UNL     1      -7.856   7.942  74.696  1.00  0.00     0.000 HD 
HETATM    4  H1  UNL     1      -6.714   9.107  73.927  1.00  0.00     0.000 HD 
HETATM    5  N   UNL     1      -7.849   6.439  72.760  1.00  0.00    -0.103 NA 
HETATM    6  N   UNL     1      -6.327   8.033  71.862  1.00  0.00    -0.042 NA 
HETATM    7  H1  UNL     1      -7.736   5.927  71.885  1.00  0.00     0.000 HD 
HETATM    8  H2  UNL     1      -8.438   6.131  73.533  1.00  0.00     0.000 HD 
HETATM    9  H   UNL     1      -5.823   8.911  71.983  1.00  0.00     0.000 HD 
ENDROOT
BRANCH   6  10
HETATM   10  C   UNL     1      -6.191   7.221  70.648  1.00  0.00    -0.035 C  
BRANCH  10  11
HETATM   11  C   UNL     1      -6.874   7.911  69.450  1.00  0.00    -0.047 C  
BRANCH  11  12
HETATM   12  N   UNL     1      -7.896   7.054  68.799  1.00  0.00    -0.116 NA 
HETATM   13  C   UNL     1      -7.738   7.014  67.340  1.00  0.00    -0.110 C  
HETATM   14  C   UNL     1      -8.983   6.570  66.558  1.00  0.00    -0.152 C  
HETATM   15  C   UNL     1     -10.299   7.127  67.108  1.00  0.00    -0.359 C  
HETATM   16  C   UNL     1     -11.095   6.132  67.956  1.00  0.00    -0.316 C  
HETATM   17  C   UNL     1     -10.479   5.718  69.296  1.00  0.00    -0.358 C  
HETATM   18  C   UNL     1      -9.186   4.903  69.177  1.00  0.00    -0.166 C  
HETATM   19  C   UNL     1      -7.904   5.717  69.408  1.00  0.00    -0.088 C  
ENDBRANCH  11  12
ENDBRANCH  10  11
ENDBRANCH   6  10
TORSDOF 3
ENDMDL
MODEL      244
REMARK 921   NORMALIZED FREE ENERGY PREDICTED BY IDOCK:   -1.89 KCAL/MOL
REMARK 922        TOTAL FREE ENERGY PREDICTED BY IDOCK:   -2.41 KCAL/MOL
REMARK 923 INTER-LIGAND FREE ENERGY PREDICTED BY IDOCK:   -2.15 KCAL/MOL
REMARK 924 INTRA-LIGAND FREE ENERGY PREDICTED BY IDOCK:   -0.26 KCAL/MOL
REMARK 927      BINDING AFFINITY PREDICTED BY RF-SCORE:    0.00 PKD
ROOT
HETATM    1  N   UNL     1     -10.746   8.003  71.421  1.00  0.00    -0.225 NA 
HETATM    2  C   UNL     1     -11.003   6.843  72.061  1.00  0.00    -0.235 C  
HETATM    3  H2  UNL     1     -11.262   8.869  71.571  1.00  0.00     0.000 HD 
HETATM    4  H1  UNL     1      -9.969   7.902  70.768  1.00  0.00     0.000 HD 
HETATM    5  N   UNL     1     -12.032   6.977  72.926  1.00  0.00    -0.434 NA 
HETATM    6  N   UNL     1     -10.275   5.813  71.821  1.00  0.00    -0.191 NA 
HETATM    7  H1  UNL     1     -12.227   6.100  73.410  1.00  0.00     0.000 HD 
HETATM    8  H2  UNL     1     -12.548   7.843  73.076  1.00  0.00     0.000 HD 
HETATM    9  H   UNL     1      -9.517   5.836  71.139  1.00  0.00     0.000 HD 
ENDROOT
BRANCH   6  10
HETATM   10  C   UNL     1     -10.595   4.602  72.584  1.00  0.00    -0.195 C  
BRANCH  10  11
HETATM   11  C   UNL     1      -9.385   3.647  72.626  1.00  0.00    -0.110 C  
BRANCH  11  12
HETATM   12  N   UNL     1      -8.687   3.546  71.321  1.00  0.00    -0.076 NA 
HETATM   13  C   UNL     1      -7.227   3.507  71.474  1.00  0.00    -0.036 C  
HETATM   14  C   UNL     1      -6.426   3.879  70.219  1.00  0.00    -0.032 C  
HETATM   15  C   UNL     1      -7.018   5.046  69.421  1.00  0.00    -0.055 C  
HETATM   16  C   UNL     1      -7.806   4.620  68.179  1.00  0.00    -0.081 C  
HETATM   17  C   UNL     1      -9.114   3.859  68.418  1.00  0.00    -0.189 C  
HETATM   18  C   UNL     1      -8.935   2.468  69.038  1.00  0.00    -0.170 C  
HETATM   19  C   UNL     1      -9.210   2.411  70.548  1.00  0.00    -0.124 C  
ENDBRANCH  11  12
ENDBRANCH  10  11
ENDBRANCH   6  10
TORSDOF 3
ENDMDL
MODEL      245
REMARK 921   NORMALIZED FREE ENERGY PREDICTED BY IDOCK:   -1.89 KCAL/MOL
REMARK 922        TOTAL FREE ENERGY PREDICTED BY IDOCK:   -2.41 KCAL/MOL
REMARK 923 INTER-LIGAND FREE ENERGY PREDICTED BY IDOCK:   -2.24 KCAL/MOL
REMARK 924 INTRA-LIGAND FREE ENERGY PREDICTED BY IDOCK:   -0.17 KCAL/MOL
REMARK 927      BINDING AFFINITY PREDICTED BY RF-SCORE:    0.00 PKD
ROOT
HETATM    1  N   UNL     1      -6.973  15.725  69.080  1.00  0.00    -0.139 NA 
HETATM    2  C   UNL     1      -7.854  14.734  68.827  1.00  0.00    -0.146 C  
HETATM    3  H2  UNL     1      -7.180  16.718  68.975  1.00  0.00     0.000 HD 
HETATM    4  H1  UNL     1      -6.075  15.354  69.389  1.00  0.00     0.000 HD 
HETATM    5  N   UNL     1      -9.043  15.226  68.418  1.00  0.00    -0.183 NA 
HETATM    6  N   UNL     1      -7.504  13.514  69.018  1.00  0.00    -0.287 NA 
HETATM    7  H1  UNL     1      -9.709  14.477  68.228  1.00  0.00     0.000 HD 
HETATM    8  H2  UNL     1      -9.249  16.219  68.314  1.00  0.00     0.000 HD 
HETATM    9  H   UNL     1      -6.567  13.264  69.333  1.00  0.00     0.000 HD 
ENDROOT
BRANCH   6  10
HETATM   10  C   UNL     1      -8.529  12.497  68.756  1.00  0.00     0.155 C  
BRANCH  10  11
HETATM   11  C   UNL     1      -7.920  11.082  68.800  1.00  0.00    -0.144 C  
BRANCH  11  12
HETATM   12  N   UNL     1      -8.129  10.327  67.539  1.00  0.00    -0.110 NA 
HETATM   13  C   UNL     1      -6.975   9.487  67.198  1.00  0.00    -0.085 C  
HETATM   14  C   UNL     1      -6.888   9.058  65.727  1.00  0.00    -0.076 C  
HETATM   15  C   UNL     1      -7.279  10.154  64.730  1.00  0.00    -0.130 C  
HETATM   16  C   UNL     1      -8.696  10.012  64.166  1.00  0.00    -0.221 C  
HETATM   17  C   UNL     1      -9.854  10.214  65.148  1.00  0.00    -0.394 C  
HETATM   18  C   UNL     1      -9.956   9.141  66.239  1.00  0.00    -0.352 C  
HETATM   19  C   UNL     1      -9.387   9.570  67.600  1.00  0.00    -0.123 C  
ENDBRANCH  11  12
ENDBRANCH  10  11
ENDBRANCH   6  10
TORSDOF 3
ENDMDL
MODEL      246
REMARK 921   NORMALIZED FREE ENERGY PREDICTED BY IDOCK:   -1.88 KCAL/MOL
REMARK 922        TOTAL FREE ENERGY PREDICTED BY IDOCK:   -2.40 KCAL/MOL
REMARK 923 INTER-LIGAND FREE ENERGY PREDICTED BY IDOCK:   -2.25 KCAL/MOL
REMARK 924 INTRA-LIGAND FREE ENERGY PREDICTED BY IDOCK:   -0.15 KCAL/MOL
REMARK 927      BINDING AFFINITY PREDICTED BY RF-SCORE:    0.00 PKD
ROOT
HETATM    1  N   UNL     1      -6.550  14.925  68.602  1.00  0.00    -0.084 NA 
HETATM    2  C   UNL     1      -7.369  13.982  68.093  1.00  0.00    -0.128 C  
HETATM    3  H2  UNL     1      -6.387  15.836  68.174  1.00  0.00     0.000 HD 
HETATM    4  H1  UNL     1      -6.116  14.611  69.470  1.00  0.00     0.000 HD 
HETATM    5  N   UNL     1      -7.944  14.398  66.943  1.00  0.00    -0.353 NA 
HETATM    6  N   UNL     1      -7.529  12.875  68.725  1.00  0.00    -0.242 NA 
HETATM    7  H1  UNL     1      -8.563  13.684  66.558  1.00  0.00     0.000 HD 
HETATM    8  H2  UNL     1      -7.780  15.309  66.516  1.00  0.00     0.000 HD 
HETATM    9  H   UNL     1      -7.035  12.674  69.593  1.00  0.00     0.000 HD 
ENDROOT
BRANCH   6  10
HETATM   10  C   UNL     1      -8.463  11.916  68.125  1.00  0.00    -0.163 C  
BRANCH  10  11
HETATM   11  C   UNL     1      -9.575  11.539  69.123  1.00  0.00     0.176 C  
BRANCH  11  12
HETATM   12  N   UNL     1      -9.481  10.131  69.583  1.00  0.00    -0.221 NA 
HETATM   13  C   UNL     1      -8.180   9.833  70.196  1.00  0.00    -0.179 C  
HETATM   14  C   UNL     1      -7.812   8.345  70.261  1.00  0.00    -0.096 C  
HETATM   15  C   UNL     1      -8.198   7.548  69.011  1.00  0.00    -0.128 C  
HETATM   16  C   UNL     1      -9.478   6.722  69.165  1.00  0.00    -0.141 C  
HETATM   17  C   UNL     1     -10.789   7.500  69.319  1.00  0.00    -0.131 C  
HETATM   18  C   UNL     1     -10.902   8.303  70.620  1.00  0.00    -0.254 C  
HETATM   19  C   UNL     1     -10.613   9.803  70.461  1.00  0.00    -0.312 C  
ENDBRANCH  11  12
ENDBRANCH  10  11
ENDBRANCH   6  10
TORSDOF 3
ENDMDL
MODEL      247
REMARK 921   NORMALIZED FREE ENERGY PREDICTED BY IDOCK:   -1.84 KCAL/MOL
REMARK 922        TOTAL FREE ENERGY PREDICTED BY IDOCK:   -2.35 KCAL/MOL
REMARK 923 INTER-LIGAND FREE ENERGY PREDICTED BY IDOCK:   -2.72 KCAL/MOL
REMARK 924 INTRA-LIGAND FREE ENERGY PREDICTED BY IDOCK:    0.36 KCAL/MOL
REMARK 927      BINDING AFFINITY PREDICTED BY RF-SCORE:    0.00 PKD
ROOT
HETATM    1  N   UNL     1     -10.871  10.283  70.584  1.00  0.00    -0.408 NA 
HETATM    2  C   UNL     1     -11.255   9.019  70.858  1.00  0.00    -0.287 C  
HETATM    3  H2  UNL     1     -11.431  11.111  70.784  1.00  0.00     0.000 HD 
HETATM    4  H1  UNL     1      -9.947  10.304  70.151  1.00  0.00     0.000 HD 
HETATM    5  N   UNL     1     -12.478   8.992  71.432  1.00  0.00    -0.313 NA 
HETATM    6  N   UNL     1     -10.463   8.045  70.592  1.00  0.00    -0.207 NA 
HETATM    7  H1  UNL     1     -12.769   8.036  71.639  1.00  0.00     0.000 HD 
HETATM    8  H2  UNL     1     -13.038   9.819  71.632  1.00  0.00     0.000 HD 
HETATM    9  H   UNL     1      -9.554   8.193  70.153  1.00  0.00     0.000 HD 
ENDROOT
BRANCH   6  10
HETATM   10  C   UNL     1     -10.939   6.705  70.954  1.00  0.00    -0.268 C  
BRANCH  10  11
HETATM   11  C   UNL     1      -9.760   5.719  71.070  1.00  0.00    -0.170 C  
BRANCH  11  12
HETATM   12  N   UNL     1      -9.304   5.211  69.752  1.00  0.00    -0.121 NA 
HETATM   13  C   UNL     1      -9.054   6.296  68.795  1.00  0.00    -0.127 C  
HETATM   14  C   UNL     1      -9.049   5.880  67.318  1.00  0.00    -0.111 C  
HETATM   15  C   UNL     1     -10.127   4.855  66.952  1.00  0.00    -0.257 C  
HETATM   16  C   UNL     1      -9.613   3.418  66.839  1.00  0.00    -0.106 C  
HETATM   17  C   UNL     1      -9.135   2.751  68.133  1.00  0.00    -0.228 C  
HETATM   18  C   UNL     1      -7.874   3.376  68.742  1.00  0.00    -0.056 C  
HETATM   19  C   UNL     1      -8.146   4.322  69.920  1.00  0.00    -0.058 C  
ENDBRANCH  11  12
ENDBRANCH  10  11
ENDBRANCH   6  10
TORSDOF 3
ENDMDL
MODEL      248
REMARK 921   NORMALIZED FREE ENERGY PREDICTED BY IDOCK:   -1.78 KCAL/MOL
REMARK 922        TOTAL FREE ENERGY PREDICTED BY IDOCK:   -2.28 KCAL/MOL
REMARK 923 INTER-LIGAND FREE ENERGY PREDICTED BY IDOCK:   -2.07 KCAL/MOL
REMARK 924 INTRA-LIGAND FREE ENERGY PREDICTED BY IDOCK:   -0.21 KCAL/MOL
REMARK 927      BINDING AFFINITY PREDICTED BY RF-SCORE:    0.00 PKD
ROOT
HETATM    1  N   UNL     1      -7.081  15.636  69.089  1.00  0.00    -0.154 NA 
HETATM    2  C   UNL     1      -7.912  14.630  68.748  1.00  0.00    -0.151 C  
HETATM    3  H2  UNL     1      -7.352  16.619  69.125  1.00  0.00     0.000 HD 
HETATM    4  H1  UNL     1      -6.147  15.289  69.308  1.00  0.00     0.000 HD 
HETATM    5  N   UNL     1      -9.148  15.091  68.458  1.00  0.00    -0.181 NA 
HETATM    6  N   UNL     1      -7.481  13.421  68.761  1.00  0.00    -0.204 NA 
HETATM    7  H1  UNL     1      -9.777  14.330  68.200  1.00  0.00     0.000 HD 
HETATM    8  H2  UNL     1      -9.419  16.073  68.494  1.00  0.00     0.000 HD 
HETATM    9  H   UNL     1      -6.515  13.196  69.000  1.00  0.00     0.000 HD 
ENDROOT
BRANCH   6  10
HETATM   10  C   UNL     1      -8.456  12.381  68.413  1.00  0.00    -0.131 C  
BRANCH  10  11
HETATM   11  C   UNL     1      -8.219  11.868  66.979  1.00  0.00    -0.170 C  
BRANCH  11  12
HETATM   12  N   UNL     1      -8.156  10.387  66.902  1.00  0.00    -0.116 NA 
HETATM   13  C   UNL     1      -8.748   9.871  65.661  1.00  0.00    -0.151 C  
HETATM   14  C   UNL     1      -9.159   8.392  65.697  1.00  0.00    -0.155 C  
HETATM   15  C   UNL     1      -9.798   7.952  67.018  1.00  0.00    -0.293 C  
HETATM   16  C   UNL     1      -8.851   7.191  67.950  1.00  0.00    -0.124 C  
HETATM   17  C   UNL     1      -7.685   7.984  68.548  1.00  0.00    -0.106 C  
HETATM   18  C   UNL     1      -6.642   8.450  67.525  1.00  0.00    -0.058 C  
HETATM   19  C   UNL     1      -6.778   9.923  67.112  1.00  0.00    -0.074 C  
ENDBRANCH  11  12
ENDBRANCH  10  11
ENDBRANCH   6  10
TORSDOF 3
ENDMDL
MODEL      249
REMARK 921   NORMALIZED FREE ENERGY PREDICTED BY IDOCK:   -1.71 KCAL/MOL
REMARK 922        TOTAL FREE ENERGY PREDICTED BY IDOCK:   -2.20 KCAL/MOL
REMARK 923 INTER-LIGAND FREE ENERGY PREDICTED BY IDOCK:   -1.97 KCAL/MOL
REMARK 924 INTRA-LIGAND FREE ENERGY PREDICTED BY IDOCK:   -0.24 KCAL/MOL
REMARK 927      BINDING AFFINITY PREDICTED BY RF-SCORE:    0.00 PKD
ROOT
HETATM    1  N   UNL     1      -9.509   3.675  70.098  1.00  0.00    -0.178 NA 
HETATM    2  C   UNL     1      -9.868   4.654  69.242  1.00  0.00    -0.190 C  
HETATM    3  H2  UNL     1      -9.825   3.613  71.065  1.00  0.00     0.000 HD 
HETATM    4  H1  UNL     1      -8.881   3.006  69.654  1.00  0.00     0.000 HD 
HETATM    5  N   UNL     1     -10.700   5.541  69.831  1.00  0.00    -0.323 NA 
HETATM    6  N   UNL     1      -9.437   4.627  68.033  1.00  0.00    -0.138 NA 
HETATM    7  H1  UNL     1     -10.972   6.282  69.184  1.00  0.00     0.000 HD 
HETATM    8  H2  UNL     1     -11.016   5.479  70.798  1.00  0.00     0.000 HD 
HETATM    9  H   UNL     1      -8.807   3.897  67.702  1.00  0.00     0.000 HD 
ENDROOT
BRANCH   6  10
HETATM   10  C   UNL     1      -9.902   5.706  67.155  1.00  0.00    -0.149 C  
BRANCH  10  11
HETATM   11  C   UNL     1      -8.861   6.007  66.059  1.00  0.00    -0.153 C  
BRANCH  11  12
HETATM   12  N   UNL     1      -8.393   7.416  66.082  1.00  0.00    -0.132 NA 
HETATM   13  C   UNL     1      -8.280   7.984  64.733  1.00  0.00    -0.121 C  
HETATM   14  C   UNL     1      -7.378   9.221  64.616  1.00  0.00    -0.101 C  
HETATM   15  C   UNL     1      -6.100   9.145  65.456  1.00  0.00    -0.059 C  
HETATM   16  C   UNL     1      -6.162   9.936  66.766  1.00  0.00    -0.064 C  
HETATM   17  C   UNL     1      -7.134   9.426  67.835  1.00  0.00    -0.081 C  
HETATM   18  C   UNL     1      -8.614   9.538  67.453  1.00  0.00    -0.125 C  
HETATM   19  C   UNL     1      -9.242   8.221  66.970  1.00  0.00    -0.152 C  
ENDBRANCH  11  12
ENDBRANCH  10  11
ENDBRANCH   6  10
TORSDOF 3
ENDMDL
MODEL      250
REMARK 921   NORMALIZED FREE ENERGY PREDICTED BY IDOCK:   -1.61 KCAL/MOL
REMARK 922        TOTAL FREE ENERGY PREDICTED BY IDOCK:   -2.08 KCAL/MOL
REMARK 923 INTER-LIGAND FREE ENERGY PREDICTED BY IDOCK:   -2.03 KCAL/MOL
REMARK 924 INTRA-LIGAND FREE ENERGY PREDICTED BY IDOCK:   -0.05 KCAL/MOL
REMARK 927      BINDING AFFINITY PREDICTED BY RF-SCORE:    0.00 PKD
ROOT
HETATM    1  N   UNL     1      -6.129  13.926  68.834  1.00  0.00    -0.083 NA 
HETATM    2  C   UNL     1      -6.371  12.999  67.885  1.00  0.00    -0.134 C  
HETATM    3  H2  UNL     1      -6.489  14.880  68.811  1.00  0.00     0.000 HD 
HETATM    4  H1  UNL     1      -5.541  13.551  69.578  1.00  0.00     0.000 HD 
HETATM    5  N   UNL     1      -7.151  13.496  66.900  1.00  0.00    -0.291 NA 
HETATM    6  N   UNL     1      -5.895  11.814  68.021  1.00  0.00    -0.044 NA 
HETATM    7  H1  UNL     1      -7.334  12.794  66.182  1.00  0.00     0.000 HD 
HETATM    8  H2  UNL     1      -7.510  14.449  66.877  1.00  0.00     0.000 HD 
HETATM    9  H   UNL     1      -5.314  11.555  68.818  1.00  0.00     0.000 HD 
ENDROOT
BRANCH   6  10
HETATM   10  C   UNL     1      -6.234  10.854  66.965  1.00  0.00    -0.076 C  
BRANCH  10  11
HETATM   11  C   UNL     1      -7.681  10.350  67.128  1.00  0.00    -0.100 C  
BRANCH  11  12
HETATM   12  N   UNL     1      -8.431  10.330  65.847  1.00  0.00    -0.144 NA 
HETATM   13  C   UNL     1      -7.961   9.271  64.946  1.00  0.00    -0.121 C  
HETATM   14  C   UNL     1      -8.319   9.462  63.466  1.00  0.00    -0.184 C  
HETATM   15  C   UNL     1      -8.197  10.908  62.974  1.00  0.00     0.006 C  
HETATM   16  C   UNL     1      -9.533  11.651  62.874  1.00  0.00    -0.198 C  
HETATM   17  C   UNL     1     -10.258  11.949  64.190  1.00  0.00    -0.364 C  
HETATM   18  C   UNL     1     -10.766  10.706  64.931  1.00  0.00    -0.072 C  
HETATM   19  C   UNL     1      -9.876  10.263  66.102  1.00  0.00    -0.225 C  
ENDBRANCH  11  12
ENDBRANCH  10  11
ENDBRANCH   6  10
TORSDOF 3
ENDMDL
MODEL      251
REMARK 921   NORMALIZED FREE ENERGY PREDICTED BY IDOCK:   -1.56 KCAL/MOL
REMARK 922        TOTAL FREE ENERGY PREDICTED BY IDOCK:   -2.02 KCAL/MOL
REMARK 923 INTER-LIGAND FREE ENERGY PREDICTED BY IDOCK:   -1.85 KCAL/MOL
REMARK 924 INTRA-LIGAND FREE ENERGY PREDICTED BY IDOCK:   -0.17 KCAL/MOL
REMARK 927      BINDING AFFINITY PREDICTED BY RF-SCORE:    0.00 PKD
ROOT
HETATM    1  N   UNL     1      -6.146  14.483  68.635  1.00  0.00    -0.080 NA 
HETATM    2  C   UNL     1      -6.824  13.346  68.374  1.00  0.00    -0.102 C  
HETATM    3  H2  UNL     1      -6.218  15.335  68.080  1.00  0.00     0.000 HD 
HETATM    4  H1  UNL     1      -5.552  14.381  69.457  1.00  0.00     0.000 HD 
HETATM    5  N   UNL     1      -7.611  13.482  67.285  1.00  0.00    -0.343 NA 
HETATM    6  N   UNL     1      -6.684  12.334  69.152  1.00  0.00    -0.126 NA 
HETATM    7  H1  UNL     1      -8.124  12.622  67.088  1.00  0.00     0.000 HD 
HETATM    8  H2  UNL     1      -7.683  14.334  66.730  1.00  0.00     0.000 HD 
HETATM    9  H   UNL     1      -6.054  12.353  69.953  1.00  0.00     0.000 HD 
ENDROOT
BRANCH   6  10
HETATM   10  C   UNL     1      -7.484  11.149  68.823  1.00  0.00    -0.118 C  
BRANCH  10  11
HETATM   11  C   UNL     1      -6.625   9.872  68.899  1.00  0.00    -0.045 C  
BRANCH  11  12
HETATM   12  N   UNL     1      -7.271   8.704  68.249  1.00  0.00    -0.084 NA 
HETATM   13  C   UNL     1      -7.150   8.746  66.786  1.00  0.00    -0.081 C  
HETATM   14  C   UNL     1      -8.161   7.881  66.021  1.00  0.00    -0.122 C  
HETATM   15  C   UNL     1      -9.575   7.900  66.609  1.00  0.00    -0.293 C  
HETATM   16  C   UNL     1      -9.920   6.668  67.451  1.00  0.00    -0.185 C  
HETATM   17  C   UNL     1      -9.158   6.496  68.769  1.00  0.00    -0.126 C  
HETATM   18  C   UNL     1      -7.658   6.223  68.604  1.00  0.00    -0.093 C  
HETATM   19  C   UNL     1      -6.765   7.452  68.828  1.00  0.00    -0.053 C  
ENDBRANCH  11  12
ENDBRANCH  10  11
ENDBRANCH   6  10
TORSDOF 3
ENDMDL
MODEL      252
REMARK 921   NORMALIZED FREE ENERGY PREDICTED BY IDOCK:   -1.40 KCAL/MOL
REMARK 922        TOTAL FREE ENERGY PREDICTED BY IDOCK:   -1.84 KCAL/MOL
REMARK 923 INTER-LIGAND FREE ENERGY PREDICTED BY IDOCK:   -1.64 KCAL/MOL
REMARK 924 INTRA-LIGAND FREE ENERGY PREDICTED BY IDOCK:   -0.19 KCAL/MOL
REMARK 927      BINDING AFFINITY PREDICTED BY RF-SCORE:    0.00 PKD
ROOT
HETATM    1  N   UNL     1      -7.797   9.101  70.884  1.00  0.00    -0.171 NA 
HETATM    2  C   UNL     1      -8.323   8.563  69.764  1.00  0.00    -0.124 C  
HETATM    3  H2  UNL     1      -8.074   8.841  71.830  1.00  0.00     0.000 HD 
HETATM    4  H1  UNL     1      -7.088   9.800  70.663  1.00  0.00     0.000 HD 
HETATM    5  N   UNL     1      -9.262   7.638  70.056  1.00  0.00    -0.151 NA 
HETATM    6  N   UNL     1      -7.885   8.939  68.616  1.00  0.00    -0.101 NA 
HETATM    7  H1  UNL     1      -9.660   7.231  69.209  1.00  0.00     0.000 HD 
HETATM    8  H2  UNL     1      -9.538   7.379  71.003  1.00  0.00     0.000 HD 
HETATM    9  H   UNL     1      -7.165   9.654  68.522  1.00  0.00     0.000 HD 
ENDROOT
BRANCH   6  10
HETATM   10  C   UNL     1      -8.482   8.281  67.448  1.00  0.00    -0.125 C  
BRANCH  10  11
HETATM   11  C   UNL     1      -8.664   9.282  66.290  1.00  0.00    -0.142 C  
BRANCH  11  12
HETATM   12  N   UNL     1      -7.973   8.856  65.048  1.00  0.00    -0.118 NA 
HETATM   13  C   UNL     1      -7.755   7.404  65.004  1.00  0.00    -0.114 C  
HETATM   14  C   UNL     1      -6.663   6.933  64.034  1.00  0.00    -0.049 C  
HETATM   15  C   UNL     1      -5.421   7.831  64.006  1.00  0.00    -0.041 C  
HETATM   16  C   UNL     1      -5.366   8.787  62.812  1.00  0.00    -0.070 C  
HETATM   17  C   UNL     1      -6.418   9.900  62.769  1.00  0.00    -0.117 C  
HETATM   18  C   UNL     1      -7.857   9.408  62.575  1.00  0.00    -0.120 C  
HETATM   19  C   UNL     1      -8.686   9.361  63.867  1.00  0.00    -0.202 C  
ENDBRANCH  11  12
ENDBRANCH  10  11
ENDBRANCH   6  10
TORSDOF 3
ENDMDL
MODEL      253
REMARK 921   NORMALIZED FREE ENERGY PREDICTED BY IDOCK:    1.34 KCAL/MOL
REMARK 922        TOTAL FREE ENERGY PREDICTED BY IDOCK:    1.39 KCAL/MOL
REMARK 923 INTER-LIGAND FREE ENERGY PREDICTED BY IDOCK:    1.48 KCAL/MOL
REMARK 924 INTRA-LIGAND FREE ENERGY PREDICTED BY IDOCK:   -0.09 KCAL/MOL
REMARK 927      BINDING AFFINITY PREDICTED BY RF-SCORE:    0.00 PKD
ROOT
HETATM    1  N   UNL     1      -6.256  19.050  64.738  1.00  0.00    -0.447 NA 
HETATM    2  C   UNL     1      -6.902  19.293  65.896  1.00  0.00    -0.264 C  
HETATM    3  H2  UNL     1      -5.406  19.529  64.442  1.00  0.00     0.000 HD 
HETATM    4  H1  UNL     1      -6.727  18.326  64.195  1.00  0.00     0.000 HD 
HETATM    5  N   UNL     1      -6.279  20.252  66.615  1.00  0.00    -0.178 NA 
HETATM    6  N   UNL     1      -7.952  18.614  66.190  1.00  0.00    -0.424 NA 
HETATM    7  H1  UNL     1      -6.767  20.436  67.492  1.00  0.00     0.000 HD 
HETATM    8  H2  UNL     1      -5.429  20.730  66.320  1.00  0.00     0.000 HD 
HETATM    9  H   UNL     1      -8.331  17.909  65.559  1.00  0.00     0.000 HD 
ENDROOT
BRANCH   6  10
HETATM   10  C   UNL     1      -8.575  18.912  67.484  1.00  0.00    -0.275 C  
BRANCH  10  11
HETATM   11  C   UNL     1     -10.008  18.345  67.545  1.00  0.00    -0.335 C  
BRANCH  11  12
HETATM   12  N   UNL     1     -10.132  17.198  68.478  1.00  0.00    -0.307 NA 
HETATM   13  C   UNL     1     -11.161  16.242  68.048  1.00  0.00    -0.299 C  
HETATM   14  C   UNL     1     -11.691  15.310  69.146  1.00  0.00    -0.355 C  
HETATM   15  C   UNL     1     -11.889  15.992  70.504  1.00  0.00    -0.314 C  
HETATM   16  C   UNL     1     -10.769  15.719  71.512  1.00  0.00     0.421 C  
HETATM   17  C   UNL     1      -9.392  16.309  71.192  1.00  0.00     4.047 C  
HETATM   18  C   UNL     1      -8.713  15.704  69.957  1.00  0.00     0.451 C  
HETATM   19  C   UNL     1      -8.823  16.568  68.692  1.00  0.00    -0.237 C  
ENDBRANCH  11  12
ENDBRANCH  10  11
ENDBRANCH   6  10
TORSDOF 3
ENDMDL
MODEL      254
REMARK 921   NORMALIZED FREE ENERGY PREDICTED BY IDOCK:    9.27 KCAL/MOL
REMARK 922        TOTAL FREE ENERGY PREDICTED BY IDOCK:   10.71 KCAL/MOL
REMARK 923 INTER-LIGAND FREE ENERGY PREDICTED BY IDOCK:   10.38 KCAL/MOL
REMARK 924 INTRA-LIGAND FREE ENERGY PREDICTED BY IDOCK:    0.33 KCAL/MOL
REMARK 927      BINDING AFFINITY PREDICTED BY RF-SCORE:    0.00 PKD
ROOT
HETATM    1  N   UNL     1      -7.520  16.963  64.193  1.00  0.00     8.557 NA 
HETATM    2  C   UNL     1      -7.994  16.851  65.451  1.00  0.00     1.837 C  
HETATM    3  H2  UNL     1      -7.121  17.816  63.803  1.00  0.00     0.000 HD 
HETATM    4  H1  UNL     1      -7.611  16.085  63.682  1.00  0.00     0.000 HD 
HETATM    5  N   UNL     1      -7.873  18.014  66.127  1.00  0.00    -0.448 NA 
HETATM    6  N   UNL     1      -8.451  15.721  65.856  1.00  0.00    -0.152 NA 
HETATM    7  H1  UNL     1      -8.231  17.929  67.079  1.00  0.00     0.000 HD 
HETATM    8  H2  UNL     1      -7.474  18.867  65.737  1.00  0.00     0.000 HD 
HETATM    9  H   UNL     1      -8.491  14.905  65.246  1.00  0.00     0.000 HD 
ENDROOT
BRANCH   6  10
HETATM   10  C   UNL     1      -8.913  15.671  67.248  1.00  0.00    -0.199 C  
BRANCH  10  11
HETATM   11  C   UNL     1      -7.878  14.961  68.142  1.00  0.00    -0.122 C  
BRANCH  11  12
HETATM   12  N   UNL     1      -7.990  13.482  68.088  1.00  0.00    -0.138 NA 
HETATM   13  C   UNL     1      -9.184  12.990  68.786  1.00  0.00     0.160 C  
HETATM   14  C   UNL     1      -9.141  11.511  69.194  1.00  0.00     0.250 C  
HETATM   15  C   UNL     1      -7.779  11.044  69.717  1.00  0.00     0.276 C  
HETATM   16  C   UNL     1      -6.948  10.266  68.693  1.00  0.00    -0.066 C  
HETATM   17  C   UNL     1      -6.438  11.048  67.479  1.00  0.00    -0.063 C  
HETATM   18  C   UNL     1      -7.539  11.533  66.528  1.00  0.00    -0.036 C  
HETATM   19  C   UNL     1      -7.909  13.015  66.698  1.00  0.00     0.524 C  
ENDBRANCH  11  12
ENDBRANCH  10  11
ENDBRANCH   6  10
TORSDOF 3
ENDMDL
