MODEL        1
REMARK 921   NORMALIZED FREE ENERGY PREDICTED BY IDOCK:   -5.81 KCAL/MOL
REMARK 922        TOTAL FREE ENERGY PREDICTED BY IDOCK:   -7.12 KCAL/MOL
REMARK 923 INTER-LIGAND FREE ENERGY PREDICTED BY IDOCK:   -6.83 KCAL/MOL
REMARK 924 INTRA-LIGAND FREE ENERGY PREDICTED BY IDOCK:   -0.28 KCAL/MOL
REMARK 927      BINDING AFFINITY PREDICTED BY RF-SCORE:    0.00 PKD
ROOT
HETATM    1  N   UNL     1     -11.507  16.409  63.857  1.00  0.00    -1.618 NA 
HETATM    2  H2  UNL     1     -11.643  16.505  62.851  1.00  0.00     0.000 HD 
HETATM    3  C   UNL     1     -11.844  15.314  64.574  1.00  0.00    -0.295 C  
HETATM    4  H1  UNL     1     -11.099  17.129  64.455  1.00  0.00     0.000 HD 
HETATM    5  N   UNL     1     -12.387  14.358  63.780  1.00  0.00    -1.079 NA 
HETATM    6  N   UNL     1     -11.650  15.210  65.850  1.00  0.00    -0.170 NA 
HETATM    7  H1  UNL     1     -12.642  13.532  64.321  1.00  0.00     0.000 HD 
HETATM    8  H2  UNL     1     -12.522  14.453  62.774  1.00  0.00     0.000 HD 
HETATM    9  H   UNL     1     -11.288  15.960  66.438  1.00  0.00     0.000 HD 
ENDROOT
BRANCH   6  10
HETATM   10  N   UNL     1     -11.998  13.940  66.324  1.00  0.00    -0.411 NA 
HETATM   11  H   UNL     1     -12.810  13.408  66.011  1.00  0.00     0.000 HD 
BRANCH  10  12
HETATM   12  C   UNL     1     -11.150  13.531  67.214  1.00  0.00    -0.286 C  
BRANCH  12  13
HETATM   13  C   UNL     1     -11.566  12.891  68.481  1.00  0.00    -0.358 A  
HETATM   14  C   UNL     1     -12.022  13.635  69.584  1.00  0.00    -0.343 A  
HETATM   15  C   UNL     1     -12.470  12.978  70.740  1.00  0.00    -0.384 A  
HETATM   16 CL   UNL     1     -12.140  15.361  69.611  1.00  0.00    -0.364 Cl 
HETATM   17  C   UNL     1     -12.473  11.588  70.810  1.00  0.00    -0.444 A  
HETATM   18  C   UNL     1     -12.015  10.844  69.727  1.00  0.00    -0.423 A  
HETATM   19  C   UNL     1     -11.564  11.488  68.566  1.00  0.00    -0.313 A  
HETATM   20 CL   UNL     1     -10.987  10.467  67.292  1.00  0.00    -0.343 Cl 
ENDBRANCH  12  13
ENDBRANCH  10  12
ENDBRANCH   6  10
TORSDOF 3
ENDMDL
MODEL        2
REMARK 921   NORMALIZED FREE ENERGY PREDICTED BY IDOCK:   -5.75 KCAL/MOL
REMARK 922        TOTAL FREE ENERGY PREDICTED BY IDOCK:   -7.04 KCAL/MOL
REMARK 923 INTER-LIGAND FREE ENERGY PREDICTED BY IDOCK:   -6.76 KCAL/MOL
REMARK 924 INTRA-LIGAND FREE ENERGY PREDICTED BY IDOCK:   -0.28 KCAL/MOL
REMARK 927      BINDING AFFINITY PREDICTED BY RF-SCORE:    0.00 PKD
ROOT
HETATM    1  N   UNL     1     -12.404  14.103  63.229  1.00  0.00    -1.133 NA 
HETATM    2  H2  UNL     1     -12.565  14.487  62.298  1.00  0.00     0.000 HD 
HETATM    3  C   UNL     1     -11.939  14.814  64.280  1.00  0.00    -0.368 C  
HETATM    4  H1  UNL     1     -12.571  13.130  63.488  1.00  0.00     0.000 HD 
HETATM    5  N   UNL     1     -11.716  16.107  63.935  1.00  0.00    -1.452 NA 
HETATM    6  N   UNL     1     -11.754  14.308  65.458  1.00  0.00    -0.344 NA 
HETATM    7  H1  UNL     1     -11.365  16.643  64.728  1.00  0.00     0.000 HD 
HETATM    8  H2  UNL     1     -11.877  16.491  63.005  1.00  0.00     0.000 HD 
HETATM    9  H   UNL     1     -11.879  13.322  65.683  1.00  0.00     0.000 HD 
ENDROOT
BRANCH   6  10
HETATM   10  N   UNL     1     -11.363  15.282  66.383  1.00  0.00    -0.231 NA 
HETATM   11  H   UNL     1     -11.570  16.277  66.299  1.00  0.00     0.000 HD 
BRANCH  10  12
HETATM   12  C   UNL     1     -10.701  14.749  67.361  1.00  0.00    -0.281 C  
BRANCH  12  13
HETATM   13  C   UNL     1     -11.151  14.827  68.768  1.00  0.00    -0.277 A  
HETATM   14  C   UNL     1     -11.053  16.009  69.524  1.00  0.00    -0.333 A  
HETATM   15  C   UNL     1     -11.556  16.051  70.833  1.00  0.00    -0.453 A  
HETATM   16 CL   UNL     1     -10.392  17.493  68.927  1.00  0.00    -0.358 Cl 
HETATM   17  C   UNL     1     -12.159  14.932  71.397  1.00  0.00    -0.392 A  
HETATM   18  C   UNL     1     -12.253  13.756  70.660  1.00  0.00    -0.434 A  
HETATM   19  C   UNL     1     -11.753  13.699  69.352  1.00  0.00    -0.324 A  
HETATM   20 CL   UNL     1     -11.893  12.178  68.538  1.00  0.00    -0.378 Cl 
ENDBRANCH  12  13
ENDBRANCH  10  12
ENDBRANCH   6  10
TORSDOF 3
ENDMDL
MODEL        3
REMARK 921   NORMALIZED FREE ENERGY PREDICTED BY IDOCK:   -5.73 KCAL/MOL
REMARK 922        TOTAL FREE ENERGY PREDICTED BY IDOCK:   -7.01 KCAL/MOL
REMARK 923 INTER-LIGAND FREE ENERGY PREDICTED BY IDOCK:   -6.75 KCAL/MOL
REMARK 924 INTRA-LIGAND FREE ENERGY PREDICTED BY IDOCK:   -0.27 KCAL/MOL
REMARK 927      BINDING AFFINITY PREDICTED BY RF-SCORE:    0.00 PKD
ROOT
HETATM    1  N   UNL     1     -11.624  16.251  63.801  1.00  0.00    -1.482 NA 
HETATM    2  H2  UNL     1     -11.962  16.405  62.851  1.00  0.00     0.000 HD 
HETATM    3  C   UNL     1     -11.757  15.090  64.479  1.00  0.00    -0.368 C  
HETATM    4  H1  UNL     1     -11.143  16.954  64.363  1.00  0.00     0.000 HD 
HETATM    5  N   UNL     1     -12.396  14.156  63.732  1.00  0.00    -1.027 NA 
HETATM    6  N   UNL     1     -11.308  14.911  65.681  1.00  0.00    -0.342 NA 
HETATM    7  H1  UNL     1     -12.497  13.280  64.245  1.00  0.00     0.000 HD 
HETATM    8  H2  UNL     1     -12.734  14.311  62.782  1.00  0.00     0.000 HD 
HETATM    9  H   UNL     1     -10.876  15.642  66.246  1.00  0.00     0.000 HD 
ENDROOT
BRANCH   6  10
HETATM   10  N   UNL     1     -11.490  13.592  66.111  1.00  0.00    -0.317 NA 
HETATM   11  H   UNL     1     -12.063  12.900  65.627  1.00  0.00     0.000 HD 
BRANCH  10  12
HETATM   12  C   UNL     1     -10.834  13.368  67.204  1.00  0.00    -0.276 C  
BRANCH  12  13
HETATM   13  C   UNL     1     -11.495  12.977  68.468  1.00  0.00    -0.340 A  
HETATM   14  C   UNL     1     -11.667  11.632  68.841  1.00  0.00    -0.334 A  
HETATM   15  C   UNL     1     -12.238  11.312  70.082  1.00  0.00    -0.410 A  
HETATM   16 CL   UNL     1     -11.155  10.284  67.883  1.00  0.00    -0.354 Cl 
HETATM   17  C   UNL     1     -12.637  12.316  70.959  1.00  0.00    -0.352 A  
HETATM   18  C   UNL     1     -12.478  13.650  70.595  1.00  0.00    -0.417 A  
HETATM   19  C   UNL     1     -11.910  13.983  69.358  1.00  0.00    -0.333 A  
HETATM   20 CL   UNL     1     -11.789  15.671  68.994  1.00  0.00    -0.396 Cl 
ENDBRANCH  12  13
ENDBRANCH  10  12
ENDBRANCH   6  10
TORSDOF 3
ENDMDL
MODEL        4
REMARK 921   NORMALIZED FREE ENERGY PREDICTED BY IDOCK:   -5.72 KCAL/MOL
REMARK 922        TOTAL FREE ENERGY PREDICTED BY IDOCK:   -7.01 KCAL/MOL
REMARK 923 INTER-LIGAND FREE ENERGY PREDICTED BY IDOCK:   -6.72 KCAL/MOL
REMARK 924 INTRA-LIGAND FREE ENERGY PREDICTED BY IDOCK:   -0.28 KCAL/MOL
REMARK 927      BINDING AFFINITY PREDICTED BY RF-SCORE:    0.00 PKD
ROOT
HETATM    1  N   UNL     1     -12.387  11.716  63.158  1.00  0.00    -0.966 NA 
HETATM    2  H2  UNL     1     -12.470  11.903  62.159  1.00  0.00     0.000 HD 
HETATM    3  C   UNL     1     -12.281  12.671  64.108  1.00  0.00    -0.450 C  
HETATM    4  H1  UNL     1     -12.373  10.783  63.570  1.00  0.00     0.000 HD 
HETATM    5  N   UNL     1     -12.299  13.911  63.560  1.00  0.00    -1.087 NA 
HETATM    6  N   UNL     1     -12.190  12.411  65.374  1.00  0.00    -0.579 NA 
HETATM    7  H1  UNL     1     -12.218  14.632  64.277  1.00  0.00     0.000 HD 
HETATM    8  H2  UNL     1     -12.382  14.098  62.561  1.00  0.00     0.000 HD 
HETATM    9  H   UNL     1     -12.126  11.470  65.762  1.00  0.00     0.000 HD 
ENDROOT
BRANCH   6  10
HETATM   10  N   UNL     1     -12.191  13.579  66.143  1.00  0.00    -0.433 NA 
HETATM   11  H   UNL     1     -12.797  14.382  65.975  1.00  0.00     0.000 HD 
BRANCH  10  12
HETATM   12  C   UNL     1     -11.319  13.504  67.097  1.00  0.00    -0.321 C  
BRANCH  12  13
HETATM   13  C   UNL     1     -11.620  13.899  68.491  1.00  0.00    -0.367 A  
HETATM   14  C   UNL     1     -11.573  15.237  68.920  1.00  0.00    -0.347 A  
HETATM   15  C   UNL     1     -11.934  15.569  70.234  1.00  0.00    -0.401 A  
HETATM   16 CL   UNL     1     -11.148  16.570  67.901  1.00  0.00    -0.283 Cl 
HETATM   17  C   UNL     1     -12.346  14.585  71.126  1.00  0.00    -0.415 A  
HETATM   18  C   UNL     1     -12.388  13.257  70.714  1.00  0.00    -0.425 A  
HETATM   19  C   UNL     1     -12.028  12.911  69.404  1.00  0.00    -0.269 A  
HETATM   20 CL   UNL     1     -12.087  11.227  69.007  1.00  0.00    -0.381 Cl 
ENDBRANCH  12  13
ENDBRANCH  10  12
ENDBRANCH   6  10
TORSDOF 3
ENDMDL
MODEL        5
REMARK 921   NORMALIZED FREE ENERGY PREDICTED BY IDOCK:   -5.71 KCAL/MOL
REMARK 922        TOTAL FREE ENERGY PREDICTED BY IDOCK:   -7.00 KCAL/MOL
REMARK 923 INTER-LIGAND FREE ENERGY PREDICTED BY IDOCK:   -6.81 KCAL/MOL
REMARK 924 INTRA-LIGAND FREE ENERGY PREDICTED BY IDOCK:   -0.19 KCAL/MOL
REMARK 927      BINDING AFFINITY PREDICTED BY RF-SCORE:    0.00 PKD
ROOT
HETATM    1  N   UNL     1     -12.383  11.661  62.980  1.00  0.00    -0.956 NA 
HETATM    2  H2  UNL     1     -12.478  11.878  61.988  1.00  0.00     0.000 HD 
HETATM    3  C   UNL     1     -12.305  12.587  63.961  1.00  0.00    -0.469 C  
HETATM    4  H1  UNL     1     -12.334  10.716  63.361  1.00  0.00     0.000 HD 
HETATM    5  N   UNL     1     -12.369  13.843  63.454  1.00  0.00    -1.139 NA 
HETATM    6  N   UNL     1     -12.198  12.289  65.217  1.00  0.00    -0.532 NA 
HETATM    7  H1  UNL     1     -12.309  14.542  64.194  1.00  0.00     0.000 HD 
HETATM    8  H2  UNL     1     -12.463  14.060  62.462  1.00  0.00     0.000 HD 
HETATM    9  H   UNL     1     -12.099  11.339  65.573  1.00  0.00     0.000 HD 
ENDROOT
BRANCH   6  10
HETATM   10  N   UNL     1     -12.235  13.431  66.024  1.00  0.00    -0.436 NA 
HETATM   11  H   UNL     1     -12.879  14.211  65.894  1.00  0.00     0.000 HD 
BRANCH  10  12
HETATM   12  C   UNL     1     -11.341  13.364  66.959  1.00  0.00    -0.317 C  
BRANCH  12  13
HETATM   13  C   UNL     1     -11.669  13.006  68.356  1.00  0.00    -0.386 A  
HETATM   14  C   UNL     1     -12.035  13.969  69.313  1.00  0.00    -0.353 A  
HETATM   15  C   UNL     1     -12.404  13.572  70.607  1.00  0.00    -0.432 A  
HETATM   16 CL   UNL     1     -12.133  15.667  68.995  1.00  0.00    -0.310 Cl 
HETATM   17  C   UNL     1     -12.415  12.226  70.960  1.00  0.00    -0.361 A  
HETATM   18  C   UNL     1     -12.046  11.266  70.022  1.00  0.00    -0.425 A  
HETATM   19  C   UNL     1     -11.674  11.650  68.726  1.00  0.00    -0.330 A  
HETATM   20 CL   UNL     1     -11.203  10.377  67.651  1.00  0.00    -0.361 Cl 
ENDBRANCH  12  13
ENDBRANCH  10  12
ENDBRANCH   6  10
TORSDOF 3
ENDMDL
MODEL        6
REMARK 921   NORMALIZED FREE ENERGY PREDICTED BY IDOCK:   -5.66 KCAL/MOL
REMARK 922        TOTAL FREE ENERGY PREDICTED BY IDOCK:   -6.94 KCAL/MOL
REMARK 923 INTER-LIGAND FREE ENERGY PREDICTED BY IDOCK:   -6.66 KCAL/MOL
REMARK 924 INTRA-LIGAND FREE ENERGY PREDICTED BY IDOCK:   -0.27 KCAL/MOL
REMARK 927      BINDING AFFINITY PREDICTED BY RF-SCORE:    0.00 PKD
ROOT
HETATM    1  N   UNL     1     -12.435  11.645  63.032  1.00  0.00    -0.937 NA 
HETATM    2  H2  UNL     1     -12.568  11.821  62.037  1.00  0.00     0.000 HD 
HETATM    3  C   UNL     1     -12.325  12.609  63.972  1.00  0.00    -0.443 C  
HETATM    4  H1  UNL     1     -12.368  10.715  63.448  1.00  0.00     0.000 HD 
HETATM    5  N   UNL     1     -12.414  13.844  63.418  1.00  0.00    -1.110 NA 
HETATM    6  N   UNL     1     -12.171  12.361  65.234  1.00  0.00    -0.553 NA 
HETATM    7  H1  UNL     1     -12.330  14.572  64.127  1.00  0.00     0.000 HD 
HETATM    8  H2  UNL     1     -12.546  14.021  62.423  1.00  0.00     0.000 HD 
HETATM    9  H   UNL     1     -12.055  11.427  65.624  1.00  0.00     0.000 HD 
ENDROOT
BRANCH   6  10
HETATM   10  N   UNL     1     -12.184  13.534  65.996  1.00  0.00    -0.436 NA 
HETATM   11  H   UNL     1     -12.787  14.336  65.815  1.00  0.00     0.000 HD 
BRANCH  10  12
HETATM   12  C   UNL     1     -11.326  13.465  66.964  1.00  0.00    -0.317 C  
BRANCH  12  13
HETATM   13  C   UNL     1     -11.715  13.167  68.359  1.00  0.00    -0.386 A  
HETATM   14  C   UNL     1     -11.752  11.855  68.865  1.00  0.00    -0.323 A  
HETATM   15  C   UNL     1     -12.061  11.628  70.214  1.00  0.00    -0.443 A  
HETATM   16 CL   UNL     1     -11.372  10.444  67.937  1.00  0.00    -0.337 Cl 
HETATM   17  C   UNL     1     -12.330  12.693  71.069  1.00  0.00    -0.307 A  
HETATM   18  C   UNL     1     -12.304  13.994  70.576  1.00  0.00    -0.437 A  
HETATM   19  C   UNL     1     -11.998  14.234  69.229  1.00  0.00    -0.335 A  
HETATM   20 CL   UNL     1     -12.025  15.887  68.715  1.00  0.00    -0.297 Cl 
ENDBRANCH  12  13
ENDBRANCH  10  12
ENDBRANCH   6  10
TORSDOF 3
ENDMDL
MODEL        7
REMARK 921   NORMALIZED FREE ENERGY PREDICTED BY IDOCK:   -5.64 KCAL/MOL
REMARK 922        TOTAL FREE ENERGY PREDICTED BY IDOCK:   -6.92 KCAL/MOL
REMARK 923 INTER-LIGAND FREE ENERGY PREDICTED BY IDOCK:   -6.55 KCAL/MOL
REMARK 924 INTRA-LIGAND FREE ENERGY PREDICTED BY IDOCK:   -0.37 KCAL/MOL
REMARK 927      BINDING AFFINITY PREDICTED BY RF-SCORE:    0.00 PKD
ROOT
HETATM    1  N   UNL     1     -12.013  11.489  63.050  1.00  0.00    -0.908 NA 
HETATM    2  H2  UNL     1     -12.948  11.323  62.677  1.00  0.00     0.000 HD 
HETATM    3  C   UNL     1     -11.559  12.691  63.467  1.00  0.00    -0.514 C  
HETATM    4  H1  UNL     1     -11.299  10.768  63.156  1.00  0.00     0.000 HD 
HETATM    5  N   UNL     1     -12.509  13.649  63.326  1.00  0.00    -1.048 NA 
HETATM    6  N   UNL     1     -10.372  12.877  63.950  1.00  0.00    -0.551 NA 
HETATM    7  H1  UNL     1     -12.166  14.557  63.640  1.00  0.00     0.000 HD 
HETATM    8  H2  UNL     1     -13.443  13.483  62.953  1.00  0.00     0.000 HD 
HETATM    9  H   UNL     1      -9.655  12.154  64.000  1.00  0.00     0.000 HD 
ENDROOT
BRANCH   6  10
HETATM   10  N   UNL     1     -10.194  14.191  64.396  1.00  0.00    -0.676 NA 
HETATM   11  H   UNL     1     -10.424  15.023  63.851  1.00  0.00     0.000 HD 
BRANCH  10  12
HETATM   12  C   UNL     1      -9.698  14.211  65.592  1.00  0.00    -0.178 C  
BRANCH  12  13
HETATM   13  C   UNL     1     -10.462  14.681  66.768  1.00  0.00    -0.277 A  
HETATM   14  C   UNL     1     -11.385  13.861  67.441  1.00  0.00    -0.326 A  
HETATM   15  C   UNL     1     -12.034  14.329  68.593  1.00  0.00    -0.348 A  
HETATM   16 CL   UNL     1     -11.754  12.233  66.983  1.00  0.00    -0.423 Cl 
HETATM   17  C   UNL     1     -11.773  15.604  69.085  1.00  0.00    -0.402 A  
HETATM   18  C   UNL     1     -10.868  16.426  68.421  1.00  0.00    -0.342 A  
HETATM   19  C   UNL     1     -10.213  15.971  67.268  1.00  0.00    -0.277 A  
HETATM   20 CL   UNL     1      -9.132  17.086  66.504  1.00  0.00    -0.275 Cl 
ENDBRANCH  12  13
ENDBRANCH  10  12
ENDBRANCH   6  10
TORSDOF 3
ENDMDL
MODEL        8
REMARK 921   NORMALIZED FREE ENERGY PREDICTED BY IDOCK:   -5.62 KCAL/MOL
REMARK 922        TOTAL FREE ENERGY PREDICTED BY IDOCK:   -6.89 KCAL/MOL
REMARK 923 INTER-LIGAND FREE ENERGY PREDICTED BY IDOCK:   -6.79 KCAL/MOL
REMARK 924 INTRA-LIGAND FREE ENERGY PREDICTED BY IDOCK:   -0.11 KCAL/MOL
REMARK 927      BINDING AFFINITY PREDICTED BY RF-SCORE:    0.00 PKD
ROOT
HETATM    1  N   UNL     1     -12.397  11.561  63.049  1.00  0.00    -0.935 NA 
HETATM    2  H2  UNL     1     -12.377  11.668  62.035  1.00  0.00     0.000 HD 
HETATM    3  C   UNL     1     -12.410  12.590  63.925  1.00  0.00    -0.485 C  
HETATM    4  H1  UNL     1     -12.410  10.664  63.534  1.00  0.00     0.000 HD 
HETATM    5  N   UNL     1     -12.392  13.783  63.280  1.00  0.00    -1.124 NA 
HETATM    6  N   UNL     1     -12.448  12.432  65.210  1.00  0.00    -0.609 NA 
HETATM    7  H1  UNL     1     -12.401  14.559  63.941  1.00  0.00     0.000 HD 
HETATM    8  H2  UNL     1     -12.373  13.889  62.266  1.00  0.00     0.000 HD 
HETATM    9  H   UNL     1     -12.408  11.526  65.677  1.00  0.00     0.000 HD 
ENDROOT
BRANCH   6  10
HETATM   10  N   UNL     1     -12.552  13.656  65.879  1.00  0.00    -0.452 NA 
HETATM   11  H   UNL     1     -13.121  14.441  65.563  1.00  0.00     0.000 HD 
BRANCH  10  12
HETATM   12  C   UNL     1     -11.828  13.659  66.953  1.00  0.00    -0.411 C  
BRANCH  12  13
HETATM   13  C   UNL     1     -11.307  14.900  67.564  1.00  0.00    -0.351 A  
HETATM   14  C   UNL     1     -10.623  15.876  66.817  1.00  0.00    -0.309 A  
HETATM   15  C   UNL     1     -10.208  17.069  67.429  1.00  0.00    -0.314 A  
HETATM   16 CL   UNL     1     -10.291  15.749  65.124  1.00  0.00    -0.385 Cl 
HETATM   17  C   UNL     1     -10.470  17.304  68.775  1.00  0.00    -0.340 A  
HETATM   18  C   UNL     1     -11.139  16.341  69.524  1.00  0.00    -0.330 A  
HETATM   19  C   UNL     1     -11.557  15.144  68.926  1.00  0.00    -0.341 A  
HETATM   20 CL   UNL     1     -12.352  14.004  69.957  1.00  0.00    -0.402 Cl 
ENDBRANCH  12  13
ENDBRANCH  10  12
ENDBRANCH   6  10
TORSDOF 3
ENDMDL
MODEL        9
REMARK 921   NORMALIZED FREE ENERGY PREDICTED BY IDOCK:   -5.57 KCAL/MOL
REMARK 922        TOTAL FREE ENERGY PREDICTED BY IDOCK:   -6.83 KCAL/MOL
REMARK 923 INTER-LIGAND FREE ENERGY PREDICTED BY IDOCK:   -6.61 KCAL/MOL
REMARK 924 INTRA-LIGAND FREE ENERGY PREDICTED BY IDOCK:   -0.23 KCAL/MOL
REMARK 927      BINDING AFFINITY PREDICTED BY RF-SCORE:    0.00 PKD
ROOT
HETATM    1  N   UNL     1     -11.779  16.148  63.803  1.00  0.00    -1.406 NA 
HETATM    2  H2  UNL     1     -11.834  16.365  62.808  1.00  0.00     0.000 HD 
HETATM    3  C   UNL     1     -12.038  14.934  64.336  1.00  0.00    -0.401 C  
HETATM    4  H1  UNL     1     -11.521  16.821  64.526  1.00  0.00     0.000 HD 
HETATM    5  N   UNL     1     -12.381  14.041  63.375  1.00  0.00    -1.154 NA 
HETATM    6  N   UNL     1     -11.949  14.677  65.602  1.00  0.00    -0.292 NA 
HETATM    7  H1  UNL     1     -12.577  13.124  63.777  1.00  0.00     0.000 HD 
HETATM    8  H2  UNL     1     -12.436  14.258  62.380  1.00  0.00     0.000 HD 
HETATM    9  H   UNL     1     -11.740  15.376  66.315  1.00  0.00     0.000 HD 
ENDROOT
BRANCH   6  10
HETATM   10  N   UNL     1     -12.175  13.323  65.872  1.00  0.00    -0.437 NA 
HETATM   11  H   UNL     1     -12.981  12.794  65.542  1.00  0.00     0.000 HD 
BRANCH  10  12
HETATM   12  C   UNL     1     -11.221  12.832  66.599  1.00  0.00    -0.301 C  
BRANCH  12  13
HETATM   13  C   UNL     1     -10.774  11.427  66.489  1.00  0.00    -0.325 A  
HETATM   14  C   UNL     1     -10.183  10.915  65.319  1.00  0.00    -0.288 A  
HETATM   15  C   UNL     1      -9.712   9.595  65.288  1.00  0.00    -0.330 A  
HETATM   16 CL   UNL     1      -9.921  11.838  63.879  1.00  0.00    -0.342 Cl 
HETATM   17  C   UNL     1      -9.819   8.776  66.408  1.00  0.00    -0.352 A  
HETATM   18  C   UNL     1     -10.410   9.270  67.566  1.00  0.00    -0.323 A  
HETATM   19  C   UNL     1     -10.886  10.588  67.611  1.00  0.00    -0.300 A  
HETATM   20 CL   UNL     1     -11.632  11.089  69.091  1.00  0.00    -0.355 Cl 
ENDBRANCH  12  13
ENDBRANCH  10  12
ENDBRANCH   6  10
TORSDOF 3
ENDMDL
MODEL       10
REMARK 921   NORMALIZED FREE ENERGY PREDICTED BY IDOCK:   -5.56 KCAL/MOL
REMARK 922        TOTAL FREE ENERGY PREDICTED BY IDOCK:   -6.82 KCAL/MOL
REMARK 923 INTER-LIGAND FREE ENERGY PREDICTED BY IDOCK:   -6.53 KCAL/MOL
REMARK 924 INTRA-LIGAND FREE ENERGY PREDICTED BY IDOCK:   -0.29 KCAL/MOL
REMARK 927      BINDING AFFINITY PREDICTED BY RF-SCORE:    0.00 PKD
ROOT
HETATM    1  N   UNL     1     -12.504  11.675  63.173  1.00  0.00    -0.949 NA 
HETATM    2  H2  UNL     1     -12.579  11.786  62.162  1.00  0.00     0.000 HD 
HETATM    3  C   UNL     1     -12.443  12.700  64.052  1.00  0.00    -0.399 C  
HETATM    4  H1  UNL     1     -12.465  10.776  63.653  1.00  0.00     0.000 HD 
HETATM    5  N   UNL     1     -12.495  13.896  63.414  1.00  0.00    -1.110 NA 
HETATM    6  N   UNL     1     -12.362  12.536  65.334  1.00  0.00    -0.635 NA 
HETATM    7  H1  UNL     1     -12.449  14.669  64.077  1.00  0.00     0.000 HD 
HETATM    8  H2  UNL     1     -12.570  14.006  62.403  1.00  0.00     0.000 HD 
HETATM    9  H   UNL     1     -12.272  11.630  65.791  1.00  0.00     0.000 HD 
ENDROOT
BRANCH   6  10
HETATM   10  N   UNL     1     -12.413  13.757  66.016  1.00  0.00    -0.459 NA 
HETATM   11  H   UNL     1     -13.107  14.486  65.847  1.00  0.00     0.000 HD 
BRANCH  10  12
HETATM   12  C   UNL     1     -11.461  13.838  66.890  1.00  0.00    -0.347 C  
BRANCH  12  13
HETATM   13  C   UNL     1     -11.715  13.981  68.340  1.00  0.00    -0.389 A  
HETATM   14  C   UNL     1     -11.975  12.875  69.170  1.00  0.00    -0.259 A  
HETATM   15  C   UNL     1     -12.142  13.054  70.551  1.00  0.00    -0.373 A  
HETATM   16 CL   UNL     1     -12.046  11.238  68.613  1.00  0.00    -0.316 Cl 
HETATM   17  C   UNL     1     -12.050  14.321  71.118  1.00  0.00    -0.409 A  
HETATM   18  C   UNL     1     -11.803  15.422  70.304  1.00  0.00    -0.368 A  
HETATM   19  C   UNL     1     -11.635  15.258  68.922  1.00  0.00    -0.347 A  
HETATM   20 CL   UNL     1     -11.363  16.698  68.001  1.00  0.00    -0.167 Cl 
ENDBRANCH  12  13
ENDBRANCH  10  12
ENDBRANCH   6  10
TORSDOF 3
ENDMDL
MODEL       11
REMARK 921   NORMALIZED FREE ENERGY PREDICTED BY IDOCK:   -5.55 KCAL/MOL
REMARK 922        TOTAL FREE ENERGY PREDICTED BY IDOCK:   -6.81 KCAL/MOL
REMARK 923 INTER-LIGAND FREE ENERGY PREDICTED BY IDOCK:   -6.42 KCAL/MOL
REMARK 924 INTRA-LIGAND FREE ENERGY PREDICTED BY IDOCK:   -0.39 KCAL/MOL
REMARK 927      BINDING AFFINITY PREDICTED BY RF-SCORE:    0.00 PKD
ROOT
HETATM    1  N   UNL     1     -12.113  11.615  63.002  1.00  0.00    -0.927 NA 
HETATM    2  H2  UNL     1     -13.071  11.539  62.661  1.00  0.00     0.000 HD 
HETATM    3  C   UNL     1     -11.569  12.743  63.510  1.00  0.00    -0.501 C  
HETATM    4  H1  UNL     1     -11.439  10.848  63.002  1.00  0.00     0.000 HD 
HETATM    5  N   UNL     1     -12.465  13.761  63.508  1.00  0.00    -1.020 NA 
HETATM    6  N   UNL     1     -10.353  12.813  63.949  1.00  0.00    -0.492 NA 
HETATM    7  H1  UNL     1     -12.054  14.613  63.891  1.00  0.00     0.000 HD 
HETATM    8  H2  UNL     1     -13.423  13.685  63.168  1.00  0.00     0.000 HD 
HETATM    9  H   UNL     1      -9.679  12.050  63.893  1.00  0.00     0.000 HD 
ENDROOT
BRANCH   6  10
HETATM   10  N   UNL     1     -10.077  14.065  64.509  1.00  0.00    -0.714 NA 
HETATM   11  H   UNL     1     -10.181  14.954  64.019  1.00  0.00     0.000 HD 
BRANCH  10  12
HETATM   12  C   UNL     1      -9.671  13.944  65.733  1.00  0.00    -0.164 C  
BRANCH  12  13
HETATM   13  C   UNL     1     -10.340  14.614  66.868  1.00  0.00    -0.264 A  
HETATM   14  C   UNL     1     -10.086  15.956  67.205  1.00  0.00    -0.264 A  
HETATM   15  C   UNL     1     -10.797  16.568  68.248  1.00  0.00    -0.352 A  
HETATM   16 CL   UNL     1      -8.968  16.975  66.363  1.00  0.00    -0.300 Cl 
HETATM   17  C   UNL     1     -11.761  15.861  68.959  1.00  0.00    -0.377 A  
HETATM   18  C   UNL     1     -12.013  14.530  68.640  1.00  0.00    -0.320 A  
HETATM   19  C   UNL     1     -11.309  13.906  67.600  1.00  0.00    -0.309 A  
HETATM   20 CL   UNL     1     -11.680  12.241  67.308  1.00  0.00    -0.418 Cl 
ENDBRANCH  12  13
ENDBRANCH  10  12
ENDBRANCH   6  10
TORSDOF 3
ENDMDL
MODEL       12
REMARK 921   NORMALIZED FREE ENERGY PREDICTED BY IDOCK:   -5.54 KCAL/MOL
REMARK 922        TOTAL FREE ENERGY PREDICTED BY IDOCK:   -6.80 KCAL/MOL
REMARK 923 INTER-LIGAND FREE ENERGY PREDICTED BY IDOCK:   -6.51 KCAL/MOL
REMARK 924 INTRA-LIGAND FREE ENERGY PREDICTED BY IDOCK:   -0.29 KCAL/MOL
REMARK 927      BINDING AFFINITY PREDICTED BY RF-SCORE:    0.00 PKD
ROOT
HETATM    1  N   UNL     1     -14.188   8.881  73.259  1.00  0.00    -1.237 NA 
HETATM    2  H2  UNL     1     -14.781   8.083  73.484  1.00  0.00     0.000 HD 
HETATM    3  C   UNL     1     -13.731   9.168  72.020  1.00  0.00    -0.448 C  
HETATM    4  H1  UNL     1     -13.862   9.568  73.940  1.00  0.00     0.000 HD 
HETATM    5  N   UNL     1     -14.165   8.255  71.115  1.00  0.00    -0.652 NA 
HETATM    6  N   UNL     1     -12.990  10.196  71.753  1.00  0.00    -0.434 NA 
HETATM    7  H1  UNL     1     -13.819   8.472  70.180  1.00  0.00     0.000 HD 
HETATM    8  H2  UNL     1     -14.757   7.457  71.341  1.00  0.00     0.000 HD 
HETATM    9  H   UNL     1     -12.632  10.842  72.456  1.00  0.00     0.000 HD 
ENDROOT
BRANCH   6  10
HETATM   10  N   UNL     1     -12.741  10.312  70.381  1.00  0.00    -0.525 NA 
HETATM   11  H   UNL     1     -13.294   9.862  69.652  1.00  0.00     0.000 HD 
BRANCH  10  12
HETATM   12  C   UNL     1     -11.712  11.067  70.161  1.00  0.00    -0.356 C  
BRANCH  12  13
HETATM   13  C   UNL     1     -11.765  12.259  69.287  1.00  0.00    -0.388 A  
HETATM   14  C   UNL     1     -12.062  13.541  69.783  1.00  0.00    -0.318 A  
HETATM   15  C   UNL     1     -12.033  14.652  68.926  1.00  0.00    -0.309 A  
HETATM   16 CL   UNL     1     -12.412  13.885  71.443  1.00  0.00    -0.436 Cl 
HETATM   17  C   UNL     1     -11.709  14.502  67.581  1.00  0.00    -0.410 A  
HETATM   18  C   UNL     1     -11.423  13.236  67.080  1.00  0.00    -0.380 A  
HETATM   19  C   UNL     1     -11.449  12.118  67.925  1.00  0.00    -0.328 A  
HETATM   20 CL   UNL     1     -11.108  10.588  67.190  1.00  0.00    -0.293 Cl 
ENDBRANCH  12  13
ENDBRANCH  10  12
ENDBRANCH   6  10
TORSDOF 3
ENDMDL
MODEL       13
REMARK 921   NORMALIZED FREE ENERGY PREDICTED BY IDOCK:   -5.54 KCAL/MOL
REMARK 922        TOTAL FREE ENERGY PREDICTED BY IDOCK:   -6.79 KCAL/MOL
REMARK 923 INTER-LIGAND FREE ENERGY PREDICTED BY IDOCK:   -6.69 KCAL/MOL
REMARK 924 INTRA-LIGAND FREE ENERGY PREDICTED BY IDOCK:   -0.11 KCAL/MOL
REMARK 927      BINDING AFFINITY PREDICTED BY RF-SCORE:    0.00 PKD
ROOT
HETATM    1  N   UNL     1     -12.459  11.574  62.997  1.00  0.00    -0.914 NA 
HETATM    2  H2  UNL     1     -12.445  11.689  61.984  1.00  0.00     0.000 HD 
HETATM    3  C   UNL     1     -12.387  12.591  63.883  1.00  0.00    -0.485 C  
HETATM    4  H1  UNL     1     -12.529  10.674  63.473  1.00  0.00     0.000 HD 
HETATM    5  N   UNL     1     -12.293  13.787  63.250  1.00  0.00    -1.124 NA 
HETATM    6  N   UNL     1     -12.420  12.422  65.167  1.00  0.00    -0.601 NA 
HETATM    7  H1  UNL     1     -12.238  14.554  63.919  1.00  0.00     0.000 HD 
HETATM    8  H2  UNL     1     -12.279  13.902  62.237  1.00  0.00     0.000 HD 
HETATM    9  H   UNL     1     -12.439  11.511  65.625  1.00  0.00     0.000 HD 
ENDROOT
BRANCH   6  10
HETATM   10  N   UNL     1     -12.428  13.644  65.849  1.00  0.00    -0.461 NA 
HETATM   11  H   UNL     1     -13.040  14.428  65.625  1.00  0.00     0.000 HD 
BRANCH  10  12
HETATM   12  C   UNL     1     -11.553  13.645  66.804  1.00  0.00    -0.364 C  
BRANCH  12  13
HETATM   13  C   UNL     1     -11.239  14.851  67.601  1.00  0.00    -0.330 A  
HETATM   14  C   UNL     1     -11.431  14.902  68.994  1.00  0.00    -0.301 A  
HETATM   15  C   UNL     1     -11.054  16.044  69.715  1.00  0.00    -0.337 A  
HETATM   16 CL   UNL     1     -12.061  13.594  69.937  1.00  0.00    -0.399 Cl 
HETATM   17  C   UNL     1     -10.485  17.136  69.068  1.00  0.00    -0.321 A  
HETATM   18  C   UNL     1     -10.300  17.099  67.690  1.00  0.00    -0.344 A  
HETATM   19  C   UNL     1     -10.673  15.964  66.956  1.00  0.00    -0.292 A  
HETATM   20 CL   UNL     1     -10.427  16.037  65.244  1.00  0.00    -0.413 Cl 
ENDBRANCH  12  13
ENDBRANCH  10  12
ENDBRANCH   6  10
TORSDOF 3
ENDMDL
MODEL       14
REMARK 921   NORMALIZED FREE ENERGY PREDICTED BY IDOCK:   -5.51 KCAL/MOL
REMARK 922        TOTAL FREE ENERGY PREDICTED BY IDOCK:   -6.77 KCAL/MOL
REMARK 923 INTER-LIGAND FREE ENERGY PREDICTED BY IDOCK:   -6.41 KCAL/MOL
REMARK 924 INTRA-LIGAND FREE ENERGY PREDICTED BY IDOCK:   -0.36 KCAL/MOL
REMARK 927      BINDING AFFINITY PREDICTED BY RF-SCORE:    0.00 PKD
ROOT
HETATM    1  N   UNL     1     -12.404  11.547  63.000  1.00  0.00    -0.935 NA 
HETATM    2  H2  UNL     1     -12.115  11.505  62.023  1.00  0.00     0.000 HD 
HETATM    3  C   UNL     1     -12.530  12.689  63.711  1.00  0.00    -0.420 C  
HETATM    4  H1  UNL     1     -12.636  10.731  63.568  1.00  0.00     0.000 HD 
HETATM    5  N   UNL     1     -12.221  13.772  62.957  1.00  0.00    -0.977 NA 
HETATM    6  N   UNL     1     -12.912  12.720  64.949  1.00  0.00    -0.853 NA 
HETATM    7  H1  UNL     1     -12.315  14.634  63.494  1.00  0.00     0.000 HD 
HETATM    8  H2  UNL     1     -11.932  13.730  61.980  1.00  0.00     0.000 HD 
HETATM    9  H   UNL     1     -13.090  11.890  65.514  1.00  0.00     0.000 HD 
ENDROOT
BRANCH   6  10
HETATM   10  N   UNL     1     -13.052  14.032  65.414  1.00  0.00    -0.739 NA 
HETATM   11  H   UNL     1     -13.513  14.782  64.900  1.00  0.00     0.000 HD 
BRANCH  10  12
HETATM   12  C   UNL     1     -12.515  14.166  66.585  1.00  0.00    -0.219 C  
BRANCH  12  13
HETATM   13  C   UNL     1     -11.055  14.102  66.809  1.00  0.00    -0.314 A  
HETATM   14  C   UNL     1     -10.172  15.064  66.285  1.00  0.00    -0.294 A  
HETATM   15  C   UNL     1      -8.802  14.999  66.582  1.00  0.00    -0.307 A  
HETATM   16 CL   UNL     1     -10.665  16.410  65.316  1.00  0.00    -0.371 Cl 
HETATM   17  C   UNL     1      -8.301  13.990  67.398  1.00  0.00    -0.207 A  
HETATM   18  C   UNL     1      -9.165  13.029  67.914  1.00  0.00    -0.208 A  
HETATM   19  C   UNL     1     -10.535  13.081  67.624  1.00  0.00    -0.225 A  
HETATM   20 CL   UNL     1     -11.514  11.819  68.291  1.00  0.00    -0.341 Cl 
ENDBRANCH  12  13
ENDBRANCH  10  12
ENDBRANCH   6  10
TORSDOF 3
ENDMDL
MODEL       15
REMARK 921   NORMALIZED FREE ENERGY PREDICTED BY IDOCK:   -5.49 KCAL/MOL
REMARK 922        TOTAL FREE ENERGY PREDICTED BY IDOCK:   -6.74 KCAL/MOL
REMARK 923 INTER-LIGAND FREE ENERGY PREDICTED BY IDOCK:   -6.47 KCAL/MOL
REMARK 924 INTRA-LIGAND FREE ENERGY PREDICTED BY IDOCK:   -0.26 KCAL/MOL
REMARK 927      BINDING AFFINITY PREDICTED BY RF-SCORE:    0.00 PKD
ROOT
HETATM    1  N   UNL     1     -14.243   8.843  73.208  1.00  0.00    -1.237 NA 
HETATM    2  H2  UNL     1     -14.911   8.120  73.471  1.00  0.00     0.000 HD 
HETATM    3  C   UNL     1     -13.774   9.032  71.955  1.00  0.00    -0.441 C  
HETATM    4  H1  UNL     1     -13.839   9.519  73.858  1.00  0.00     0.000 HD 
HETATM    5  N   UNL     1     -14.310   8.133  71.092  1.00  0.00    -0.674 NA 
HETATM    6  N   UNL     1     -12.934   9.966  71.640  1.00  0.00    -0.400 NA 
HETATM    7  H1  UNL     1     -13.955   8.275  70.146  1.00  0.00     0.000 HD 
HETATM    8  H2  UNL     1     -14.978   7.410  71.355  1.00  0.00     0.000 HD 
HETATM    9  H   UNL     1     -12.503  10.600  72.313  1.00  0.00     0.000 HD 
ENDROOT
BRANCH   6  10
HETATM   10  N   UNL     1     -12.691  10.001  70.263  1.00  0.00    -0.541 NA 
HETATM   11  H   UNL     1     -13.250   9.512  69.564  1.00  0.00     0.000 HD 
BRANCH  10  12
HETATM   12  C   UNL     1     -11.659  10.737  69.994  1.00  0.00    -0.334 C  
BRANCH  12  13
HETATM   13  C   UNL     1     -11.568  11.575  68.780  1.00  0.00    -0.379 A  
HETATM   14  C   UNL     1     -11.194  11.050  67.530  1.00  0.00    -0.302 A  
HETATM   15  C   UNL     1     -11.189  11.872  66.393  1.00  0.00    -0.387 A  
HETATM   16 CL   UNL     1     -10.783   9.391  67.256  1.00  0.00    -0.314 Cl 
HETATM   17  C   UNL     1     -11.556  13.211  66.484  1.00  0.00    -0.402 A  
HETATM   18  C   UNL     1     -11.919  13.742  67.718  1.00  0.00    -0.391 A  
HETATM   19  C   UNL     1     -11.927  12.932  68.862  1.00  0.00    -0.250 A  
HETATM   20 CL   UNL     1     -12.364  13.702  70.350  1.00  0.00    -0.421 Cl 
ENDBRANCH  12  13
ENDBRANCH  10  12
ENDBRANCH   6  10
TORSDOF 3
ENDMDL
MODEL       16
REMARK 921   NORMALIZED FREE ENERGY PREDICTED BY IDOCK:   -5.44 KCAL/MOL
REMARK 922        TOTAL FREE ENERGY PREDICTED BY IDOCK:   -6.68 KCAL/MOL
REMARK 923 INTER-LIGAND FREE ENERGY PREDICTED BY IDOCK:   -6.49 KCAL/MOL
REMARK 924 INTRA-LIGAND FREE ENERGY PREDICTED BY IDOCK:   -0.19 KCAL/MOL
REMARK 927      BINDING AFFINITY PREDICTED BY RF-SCORE:    0.00 PKD
ROOT
HETATM    1  N   UNL     1     -12.131  15.963  63.766  1.00  0.00    -1.230 NA 
HETATM    2  H2  UNL     1     -12.106  16.183  62.771  1.00  0.00     0.000 HD 
HETATM    3  C   UNL     1     -12.261  14.716  64.270  1.00  0.00    -0.408 C  
HETATM    4  H1  UNL     1     -12.063  16.657  64.511  1.00  0.00     0.000 HD 
HETATM    5  N   UNL     1     -12.352  13.795  63.279  1.00  0.00    -1.124 NA 
HETATM    6  N   UNL     1     -12.277  14.459  65.539  1.00  0.00    -0.372 NA 
HETATM    7  H1  UNL     1     -12.450  12.854  63.660  1.00  0.00     0.000 HD 
HETATM    8  H2  UNL     1     -12.326  14.015  62.284  1.00  0.00     0.000 HD 
HETATM    9  H   UNL     1     -12.259  15.171  66.269  1.00  0.00     0.000 HD 
ENDROOT
BRANCH   6  10
HETATM   10  N   UNL     1     -12.322  13.082  65.787  1.00  0.00    -0.493 NA 
HETATM   11  H   UNL     1     -12.982  12.437  65.353  1.00  0.00     0.000 HD 
BRANCH  10  12
HETATM   12  C   UNL     1     -11.412  12.737  66.641  1.00  0.00    -0.350 C  
BRANCH  12  13
HETATM   13  C   UNL     1     -10.917  11.349  66.766  1.00  0.00    -0.347 A  
HETATM   14  C   UNL     1     -11.161  10.564  67.908  1.00  0.00    -0.289 A  
HETATM   15  C   UNL     1     -10.730   9.230  67.951  1.00  0.00    -0.248 A  
HETATM   16 CL   UNL     1     -12.041  11.111  69.294  1.00  0.00    -0.405 Cl 
HETATM   17  C   UNL     1     -10.060   8.666  66.869  1.00  0.00    -0.355 A  
HETATM   18  C   UNL     1      -9.806   9.437  65.740  1.00  0.00    -0.345 A  
HETATM   19  C   UNL     1     -10.231  10.772  65.684  1.00  0.00    -0.257 A  
HETATM   20 CL   UNL     1      -9.834  11.648  64.244  1.00  0.00    -0.269 Cl 
ENDBRANCH  12  13
ENDBRANCH  10  12
ENDBRANCH   6  10
TORSDOF 3
ENDMDL
MODEL       17
REMARK 921   NORMALIZED FREE ENERGY PREDICTED BY IDOCK:   -5.43 KCAL/MOL
REMARK 922        TOTAL FREE ENERGY PREDICTED BY IDOCK:   -6.66 KCAL/MOL
REMARK 923 INTER-LIGAND FREE ENERGY PREDICTED BY IDOCK:   -6.39 KCAL/MOL
REMARK 924 INTRA-LIGAND FREE ENERGY PREDICTED BY IDOCK:   -0.27 KCAL/MOL
REMARK 927      BINDING AFFINITY PREDICTED BY RF-SCORE:    0.00 PKD
ROOT
HETATM    1  N   UNL     1     -11.008  14.365  64.380  1.00  0.00    -0.618 NA 
HETATM    2  H2  UNL     1     -11.371  14.140  63.454  1.00  0.00     0.000 HD 
HETATM    3  C   UNL     1     -11.754  14.397  65.506  1.00  0.00    -0.352 C  
HETATM    4  H1  UNL     1     -10.034  14.598  64.576  1.00  0.00     0.000 HD 
HETATM    5  N   UNL     1     -13.048  14.089  65.245  1.00  0.00    -0.765 NA 
HETATM    6  N   UNL     1     -11.268  14.673  66.675  1.00  0.00    -0.342 NA 
HETATM    7  H1  UNL     1     -13.611  14.113  66.095  1.00  0.00     0.000 HD 
HETATM    8  H2  UNL     1     -13.411  13.863  64.319  1.00  0.00     0.000 HD 
HETATM    9  H   UNL     1     -10.303  14.953  66.843  1.00  0.00     0.000 HD 
ENDROOT
BRANCH   6  10
HETATM   10  N   UNL     1     -12.233  14.540  67.680  1.00  0.00    -0.614 NA 
HETATM   11  H   UNL     1     -13.240  14.580  67.524  1.00  0.00     0.000 HD 
BRANCH  10  12
HETATM   12  C   UNL     1     -11.675  14.361  68.835  1.00  0.00    -0.322 C  
BRANCH  12  13
HETATM   13  C   UNL     1     -12.197  13.406  69.836  1.00  0.00    -0.337 A  
HETATM   14  C   UNL     1     -12.007  12.017  69.720  1.00  0.00    -0.300 A  
HETATM   15  C   UNL     1     -12.461  11.157  70.731  1.00  0.00    -0.479 A  
HETATM   16 CL   UNL     1     -11.172  11.257  68.409  1.00  0.00    -0.292 Cl 
HETATM   17  C   UNL     1     -13.098  11.663  71.859  1.00  0.00    -0.490 A  
HETATM   18  C   UNL     1     -13.298  13.035  71.979  1.00  0.00    -0.588 A  
HETATM   19  C   UNL     1     -12.851  13.906  70.976  1.00  0.00    -0.324 A  
HETATM   20 CL   UNL     1     -13.179  15.589  71.212  1.00  0.00    -0.566 Cl 
ENDBRANCH  12  13
ENDBRANCH  10  12
ENDBRANCH   6  10
TORSDOF 3
ENDMDL
MODEL       18
REMARK 921   NORMALIZED FREE ENERGY PREDICTED BY IDOCK:   -5.41 KCAL/MOL
REMARK 922        TOTAL FREE ENERGY PREDICTED BY IDOCK:   -6.64 KCAL/MOL
REMARK 923 INTER-LIGAND FREE ENERGY PREDICTED BY IDOCK:   -6.38 KCAL/MOL
REMARK 924 INTRA-LIGAND FREE ENERGY PREDICTED BY IDOCK:   -0.26 KCAL/MOL
REMARK 927      BINDING AFFINITY PREDICTED BY RF-SCORE:    0.00 PKD
ROOT
HETATM    1  N   UNL     1     -12.398  14.537  63.783  1.00  0.00    -1.087 NA 
HETATM    2  H2  UNL     1     -12.841  14.307  62.895  1.00  0.00     0.000 HD 
HETATM    3  C   UNL     1     -12.408  13.738  64.873  1.00  0.00    -0.405 C  
HETATM    4  H1  UNL     1     -11.888  15.402  63.966  1.00  0.00     0.000 HD 
HETATM    5  N   UNL     1     -13.085  12.589  64.630  1.00  0.00    -0.837 NA 
HETATM    6  N   UNL     1     -11.825  14.045  65.988  1.00  0.00    -0.370 NA 
HETATM    7  H1  UNL     1     -13.093  11.986  65.453  1.00  0.00     0.000 HD 
HETATM    8  H2  UNL     1     -13.529  12.358  63.742  1.00  0.00     0.000 HD 
HETATM    9  H   UNL     1     -11.365  14.937  66.167  1.00  0.00     0.000 HD 
ENDROOT
BRANCH   6  10
HETATM   10  N   UNL     1     -11.905  13.003  66.918  1.00  0.00    -0.382 NA 
HETATM   11  H   UNL     1     -12.449  12.150  66.785  1.00  0.00     0.000 HD 
BRANCH  10  12
HETATM   12  C   UNL     1     -11.196  13.266  67.969  1.00  0.00    -0.276 C  
BRANCH  12  13
HETATM   13  C   UNL     1     -11.796  13.671  69.259  1.00  0.00    -0.395 A  
HETATM   14  C   UNL     1     -12.240  12.733  70.208  1.00  0.00    -0.277 A  
HETATM   15  C   UNL     1     -12.739  13.166  71.446  1.00  0.00    -0.390 A  
HETATM   16 CL   UNL     1     -12.161  11.018  69.992  1.00  0.00    -0.408 Cl 
HETATM   17  C   UNL     1     -12.799  14.523  71.751  1.00  0.00    -0.415 A  
HETATM   18  C   UNL     1     -12.370  15.458  70.815  1.00  0.00    -0.447 A  
HETATM   19  C   UNL     1     -11.870  15.039  69.574  1.00  0.00    -0.330 A  
HETATM   20 CL   UNL     1     -11.395  16.287  68.473  1.00  0.00    -0.367 Cl 
ENDBRANCH  12  13
ENDBRANCH  10  12
ENDBRANCH   6  10
TORSDOF 3
ENDMDL
MODEL       19
REMARK 921   NORMALIZED FREE ENERGY PREDICTED BY IDOCK:   -5.41 KCAL/MOL
REMARK 922        TOTAL FREE ENERGY PREDICTED BY IDOCK:   -6.64 KCAL/MOL
REMARK 923 INTER-LIGAND FREE ENERGY PREDICTED BY IDOCK:   -6.39 KCAL/MOL
REMARK 924 INTRA-LIGAND FREE ENERGY PREDICTED BY IDOCK:   -0.25 KCAL/MOL
REMARK 927      BINDING AFFINITY PREDICTED BY RF-SCORE:    0.00 PKD
ROOT
HETATM    1  N   UNL     1     -11.782  16.271  63.867  1.00  0.00    -1.518 NA 
HETATM    2  H2  UNL     1     -11.867  16.402  62.859  1.00  0.00     0.000 HD 
HETATM    3  C   UNL     1     -11.992  15.098  64.506  1.00  0.00    -0.319 C  
HETATM    4  H1  UNL     1     -11.529  17.008  64.525  1.00  0.00     0.000 HD 
HETATM    5  N   UNL     1     -12.330  14.118  63.632  1.00  0.00    -1.092 NA 
HETATM    6  N   UNL     1     -11.866  14.952  65.787  1.00  0.00    -0.194 NA 
HETATM    7  H1  UNL     1     -12.488  13.234  64.114  1.00  0.00     0.000 HD 
HETATM    8  H2  UNL     1     -12.414  14.249  62.624  1.00  0.00     0.000 HD 
HETATM    9  H   UNL     1     -11.662  15.713  66.433  1.00  0.00     0.000 HD 
ENDROOT
BRANCH   6  10
HETATM   10  N   UNL     1     -12.044  13.619  66.174  1.00  0.00    -0.414 NA 
HETATM   11  H   UNL     1     -12.826  13.032  65.885  1.00  0.00     0.000 HD 
BRANCH  10  12
HETATM   12  C   UNL     1     -11.083  13.232  66.951  1.00  0.00    -0.289 C  
BRANCH  12  13
HETATM   13  C   UNL     1     -11.224  12.106  67.899  1.00  0.00    -0.329 A  
HETATM   14  C   UNL     1     -10.833  10.795  67.571  1.00  0.00    -0.288 A  
HETATM   15  C   UNL     1     -10.923   9.773  68.528  1.00  0.00    -0.195 A  
HETATM   16 CL   UNL     1     -10.165  10.332  66.043  1.00  0.00    -0.314 Cl 
HETATM   17  C   UNL     1     -11.393  10.041  69.810  1.00  0.00    -0.281 A  
HETATM   18  C   UNL     1     -11.790  11.333  70.141  1.00  0.00    -0.449 A  
HETATM   19  C   UNL     1     -11.707  12.363  69.194  1.00  0.00    -0.322 A  
HETATM   20 CL   UNL     1     -12.257  13.924  69.701  1.00  0.00    -0.388 Cl 
ENDBRANCH  12  13
ENDBRANCH  10  12
ENDBRANCH   6  10
TORSDOF 3
ENDMDL
MODEL       20
REMARK 921   NORMALIZED FREE ENERGY PREDICTED BY IDOCK:   -5.36 KCAL/MOL
REMARK 922        TOTAL FREE ENERGY PREDICTED BY IDOCK:   -6.59 KCAL/MOL
REMARK 923 INTER-LIGAND FREE ENERGY PREDICTED BY IDOCK:   -6.41 KCAL/MOL
REMARK 924 INTRA-LIGAND FREE ENERGY PREDICTED BY IDOCK:   -0.18 KCAL/MOL
REMARK 927      BINDING AFFINITY PREDICTED BY RF-SCORE:    0.00 PKD
ROOT
HETATM    1  N   UNL     1      -9.940  16.795  65.530  1.00  0.00    -0.584 NA 
HETATM    2  H2  UNL     1      -9.665  17.663  65.070  1.00  0.00     0.000 HD 
HETATM    3  C   UNL     1     -10.902  15.962  65.077  1.00  0.00    -0.426 C  
HETATM    4  H1  UNL     1      -9.524  16.444  66.393  1.00  0.00     0.000 HD 
HETATM    5  N   UNL     1     -11.455  16.429  63.930  1.00  0.00    -1.618 NA 
HETATM    6  N   UNL     1     -11.226  14.857  65.671  1.00  0.00    -0.346 NA 
HETATM    7  H1  UNL     1     -12.181  15.800  63.589  1.00  0.00     0.000 HD 
HETATM    8  H2  UNL     1     -11.180  17.297  63.471  1.00  0.00     0.000 HD 
HETATM    9  H   UNL     1     -10.834  14.549  66.560  1.00  0.00     0.000 HD 
ENDROOT
BRANCH   6  10
HETATM   10  N   UNL     1     -12.179  14.138  64.941  1.00  0.00    -0.422 NA 
HETATM   11  H   UNL     1     -12.595  14.453  64.065  1.00  0.00     0.000 HD 
BRANCH  10  12
HETATM   12  C   UNL     1     -12.462  13.019  65.528  1.00  0.00    -0.438 C  
BRANCH  12  13
HETATM   13  C   UNL     1     -11.436  12.006  65.858  1.00  0.00    -0.392 A  
HETATM   14  C   UNL     1     -11.140  11.639  67.183  1.00  0.00    -0.299 A  
HETATM   15  C   UNL     1     -10.208  10.624  67.442  1.00  0.00    -0.243 A  
HETATM   16 CL   UNL     1     -11.910  12.321  68.575  1.00  0.00    -0.373 Cl 
HETATM   17  C   UNL     1      -9.568   9.965  66.396  1.00  0.00    -0.255 A  
HETATM   18  C   UNL     1      -9.847  10.327  65.082  1.00  0.00    -0.389 A  
HETATM   19  C   UNL     1     -10.776  11.341  64.810  1.00  0.00    -0.285 A  
HETATM   20 CL   UNL     1     -11.023  11.733  63.142  1.00  0.00    -0.339 Cl 
ENDBRANCH  12  13
ENDBRANCH  10  12
ENDBRANCH   6  10
TORSDOF 3
ENDMDL
MODEL       21
REMARK 921   NORMALIZED FREE ENERGY PREDICTED BY IDOCK:   -5.30 KCAL/MOL
REMARK 922        TOTAL FREE ENERGY PREDICTED BY IDOCK:   -6.52 KCAL/MOL
REMARK 923 INTER-LIGAND FREE ENERGY PREDICTED BY IDOCK:   -6.22 KCAL/MOL
REMARK 924 INTRA-LIGAND FREE ENERGY PREDICTED BY IDOCK:   -0.29 KCAL/MOL
REMARK 927      BINDING AFFINITY PREDICTED BY RF-SCORE:    0.00 PKD
ROOT
HETATM    1  N   UNL     1     -12.744  15.760  74.543  1.00  0.00    -0.895 NA 
HETATM    2  H2  UNL     1     -13.367  15.285  75.196  1.00  0.00     0.000 HD 
HETATM    3  C   UNL     1     -12.797  15.622  73.200  1.00  0.00    -0.509 C  
HETATM    4  H1  UNL     1     -11.999  16.400  74.819  1.00  0.00     0.000 HD 
HETATM    5  N   UNL     1     -13.788  14.771  72.834  1.00  0.00    -0.502 NA 
HETATM    6  N   UNL     1     -12.004  16.245  72.387  1.00  0.00    -0.544 NA 
HETATM    7  H1  UNL     1     -13.827  14.667  71.820  1.00  0.00     0.000 HD 
HETATM    8  H2  UNL     1     -14.410  14.297  73.487  1.00  0.00     0.000 HD 
HETATM    9  H   UNL     1     -11.232  16.841  72.684  1.00  0.00     0.000 HD 
ENDROOT
BRANCH   6  10
HETATM   10  N   UNL     1     -12.337  16.000  71.050  1.00  0.00    -0.542 NA 
HETATM   11  H   UNL     1     -13.275  16.091  70.662  1.00  0.00     0.000 HD 
BRANCH  10  12
HETATM   12  C   UNL     1     -11.293  15.643  70.373  1.00  0.00    -0.358 C  
BRANCH  12  13
HETATM   13  C   UNL     1     -11.379  14.839  69.134  1.00  0.00    -0.302 A  
HETATM   14  C   UNL     1     -11.713  13.473  69.146  1.00  0.00    -0.327 A  
HETATM   15  C   UNL     1     -11.850  12.770  67.940  1.00  0.00    -0.392 A  
HETATM   16 CL   UNL     1     -12.045  12.566  70.583  1.00  0.00    -0.400 Cl 
HETATM   17  C   UNL     1     -11.661  13.412  66.720  1.00  0.00    -0.429 A  
HETATM   18  C   UNL     1     -11.322  14.761  66.698  1.00  0.00    -0.347 A  
HETATM   19  C   UNL     1     -11.181  15.475  67.896  1.00  0.00    -0.325 A  
HETATM   20 CL   UNL     1     -10.726  17.139  67.754  1.00  0.00    -0.355 Cl 
ENDBRANCH  12  13
ENDBRANCH  10  12
ENDBRANCH   6  10
TORSDOF 3
ENDMDL
MODEL       22
REMARK 921   NORMALIZED FREE ENERGY PREDICTED BY IDOCK:   -5.30 KCAL/MOL
REMARK 922        TOTAL FREE ENERGY PREDICTED BY IDOCK:   -6.52 KCAL/MOL
REMARK 923 INTER-LIGAND FREE ENERGY PREDICTED BY IDOCK:   -6.26 KCAL/MOL
REMARK 924 INTRA-LIGAND FREE ENERGY PREDICTED BY IDOCK:   -0.25 KCAL/MOL
REMARK 927      BINDING AFFINITY PREDICTED BY RF-SCORE:    0.00 PKD
ROOT
HETATM    1  N   UNL     1     -13.622   7.020  72.026  1.00  0.00    -0.556 NA 
HETATM    2  H2  UNL     1     -13.917   6.441  72.812  1.00  0.00     0.000 HD 
HETATM    3  C   UNL     1     -13.723   8.367  71.989  1.00  0.00    -0.374 C  
HETATM    4  H1  UNL     1     -13.214   6.657  71.164  1.00  0.00     0.000 HD 
HETATM    5  N   UNL     1     -14.266   8.848  73.134  1.00  0.00    -1.200 NA 
HETATM    6  N   UNL     1     -13.330   9.084  70.984  1.00  0.00    -0.547 NA 
HETATM    7  H1  UNL     1     -14.343   9.865  73.106  1.00  0.00     0.000 HD 
HETATM    8  H2  UNL     1     -14.560   8.269  73.920  1.00  0.00     0.000 HD 
HETATM    9  H   UNL     1     -12.972   8.699  70.111  1.00  0.00     0.000 HD 
ENDROOT
BRANCH   6  10
HETATM   10  N   UNL     1     -13.458  10.453  71.245  1.00  0.00    -0.223 NA 
HETATM   11  H   UNL     1     -14.334  10.918  71.480  1.00  0.00     0.000 HD 
BRANCH  10  12
HETATM   12  C   UNL     1     -12.313  11.050  71.147  1.00  0.00    -0.359 C  
BRANCH  12  13
HETATM   13  C   UNL     1     -12.110  12.263  70.325  1.00  0.00    -0.376 A  
HETATM   14  C   UNL     1     -11.620  12.204  69.008  1.00  0.00    -0.319 A  
HETATM   15  C   UNL     1     -11.510  13.376  68.244  1.00  0.00    -0.350 A  
HETATM   16 CL   UNL     1     -11.183  10.739  68.197  1.00  0.00    -0.338 Cl 
HETATM   17  C   UNL     1     -11.886  14.606  68.775  1.00  0.00    -0.348 A  
HETATM   18  C   UNL     1     -12.364  14.675  70.080  1.00  0.00    -0.390 A  
HETATM   19  C   UNL     1     -12.477  13.512  70.855  1.00  0.00    -0.369 A  
HETATM   20 CL   UNL     1     -13.053  13.716  72.474  1.00  0.00    -0.510 Cl 
ENDBRANCH  12  13
ENDBRANCH  10  12
ENDBRANCH   6  10
TORSDOF 3
ENDMDL
MODEL       23
REMARK 921   NORMALIZED FREE ENERGY PREDICTED BY IDOCK:   -5.29 KCAL/MOL
REMARK 922        TOTAL FREE ENERGY PREDICTED BY IDOCK:   -6.50 KCAL/MOL
REMARK 923 INTER-LIGAND FREE ENERGY PREDICTED BY IDOCK:   -6.25 KCAL/MOL
REMARK 924 INTRA-LIGAND FREE ENERGY PREDICTED BY IDOCK:   -0.25 KCAL/MOL
REMARK 927      BINDING AFFINITY PREDICTED BY RF-SCORE:    0.00 PKD
ROOT
HETATM    1  N   UNL     1     -13.120  16.130  74.326  1.00  0.00    -0.925 NA 
HETATM    2  H2  UNL     1     -13.977  15.900  74.828  1.00  0.00     0.000 HD 
HETATM    3  C   UNL     1     -12.971  16.041  72.986  1.00  0.00    -0.490 C  
HETATM    4  H1  UNL     1     -12.261  16.456  74.771  1.00  0.00     0.000 HD 
HETATM    5  N   UNL     1     -14.112  15.607  72.395  1.00  0.00    -0.543 NA 
HETATM    6  N   UNL     1     -11.876  16.351  72.367  1.00  0.00    -0.552 NA 
HETATM    7  H1  UNL     1     -14.000  15.539  71.384  1.00  0.00     0.000 HD 
HETATM    8  H2  UNL     1     -14.970  15.377  72.897  1.00  0.00     0.000 HD 
HETATM    9  H   UNL     1     -11.013  16.626  72.834  1.00  0.00     0.000 HD 
ENDROOT
BRANCH   6  10
HETATM   10  N   UNL     1     -12.024  16.262  70.979  1.00  0.00    -0.569 NA 
HETATM   11  H   UNL     1     -12.739  16.751  70.441  1.00  0.00     0.000 HD 
BRANCH  10  12
HETATM   12  C   UNL     1     -11.130  15.476  70.469  1.00  0.00    -0.345 C  
BRANCH  12  13
HETATM   13  C   UNL     1     -11.291  14.831  69.148  1.00  0.00    -0.302 A  
HETATM   14  C   UNL     1     -11.030  15.510  67.943  1.00  0.00    -0.316 A  
HETATM   15  C   UNL     1     -11.131  14.835  66.718  1.00  0.00    -0.338 A  
HETATM   16 CL   UNL     1     -10.514  17.159  67.849  1.00  0.00    -0.355 Cl 
HETATM   17  C   UNL     1     -11.485  13.490  66.676  1.00  0.00    -0.366 A  
HETATM   18  C   UNL     1     -11.754  12.812  67.862  1.00  0.00    -0.408 A  
HETATM   19  C   UNL     1     -11.658  13.475  69.093  1.00  0.00    -0.310 A  
HETATM   20 CL   UNL     1     -12.044  12.546  70.502  1.00  0.00    -0.428 Cl 
ENDBRANCH  12  13
ENDBRANCH  10  12
ENDBRANCH   6  10
TORSDOF 3
ENDMDL
MODEL       24
REMARK 921   NORMALIZED FREE ENERGY PREDICTED BY IDOCK:   -5.28 KCAL/MOL
REMARK 922        TOTAL FREE ENERGY PREDICTED BY IDOCK:   -6.49 KCAL/MOL
REMARK 923 INTER-LIGAND FREE ENERGY PREDICTED BY IDOCK:   -6.27 KCAL/MOL
REMARK 924 INTRA-LIGAND FREE ENERGY PREDICTED BY IDOCK:   -0.22 KCAL/MOL
REMARK 927      BINDING AFFINITY PREDICTED BY RF-SCORE:    0.00 PKD
ROOT
HETATM    1  N   UNL     1     -12.383  14.262  64.409  1.00  0.00    -0.638 NA 
HETATM    2  H2  UNL     1     -13.003  14.243  63.600  1.00  0.00     0.000 HD 
HETATM    3  C   UNL     1     -11.507  15.255  64.678  1.00  0.00    -0.354 C  
HETATM    4  H1  UNL     1     -12.343  13.532  65.121  1.00  0.00     0.000 HD 
HETATM    5  N   UNL     1     -11.560  16.224  63.731  1.00  0.00    -1.482 NA 
HETATM    6  N   UNL     1     -10.737  15.264  65.720  1.00  0.00    -0.331 NA 
HETATM    7  H1  UNL     1     -10.898  16.973  63.934  1.00  0.00     0.000 HD 
HETATM    8  H2  UNL     1     -12.180  16.205  62.922  1.00  0.00     0.000 HD 
HETATM    9  H   UNL     1     -10.675  14.500  66.393  1.00  0.00     0.000 HD 
ENDROOT
BRANCH   6  10
HETATM   10  N   UNL     1     -10.002  16.451  65.809  1.00  0.00    -0.478 NA 
HETATM   11  H   UNL     1      -9.404  16.818  65.068  1.00  0.00     0.000 HD 
BRANCH  10  12
HETATM   12  C   UNL     1     -10.180  17.020  66.958  1.00  0.00    -0.303 C  
BRANCH  12  13
HETATM   13  C   UNL     1      -9.237  18.013  67.515  1.00  0.00    -0.253 A  
HETATM   14  C   UNL     1      -8.250  17.667  68.456  1.00  0.00    -0.292 A  
HETATM   15  C   UNL     1      -7.334  18.630  68.903  1.00  0.00    -0.301 A  
HETATM   16 CL   UNL     1      -8.025  16.070  69.085  1.00  0.00    -0.231 Cl 
HETATM   17  C   UNL     1      -7.386  19.935  68.422  1.00  0.00    -0.318 A  
HETATM   18  C   UNL     1      -8.364  20.289  67.498  1.00  0.00    -0.365 A  
HETATM   19  C   UNL     1      -9.286  19.336  67.044  1.00  0.00    -0.318 A  
HETATM   20 CL   UNL     1     -10.479  19.892  65.919  1.00  0.00    -0.607 Cl 
ENDBRANCH  12  13
ENDBRANCH  10  12
ENDBRANCH   6  10
TORSDOF 3
ENDMDL
MODEL       25
REMARK 921   NORMALIZED FREE ENERGY PREDICTED BY IDOCK:   -5.27 KCAL/MOL
REMARK 922        TOTAL FREE ENERGY PREDICTED BY IDOCK:   -6.48 KCAL/MOL
REMARK 923 INTER-LIGAND FREE ENERGY PREDICTED BY IDOCK:   -6.20 KCAL/MOL
REMARK 924 INTRA-LIGAND FREE ENERGY PREDICTED BY IDOCK:   -0.29 KCAL/MOL
REMARK 927      BINDING AFFINITY PREDICTED BY RF-SCORE:    0.00 PKD
ROOT
HETATM    1  N   UNL     1     -12.364  11.345  62.907  1.00  0.00    -0.834 NA 
HETATM    2  H2  UNL     1     -12.053  11.253  61.940  1.00  0.00     0.000 HD 
HETATM    3  C   UNL     1     -12.518  12.523  63.551  1.00  0.00    -0.459 C  
HETATM    4  H1  UNL     1     -12.600  10.560  63.514  1.00  0.00     0.000 HD 
HETATM    5  N   UNL     1     -12.204  13.567  62.744  1.00  0.00    -0.793 NA 
HETATM    6  N   UNL     1     -12.928  12.618  64.776  1.00  0.00    -0.867 NA 
HETATM    7  H1  UNL     1     -12.320  14.456  63.230  1.00  0.00     0.000 HD 
HETATM    8  H2  UNL     1     -11.893  13.474  61.777  1.00  0.00     0.000 HD 
HETATM    9  H   UNL     1     -13.109  11.819  65.383  1.00  0.00     0.000 HD 
ENDROOT
BRANCH   6  10
HETATM   10  N   UNL     1     -13.092  13.952  65.165  1.00  0.00    -0.764 NA 
HETATM   11  H   UNL     1     -13.509  14.677  64.582  1.00  0.00     0.000 HD 
BRANCH  10  12
HETATM   12  C   UNL     1     -12.643  14.142  66.365  1.00  0.00    -0.198 C  
BRANCH  12  13
HETATM   13  C   UNL     1     -11.208  14.045  66.707  1.00  0.00    -0.323 A  
HETATM   14  C   UNL     1     -10.701  13.035  67.545  1.00  0.00    -0.238 A  
HETATM   15  C   UNL     1      -9.322  12.944  67.785  1.00  0.00    -0.203 A  
HETATM   16 CL   UNL     1     -11.672  11.808  68.284  1.00  0.00    -0.380 Cl 
HETATM   17  C   UNL     1      -8.439  13.845  67.198  1.00  0.00    -0.196 A  
HETATM   18  C   UNL     1      -8.932  14.853  66.374  1.00  0.00    -0.254 A  
HETATM   19  C   UNL     1     -10.308  14.956  66.127  1.00  0.00    -0.301 A  
HETATM   20 CL   UNL     1     -10.814  16.265  65.114  1.00  0.00    -0.389 Cl 
ENDBRANCH  12  13
ENDBRANCH  10  12
ENDBRANCH   6  10
TORSDOF 3
ENDMDL
MODEL       26
REMARK 921   NORMALIZED FREE ENERGY PREDICTED BY IDOCK:   -5.26 KCAL/MOL
REMARK 922        TOTAL FREE ENERGY PREDICTED BY IDOCK:   -6.46 KCAL/MOL
REMARK 923 INTER-LIGAND FREE ENERGY PREDICTED BY IDOCK:   -6.30 KCAL/MOL
REMARK 924 INTRA-LIGAND FREE ENERGY PREDICTED BY IDOCK:   -0.16 KCAL/MOL
REMARK 927      BINDING AFFINITY PREDICTED BY RF-SCORE:    0.00 PKD
ROOT
HETATM    1  N   UNL     1     -10.801   8.873  67.520  1.00  0.00    -0.470 NA 
HETATM    2  H2  UNL     1     -10.073   8.465  66.933  1.00  0.00     0.000 HD 
HETATM    3  C   UNL     1     -11.004  10.199  67.675  1.00  0.00    -0.268 C  
HETATM    4  H1  UNL     1     -11.470   8.331  68.067  1.00  0.00     0.000 HD 
HETATM    5  N   UNL     1     -10.115  10.919  66.947  1.00  0.00    -0.205 NA 
HETATM    6  N   UNL     1     -11.944  10.695  68.415  1.00  0.00    -0.811 NA 
HETATM    7  H1  UNL     1     -10.268  11.921  67.065  1.00  0.00     0.000 HD 
HETATM    8  H2  UNL     1      -9.387  10.512  66.361  1.00  0.00     0.000 HD 
HETATM    9  H   UNL     1     -12.571  10.137  68.995  1.00  0.00     0.000 HD 
ENDROOT
BRANCH   6  10
HETATM   10  N   UNL     1     -11.995  12.090  68.321  1.00  0.00    -0.463 NA 
HETATM   11  H   UNL     1     -12.354  12.603  67.517  1.00  0.00     0.000 HD 
BRANCH  10  12
HETATM   12  C   UNL     1     -11.524  12.642  69.394  1.00  0.00    -0.266 C  
BRANCH  12  13
HETATM   13  C   UNL     1     -12.373  13.386  70.350  1.00  0.00    -0.382 A  
HETATM   14  C   UNL     1     -13.023  12.755  71.426  1.00  0.00    -0.266 A  
HETATM   15  C   UNL     1     -13.761  13.514  72.346  1.00  0.00    -0.704 A  
HETATM   16 CL   UNL     1     -12.932  11.059  71.758  1.00  0.00    -0.574 Cl 
HETATM   17  C   UNL     1     -13.858  14.895  72.211  1.00  0.00    -0.588 A  
HETATM   18  C   UNL     1     -13.225  15.527  71.145  1.00  0.00    -0.576 A  
HETATM   19  C   UNL     1     -12.486  14.781  70.217  1.00  0.00    -0.340 A  
HETATM   20 CL   UNL     1     -11.767  15.664  68.913  1.00  0.00    -0.391 Cl 
ENDBRANCH  12  13
ENDBRANCH  10  12
ENDBRANCH   6  10
TORSDOF 3
ENDMDL
MODEL       27
REMARK 921   NORMALIZED FREE ENERGY PREDICTED BY IDOCK:   -5.24 KCAL/MOL
REMARK 922        TOTAL FREE ENERGY PREDICTED BY IDOCK:   -6.44 KCAL/MOL
REMARK 923 INTER-LIGAND FREE ENERGY PREDICTED BY IDOCK:   -6.14 KCAL/MOL
REMARK 924 INTRA-LIGAND FREE ENERGY PREDICTED BY IDOCK:   -0.30 KCAL/MOL
REMARK 927      BINDING AFFINITY PREDICTED BY RF-SCORE:    0.00 PKD
ROOT
HETATM    1  N   UNL     1     -11.532  14.248  64.305  1.00  0.00    -0.617 NA 
HETATM    2  H2  UNL     1     -12.056  14.044  63.454  1.00  0.00     0.000 HD 
HETATM    3  C   UNL     1     -11.187  15.489  64.711  1.00  0.00    -0.390 C  
HETATM    4  H1  UNL     1     -11.198  13.540  64.960  1.00  0.00     0.000 HD 
HETATM    5  N   UNL     1     -11.630  16.430  63.840  1.00  0.00    -1.602 NA 
HETATM    6  N   UNL     1     -10.531  15.726  65.803  1.00  0.00    -0.346 NA 
HETATM    7  H1  UNL     1     -11.369  17.367  64.146  1.00  0.00     0.000 HD 
HETATM    8  H2  UNL     1     -12.154  16.226  62.990  1.00  0.00     0.000 HD 
HETATM    9  H   UNL     1     -10.162  15.002  66.418  1.00  0.00     0.000 HD 
ENDROOT
BRANCH   6  10
HETATM   10  N   UNL     1     -10.392  17.099  66.035  1.00  0.00    -0.422 NA 
HETATM   11  H   UNL     1     -10.406  17.813  65.307  1.00  0.00     0.000 HD 
BRANCH  10  12
HETATM   12  C   UNL     1     -10.244  17.341  67.298  1.00  0.00    -0.320 C  
BRANCH  12  13
HETATM   13  C   UNL     1      -9.007  17.924  67.862  1.00  0.00    -0.264 A  
HETATM   14  C   UNL     1      -8.730  19.302  67.802  1.00  0.00    -0.306 A  
HETATM   15  C   UNL     1      -7.576  19.815  68.412  1.00  0.00    -0.336 A  
HETATM   16 CL   UNL     1      -9.770  20.471  67.062  1.00  0.00    -0.579 Cl 
HETATM   17  C   UNL     1      -6.695  18.974  69.084  1.00  0.00    -0.337 A  
HETATM   18  C   UNL     1      -6.956  17.609  69.141  1.00  0.00    -0.217 A  
HETATM   19  C   UNL     1      -8.105  17.082  68.535  1.00  0.00    -0.251 A  
HETATM   20 CL   UNL     1      -8.315  15.367  68.640  1.00  0.00    -0.157 Cl 
ENDBRANCH  12  13
ENDBRANCH  10  12
ENDBRANCH   6  10
TORSDOF 3
ENDMDL
MODEL       28
REMARK 921   NORMALIZED FREE ENERGY PREDICTED BY IDOCK:   -5.17 KCAL/MOL
REMARK 922        TOTAL FREE ENERGY PREDICTED BY IDOCK:   -6.36 KCAL/MOL
REMARK 923 INTER-LIGAND FREE ENERGY PREDICTED BY IDOCK:   -6.18 KCAL/MOL
REMARK 924 INTRA-LIGAND FREE ENERGY PREDICTED BY IDOCK:   -0.18 KCAL/MOL
REMARK 927      BINDING AFFINITY PREDICTED BY RF-SCORE:    0.00 PKD
ROOT
HETATM    1  N   UNL     1     -10.754   8.800  67.316  1.00  0.00    -0.419 NA 
HETATM    2  H2  UNL     1     -10.047   8.466  66.662  1.00  0.00     0.000 HD 
HETATM    3  C   UNL     1     -10.995  10.103  67.581  1.00  0.00    -0.268 C  
HETATM    4  H1  UNL     1     -11.373   8.194  67.856  1.00  0.00     0.000 HD 
HETATM    5  N   UNL     1     -10.173  10.908  66.864  1.00  0.00    -0.219 NA 
HETATM    6  N   UNL     1     -11.909  10.506  68.406  1.00  0.00    -0.769 NA 
HETATM    7  H1  UNL     1     -10.354  11.892  67.065  1.00  0.00     0.000 HD 
HETATM    8  H2  UNL     1      -9.465  10.574  66.210  1.00  0.00     0.000 HD 
HETATM    9  H   UNL     1     -12.482   9.884  68.975  1.00  0.00     0.000 HD 
ENDROOT
BRANCH   6  10
HETATM   10  N   UNL     1     -12.013  11.901  68.421  1.00  0.00    -0.453 NA 
HETATM   11  H   UNL     1     -12.409  12.460  67.666  1.00  0.00     0.000 HD 
BRANCH  10  12
HETATM   12  C   UNL     1     -11.538  12.388  69.524  1.00  0.00    -0.286 C  
BRANCH  12  13
HETATM   13  C   UNL     1     -12.354  13.190  70.461  1.00  0.00    -0.380 A  
HETATM   14  C   UNL     1     -12.485  14.585  70.340  1.00  0.00    -0.347 A  
HETATM   15  C   UNL     1     -13.324  15.293  71.212  1.00  0.00    -0.586 A  
HETATM   16 CL   UNL     1     -11.712  15.531  69.113  1.00  0.00    -0.361 Cl 
HETATM   17  C   UNL     1     -14.039  14.628  72.203  1.00  0.00    -0.604 A  
HETATM   18  C   UNL     1     -13.910  13.249  72.337  1.00  0.00    -0.630 A  
HETATM   19  C   UNL     1     -13.073  12.530  71.473  1.00  0.00    -0.277 A  
HETATM   20 CL   UNL     1     -12.962  10.824  71.748  1.00  0.00    -0.579 Cl 
ENDBRANCH  12  13
ENDBRANCH  10  12
ENDBRANCH   6  10
TORSDOF 3
ENDMDL
MODEL       29
REMARK 921   NORMALIZED FREE ENERGY PREDICTED BY IDOCK:   -5.09 KCAL/MOL
REMARK 922        TOTAL FREE ENERGY PREDICTED BY IDOCK:   -6.26 KCAL/MOL
REMARK 923 INTER-LIGAND FREE ENERGY PREDICTED BY IDOCK:   -5.99 KCAL/MOL
REMARK 924 INTRA-LIGAND FREE ENERGY PREDICTED BY IDOCK:   -0.27 KCAL/MOL
REMARK 927      BINDING AFFINITY PREDICTED BY RF-SCORE:    0.00 PKD
ROOT
HETATM    1  N   UNL     1     -14.037   8.849  73.215  1.00  0.00    -1.248 NA 
HETATM    2  H2  UNL     1     -14.517   8.001  73.513  1.00  0.00     0.000 HD 
HETATM    3  C   UNL     1     -13.721   9.139  71.933  1.00  0.00    -0.424 C  
HETATM    4  H1  UNL     1     -13.733   9.591  73.846  1.00  0.00     0.000 HD 
HETATM    5  N   UNL     1     -14.125   8.153  71.095  1.00  0.00    -0.646 NA 
HETATM    6  N   UNL     1     -13.123  10.231  71.575  1.00  0.00    -0.415 NA 
HETATM    7  H1  UNL     1     -13.886   8.371  70.128  1.00  0.00     0.000 HD 
HETATM    8  H2  UNL     1     -14.605   7.304  71.393  1.00  0.00     0.000 HD 
HETATM    9  H   UNL     1     -12.780  10.936  72.227  1.00  0.00     0.000 HD 
ENDROOT
BRANCH   6  10
HETATM   10  N   UNL     1     -13.004  10.323  70.184  1.00  0.00    -0.549 NA 
HETATM   11  H   UNL     1     -13.738  10.071  69.523  1.00  0.00     0.000 HD 
BRANCH  10  12
HETATM   12  C   UNL     1     -11.836  10.771  69.850  1.00  0.00    -0.335 C  
BRANCH  12  13
HETATM   13  C   UNL     1     -11.234  10.524  68.522  1.00  0.00    -0.332 A  
HETATM   14  C   UNL     1     -11.228  11.497  67.506  1.00  0.00    -0.298 A  
HETATM   15  C   UNL     1     -10.584  11.240  66.287  1.00  0.00    -0.315 A  
HETATM   16 CL   UNL     1     -11.925  13.074  67.666  1.00  0.00    -0.385 Cl 
HETATM   17  C   UNL     1      -9.942  10.025  66.067  1.00  0.00    -0.334 A  
HETATM   18  C   UNL     1      -9.950   9.053  67.062  1.00  0.00    -0.295 A  
HETATM   19  C   UNL     1     -10.591   9.297  68.284  1.00  0.00    -0.189 A  
HETATM   20 CL   UNL     1     -10.566   8.007  69.439  1.00  0.00    -0.228 Cl 
ENDBRANCH  12  13
ENDBRANCH  10  12
ENDBRANCH   6  10
TORSDOF 3
ENDMDL
MODEL       30
REMARK 921   NORMALIZED FREE ENERGY PREDICTED BY IDOCK:   -5.05 KCAL/MOL
REMARK 922        TOTAL FREE ENERGY PREDICTED BY IDOCK:   -6.22 KCAL/MOL
REMARK 923 INTER-LIGAND FREE ENERGY PREDICTED BY IDOCK:   -6.09 KCAL/MOL
REMARK 924 INTRA-LIGAND FREE ENERGY PREDICTED BY IDOCK:   -0.13 KCAL/MOL
REMARK 927      BINDING AFFINITY PREDICTED BY RF-SCORE:    0.00 PKD
ROOT
HETATM    1  N   UNL     1     -13.076  15.972  74.021  1.00  0.00    -0.925 NA 
HETATM    2  H2  UNL     1     -13.907  15.675  74.533  1.00  0.00     0.000 HD 
HETATM    3  C   UNL     1     -12.941  15.901  72.678  1.00  0.00    -0.466 C  
HETATM    4  H1  UNL     1     -12.239  16.360  74.456  1.00  0.00     0.000 HD 
HETATM    5  N   UNL     1     -14.053  15.384  72.100  1.00  0.00    -0.533 NA 
HETATM    6  N   UNL     1     -11.881  16.297  72.047  1.00  0.00    -0.593 NA 
HETATM    7  H1  UNL     1     -13.951  15.331  71.087  1.00  0.00     0.000 HD 
HETATM    8  H2  UNL     1     -14.884  15.088  72.613  1.00  0.00     0.000 HD 
HETATM    9  H   UNL     1     -11.035  16.635  72.503  1.00  0.00     0.000 HD 
ENDROOT
BRANCH   6  10
HETATM   10  N   UNL     1     -12.041  16.204  70.660  1.00  0.00    -0.467 NA 
HETATM   11  H   UNL     1     -12.926  16.013  70.191  1.00  0.00     0.000 HD 
BRANCH  10  12
HETATM   12  C   UNL     1     -10.914  16.394  70.051  1.00  0.00    -0.318 C  
BRANCH  12  13
HETATM   13  C   UNL     1     -10.789  16.387  68.578  1.00  0.00    -0.339 A  
HETATM   14  C   UNL     1     -11.147  15.273  67.798  1.00  0.00    -0.318 A  
HETATM   15  C   UNL     1     -11.075  15.339  66.399  1.00  0.00    -0.273 A  
HETATM   16 CL   UNL     1     -11.753  13.787  68.446  1.00  0.00    -0.373 Cl 
HETATM   17  C   UNL     1     -10.653  16.504  65.765  1.00  0.00    -0.307 A  
HETATM   18  C   UNL     1     -10.288  17.609  66.528  1.00  0.00    -0.337 A  
HETATM   19  C   UNL     1     -10.354  17.555  67.927  1.00  0.00    -0.371 A  
HETATM   20 CL   UNL     1      -9.847  18.975  68.778  1.00  0.00    -0.469 Cl 
ENDBRANCH  12  13
ENDBRANCH  10  12
ENDBRANCH   6  10
TORSDOF 3
ENDMDL
MODEL       31
REMARK 921   NORMALIZED FREE ENERGY PREDICTED BY IDOCK:   -5.04 KCAL/MOL
REMARK 922        TOTAL FREE ENERGY PREDICTED BY IDOCK:   -6.21 KCAL/MOL
REMARK 923 INTER-LIGAND FREE ENERGY PREDICTED BY IDOCK:   -5.83 KCAL/MOL
REMARK 924 INTRA-LIGAND FREE ENERGY PREDICTED BY IDOCK:   -0.37 KCAL/MOL
REMARK 927      BINDING AFFINITY PREDICTED BY RF-SCORE:    0.00 PKD
ROOT
HETATM    1  N   UNL     1     -10.539  18.590  65.602  1.00  0.00    -0.589 NA 
HETATM    2  H2  UNL     1      -9.913  19.077  66.243  1.00  0.00     0.000 HD 
HETATM    3  C   UNL     1     -10.393  17.301  65.223  1.00  0.00     0.171 C  
HETATM    4  H1  UNL     1     -11.358  19.013  65.164  1.00  0.00     0.000 HD 
HETATM    5  N   UNL     1      -9.305  16.740  65.805  1.00  0.00    -0.523 NA 
HETATM    6  N   UNL     1     -11.209  16.698  64.417  1.00  0.00    -1.269 NA 
HETATM    7  H1  UNL     1      -9.195  15.767  65.518  1.00  0.00     0.000 HD 
HETATM    8  H2  UNL     1      -8.679  17.227  66.446  1.00  0.00     0.000 HD 
HETATM    9  H   UNL     1     -11.993  17.153  63.949  1.00  0.00     0.000 HD 
ENDROOT
BRANCH   6  10
HETATM   10  N   UNL     1     -10.884  15.345  64.269  1.00  0.00    -0.553 NA 
HETATM   11  H   UNL     1     -10.027  15.000  63.837  1.00  0.00     0.000 HD 
BRANCH  10  12
HETATM   12  C   UNL     1     -11.818  14.590  64.753  1.00  0.00    -0.441 C  
BRANCH  12  13
HETATM   13  C   UNL     1     -11.538  13.439  65.639  1.00  0.00    -0.350 A  
HETATM   14  C   UNL     1     -11.308  12.145  65.138  1.00  0.00    -0.327 A  
HETATM   15  C   UNL     1     -10.979  11.099  66.014  1.00  0.00    -0.189 A  
HETATM   16 CL   UNL     1     -11.338  11.732  63.458  1.00  0.00    -0.508 Cl 
HETATM   17  C   UNL     1     -10.872  11.327  67.382  1.00  0.00    -0.311 A  
HETATM   18  C   UNL     1     -11.107  12.602  67.887  1.00  0.00    -0.285 A  
HETATM   19  C   UNL     1     -11.438  13.656  67.024  1.00  0.00    -0.343 A  
HETATM   20 CL   UNL     1     -11.739  15.193  67.762  1.00  0.00    -0.313 Cl 
ENDBRANCH  12  13
ENDBRANCH  10  12
ENDBRANCH   6  10
TORSDOF 3
ENDMDL
MODEL       32
REMARK 921   NORMALIZED FREE ENERGY PREDICTED BY IDOCK:   -5.01 KCAL/MOL
REMARK 922        TOTAL FREE ENERGY PREDICTED BY IDOCK:   -6.18 KCAL/MOL
REMARK 923 INTER-LIGAND FREE ENERGY PREDICTED BY IDOCK:   -5.93 KCAL/MOL
REMARK 924 INTRA-LIGAND FREE ENERGY PREDICTED BY IDOCK:   -0.25 KCAL/MOL
REMARK 927      BINDING AFFINITY PREDICTED BY RF-SCORE:    0.00 PKD
ROOT
HETATM    1  N   UNL     1     -13.663   7.475  71.300  1.00  0.00    -0.601 NA 
HETATM    2  H2  UNL     1     -14.117   6.748  71.853  1.00  0.00     0.000 HD 
HETATM    3  C   UNL     1     -13.447   8.738  71.729  1.00  0.00    -0.393 C  
HETATM    4  H1  UNL     1     -13.315   7.343  70.351  1.00  0.00     0.000 HD 
HETATM    5  N   UNL     1     -13.911   8.912  72.991  1.00  0.00    -1.134 NA 
HETATM    6  N   UNL     1     -12.857   9.642  71.014  1.00  0.00    -0.487 NA 
HETATM    7  H1  UNL     1     -13.749   9.866  73.314  1.00  0.00     0.000 HD 
HETATM    8  H2  UNL     1     -14.365   8.185  73.544  1.00  0.00     0.000 HD 
HETATM    9  H   UNL     1     -12.561   9.506  70.048  1.00  0.00     0.000 HD 
ENDROOT
BRANCH   6  10
HETATM   10  N   UNL     1     -12.674  10.830  71.731  1.00  0.00    -0.403 NA 
HETATM   11  H   UNL     1     -12.160  10.903  72.609  1.00  0.00     0.000 HD 
BRANCH  10  12
HETATM   12  C   UNL     1     -13.246  11.824  71.130  1.00  0.00     0.114 C  
BRANCH  12  13
HETATM   13  C   UNL     1     -12.509  13.036  70.708  1.00  0.00    -0.384 A  
HETATM   14  C   UNL     1     -12.422  14.182  71.518  1.00  0.00    -0.341 A  
HETATM   15  C   UNL     1     -11.655  15.281  71.104  1.00  0.00    -0.416 A  
HETATM   16 CL   UNL     1     -13.164  14.331  73.075  1.00  0.00    -0.592 Cl 
HETATM   17  C   UNL     1     -10.968  15.251  69.894  1.00  0.00    -0.303 A  
HETATM   18  C   UNL     1     -11.055  14.125  69.082  1.00  0.00    -0.295 A  
HETATM   19  C   UNL     1     -11.820  13.020  69.483  1.00  0.00    -0.323 A  
HETATM   20 CL   UNL     1     -11.884  11.685  68.383  1.00  0.00    -0.371 Cl 
ENDBRANCH  12  13
ENDBRANCH  10  12
ENDBRANCH   6  10
TORSDOF 3
ENDMDL
MODEL       33
REMARK 921   NORMALIZED FREE ENERGY PREDICTED BY IDOCK:   -5.00 KCAL/MOL
REMARK 922        TOTAL FREE ENERGY PREDICTED BY IDOCK:   -6.17 KCAL/MOL
REMARK 923 INTER-LIGAND FREE ENERGY PREDICTED BY IDOCK:   -5.85 KCAL/MOL
REMARK 924 INTRA-LIGAND FREE ENERGY PREDICTED BY IDOCK:   -0.32 KCAL/MOL
REMARK 927      BINDING AFFINITY PREDICTED BY RF-SCORE:    0.00 PKD
ROOT
HETATM    1  N   UNL     1     -14.014   8.928  73.226  1.00  0.00    -1.217 NA 
HETATM    2  H2  UNL     1     -14.447   8.068  73.562  1.00  0.00     0.000 HD 
HETATM    3  C   UNL     1     -13.712   9.176  71.932  1.00  0.00    -0.424 C  
HETATM    4  H1  UNL     1     -13.752   9.713  73.822  1.00  0.00     0.000 HD 
HETATM    5  N   UNL     1     -14.059   8.132  71.140  1.00  0.00    -0.646 NA 
HETATM    6  N   UNL     1     -13.174  10.282  71.525  1.00  0.00    -0.391 NA 
HETATM    7  H1  UNL     1     -13.831   8.319  70.164  1.00  0.00     0.000 HD 
HETATM    8  H2  UNL     1     -14.492   7.272  71.476  1.00  0.00     0.000 HD 
HETATM    9  H   UNL     1     -12.873  11.034  72.143  1.00  0.00     0.000 HD 
ENDROOT
BRANCH   6  10
HETATM   10  N   UNL     1     -13.058  10.317  70.131  1.00  0.00    -0.511 NA 
HETATM   11  H   UNL     1     -13.789  10.025  69.482  1.00  0.00     0.000 HD 
BRANCH  10  12
HETATM   12  C   UNL     1     -11.898  10.771  69.776  1.00  0.00    -0.335 C  
BRANCH  12  13
HETATM   13  C   UNL     1     -11.188  10.295  68.568  1.00  0.00    -0.271 A  
HETATM   14  C   UNL     1     -10.646   9.000  68.476  1.00  0.00    -0.155 A  
HETATM   15  C   UNL     1     -10.042   8.573  67.285  1.00  0.00    -0.317 A  
HETATM   16 CL   UNL     1     -10.721   7.823  69.742  1.00  0.00    -0.245 Cl 
HETATM   17  C   UNL     1      -9.974   9.417  66.181  1.00  0.00    -0.351 A  
HETATM   18  C   UNL     1     -10.500  10.703  66.266  1.00  0.00    -0.268 A  
HETATM   19  C   UNL     1     -11.105  11.144  67.451  1.00  0.00    -0.307 A  
HETATM   20 CL   UNL     1     -11.697  12.770  67.456  1.00  0.00    -0.412 Cl 
ENDBRANCH  12  13
ENDBRANCH  10  12
ENDBRANCH   6  10
TORSDOF 3
ENDMDL
MODEL       34
REMARK 921   NORMALIZED FREE ENERGY PREDICTED BY IDOCK:   -5.00 KCAL/MOL
REMARK 922        TOTAL FREE ENERGY PREDICTED BY IDOCK:   -6.16 KCAL/MOL
REMARK 923 INTER-LIGAND FREE ENERGY PREDICTED BY IDOCK:   -5.92 KCAL/MOL
REMARK 924 INTRA-LIGAND FREE ENERGY PREDICTED BY IDOCK:   -0.23 KCAL/MOL
REMARK 927      BINDING AFFINITY PREDICTED BY RF-SCORE:    0.00 PKD
ROOT
HETATM    1  N   UNL     1     -10.484  17.484  65.645  1.00  0.00    -0.607 NA 
HETATM    2  H2  UNL     1     -10.393  18.380  65.165  1.00  0.00     0.000 HD 
HETATM    3  C   UNL     1     -11.066  16.387  65.112  1.00  0.00    -0.170 C  
HETATM    4  H1  UNL     1     -10.148  17.300  66.591  1.00  0.00     0.000 HD 
HETATM    5  N   UNL     1     -11.513  16.632  63.855  1.00  0.00    -1.469 NA 
HETATM    6  N   UNL     1     -11.159  15.255  65.734  1.00  0.00    -0.328 NA 
HETATM    7  H1  UNL     1     -11.952  15.804  63.453  1.00  0.00     0.000 HD 
HETATM    8  H2  UNL     1     -11.422  17.527  63.376  1.00  0.00     0.000 HD 
HETATM    9  H   UNL     1     -10.863  15.106  66.699  1.00  0.00     0.000 HD 
ENDROOT
BRANCH   6  10
HETATM   10  N   UNL     1     -11.715  14.262  64.921  1.00  0.00    -0.377 NA 
HETATM   11  H   UNL     1     -11.713  14.280  63.902  1.00  0.00     0.000 HD 
BRANCH  10  12
HETATM   12  C   UNL     1     -12.233  13.316  65.638  1.00  0.00    -0.462 C  
BRANCH  12  13
HETATM   13  C   UNL     1     -11.444  12.173  66.146  1.00  0.00    -0.429 A  
HETATM   14  C   UNL     1     -10.782  11.276  65.288  1.00  0.00    -0.237 A  
HETATM   15  C   UNL     1      -9.990  10.247  65.819  1.00  0.00    -0.337 A  
HETATM   16 CL   UNL     1     -10.816  11.378  63.561  1.00  0.00    -0.460 Cl 
HETATM   17  C   UNL     1      -9.845  10.103  67.196  1.00  0.00    -0.231 A  
HETATM   18  C   UNL     1     -10.502  10.980  68.052  1.00  0.00    -0.219 A  
HETATM   19  C   UNL     1     -11.299  12.011  67.535  1.00  0.00    -0.319 A  
HETATM   20 CL   UNL     1     -12.096  13.024  68.690  1.00  0.00    -0.277 Cl 
ENDBRANCH  12  13
ENDBRANCH  10  12
ENDBRANCH   6  10
TORSDOF 3
ENDMDL
MODEL       35
REMARK 921   NORMALIZED FREE ENERGY PREDICTED BY IDOCK:   -4.99 KCAL/MOL
REMARK 922        TOTAL FREE ENERGY PREDICTED BY IDOCK:   -6.15 KCAL/MOL
REMARK 923 INTER-LIGAND FREE ENERGY PREDICTED BY IDOCK:   -6.02 KCAL/MOL
REMARK 924 INTRA-LIGAND FREE ENERGY PREDICTED BY IDOCK:   -0.13 KCAL/MOL
REMARK 927      BINDING AFFINITY PREDICTED BY RF-SCORE:    0.00 PKD
ROOT
HETATM    1  N   UNL     1     -10.511  10.916  66.596  1.00  0.00    -0.246 NA 
HETATM    2  H2  UNL     1     -10.781  10.034  66.160  1.00  0.00     0.000 HD 
HETATM    3  C   UNL     1     -10.954  11.342  67.799  1.00  0.00    -0.252 C  
HETATM    4  H1  UNL     1      -9.870  11.592  66.179  1.00  0.00     0.000 HD 
HETATM    5  N   UNL     1     -11.806  10.443  68.353  1.00  0.00    -0.752 NA 
HETATM    6  N   UNL     1     -10.587  12.460  68.340  1.00  0.00    -0.231 NA 
HETATM    7  H1  UNL     1     -12.141  10.765  69.261  1.00  0.00     0.000 HD 
HETATM    8  H2  UNL     1     -12.076   9.562  67.917  1.00  0.00     0.000 HD 
HETATM    9  H   UNL     1      -9.986  13.146  67.884  1.00  0.00     0.000 HD 
ENDROOT
BRANCH   6  10
HETATM   10  N   UNL     1     -11.115  12.611  69.626  1.00  0.00    -0.467 NA 
HETATM   11  H   UNL     1     -10.870  12.027  70.425  1.00  0.00     0.000 HD 
BRANCH  10  12
HETATM   12  C   UNL     1     -11.959  13.592  69.666  1.00  0.00    -0.343 C  
BRANCH  12  13
HETATM   13  C   UNL     1     -12.263  14.337  70.907  1.00  0.00    -0.425 A  
HETATM   14  C   UNL     1     -12.932  13.746  71.994  1.00  0.00    -0.345 A  
HETATM   15  C   UNL     1     -13.136  14.473  73.176  1.00  0.00    -0.553 A  
HETATM   16 CL   UNL     1     -13.492  12.108  72.016  1.00  0.00    -0.505 Cl 
HETATM   17  C   UNL     1     -12.679  15.782  73.292  1.00  0.00    -0.640 A  
HETATM   18  C   UNL     1     -12.023  16.378  72.219  1.00  0.00    -0.521 A  
HETATM   19  C   UNL     1     -11.814  15.663  71.031  1.00  0.00    -0.400 A  
HETATM   20 CL   UNL     1     -11.017  16.512  69.751  1.00  0.00    -0.338 Cl 
ENDBRANCH  12  13
ENDBRANCH  10  12
ENDBRANCH   6  10
TORSDOF 3
ENDMDL
MODEL       36
REMARK 921   NORMALIZED FREE ENERGY PREDICTED BY IDOCK:   -4.96 KCAL/MOL
REMARK 922        TOTAL FREE ENERGY PREDICTED BY IDOCK:   -6.11 KCAL/MOL
REMARK 923 INTER-LIGAND FREE ENERGY PREDICTED BY IDOCK:   -5.81 KCAL/MOL
REMARK 924 INTRA-LIGAND FREE ENERGY PREDICTED BY IDOCK:   -0.30 KCAL/MOL
REMARK 927      BINDING AFFINITY PREDICTED BY RF-SCORE:    0.00 PKD
ROOT
HETATM    1  N   UNL     1     -11.127  14.417  64.893  1.00  0.00    -0.378 NA 
HETATM    2  H2  UNL     1     -11.078  13.955  63.985  1.00  0.00     0.000 HD 
HETATM    3  C   UNL     1     -11.692  13.877  65.996  1.00  0.00    -0.366 C  
HETATM    4  H1  UNL     1     -10.757  15.347  65.087  1.00  0.00     0.000 HD 
HETATM    5  N   UNL     1     -12.185  12.640  65.738  1.00  0.00    -0.598 NA 
HETATM    6  N   UNL     1     -11.731  14.476  67.143  1.00  0.00    -0.392 NA 
HETATM    7  H1  UNL     1     -12.612  12.233  66.570  1.00  0.00     0.000 HD 
HETATM    8  H2  UNL     1     -12.136  12.179  64.830  1.00  0.00     0.000 HD 
HETATM    9  H   UNL     1     -11.401  15.427  67.305  1.00  0.00     0.000 HD 
ENDROOT
BRANCH   6  10
HETATM   10  N   UNL     1     -12.282  13.658  68.136  1.00  0.00    -0.382 NA 
HETATM   11  H   UNL     1     -13.160  13.146  68.042  1.00  0.00     0.000 HD 
BRANCH  10  12
HETATM   12  C   UNL     1     -11.529  13.638  69.189  1.00  0.00    -0.297 C  
BRANCH  12  13
HETATM   13  C   UNL     1     -11.981  14.135  70.506  1.00  0.00    -0.393 A  
HETATM   14  C   UNL     1     -11.774  15.464  70.919  1.00  0.00    -0.354 A  
HETATM   15  C   UNL     1     -12.282  15.906  72.149  1.00  0.00    -0.578 A  
HETATM   16 CL   UNL     1     -10.967  16.663  69.967  1.00  0.00    -0.268 Cl 
HETATM   17  C   UNL     1     -12.996  15.043  72.974  1.00  0.00    -0.590 A  
HETATM   18  C   UNL     1     -13.198  13.724  72.578  1.00  0.00    -0.599 A  
HETATM   19  C   UNL     1     -12.695  13.269  71.351  1.00  0.00    -0.309 A  
HETATM   20 CL   UNL     1     -12.976  11.603  70.973  1.00  0.00    -0.308 Cl 
ENDBRANCH  12  13
ENDBRANCH  10  12
ENDBRANCH   6  10
TORSDOF 3
ENDMDL
MODEL       37
REMARK 921   NORMALIZED FREE ENERGY PREDICTED BY IDOCK:   -4.95 KCAL/MOL
REMARK 922        TOTAL FREE ENERGY PREDICTED BY IDOCK:   -6.10 KCAL/MOL
REMARK 923 INTER-LIGAND FREE ENERGY PREDICTED BY IDOCK:   -5.86 KCAL/MOL
REMARK 924 INTRA-LIGAND FREE ENERGY PREDICTED BY IDOCK:   -0.24 KCAL/MOL
REMARK 927      BINDING AFFINITY PREDICTED BY RF-SCORE:    0.00 PKD
ROOT
HETATM    1  N   UNL     1     -13.233  15.849  72.718  1.00  0.00    -0.499 NA 
HETATM    2  H2  UNL     1     -14.091  15.784  73.266  1.00  0.00     0.000 HD 
HETATM    3  C   UNL     1     -13.150  15.591  71.394  1.00  0.00    -0.507 C  
HETATM    4  H1  UNL     1     -12.325  16.119  73.099  1.00  0.00     0.000 HD 
HETATM    5  N   UNL     1     -14.356  15.233  70.889  1.00  0.00    -0.819 NA 
HETATM    6  N   UNL     1     -12.052  15.694  70.715  1.00  0.00    -0.382 NA 
HETATM    7  H1  UNL     1     -14.293  15.037  69.890  1.00  0.00     0.000 HD 
HETATM    8  H2  UNL     1     -15.214  15.167  71.437  1.00  0.00     0.000 HD 
HETATM    9  H   UNL     1     -11.144  15.915  71.124  1.00  0.00     0.000 HD 
ENDROOT
BRANCH   6  10
HETATM   10  N   UNL     1     -12.264  15.466  69.351  1.00  0.00    -0.566 NA 
HETATM   11  H   UNL     1     -13.141  15.647  68.864  1.00  0.00     0.000 HD 
BRANCH  10  12
HETATM   12  C   UNL     1     -11.196  14.993  68.791  1.00  0.00    -0.277 C  
BRANCH  12  13
HETATM   13  C   UNL     1     -11.160  14.555  67.379  1.00  0.00    -0.320 A  
HETATM   14  C   UNL     1     -10.773  15.414  66.334  1.00  0.00    -0.311 A  
HETATM   15  C   UNL     1     -10.689  14.932  65.020  1.00  0.00    -0.451 A  
HETATM   16 CL   UNL     1     -10.313  17.068  66.556  1.00  0.00    -0.312 Cl 
HETATM   17  C   UNL     1     -10.983  13.603  64.732  1.00  0.00    -0.384 A  
HETATM   18  C   UNL     1     -11.375  12.747  65.757  1.00  0.00    -0.357 A  
HETATM   19  C   UNL     1     -11.464  13.217  67.075  1.00  0.00    -0.336 A  
HETATM   20 CL   UNL     1     -11.992  12.076  68.265  1.00  0.00    -0.340 Cl 
ENDBRANCH  12  13
ENDBRANCH  10  12
ENDBRANCH   6  10
TORSDOF 3
ENDMDL
MODEL       38
REMARK 921   NORMALIZED FREE ENERGY PREDICTED BY IDOCK:   -4.95 KCAL/MOL
REMARK 922        TOTAL FREE ENERGY PREDICTED BY IDOCK:   -6.10 KCAL/MOL
REMARK 923 INTER-LIGAND FREE ENERGY PREDICTED BY IDOCK:   -5.89 KCAL/MOL
REMARK 924 INTRA-LIGAND FREE ENERGY PREDICTED BY IDOCK:   -0.21 KCAL/MOL
REMARK 927      BINDING AFFINITY PREDICTED BY RF-SCORE:    0.00 PKD
ROOT
HETATM    1  N   UNL     1     -13.992  15.336  70.852  1.00  0.00    -0.796 NA 
HETATM    2  H2  UNL     1     -14.293  15.492  71.814  1.00  0.00     0.000 HD 
HETATM    3  C   UNL     1     -12.773  15.660  70.369  1.00  0.00    -0.282 C  
HETATM    4  H1  UNL     1     -14.575  14.915  70.127  1.00  0.00     0.000 HD 
HETATM    5  N   UNL     1     -11.999  16.220  71.332  1.00  0.00    -0.644 NA 
HETATM    6  N   UNL     1     -12.408  15.441  69.146  1.00  0.00    -0.609 NA 
HETATM    7  H1  UNL     1     -11.078  16.466  70.968  1.00  0.00     0.000 HD 
HETATM    8  H2  UNL     1     -12.299  16.376  72.294  1.00  0.00     0.000 HD 
HETATM    9  H   UNL     1     -13.022  15.066  68.424  1.00  0.00     0.000 HD 
ENDROOT
BRANCH   6  10
HETATM   10  N   UNL     1     -11.067  15.781  68.938  1.00  0.00    -0.276 NA 
HETATM   11  H   UNL     1     -10.619  16.620  69.305  1.00  0.00     0.000 HD 
BRANCH  10  12
HETATM   12  C   UNL     1     -10.470  14.887  68.215  1.00  0.00    -0.239 C  
BRANCH  12  13
HETATM   13  C   UNL     1     -10.965  14.473  66.884  1.00  0.00    -0.316 A  
HETATM   14  C   UNL     1     -11.542  13.211  66.656  1.00  0.00    -0.356 A  
HETATM   15  C   UNL     1     -12.059  12.891  65.392  1.00  0.00    -0.501 A  
HETATM   16 CL   UNL     1     -11.731  11.994  67.872  1.00  0.00    -0.405 Cl 
HETATM   17  C   UNL     1     -12.012  13.814  64.352  1.00  0.00    -0.480 A  
HETATM   18  C   UNL     1     -11.435  15.062  64.565  1.00  0.00    -0.320 A  
HETATM   19  C   UNL     1     -10.914  15.394  65.823  1.00  0.00    -0.309 A  
HETATM   20 CL   UNL     1     -10.192  16.961  65.970  1.00  0.00    -0.355 Cl 
ENDBRANCH  12  13
ENDBRANCH  10  12
ENDBRANCH   6  10
TORSDOF 3
ENDMDL
MODEL       39
REMARK 921   NORMALIZED FREE ENERGY PREDICTED BY IDOCK:   -4.93 KCAL/MOL
REMARK 922        TOTAL FREE ENERGY PREDICTED BY IDOCK:   -6.08 KCAL/MOL
REMARK 923 INTER-LIGAND FREE ENERGY PREDICTED BY IDOCK:   -6.01 KCAL/MOL
REMARK 924 INTRA-LIGAND FREE ENERGY PREDICTED BY IDOCK:   -0.07 KCAL/MOL
REMARK 927      BINDING AFFINITY PREDICTED BY RF-SCORE:    0.00 PKD
ROOT
HETATM    1  N   UNL     1     -10.287  18.360  65.590  1.00  0.00    -0.591 NA 
HETATM    2  H2  UNL     1     -10.413  19.005  64.811  1.00  0.00     0.000 HD 
HETATM    3  C   UNL     1     -10.663  17.062  65.577  1.00  0.00    -0.138 C  
HETATM    4  H1  UNL     1      -9.861  18.610  66.483  1.00  0.00     0.000 HD 
HETATM    5  N   UNL     1     -11.230  16.729  64.391  1.00  0.00    -1.271 NA 
HETATM    6  N   UNL     1     -10.481  16.256  66.574  1.00  0.00    -0.303 NA 
HETATM    7  H1  UNL     1     -11.515  15.750  64.380  1.00  0.00     0.000 HD 
HETATM    8  H2  UNL     1     -11.356  17.375  63.611  1.00  0.00     0.000 HD 
HETATM    9  H   UNL     1     -10.100  16.539  67.477  1.00  0.00     0.000 HD 
ENDROOT
BRANCH   6  10
HETATM   10  N   UNL     1     -10.872  14.949  66.261  1.00  0.00    -0.325 NA 
HETATM   11  H   UNL     1     -10.419  14.362  65.562  1.00  0.00     0.000 HD 
BRANCH  10  12
HETATM   12  C   UNL     1     -11.886  14.586  66.980  1.00  0.00    -0.385 C  
BRANCH  12  13
HETATM   13  C   UNL     1     -11.816  13.486  67.966  1.00  0.00    -0.400 A  
HETATM   14  C   UNL     1     -11.972  13.704  69.347  1.00  0.00    -0.342 A  
HETATM   15  C   UNL     1     -11.966  12.619  70.236  1.00  0.00    -0.363 A  
HETATM   16 CL   UNL     1     -12.243  15.256  70.062  1.00  0.00    -0.376 Cl 
HETATM   17  C   UNL     1     -11.811  11.318  69.767  1.00  0.00    -0.437 A  
HETATM   18  C   UNL     1     -11.648  11.094  68.403  1.00  0.00    -0.376 A  
HETATM   19  C   UNL     1     -11.650  12.169  67.504  1.00  0.00    -0.343 A  
HETATM   20 CL   UNL     1     -11.408  11.779  65.835  1.00  0.00    -0.357 Cl 
ENDBRANCH  12  13
ENDBRANCH  10  12
ENDBRANCH   6  10
TORSDOF 3
ENDMDL
MODEL       40
REMARK 921   NORMALIZED FREE ENERGY PREDICTED BY IDOCK:   -4.92 KCAL/MOL
REMARK 922        TOTAL FREE ENERGY PREDICTED BY IDOCK:   -6.06 KCAL/MOL
REMARK 923 INTER-LIGAND FREE ENERGY PREDICTED BY IDOCK:   -5.69 KCAL/MOL
REMARK 924 INTRA-LIGAND FREE ENERGY PREDICTED BY IDOCK:   -0.37 KCAL/MOL
REMARK 927      BINDING AFFINITY PREDICTED BY RF-SCORE:    0.00 PKD
ROOT
HETATM    1  N   UNL     1     -14.261   8.865  73.292  1.00  0.00    -1.237 NA 
HETATM    2  H2  UNL     1     -15.086   8.286  73.446  1.00  0.00     0.000 HD 
HETATM    3  C   UNL     1     -13.659   9.033  72.094  1.00  0.00    -0.469 C  
HETATM    4  H1  UNL     1     -13.781   9.392  74.022  1.00  0.00     0.000 HD 
HETATM    5  N   UNL     1     -14.296   8.332  71.123  1.00  0.00    -0.667 NA 
HETATM    6  N   UNL     1     -12.618   9.784  71.917  1.00  0.00    -0.395 NA 
HETATM    7  H1  UNL     1     -13.841   8.458  70.219  1.00  0.00     0.000 HD 
HETATM    8  H2  UNL     1     -15.121   7.753  71.278  1.00  0.00     0.000 HD 
HETATM    9  H   UNL     1     -12.123  10.262  72.670  1.00  0.00     0.000 HD 
ENDROOT
BRANCH   6  10
HETATM   10  N   UNL     1     -12.257   9.859  70.568  1.00  0.00    -0.439 NA 
HETATM   11  H   UNL     1     -12.830  10.285  69.839  1.00  0.00     0.000 HD 
BRANCH  10  12
HETATM   12  C   UNL     1     -11.099   9.315  70.368  1.00  0.00    -0.255 C  
BRANCH  12  13
HETATM   13  C   UNL     1     -10.872   8.264  69.353  1.00  0.00    -0.095 A  
HETATM   14  C   UNL     1     -10.942   6.893  69.663  1.00  0.00    -0.259 A  
HETATM   15  C   UNL     1     -10.787   5.934  68.651  1.00  0.00    -0.333 A  
HETATM   16 CL   UNL     1     -11.279   6.269  71.241  1.00  0.00    -0.342 Cl 
HETATM   17  C   UNL     1     -10.567   6.323  67.333  1.00  0.00    -0.361 A  
HETATM   18  C   UNL     1     -10.487   7.676  67.019  1.00  0.00    -0.419 A  
HETATM   19  C   UNL     1     -10.639   8.645  68.021  1.00  0.00    -0.145 A  
HETATM   20 CL   UNL     1     -10.491  10.297  67.525  1.00  0.00    -0.271 Cl 
ENDBRANCH  12  13
ENDBRANCH  10  12
ENDBRANCH   6  10
TORSDOF 3
ENDMDL
MODEL       41
REMARK 921   NORMALIZED FREE ENERGY PREDICTED BY IDOCK:   -4.90 KCAL/MOL
REMARK 922        TOTAL FREE ENERGY PREDICTED BY IDOCK:   -6.04 KCAL/MOL
REMARK 923 INTER-LIGAND FREE ENERGY PREDICTED BY IDOCK:   -5.66 KCAL/MOL
REMARK 924 INTRA-LIGAND FREE ENERGY PREDICTED BY IDOCK:   -0.39 KCAL/MOL
REMARK 927      BINDING AFFINITY PREDICTED BY RF-SCORE:    0.00 PKD
ROOT
HETATM    1  N   UNL     1      -9.387   9.512  62.503  1.00  0.00    -0.564 NA 
HETATM    2  H2  UNL     1      -8.439   9.208  62.282  1.00  0.00     0.000 HD 
HETATM    3  C   UNL     1      -9.745  10.796  62.727  1.00  0.00    -0.260 C  
HETATM    4  H1  UNL     1     -10.188   8.886  62.585  1.00  0.00     0.000 HD 
HETATM    5  N   UNL     1      -8.679  11.627  62.619  1.00  0.00    -0.613 NA 
HETATM    6  N   UNL     1     -10.958  11.161  62.994  1.00  0.00    -0.821 NA 
HETATM    7  H1  UNL     1      -8.949  12.596  62.789  1.00  0.00     0.000 HD 
HETATM    8  H2  UNL     1      -7.731  11.323  62.398  1.00  0.00     0.000 HD 
HETATM    9  H   UNL     1     -11.736  10.515  63.122  1.00  0.00     0.000 HD 
ENDROOT
BRANCH   6  10
HETATM   10  N   UNL     1     -11.071  12.553  63.084  1.00  0.00    -0.715 NA 
HETATM   11  H   UNL     1     -10.847  13.202  62.330  1.00  0.00     0.000 HD 
BRANCH  10  12
HETATM   12  C   UNL     1     -11.497  12.907  64.255  1.00  0.00    -0.377 C  
BRANCH  12  13
HETATM   13  C   UNL     1     -10.666  13.667  65.213  1.00  0.00    -0.340 A  
HETATM   14  C   UNL     1     -10.624  15.073  65.220  1.00  0.00    -0.397 A  
HETATM   15  C   UNL     1      -9.874  15.751  66.193  1.00  0.00    -0.341 A  
HETATM   16 CL   UNL     1     -11.506  16.078  64.122  1.00  0.00    -0.247 Cl 
HETATM   17  C   UNL     1      -9.168  15.045  67.163  1.00  0.00    -0.229 A  
HETATM   18  C   UNL     1      -9.197  13.654  67.159  1.00  0.00    -0.244 A  
HETATM   19  C   UNL     1      -9.941  12.965  66.191  1.00  0.00    -0.272 A  
HETATM   20 CL   UNL     1      -9.881  11.236  66.260  1.00  0.00    -0.237 Cl 
ENDBRANCH  12  13
ENDBRANCH  10  12
ENDBRANCH   6  10
TORSDOF 3
ENDMDL
MODEL       42
REMARK 921   NORMALIZED FREE ENERGY PREDICTED BY IDOCK:   -4.86 KCAL/MOL
REMARK 922        TOTAL FREE ENERGY PREDICTED BY IDOCK:   -6.00 KCAL/MOL
REMARK 923 INTER-LIGAND FREE ENERGY PREDICTED BY IDOCK:   -5.71 KCAL/MOL
REMARK 924 INTRA-LIGAND FREE ENERGY PREDICTED BY IDOCK:   -0.29 KCAL/MOL
REMARK 927      BINDING AFFINITY PREDICTED BY RF-SCORE:    0.00 PKD
ROOT
HETATM    1  N   UNL     1     -11.041   5.822  66.499  1.00  0.00    -0.744 NA 
HETATM    2  H2  UNL     1     -11.427   5.021  66.997  1.00  0.00     0.000 HD 
HETATM    3  C   UNL     1     -10.866   7.047  67.041  1.00  0.00    -0.343 C  
HETATM    4  H1  UNL     1     -10.736   5.804  65.525  1.00  0.00     0.000 HD 
HETATM    5  N   UNL     1     -11.271   7.072  68.335  1.00  0.00    -0.498 NA 
HETATM    6  N   UNL     1     -10.360   8.049  66.394  1.00  0.00    -0.441 NA 
HETATM    7  H1  UNL     1     -11.140   7.997  68.744  1.00  0.00     0.000 HD 
HETATM    8  H2  UNL     1     -11.658   6.271  68.833  1.00  0.00     0.000 HD 
HETATM    9  H   UNL     1     -10.109   8.024  65.406  1.00  0.00     0.000 HD 
ENDROOT
BRANCH   6  10
HETATM   10  N   UNL     1     -10.200   9.169  67.217  1.00  0.00    -0.234 NA 
HETATM   11  H   UNL     1     -10.430   9.195  68.210  1.00  0.00     0.000 HD 
BRANCH  10  12
HETATM   12  C   UNL     1      -9.720  10.168  66.547  1.00  0.00    -0.200 C  
BRANCH  12  13
HETATM   13  C   UNL     1     -10.570  11.082  65.754  1.00  0.00    -0.260 A  
HETATM   14  C   UNL     1     -11.469  11.983  66.353  1.00  0.00    -0.353 A  
HETATM   15  C   UNL     1     -12.204  12.877  65.561  1.00  0.00    -0.527 A  
HETATM   16 CL   UNL     1     -11.706  12.127  68.061  1.00  0.00    -0.409 Cl 
HETATM   17  C   UNL     1     -12.052  12.889  64.178  1.00  0.00    -0.503 A  
HETATM   18  C   UNL     1     -11.172  11.996  63.575  1.00  0.00    -0.526 A  
HETATM   19  C   UNL     1     -10.433  11.095  64.355  1.00  0.00    -0.353 A  
HETATM   20 CL   UNL     1      -9.392  10.008  63.500  1.00  0.00    -0.321 Cl 
ENDBRANCH  12  13
ENDBRANCH  10  12
ENDBRANCH   6  10
TORSDOF 3
ENDMDL
MODEL       43
REMARK 921   NORMALIZED FREE ENERGY PREDICTED BY IDOCK:   -4.86 KCAL/MOL
REMARK 922        TOTAL FREE ENERGY PREDICTED BY IDOCK:   -6.00 KCAL/MOL
REMARK 923 INTER-LIGAND FREE ENERGY PREDICTED BY IDOCK:   -5.74 KCAL/MOL
REMARK 924 INTRA-LIGAND FREE ENERGY PREDICTED BY IDOCK:   -0.26 KCAL/MOL
REMARK 927      BINDING AFFINITY PREDICTED BY RF-SCORE:    0.00 PKD
ROOT
HETATM    1  N   UNL     1     -12.747  10.473  71.498  1.00  0.00    -0.423 NA 
HETATM    2  H2  UNL     1     -12.696   9.860  72.312  1.00  0.00     0.000 HD 
HETATM    3  C   UNL     1     -12.250  10.167  70.279  1.00  0.00    -0.173 C  
HETATM    4  H1  UNL     1     -13.179  11.397  71.499  1.00  0.00     0.000 HD 
HETATM    5  N   UNL     1     -11.676   8.939  70.279  1.00  0.00    -0.465 NA 
HETATM    6  N   UNL     1     -12.337  10.956  69.255  1.00  0.00    -0.641 NA 
HETATM    7  H1  UNL     1     -11.300   8.708  69.359  1.00  0.00     0.000 HD 
HETATM    8  H2  UNL     1     -11.625   8.326  71.092  1.00  0.00     0.000 HD 
HETATM    9  H   UNL     1     -12.727  11.897  69.289  1.00  0.00     0.000 HD 
ENDROOT
BRANCH   6  10
HETATM   10  N   UNL     1     -11.831  10.357  68.096  1.00  0.00    -0.738 NA 
HETATM   11  H   UNL     1     -12.127   9.449  67.738  1.00  0.00     0.000 HD 
BRANCH  10  12
HETATM   12  C   UNL     1     -10.936  11.110  67.541  1.00  0.00    -0.275 C  
BRANCH  12  13
HETATM   13  C   UNL     1     -10.932  11.413  66.093  1.00  0.00    -0.294 A  
HETATM   14  C   UNL     1     -11.566  12.550  65.561  1.00  0.00    -0.386 A  
HETATM   15  C   UNL     1     -11.476  12.830  64.190  1.00  0.00    -0.450 A  
HETATM   16 CL   UNL     1     -12.432  13.712  66.507  1.00  0.00    -0.394 Cl 
HETATM   17  C   UNL     1     -10.758  11.994  63.341  1.00  0.00    -0.475 A  
HETATM   18  C   UNL     1     -10.134  10.862  63.856  1.00  0.00    -0.422 A  
HETATM   19  C   UNL     1     -10.217  10.569  65.224  1.00  0.00    -0.282 A  
HETATM   20 CL   UNL     1      -9.431   9.121  65.753  1.00  0.00    -0.320 Cl 
ENDBRANCH  12  13
ENDBRANCH  10  12
ENDBRANCH   6  10
TORSDOF 3
ENDMDL
MODEL       44
REMARK 921   NORMALIZED FREE ENERGY PREDICTED BY IDOCK:   -4.86 KCAL/MOL
REMARK 922        TOTAL FREE ENERGY PREDICTED BY IDOCK:   -6.00 KCAL/MOL
REMARK 923 INTER-LIGAND FREE ENERGY PREDICTED BY IDOCK:   -5.86 KCAL/MOL
REMARK 924 INTRA-LIGAND FREE ENERGY PREDICTED BY IDOCK:   -0.14 KCAL/MOL
REMARK 927      BINDING AFFINITY PREDICTED BY RF-SCORE:    0.00 PKD
ROOT
HETATM    1  N   UNL     1     -11.627  16.218  63.891  1.00  0.00    -1.573 NA 
HETATM    2  H2  UNL     1     -11.673  16.522  62.919  1.00  0.00     0.000 HD 
HETATM    3  C   UNL     1     -12.017  15.001  64.331  1.00  0.00    -0.353 C  
HETATM    4  H1  UNL     1     -11.282  16.794  64.659  1.00  0.00     0.000 HD 
HETATM    5  N   UNL     1     -12.476  14.236  63.310  1.00  0.00    -1.068 NA 
HETATM    6  N   UNL     1     -11.937  14.632  65.570  1.00  0.00    -0.301 NA 
HETATM    7  H1  UNL     1     -12.771  13.318  63.642  1.00  0.00     0.000 HD 
HETATM    8  H2  UNL     1     -12.522  14.540  62.338  1.00  0.00     0.000 HD 
HETATM    9  H   UNL     1     -11.637  15.240  66.331  1.00  0.00     0.000 HD 
ENDROOT
BRANCH   6  10
HETATM   10  N   UNL     1     -12.313  13.294  65.735  1.00  0.00    -0.451 NA 
HETATM   11  H   UNL     1     -12.874  12.764  65.068  1.00  0.00     0.000 HD 
BRANCH  10  12
HETATM   12  C   UNL     1     -11.855  12.820  66.850  1.00  0.00    -0.371 C  
BRANCH  12  13
HETATM   13  C   UNL     1     -10.472  13.064  67.315  1.00  0.00    -0.238 A  
HETATM   14  C   UNL     1      -9.371  12.353  66.805  1.00  0.00    -0.220 A  
HETATM   15  C   UNL     1      -8.071  12.669  67.228  1.00  0.00    -0.178 A  
HETATM   16 CL   UNL     1      -9.486  11.114  65.602  1.00  0.00    -0.240 Cl 
HETATM   17  C   UNL     1      -7.854  13.687  68.152  1.00  0.00    -0.143 A  
HETATM   18  C   UNL     1      -8.938  14.389  68.669  1.00  0.00    -0.172 A  
HETATM   19  C   UNL     1     -10.242  14.083  68.255  1.00  0.00    -0.249 A  
HETATM   20 CL   UNL     1     -11.517  14.998  68.986  1.00  0.00    -0.302 Cl 
ENDBRANCH  12  13
ENDBRANCH  10  12
ENDBRANCH   6  10
TORSDOF 3
ENDMDL
MODEL       45
REMARK 921   NORMALIZED FREE ENERGY PREDICTED BY IDOCK:   -4.86 KCAL/MOL
REMARK 922        TOTAL FREE ENERGY PREDICTED BY IDOCK:   -5.99 KCAL/MOL
REMARK 923 INTER-LIGAND FREE ENERGY PREDICTED BY IDOCK:   -5.70 KCAL/MOL
REMARK 924 INTRA-LIGAND FREE ENERGY PREDICTED BY IDOCK:   -0.29 KCAL/MOL
REMARK 927      BINDING AFFINITY PREDICTED BY RF-SCORE:    0.00 PKD
ROOT
HETATM    1  N   UNL     1     -11.511   6.424  68.076  1.00  0.00    -0.583 NA 
HETATM    2  H2  UNL     1     -11.565   5.406  68.095  1.00  0.00     0.000 HD 
HETATM    3  C   UNL     1     -10.853   7.138  67.136  1.00  0.00    -0.333 C  
HETATM    4  H1  UNL     1     -11.946   7.037  68.767  1.00  0.00     0.000 HD 
HETATM    5  N   UNL     1     -10.275   6.324  66.219  1.00  0.00    -0.421 NA 
HETATM    6  N   UNL     1     -10.809   8.433  67.125  1.00  0.00    -0.422 NA 
HETATM    7  H1  UNL     1      -9.779   6.862  65.510  1.00  0.00     0.000 HD 
HETATM    8  H2  UNL     1     -10.329   5.305  66.237  1.00  0.00     0.000 HD 
HETATM    9  H   UNL     1     -11.207   9.026  67.852  1.00  0.00     0.000 HD 
ENDROOT
BRANCH   6  10
HETATM   10  N   UNL     1     -10.148   8.917  65.991  1.00  0.00    -0.416 NA 
HETATM   11  H   UNL     1      -9.936   8.361  65.163  1.00  0.00     0.000 HD 
BRANCH  10  12
HETATM   12  C   UNL     1      -9.842  10.167  66.134  1.00  0.00    -0.237 C  
BRANCH  12  13
HETATM   13  C   UNL     1     -10.605  11.258  65.490  1.00  0.00    -0.306 A  
HETATM   14  C   UNL     1     -10.551  11.496  64.105  1.00  0.00    -0.363 A  
HETATM   15  C   UNL     1     -11.347  12.499  63.531  1.00  0.00    -0.556 A  
HETATM   16 CL   UNL     1      -9.592  10.576  62.996  1.00  0.00    -0.357 Cl 
HETATM   17  C   UNL     1     -12.199  13.266  64.319  1.00  0.00    -0.454 A  
HETATM   18  C   UNL     1     -12.253  13.043  65.691  1.00  0.00    -0.521 A  
HETATM   19  C   UNL     1     -11.462  12.046  66.278  1.00  0.00    -0.345 A  
HETATM   20 CL   UNL     1     -11.584  11.876  67.997  1.00  0.00    -0.390 Cl 
ENDBRANCH  12  13
ENDBRANCH  10  12
ENDBRANCH   6  10
TORSDOF 3
ENDMDL
MODEL       46
REMARK 921   NORMALIZED FREE ENERGY PREDICTED BY IDOCK:   -4.85 KCAL/MOL
REMARK 922        TOTAL FREE ENERGY PREDICTED BY IDOCK:   -5.98 KCAL/MOL
REMARK 923 INTER-LIGAND FREE ENERGY PREDICTED BY IDOCK:   -5.67 KCAL/MOL
REMARK 924 INTRA-LIGAND FREE ENERGY PREDICTED BY IDOCK:   -0.31 KCAL/MOL
REMARK 927      BINDING AFFINITY PREDICTED BY RF-SCORE:    0.00 PKD
ROOT
HETATM    1  N   UNL     1     -14.397   9.026  72.977  1.00  0.00    -1.139 NA 
HETATM    2  H2  UNL     1     -14.672  10.004  73.070  1.00  0.00     0.000 HD 
HETATM    3  C   UNL     1     -13.701   8.524  71.933  1.00  0.00    -0.415 C  
HETATM    4  H1  UNL     1     -14.613   8.300  73.660  1.00  0.00     0.000 HD 
HETATM    5  N   UNL     1     -13.415   9.489  71.025  1.00  0.00    -0.574 NA 
HETATM    6  N   UNL     1     -13.351   7.280  71.842  1.00  0.00    -0.529 NA 
HETATM    7  H1  UNL     1     -12.891   9.110  70.237  1.00  0.00     0.000 HD 
HETATM    8  H2  UNL     1     -13.690  10.467  71.118  1.00  0.00     0.000 HD 
HETATM    9  H   UNL     1     -13.621   6.559  72.511  1.00  0.00     0.000 HD 
ENDROOT
BRANCH   6  10
HETATM   10  N   UNL     1     -12.557   7.047  70.714  1.00  0.00    -0.581 NA 
HETATM   11  H   UNL     1     -12.761   7.402  69.780  1.00  0.00     0.000 HD 
BRANCH  10  12
HETATM   12  C   UNL     1     -11.529   6.320  71.015  1.00  0.00    -0.306 C  
BRANCH  12  13
HETATM   13  C   UNL     1     -10.600   6.662  72.113  1.00  0.00    -0.238 A  
HETATM   14  C   UNL     1      -9.782   7.806  72.077  1.00  0.00    -0.173 A  
HETATM   15  C   UNL     1      -8.968   8.125  73.173  1.00  0.00    -0.330 A  
HETATM   16 CL   UNL     1      -9.744   8.932  70.763  1.00  0.00    -0.254 Cl 
HETATM   17  C   UNL     1      -8.960   7.321  74.309  1.00  0.00    -0.248 A  
HETATM   18  C   UNL     1      -9.758   6.182  74.351  1.00  0.00    -0.265 A  
HETATM   19  C   UNL     1     -10.576   5.851  73.261  1.00  0.00    -0.255 A  
HETATM   20 CL   UNL     1     -11.504   4.397  73.408  1.00  0.00    -0.361 Cl 
ENDBRANCH  12  13
ENDBRANCH  10  12
ENDBRANCH   6  10
TORSDOF 3
ENDMDL
MODEL       47
REMARK 921   NORMALIZED FREE ENERGY PREDICTED BY IDOCK:   -4.83 KCAL/MOL
REMARK 922        TOTAL FREE ENERGY PREDICTED BY IDOCK:   -5.97 KCAL/MOL
REMARK 923 INTER-LIGAND FREE ENERGY PREDICTED BY IDOCK:   -5.74 KCAL/MOL
REMARK 924 INTRA-LIGAND FREE ENERGY PREDICTED BY IDOCK:   -0.22 KCAL/MOL
REMARK 927      BINDING AFFINITY PREDICTED BY RF-SCORE:    0.00 PKD
ROOT
HETATM    1  N   UNL     1     -14.135  13.626  72.536  1.00  0.00    -0.754 NA 
HETATM    2  H2  UNL     1     -14.374  13.751  73.520  1.00  0.00     0.000 HD 
HETATM    3  C   UNL     1     -13.669  14.606  71.731  1.00  0.00    -0.415 C  
HETATM    4  H1  UNL     1     -14.218  12.742  72.032  1.00  0.00     0.000 HD 
HETATM    5  N   UNL     1     -13.560  15.779  72.402  1.00  0.00    -0.489 NA 
HETATM    6  N   UNL     1     -13.358  14.420  70.488  1.00  0.00    -0.421 NA 
HETATM    7  H1  UNL     1     -13.209  16.519  71.795  1.00  0.00     0.000 HD 
HETATM    8  H2  UNL     1     -13.799  15.905  73.385  1.00  0.00     0.000 HD 
HETATM    9  H   UNL     1     -13.496  13.542  69.988  1.00  0.00     0.000 HD 
ENDROOT
BRANCH   6  10
HETATM   10  N   UNL     1     -12.810  15.572  69.914  1.00  0.00    -0.600 NA 
HETATM   11  H   UNL     1     -13.311  16.452  69.791  1.00  0.00     0.000 HD 
BRANCH  10  12
HETATM   12  C   UNL     1     -11.581  15.371  69.560  1.00  0.00    -0.332 C  
BRANCH  12  13
HETATM   13  C   UNL     1     -11.129  15.451  68.154  1.00  0.00    -0.309 A  
HETATM   14  C   UNL     1     -10.606  16.633  67.599  1.00  0.00    -0.321 A  
HETATM   15  C   UNL     1     -10.128  16.641  66.280  1.00  0.00    -0.342 A  
HETATM   16 CL   UNL     1     -10.441  18.123  68.463  1.00  0.00    -0.327 Cl 
HETATM   17  C   UNL     1     -10.159  15.484  65.508  1.00  0.00    -0.406 A  
HETATM   18  C   UNL     1     -10.683  14.312  66.045  1.00  0.00    -0.304 A  
HETATM   19  C   UNL     1     -11.166  14.291  67.361  1.00  0.00    -0.316 A  
HETATM   20 CL   UNL     1     -11.823  12.790  67.918  1.00  0.00    -0.405 Cl 
ENDBRANCH  12  13
ENDBRANCH  10  12
ENDBRANCH   6  10
TORSDOF 3
ENDMDL
MODEL       48
REMARK 921   NORMALIZED FREE ENERGY PREDICTED BY IDOCK:   -4.83 KCAL/MOL
REMARK 922        TOTAL FREE ENERGY PREDICTED BY IDOCK:   -5.96 KCAL/MOL
REMARK 923 INTER-LIGAND FREE ENERGY PREDICTED BY IDOCK:   -5.69 KCAL/MOL
REMARK 924 INTRA-LIGAND FREE ENERGY PREDICTED BY IDOCK:   -0.27 KCAL/MOL
REMARK 927      BINDING AFFINITY PREDICTED BY RF-SCORE:    0.00 PKD
ROOT
HETATM    1  N   UNL     1     -12.536  10.434  71.482  1.00  0.00    -0.414 NA 
HETATM    2  H2  UNL     1     -12.399   9.819  72.283  1.00  0.00     0.000 HD 
HETATM    3  C   UNL     1     -12.093  10.171  70.232  1.00  0.00    -0.204 C  
HETATM    4  H1  UNL     1     -13.026  11.328  71.518  1.00  0.00     0.000 HD 
HETATM    5  N   UNL     1     -11.442   8.983  70.184  1.00  0.00    -0.446 NA 
HETATM    6  N   UNL     1     -12.291  10.961  69.225  1.00  0.00    -0.641 NA 
HETATM    7  H1  UNL     1     -11.107   8.785  69.241  1.00  0.00     0.000 HD 
HETATM    8  H2  UNL     1     -11.305   8.368  70.985  1.00  0.00     0.000 HD 
HETATM    9  H   UNL     1     -12.739  11.875  69.292  1.00  0.00     0.000 HD 
ENDROOT
BRANCH   6  10
HETATM   10  N   UNL     1     -11.816  10.406  68.031  1.00  0.00    -0.681 NA 
HETATM   11  H   UNL     1     -12.107   9.502  67.658  1.00  0.00     0.000 HD 
BRANCH  10  12
HETATM   12  C   UNL     1     -10.958  11.193  67.465  1.00  0.00    -0.275 C  
BRANCH  12  13
HETATM   13  C   UNL     1     -11.054  11.593  66.045  1.00  0.00    -0.325 A  
HETATM   14  C   UNL     1     -10.477  10.835  65.010  1.00  0.00    -0.237 A  
HETATM   15  C   UNL     1     -10.653  11.219  63.673  1.00  0.00    -0.453 A  
HETATM   16 CL   UNL     1      -9.583   9.373  65.258  1.00  0.00    -0.314 Cl 
HETATM   17  C   UNL     1     -11.401  12.347  63.351  1.00  0.00    -0.507 A  
HETATM   18  C   UNL     1     -11.969  13.108  64.368  1.00  0.00    -0.454 A  
HETATM   19  C   UNL     1     -11.799  12.737  65.709  1.00  0.00    -0.434 A  
HETATM   20 CL   UNL     1     -12.521  13.772  66.894  1.00  0.00    -0.306 Cl 
ENDBRANCH  12  13
ENDBRANCH  10  12
ENDBRANCH   6  10
TORSDOF 3
ENDMDL
MODEL       49
REMARK 921   NORMALIZED FREE ENERGY PREDICTED BY IDOCK:   -4.82 KCAL/MOL
REMARK 922        TOTAL FREE ENERGY PREDICTED BY IDOCK:   -5.95 KCAL/MOL
REMARK 923 INTER-LIGAND FREE ENERGY PREDICTED BY IDOCK:   -5.79 KCAL/MOL
REMARK 924 INTRA-LIGAND FREE ENERGY PREDICTED BY IDOCK:   -0.15 KCAL/MOL
REMARK 927      BINDING AFFINITY PREDICTED BY RF-SCORE:    0.00 PKD
ROOT
HETATM    1  N   UNL     1     -11.530  16.569  63.949  1.00  0.00    -1.599 NA 
HETATM    2  H2  UNL     1     -11.613  17.544  64.233  1.00  0.00     0.000 HD 
HETATM    3  C   UNL     1     -11.000  15.591  64.716  1.00  0.00    -0.399 C  
HETATM    4  H1  UNL     1     -11.836  16.204  63.046  1.00  0.00     0.000 HD 
HETATM    5  N   UNL     1     -10.593  16.076  65.915  1.00  0.00    -0.335 NA 
HETATM    6  N   UNL     1     -10.917  14.354  64.339  1.00  0.00    -0.618 NA 
HETATM    7  H1  UNL     1     -10.192  15.338  66.494  1.00  0.00     0.000 HD 
HETATM    8  H2  UNL     1     -10.676  17.051  66.200  1.00  0.00     0.000 HD 
HETATM    9  H   UNL     1     -11.181  14.019  63.413  1.00  0.00     0.000 HD 
ENDROOT
BRANCH   6  10
HETATM   10  N   UNL     1     -10.419  13.535  65.358  1.00  0.00    -0.303 NA 
HETATM   11  H   UNL     1      -9.624  13.769  65.952  1.00  0.00     0.000 HD 
BRANCH  10  12
HETATM   12  C   UNL     1     -11.105  12.440  65.446  1.00  0.00    -0.306 C  
BRANCH  12  13
HETATM   13  C   UNL     1     -10.478  11.120  65.674  1.00  0.00    -0.308 A  
HETATM   14  C   UNL     1     -10.705  10.373  66.845  1.00  0.00    -0.207 A  
HETATM   15  C   UNL     1     -10.143   9.095  66.985  1.00  0.00    -0.316 A  
HETATM   16 CL   UNL     1     -11.712  10.896  68.152  1.00  0.00    -0.312 Cl 
HETATM   17  C   UNL     1      -9.360   8.550  65.973  1.00  0.00    -0.266 A  
HETATM   18  C   UNL     1      -9.123   9.284  64.815  1.00  0.00    -0.201 A  
HETATM   19  C   UNL     1      -9.678  10.563  64.662  1.00  0.00    -0.309 A  
HETATM   20 CL   UNL     1      -9.293  11.400  63.197  1.00  0.00    -0.317 Cl 
ENDBRANCH  12  13
ENDBRANCH  10  12
ENDBRANCH   6  10
TORSDOF 3
ENDMDL
MODEL       50
REMARK 921   NORMALIZED FREE ENERGY PREDICTED BY IDOCK:   -4.79 KCAL/MOL
REMARK 922        TOTAL FREE ENERGY PREDICTED BY IDOCK:   -5.91 KCAL/MOL
REMARK 923 INTER-LIGAND FREE ENERGY PREDICTED BY IDOCK:   -5.65 KCAL/MOL
REMARK 924 INTRA-LIGAND FREE ENERGY PREDICTED BY IDOCK:   -0.27 KCAL/MOL
REMARK 927      BINDING AFFINITY PREDICTED BY RF-SCORE:    0.00 PKD
ROOT
HETATM    1  N   UNL     1     -12.848  11.747  62.957  1.00  0.00    -0.884 NA 
HETATM    2  H2  UNL     1     -13.775  11.959  62.591  1.00  0.00     0.000 HD 
HETATM    3  C   UNL     1     -11.988  12.668  63.444  1.00  0.00    -0.528 C  
HETATM    4  H1  UNL     1     -12.447  10.809  63.002  1.00  0.00     0.000 HD 
HETATM    5  N   UNL     1     -12.520  13.914  63.382  1.00  0.00    -1.110 NA 
HETATM    6  N   UNL     1     -10.819  12.374  63.916  1.00  0.00    -0.383 NA 
HETATM    7  H1  UNL     1     -11.871  14.610  63.749  1.00  0.00     0.000 HD 
HETATM    8  H2  UNL     1     -13.448  14.127  63.017  1.00  0.00     0.000 HD 
HETATM    9  H   UNL     1     -10.416  11.437  63.906  1.00  0.00     0.000 HD 
ENDROOT
BRANCH   6  10
HETATM   10  N   UNL     1     -10.175  13.499  64.443  1.00  0.00    -0.669 NA 
HETATM   11  H   UNL     1     -10.214  14.432  64.034  1.00  0.00     0.000 HD 
BRANCH  10  12
HETATM   12  C   UNL     1      -9.524  13.195  65.521  1.00  0.00     0.181 C  
BRANCH  12  13
HETATM   13  C   UNL     1     -10.101  12.361  66.597  1.00  0.00    -0.234 A  
HETATM   14  C   UNL     1     -11.190  12.789  67.378  1.00  0.00    -0.294 A  
HETATM   15  C   UNL     1     -11.745  11.934  68.341  1.00  0.00    -0.387 A  
HETATM   16 CL   UNL     1     -11.971  14.323  67.199  1.00  0.00    -0.449 Cl 
HETATM   17  C   UNL     1     -11.233  10.655  68.534  1.00  0.00    -0.342 A  
HETATM   18  C   UNL     1     -10.151  10.225  67.772  1.00  0.00    -0.213 A  
HETATM   19  C   UNL     1      -9.585  11.070  66.807  1.00  0.00    -0.190 A  
HETATM   20 CL   UNL     1      -8.224  10.447  65.939  1.00  0.00    -0.145 Cl 
ENDBRANCH  12  13
ENDBRANCH  10  12
ENDBRANCH   6  10
TORSDOF 3
ENDMDL
MODEL       51
REMARK 921   NORMALIZED FREE ENERGY PREDICTED BY IDOCK:   -4.78 KCAL/MOL
REMARK 922        TOTAL FREE ENERGY PREDICTED BY IDOCK:   -5.90 KCAL/MOL
REMARK 923 INTER-LIGAND FREE ENERGY PREDICTED BY IDOCK:   -5.67 KCAL/MOL
REMARK 924 INTRA-LIGAND FREE ENERGY PREDICTED BY IDOCK:   -0.24 KCAL/MOL
REMARK 927      BINDING AFFINITY PREDICTED BY RF-SCORE:    0.00 PKD
ROOT
HETATM    1  N   UNL     1     -11.560  11.603  63.098  1.00  0.00    -0.861 NA 
HETATM    2  H2  UNL     1     -12.391  11.217  62.651  1.00  0.00     0.000 HD 
HETATM    3  C   UNL     1     -11.432  12.889  63.493  1.00  0.00    -0.412 C  
HETATM    4  H1  UNL     1     -10.716  11.068  63.306  1.00  0.00     0.000 HD 
HETATM    5  N   UNL     1     -12.553  13.600  63.216  1.00  0.00    -0.961 NA 
HETATM    6  N   UNL     1     -10.371  13.355  64.073  1.00  0.00    -0.706 NA 
HETATM    7  H1  UNL     1     -12.456  14.571  63.513  1.00  0.00     0.000 HD 
HETATM    8  H2  UNL     1     -13.384  13.214  62.768  1.00  0.00     0.000 HD 
HETATM    9  H   UNL     1      -9.519  12.817  64.225  1.00  0.00     0.000 HD 
ENDROOT
BRANCH   6  10
HETATM   10  N   UNL     1     -10.539  14.688  64.464  1.00  0.00    -0.576 NA 
HETATM   11  H   UNL     1     -10.646  15.471  63.819  1.00  0.00     0.000 HD 
BRANCH  10  12
HETATM   12  C   UNL     1     -10.540  14.794  65.755  1.00  0.00    -0.327 C  
BRANCH  12  13
HETATM   13  C   UNL     1      -9.420  15.397  66.509  1.00  0.00    -0.298 A  
HETATM   14  C   UNL     1      -8.413  14.619  67.110  1.00  0.00    -0.221 A  
HETATM   15  C   UNL     1      -7.335  15.240  67.756  1.00  0.00    -0.181 A  
HETATM   16 CL   UNL     1      -8.361  12.890  67.061  1.00  0.00    -0.151 Cl 
HETATM   17  C   UNL     1      -7.243  16.628  67.810  1.00  0.00    -0.154 A  
HETATM   18  C   UNL     1      -8.239  17.405  67.226  1.00  0.00    -0.221 A  
HETATM   19  C   UNL     1      -9.323  16.797  66.578  1.00  0.00    -0.264 A  
HETATM   20 CL   UNL     1     -10.519  17.859  65.914  1.00  0.00    -0.333 Cl 
ENDBRANCH  12  13
ENDBRANCH  10  12
ENDBRANCH   6  10
TORSDOF 3
ENDMDL
MODEL       52
REMARK 921   NORMALIZED FREE ENERGY PREDICTED BY IDOCK:   -4.77 KCAL/MOL
REMARK 922        TOTAL FREE ENERGY PREDICTED BY IDOCK:   -5.89 KCAL/MOL
REMARK 923 INTER-LIGAND FREE ENERGY PREDICTED BY IDOCK:   -5.67 KCAL/MOL
REMARK 924 INTRA-LIGAND FREE ENERGY PREDICTED BY IDOCK:   -0.22 KCAL/MOL
REMARK 927      BINDING AFFINITY PREDICTED BY RF-SCORE:    0.00 PKD
ROOT
HETATM    1  N   UNL     1     -12.267  15.967  71.131  1.00  0.00    -0.560 NA 
HETATM    2  H2  UNL     1     -12.220  15.722  72.120  1.00  0.00     0.000 HD 
HETATM    3  C   UNL     1     -12.234  15.073  70.119  1.00  0.00    -0.343 C  
HETATM    4  H1  UNL     1     -12.346  16.922  70.778  1.00  0.00     0.000 HD 
HETATM    5  N   UNL     1     -12.129  13.806  70.589  1.00  0.00    -0.420 NA 
HETATM    6  N   UNL     1     -12.309  15.407  68.870  1.00  0.00    -0.608 NA 
HETATM    7  H1  UNL     1     -12.103  13.131  69.825  1.00  0.00     0.000 HD 
HETATM    8  H2  UNL     1     -12.082  13.560  71.578  1.00  0.00     0.000 HD 
HETATM    9  H   UNL     1     -12.335  16.370  68.535  1.00  0.00     0.000 HD 
ENDROOT
BRANCH   6  10
HETATM   10  N   UNL     1     -12.351  14.284  68.036  1.00  0.00    -0.564 NA 
HETATM   11  H   UNL     1     -13.049  13.544  68.097  1.00  0.00     0.000 HD 
BRANCH  10  12
HETATM   12  C   UNL     1     -11.383  14.312  67.176  1.00  0.00    -0.337 C  
BRANCH  12  13
HETATM   13  C   UNL     1     -11.292  13.366  66.042  1.00  0.00    -0.329 A  
HETATM   14  C   UNL     1     -11.746  13.694  64.752  1.00  0.00    -0.377 A  
HETATM   15  C   UNL     1     -11.576  12.789  63.694  1.00  0.00    -0.572 A  
HETATM   16 CL   UNL     1     -12.472  15.209  64.333  1.00  0.00    -0.286 Cl 
HETATM   17  C   UNL     1     -10.954  11.562  63.903  1.00  0.00    -0.474 A  
HETATM   18  C   UNL     1     -10.509  11.225  65.178  1.00  0.00    -0.351 A  
HETATM   19  C   UNL     1     -10.675  12.120  66.245  1.00  0.00    -0.261 A  
HETATM   20 CL   UNL     1     -10.113  11.586  67.793  1.00  0.00    -0.191 Cl 
ENDBRANCH  12  13
ENDBRANCH  10  12
ENDBRANCH   6  10
TORSDOF 3
ENDMDL
MODEL       53
REMARK 921   NORMALIZED FREE ENERGY PREDICTED BY IDOCK:   -4.76 KCAL/MOL
REMARK 922        TOTAL FREE ENERGY PREDICTED BY IDOCK:   -5.88 KCAL/MOL
REMARK 923 INTER-LIGAND FREE ENERGY PREDICTED BY IDOCK:   -5.59 KCAL/MOL
REMARK 924 INTRA-LIGAND FREE ENERGY PREDICTED BY IDOCK:   -0.29 KCAL/MOL
REMARK 927      BINDING AFFINITY PREDICTED BY RF-SCORE:    0.00 PKD
ROOT
HETATM    1  N   UNL     1     -11.137   5.388  66.319  1.00  0.00    -0.743 NA 
HETATM    2  H2  UNL     1     -10.764   4.948  65.479  1.00  0.00     0.000 HD 
HETATM    3  C   UNL     1     -10.741   6.591  66.792  1.00  0.00    -0.273 C  
HETATM    4  H1  UNL     1     -11.857   4.978  66.914  1.00  0.00     0.000 HD 
HETATM    5  N   UNL     1      -9.783   7.136  66.002  1.00  0.00    -0.402 NA 
HETATM    6  N   UNL     1     -11.238   7.138  67.855  1.00  0.00    -0.519 NA 
HETATM    7  H1  UNL     1      -9.484   8.043  66.359  1.00  0.00     0.000 HD 
HETATM    8  H2  UNL     1      -9.410   6.695  65.161  1.00  0.00     0.000 HD 
HETATM    9  H   UNL     1     -11.921   6.689  68.465  1.00  0.00     0.000 HD 
ENDROOT
BRANCH   6  10
HETATM   10  N   UNL     1     -10.723   8.422  68.065  1.00  0.00    -0.452 NA 
HETATM   11  H   UNL     1     -10.572   9.112  67.329  1.00  0.00     0.000 HD 
BRANCH  10  12
HETATM   12  C   UNL     1     -10.464   8.616  69.319  1.00  0.00    -0.217 C  
BRANCH  12  13
HETATM   13  C   UNL     1     -11.371   9.362  70.218  1.00  0.00    -0.261 A  
HETATM   14  C   UNL     1     -11.543  10.755  70.124  1.00  0.00    -0.337 A  
HETATM   15  C   UNL     1     -12.467  11.408  70.955  1.00  0.00    -0.478 A  
HETATM   16 CL   UNL     1     -10.722  11.762  68.981  1.00  0.00    -0.233 Cl 
HETATM   17  C   UNL     1     -13.224  10.690  71.875  1.00  0.00    -0.528 A  
HETATM   18  C   UNL     1     -13.054   9.313  71.981  1.00  0.00    -0.512 A  
HETATM   19  C   UNL     1     -12.134   8.649  71.158  1.00  0.00    -0.260 A  
HETATM   20 CL   UNL     1     -11.980   6.941  71.396  1.00  0.00    -0.369 Cl 
ENDBRANCH  12  13
ENDBRANCH  10  12
ENDBRANCH   6  10
TORSDOF 3
ENDMDL
MODEL       54
REMARK 921   NORMALIZED FREE ENERGY PREDICTED BY IDOCK:   -4.70 KCAL/MOL
REMARK 922        TOTAL FREE ENERGY PREDICTED BY IDOCK:   -5.80 KCAL/MOL
REMARK 923 INTER-LIGAND FREE ENERGY PREDICTED BY IDOCK:   -5.59 KCAL/MOL
REMARK 924 INTRA-LIGAND FREE ENERGY PREDICTED BY IDOCK:   -0.21 KCAL/MOL
REMARK 927      BINDING AFFINITY PREDICTED BY RF-SCORE:    0.00 PKD
ROOT
HETATM    1  N   UNL     1     -14.264   8.871  73.173  1.00  0.00    -1.200 NA 
HETATM    2  H2  UNL     1     -14.657   9.522  73.853  1.00  0.00     0.000 HD 
HETATM    3  C   UNL     1     -13.458   9.230  72.150  1.00  0.00    -0.473 C  
HETATM    4  H1  UNL     1     -14.429   7.864  73.177  1.00  0.00     0.000 HD 
HETATM    5  N   UNL     1     -13.239  10.568  72.144  1.00  0.00    -0.573 NA 
HETATM    6  N   UNL     1     -12.959   8.384  71.305  1.00  0.00    -0.489 NA 
HETATM    7  H1  UNL     1     -12.631  10.838  71.372  1.00  0.00     0.000 HD 
HETATM    8  H2  UNL     1     -13.632  11.218  72.824  1.00  0.00     0.000 HD 
HETATM    9  H   UNL     1     -13.177   7.388  71.295  1.00  0.00     0.000 HD 
ENDROOT
BRANCH   6  10
HETATM   10  N   UNL     1     -12.083   9.004  70.408  1.00  0.00    -0.465 NA 
HETATM   11  H   UNL     1     -12.353   9.730  69.744  1.00  0.00     0.000 HD 
BRANCH  10  12
HETATM   12  C   UNL     1     -10.883   8.534  70.534  1.00  0.00    -0.228 C  
BRANCH  12  13
HETATM   13  C   UNL     1     -10.605   7.100  70.769  1.00  0.00    -0.240 A  
HETATM   14  C   UNL     1     -10.601   6.155  69.727  1.00  0.00    -0.280 A  
HETATM   15  C   UNL     1     -10.265   4.819  69.989  1.00  0.00    -0.251 A  
HETATM   16 CL   UNL     1     -10.929   6.534  68.070  1.00  0.00    -0.362 Cl 
HETATM   17  C   UNL     1      -9.929   4.412  71.277  1.00  0.00    -0.245 A  
HETATM   18  C   UNL     1      -9.939   5.338  72.315  1.00  0.00    -0.222 A  
HETATM   19  C   UNL     1     -10.274   6.676  72.067  1.00  0.00    -0.188 A  
HETATM   20 CL   UNL     1     -10.286   7.735  73.437  1.00  0.00    -0.375 Cl 
ENDBRANCH  12  13
ENDBRANCH  10  12
ENDBRANCH   6  10
TORSDOF 3
ENDMDL
MODEL       55
REMARK 921   NORMALIZED FREE ENERGY PREDICTED BY IDOCK:   -4.68 KCAL/MOL
REMARK 922        TOTAL FREE ENERGY PREDICTED BY IDOCK:   -5.79 KCAL/MOL
REMARK 923 INTER-LIGAND FREE ENERGY PREDICTED BY IDOCK:   -6.03 KCAL/MOL
REMARK 924 INTRA-LIGAND FREE ENERGY PREDICTED BY IDOCK:    0.25 KCAL/MOL
REMARK 927      BINDING AFFINITY PREDICTED BY RF-SCORE:    0.00 PKD
ROOT
HETATM    1  N   UNL     1     -13.421  16.062  73.688  1.00  0.00    -0.872 NA 
HETATM    2  H2  UNL     1     -13.512  17.066  73.536  1.00  0.00     0.000 HD 
HETATM    3  C   UNL     1     -13.569  15.127  72.724  1.00  0.00    -0.488 C  
HETATM    4  H1  UNL     1     -13.207  15.632  74.588  1.00  0.00     0.000 HD 
HETATM    5  N   UNL     1     -13.854  15.698  71.528  1.00  0.00    -0.516 NA 
HETATM    6  N   UNL     1     -13.436  13.856  72.937  1.00  0.00    -0.650 NA 
HETATM    7  H1  UNL     1     -13.967  14.992  70.800  1.00  0.00     0.000 HD 
HETATM    8  H2  UNL     1     -13.945  16.702  71.376  1.00  0.00     0.000 HD 
HETATM    9  H   UNL     1     -13.272  13.443  73.854  1.00  0.00     0.000 HD 
ENDROOT
BRANCH   6  10
HETATM   10  N   UNL     1     -13.543  13.119  71.752  1.00  0.00    -0.326 NA 
HETATM   11  H   UNL     1     -13.820  13.509  70.851  1.00  0.00     0.000 HD 
BRANCH  10  12
HETATM   12  C   UNL     1     -13.244  11.875  71.953  1.00  0.00    -0.362 C  
BRANCH  12  13
HETATM   13  C   UNL     1     -12.418  11.088  71.013  1.00  0.00    -0.512 A  
HETATM   14  C   UNL     1     -11.764  11.675  69.914  1.00  0.00    -0.337 A  
HETATM   15  C   UNL     1     -10.936  10.899  69.090  1.00  0.00    -0.290 A  
HETATM   16 CL   UNL     1     -11.852  13.357  69.516  1.00  0.00    -0.372 Cl 
HETATM   17  C   UNL     1     -10.747   9.545  69.348  1.00  0.00    -0.244 A  
HETATM   18  C   UNL     1     -11.396   8.954  70.427  1.00  0.00    -0.229 A  
HETATM   19  C   UNL     1     -12.228   9.717  71.258  1.00  0.00    -0.374 A  
HETATM   20 CL   UNL     1     -13.010   8.874  72.552  1.00  0.00    -0.462 Cl 
ENDBRANCH  12  13
ENDBRANCH  10  12
ENDBRANCH   6  10
TORSDOF 3
ENDMDL
MODEL       56
REMARK 921   NORMALIZED FREE ENERGY PREDICTED BY IDOCK:   -4.65 KCAL/MOL
REMARK 922        TOTAL FREE ENERGY PREDICTED BY IDOCK:   -5.75 KCAL/MOL
REMARK 923 INTER-LIGAND FREE ENERGY PREDICTED BY IDOCK:   -5.46 KCAL/MOL
REMARK 924 INTRA-LIGAND FREE ENERGY PREDICTED BY IDOCK:   -0.29 KCAL/MOL
REMARK 927      BINDING AFFINITY PREDICTED BY RF-SCORE:    0.00 PKD
ROOT
HETATM    1  N   UNL     1     -14.205   8.845  73.087  1.00  0.00    -1.200 NA 
HETATM    2  H2  UNL     1     -14.580   9.385  73.867  1.00  0.00     0.000 HD 
HETATM    3  C   UNL     1     -13.422   9.354  72.111  1.00  0.00    -0.471 C  
HETATM    4  H1  UNL     1     -14.373   7.848  72.943  1.00  0.00     0.000 HD 
HETATM    5  N   UNL     1     -13.199  10.678  72.302  1.00  0.00    -0.574 NA 
HETATM    6  N   UNL     1     -12.945   8.645  71.137  1.00  0.00    -0.503 NA 
HETATM    7  H1  UNL     1     -12.609  11.062  71.565  1.00  0.00     0.000 HD 
HETATM    8  H2  UNL     1     -13.575  11.218  73.082  1.00  0.00     0.000 HD 
HETATM    9  H   UNL     1     -13.166   7.662  70.982  1.00  0.00     0.000 HD 
ENDROOT
BRANCH   6  10
HETATM   10  N   UNL     1     -12.089   9.395  70.323  1.00  0.00    -0.465 NA 
HETATM   11  H   UNL     1     -12.332  10.288  69.896  1.00  0.00     0.000 HD 
BRANCH  10  12
HETATM   12  C   UNL     1     -10.946   8.802  70.185  1.00  0.00    -0.223 C  
BRANCH  12  13
HETATM   13  C   UNL     1     -10.691   7.789  69.138  1.00  0.00    -0.139 A  
HETATM   14  C   UNL     1     -10.492   8.137  67.789  1.00  0.00    -0.214 A  
HETATM   15  C   UNL     1     -10.185   7.146  66.845  1.00  0.00    -0.330 A  
HETATM   16 CL   UNL     1     -10.536   9.758  67.187  1.00  0.00    -0.316 Cl 
HETATM   17  C   UNL     1     -10.069   5.813  67.227  1.00  0.00    -0.208 A  
HETATM   18  C   UNL     1     -10.272   5.459  68.556  1.00  0.00    -0.237 A  
HETATM   19  C   UNL     1     -10.581   6.438  69.511  1.00  0.00    -0.253 A  
HETATM   20 CL   UNL     1     -10.845   5.883  71.129  1.00  0.00    -0.329 Cl 
ENDBRANCH  12  13
ENDBRANCH  10  12
ENDBRANCH   6  10
TORSDOF 3
ENDMDL
MODEL       57
REMARK 921   NORMALIZED FREE ENERGY PREDICTED BY IDOCK:   -4.63 KCAL/MOL
REMARK 922        TOTAL FREE ENERGY PREDICTED BY IDOCK:   -5.73 KCAL/MOL
REMARK 923 INTER-LIGAND FREE ENERGY PREDICTED BY IDOCK:   -5.44 KCAL/MOL
REMARK 924 INTRA-LIGAND FREE ENERGY PREDICTED BY IDOCK:   -0.28 KCAL/MOL
REMARK 927      BINDING AFFINITY PREDICTED BY RF-SCORE:    0.00 PKD
ROOT
HETATM    1  N   UNL     1     -10.957   6.050  66.697  1.00  0.00    -0.698 NA 
HETATM    2  H2  UNL     1     -10.629   5.583  65.852  1.00  0.00     0.000 HD 
HETATM    3  C   UNL     1     -10.698   7.340  67.006  1.00  0.00    -0.336 C  
HETATM    4  H1  UNL     1     -11.524   5.605  67.419  1.00  0.00     0.000 HD 
HETATM    5  N   UNL     1      -9.945   7.932  66.046  1.00  0.00    -0.405 NA 
HETATM    6  N   UNL     1     -11.136   7.918  68.079  1.00  0.00    -0.391 NA 
HETATM    7  H1  UNL     1      -9.749   8.905  66.280  1.00  0.00     0.000 HD 
HETATM    8  H2  UNL     1      -9.617   7.464  65.202  1.00  0.00     0.000 HD 
HETATM    9  H   UNL     1     -11.658   7.441  68.814  1.00  0.00     0.000 HD 
ENDROOT
BRANCH   6  10
HETATM   10  N   UNL     1     -10.807   9.277  68.106  1.00  0.00    -0.455 NA 
HETATM   11  H   UNL     1     -10.779   9.882  67.286  1.00  0.00     0.000 HD 
BRANCH  10  12
HETATM   12  C   UNL     1     -10.541   9.664  69.313  1.00  0.00    -0.219 C  
BRANCH  12  13
HETATM   13  C   UNL     1     -11.491  10.452  70.129  1.00  0.00    -0.396 A  
HETATM   14  C   UNL     1     -12.295   9.865  71.123  1.00  0.00    -0.370 A  
HETATM   15  C   UNL     1     -13.130  10.665  71.917  1.00  0.00    -0.563 A  
HETATM   16 CL   UNL     1     -12.291   8.177  71.504  1.00  0.00    -0.318 Cl 
HETATM   17  C   UNL     1     -13.173  12.043  71.735  1.00  0.00    -0.421 A  
HETATM   18  C   UNL     1     -12.389  12.632  70.749  1.00  0.00    -0.372 A  
HETATM   19  C   UNL     1     -11.550  11.845  69.948  1.00  0.00    -0.256 A  
HETATM   20 CL   UNL     1     -10.642  12.676  68.731  1.00  0.00    -0.242 Cl 
ENDBRANCH  12  13
ENDBRANCH  10  12
ENDBRANCH   6  10
TORSDOF 3
ENDMDL
MODEL       58
REMARK 921   NORMALIZED FREE ENERGY PREDICTED BY IDOCK:   -4.63 KCAL/MOL
REMARK 922        TOTAL FREE ENERGY PREDICTED BY IDOCK:   -5.72 KCAL/MOL
REMARK 923 INTER-LIGAND FREE ENERGY PREDICTED BY IDOCK:   -5.34 KCAL/MOL
REMARK 924 INTRA-LIGAND FREE ENERGY PREDICTED BY IDOCK:   -0.38 KCAL/MOL
REMARK 927      BINDING AFFINITY PREDICTED BY RF-SCORE:    0.00 PKD
ROOT
HETATM    1  N   UNL     1      -9.137  20.685  66.788  1.00  0.00    -0.602 NA 
HETATM    2  H2  UNL     1      -9.416  21.423  67.434  1.00  0.00     0.000 HD 
HETATM    3  C   UNL     1      -9.858  19.567  66.547  1.00  0.00    -0.404 C  
HETATM    4  H1  UNL     1      -8.277  20.694  66.239  1.00  0.00     0.000 HD 
HETATM    5  N   UNL     1     -11.001  19.555  67.277  1.00  0.00    -0.450 NA 
HETATM    6  N   UNL     1      -9.490  18.648  65.712  1.00  0.00    -0.350 NA 
HETATM    7  H1  UNL     1     -11.544  18.712  67.096  1.00  0.00     0.000 HD 
HETATM    8  H2  UNL     1     -11.279  20.294  67.923  1.00  0.00     0.000 HD 
HETATM    9  H   UNL     1      -8.602  18.651  65.212  1.00  0.00     0.000 HD 
ENDROOT
BRANCH   6  10
HETATM   10  N   UNL     1     -10.463  17.651  65.580  1.00  0.00    -0.623 NA 
HETATM   11  H   UNL     1     -11.430  17.818  65.304  1.00  0.00     0.000 HD 
BRANCH  10  12
HETATM   12  C   UNL     1      -9.969  16.486  65.857  1.00  0.00    -0.317 C  
BRANCH  12  13
HETATM   13  C   UNL     1     -10.555  15.590  66.878  1.00  0.00    -0.307 A  
HETATM   14  C   UNL     1     -10.320  15.764  68.254  1.00  0.00    -0.239 A  
HETATM   15  C   UNL     1     -10.953  14.930  69.188  1.00  0.00    -0.266 A  
HETATM   16 CL   UNL     1      -9.322  17.011  68.920  1.00  0.00    -0.253 Cl 
HETATM   17  C   UNL     1     -11.821  13.927  68.769  1.00  0.00    -0.396 A  
HETATM   18  C   UNL     1     -12.054  13.742  67.410  1.00  0.00    -0.378 A  
HETATM   19  C   UNL     1     -11.426  14.567  66.466  1.00  0.00    -0.362 A  
HETATM   20 CL   UNL     1     -11.762  14.229  64.801  1.00  0.00    -0.395 Cl 
ENDBRANCH  12  13
ENDBRANCH  10  12
ENDBRANCH   6  10
TORSDOF 3
ENDMDL
MODEL       59
REMARK 921   NORMALIZED FREE ENERGY PREDICTED BY IDOCK:   -4.62 KCAL/MOL
REMARK 922        TOTAL FREE ENERGY PREDICTED BY IDOCK:   -5.72 KCAL/MOL
REMARK 923 INTER-LIGAND FREE ENERGY PREDICTED BY IDOCK:   -5.43 KCAL/MOL
REMARK 924 INTRA-LIGAND FREE ENERGY PREDICTED BY IDOCK:   -0.29 KCAL/MOL
REMARK 927      BINDING AFFINITY PREDICTED BY RF-SCORE:    0.00 PKD
ROOT
HETATM    1  N   UNL     1      -8.274  20.472  66.550  1.00  0.00    -0.538 NA 
HETATM    2  H2  UNL     1      -8.489  21.425  66.840  1.00  0.00     0.000 HD 
HETATM    3  C   UNL     1      -9.195  19.497  66.383  1.00  0.00    -0.371 C  
HETATM    4  H1  UNL     1      -7.334  20.129  66.349  1.00  0.00     0.000 HD 
HETATM    5  N   UNL     1     -10.443  19.953  66.650  1.00  0.00    -0.469 NA 
HETATM    6  N   UNL     1      -8.900  18.295  66.000  1.00  0.00    -0.507 NA 
HETATM    7  H1  UNL     1     -11.138  19.217  66.525  1.00  0.00     0.000 HD 
HETATM    8  H2  UNL     1     -10.659  20.906  66.940  1.00  0.00     0.000 HD 
HETATM    9  H   UNL     1      -7.949  17.958  65.854  1.00  0.00     0.000 HD 
ENDROOT
BRANCH   6  10
HETATM   10  N   UNL     1     -10.047  17.516  65.813  1.00  0.00    -0.583 NA 
HETATM   11  H   UNL     1     -10.982  17.892  65.658  1.00  0.00     0.000 HD 
BRANCH  10  12
HETATM   12  C   UNL     1      -9.761  16.254  65.862  1.00  0.00    -0.321 C  
BRANCH  12  13
HETATM   13  C   UNL     1     -10.545  15.287  66.661  1.00  0.00    -0.304 A  
HETATM   14  C   UNL     1     -11.543  14.476  66.091  1.00  0.00    -0.365 A  
HETATM   15  C   UNL     1     -12.212  13.525  66.876  1.00  0.00    -0.377 A  
HETATM   16 CL   UNL     1     -11.990  14.515  64.419  1.00  0.00    -0.478 Cl 
HETATM   17  C   UNL     1     -11.896  13.368  68.221  1.00  0.00    -0.393 A  
HETATM   18  C   UNL     1     -10.915  14.170  68.796  1.00  0.00    -0.275 A  
HETATM   19  C   UNL     1     -10.241  15.126  68.024  1.00  0.00    -0.230 A  
HETATM   20 CL   UNL     1      -9.063  16.092  68.847  1.00  0.00    -0.221 Cl 
ENDBRANCH  12  13
ENDBRANCH  10  12
ENDBRANCH   6  10
TORSDOF 3
ENDMDL
MODEL       60
REMARK 921   NORMALIZED FREE ENERGY PREDICTED BY IDOCK:   -4.60 KCAL/MOL
REMARK 922        TOTAL FREE ENERGY PREDICTED BY IDOCK:   -5.69 KCAL/MOL
REMARK 923 INTER-LIGAND FREE ENERGY PREDICTED BY IDOCK:   -5.51 KCAL/MOL
REMARK 924 INTRA-LIGAND FREE ENERGY PREDICTED BY IDOCK:   -0.18 KCAL/MOL
REMARK 927      BINDING AFFINITY PREDICTED BY RF-SCORE:    0.00 PKD
ROOT
HETATM    1  N   UNL     1     -13.159  10.830  71.604  1.00  0.00    -0.449 NA 
HETATM    2  H2  UNL     1     -13.656   9.940  71.632  1.00  0.00     0.000 HD 
HETATM    3  C   UNL     1     -12.528  11.320  70.514  1.00  0.00    -0.310 C  
HETATM    4  H1  UNL     1     -13.075  11.468  72.396  1.00  0.00     0.000 HD 
HETATM    5  N   UNL     1     -12.640  10.472  69.462  1.00  0.00    -0.662 NA 
HETATM    6  N   UNL     1     -11.915  12.460  70.497  1.00  0.00    -0.520 NA 
HETATM    7  H1  UNL     1     -12.163  10.841  68.640  1.00  0.00     0.000 HD 
HETATM    8  H2  UNL     1     -13.136   9.581  69.490  1.00  0.00     0.000 HD 
HETATM    9  H   UNL     1     -11.797  13.060  71.314  1.00  0.00     0.000 HD 
ENDROOT
BRANCH   6  10
HETATM   10  N   UNL     1     -11.433  12.770  69.221  1.00  0.00    -0.316 NA 
HETATM   11  H   UNL     1     -10.653  12.296  68.766  1.00  0.00     0.000 HD 
BRANCH  10  12
HETATM   12  C   UNL     1     -12.111  13.739  68.694  1.00  0.00    -0.298 C  
BRANCH  12  13
HETATM   13  C   UNL     1     -11.503  14.750  67.802  1.00  0.00    -0.363 A  
HETATM   14  C   UNL     1     -10.950  15.947  68.290  1.00  0.00    -0.329 A  
HETATM   15  C   UNL     1     -10.322  16.843  67.411  1.00  0.00    -0.309 A  
HETATM   16 CL   UNL     1     -10.923  16.396  69.961  1.00  0.00    -0.357 Cl 
HETATM   17  C   UNL     1     -10.235  16.559  66.051  1.00  0.00    -0.372 A  
HETATM   18  C   UNL     1     -10.787  15.381  65.558  1.00  0.00    -0.384 A  
HETATM   19  C   UNL     1     -11.418  14.478  66.425  1.00  0.00    -0.360 A  
HETATM   20 CL   UNL     1     -12.097  13.060  65.701  1.00  0.00    -0.480 Cl 
ENDBRANCH  12  13
ENDBRANCH  10  12
ENDBRANCH   6  10
TORSDOF 3
ENDMDL
MODEL       61
REMARK 921   NORMALIZED FREE ENERGY PREDICTED BY IDOCK:   -4.56 KCAL/MOL
REMARK 922        TOTAL FREE ENERGY PREDICTED BY IDOCK:   -5.65 KCAL/MOL
REMARK 923 INTER-LIGAND FREE ENERGY PREDICTED BY IDOCK:   -5.65 KCAL/MOL
REMARK 924 INTRA-LIGAND FREE ENERGY PREDICTED BY IDOCK:    0.00 KCAL/MOL
REMARK 927      BINDING AFFINITY PREDICTED BY RF-SCORE:    0.00 PKD
ROOT
HETATM    1  N   UNL     1     -10.017  16.170  65.632  1.00  0.00    -0.466 NA 
HETATM    2  H2  UNL     1      -9.533  17.059  65.512  1.00  0.00     0.000 HD 
HETATM    3  C   UNL     1     -10.678  15.805  66.753  1.00  0.00    -0.293 C  
HETATM    4  H1  UNL     1     -10.065  15.439  64.922  1.00  0.00     0.000 HD 
HETATM    5  N   UNL     1     -10.614  16.777  67.697  1.00  0.00    -0.331 NA 
HETATM    6  N   UNL     1     -11.299  14.675  66.880  1.00  0.00    -0.347 NA 
HETATM    7  H1  UNL     1     -11.112  16.502  68.543  1.00  0.00     0.000 HD 
HETATM    8  H2  UNL     1     -10.129  17.666  67.576  1.00  0.00     0.000 HD 
HETATM    9  H   UNL     1     -11.292  13.936  66.177  1.00  0.00     0.000 HD 
ENDROOT
BRANCH   6  10
HETATM   10  N   UNL     1     -11.980  14.593  68.099  1.00  0.00    -0.530 NA 
HETATM   11  H   UNL     1     -12.852  15.079  68.308  1.00  0.00     0.000 HD 
BRANCH  10  12
HETATM   12  C   UNL     1     -11.354  13.818  68.927  1.00  0.00    -0.288 C  
BRANCH  12  13
HETATM   13  C   UNL     1     -12.020  13.173  70.079  1.00  0.00    -0.391 A  
HETATM   14  C   UNL     1     -12.657  13.915  71.091  1.00  0.00    -0.370 A  
HETATM   15  C   UNL     1     -13.334  13.256  72.127  1.00  0.00    -0.618 A  
HETATM   16 CL   UNL     1     -12.730  15.644  71.129  1.00  0.00    -0.508 Cl 
HETATM   17  C   UNL     1     -13.387  11.866  72.168  1.00  0.00    -0.361 A  
HETATM   18  C   UNL     1     -12.753  11.124  71.177  1.00  0.00    -0.510 A  
HETATM   19  C   UNL     1     -12.072  11.770  70.136  1.00  0.00    -0.317 A  
HETATM   20 CL   UNL     1     -11.292  10.750  68.974  1.00  0.00    -0.317 Cl 
ENDBRANCH  12  13
ENDBRANCH  10  12
ENDBRANCH   6  10
TORSDOF 3
ENDMDL
MODEL       62
REMARK 921   NORMALIZED FREE ENERGY PREDICTED BY IDOCK:   -4.54 KCAL/MOL
REMARK 922        TOTAL FREE ENERGY PREDICTED BY IDOCK:   -5.62 KCAL/MOL
REMARK 923 INTER-LIGAND FREE ENERGY PREDICTED BY IDOCK:   -5.39 KCAL/MOL
REMARK 924 INTRA-LIGAND FREE ENERGY PREDICTED BY IDOCK:   -0.23 KCAL/MOL
REMARK 927      BINDING AFFINITY PREDICTED BY RF-SCORE:    0.00 PKD
ROOT
HETATM    1  N   UNL     1     -12.922  10.974  71.627  1.00  0.00    -0.466 NA 
HETATM    2  H2  UNL     1     -13.369  10.078  71.816  1.00  0.00     0.000 HD 
HETATM    3  C   UNL     1     -12.405  11.334  70.432  1.00  0.00    -0.329 C  
HETATM    4  H1  UNL     1     -12.806  11.717  72.317  1.00  0.00     0.000 HD 
HETATM    5  N   UNL     1     -12.559  10.346  69.515  1.00  0.00    -0.637 NA 
HETATM    6  N   UNL     1     -11.853  12.484  70.210  1.00  0.00    -0.538 NA 
HETATM    7  H1  UNL     1     -12.168  10.617  68.613  1.00  0.00     0.000 HD 
HETATM    8  H2  UNL     1     -13.006   9.449  69.704  1.00  0.00     0.000 HD 
HETATM    9  H   UNL     1     -11.700  13.194  70.926  1.00  0.00     0.000 HD 
ENDROOT
BRANCH   6  10
HETATM   10  N   UNL     1     -11.491  12.634  68.867  1.00  0.00    -0.285 NA 
HETATM   11  H   UNL     1     -10.811  12.049  68.382  1.00  0.00     0.000 HD 
BRANCH  10  12
HETATM   12  C   UNL     1     -12.135  13.617  68.322  1.00  0.00    -0.271 C  
BRANCH  12  13
HETATM   13  C   UNL     1     -11.595  14.397  67.188  1.00  0.00    -0.406 A  
HETATM   14  C   UNL     1     -11.724  13.972  65.854  1.00  0.00    -0.366 A  
HETATM   15  C   UNL     1     -11.256  14.781  64.808  1.00  0.00    -0.392 A  
HETATM   16 CL   UNL     1     -12.502  12.503  65.373  1.00  0.00    -0.443 Cl 
HETATM   17  C   UNL     1     -10.662  16.011  65.074  1.00  0.00    -0.400 A  
HETATM   18  C   UNL     1     -10.521  16.436  66.391  1.00  0.00    -0.288 A  
HETATM   19  C   UNL     1     -10.984  15.637  67.446  1.00  0.00    -0.293 A  
HETATM   20 CL   UNL     1     -10.729  16.248  69.046  1.00  0.00    -0.278 Cl 
ENDBRANCH  12  13
ENDBRANCH  10  12
ENDBRANCH   6  10
TORSDOF 3
ENDMDL
MODEL       63
REMARK 921   NORMALIZED FREE ENERGY PREDICTED BY IDOCK:   -4.54 KCAL/MOL
REMARK 922        TOTAL FREE ENERGY PREDICTED BY IDOCK:   -5.62 KCAL/MOL
REMARK 923 INTER-LIGAND FREE ENERGY PREDICTED BY IDOCK:   -5.41 KCAL/MOL
REMARK 924 INTRA-LIGAND FREE ENERGY PREDICTED BY IDOCK:   -0.21 KCAL/MOL
REMARK 927      BINDING AFFINITY PREDICTED BY RF-SCORE:    0.00 PKD
ROOT
HETATM    1  N   UNL     1      -8.700  11.919  66.439  1.00  0.00    -0.327 NA 
HETATM    2  H2  UNL     1      -8.372  11.219  65.773  1.00  0.00     0.000 HD 
HETATM    3  C   UNL     1      -9.479  11.650  67.509  1.00  0.00    -0.171 C  
HETATM    4  H1  UNL     1      -8.482  12.914  66.382  1.00  0.00     0.000 HD 
HETATM    5  N   UNL     1      -9.769  10.328  67.584  1.00  0.00    -0.162 NA 
HETATM    6  N   UNL     1      -9.873  12.554  68.349  1.00  0.00    -0.282 NA 
HETATM    7  H1  UNL     1     -10.358  10.125  68.391  1.00  0.00     0.000 HD 
HETATM    8  H2  UNL     1      -9.442   9.628  66.919  1.00  0.00     0.000 HD 
HETATM    9  H   UNL     1      -9.687  13.551  68.247  1.00  0.00     0.000 HD 
ENDROOT
BRANCH   6  10
HETATM   10  N   UNL     1     -10.585  11.994  69.416  1.00  0.00    -0.439 NA 
HETATM   11  H   UNL     1     -10.174  11.403  70.138  1.00  0.00     0.000 HD 
BRANCH  10  12
HETATM   12  C   UNL     1     -11.835  12.327  69.362  1.00  0.00    -0.310 C  
BRANCH  12  13
HETATM   13  C   UNL     1     -12.466  13.230  70.348  1.00  0.00    -0.295 A  
HETATM   14  C   UNL     1     -12.516  14.624  70.167  1.00  0.00    -0.317 A  
HETATM   15  C   UNL     1     -13.186  15.433  71.097  1.00  0.00    -0.583 A  
HETATM   16 CL   UNL     1     -11.845  15.452  68.803  1.00  0.00    -0.362 Cl 
HETATM   17  C   UNL     1     -13.811  14.869  72.206  1.00  0.00    -0.588 A  
HETATM   18  C   UNL     1     -13.759  13.493  72.398  1.00  0.00    -0.704 A  
HETATM   19  C   UNL     1     -13.092  12.673  71.477  1.00  0.00    -0.278 A  
HETATM   20 CL   UNL     1     -13.063  10.979  71.831  1.00  0.00    -0.589 Cl 
ENDBRANCH  12  13
ENDBRANCH  10  12
ENDBRANCH   6  10
TORSDOF 3
ENDMDL
MODEL       64
REMARK 921   NORMALIZED FREE ENERGY PREDICTED BY IDOCK:   -4.53 KCAL/MOL
REMARK 922        TOTAL FREE ENERGY PREDICTED BY IDOCK:   -5.61 KCAL/MOL
REMARK 923 INTER-LIGAND FREE ENERGY PREDICTED BY IDOCK:   -5.46 KCAL/MOL
REMARK 924 INTRA-LIGAND FREE ENERGY PREDICTED BY IDOCK:   -0.15 KCAL/MOL
REMARK 927      BINDING AFFINITY PREDICTED BY RF-SCORE:    0.00 PKD
ROOT
HETATM    1  N   UNL     1     -12.977  15.061  70.548  1.00  0.00    -0.579 NA 
HETATM    2  H2  UNL     1     -13.332  16.017  70.533  1.00  0.00     0.000 HD 
HETATM    3  C   UNL     1     -12.270  14.493  69.547  1.00  0.00    -0.265 C  
HETATM    4  H1  UNL     1     -13.110  14.409  71.322  1.00  0.00     0.000 HD 
HETATM    5  N   UNL     1     -12.094  15.359  68.519  1.00  0.00    -0.556 NA 
HETATM    6  N   UNL     1     -11.816  13.280  69.593  1.00  0.00    -0.317 NA 
HETATM    7  H1  UNL     1     -11.561  14.930  67.763  1.00  0.00     0.000 HD 
HETATM    8  H2  UNL     1     -12.450  16.315  68.504  1.00  0.00     0.000 HD 
HETATM    9  H   UNL     1     -12.004  12.627  70.354  1.00  0.00     0.000 HD 
ENDROOT
BRANCH   6  10
HETATM   10  N   UNL     1     -11.038  12.976  68.471  1.00  0.00    -0.253 NA 
HETATM   11  H   UNL     1     -10.111  13.362  68.289  1.00  0.00     0.000 HD 
BRANCH  10  12
HETATM   12  C   UNL     1     -11.651  12.140  67.696  1.00  0.00    -0.343 C  
BRANCH  12  13
HETATM   13  C   UNL     1     -11.260  11.920  66.287  1.00  0.00    -0.392 A  
HETATM   14  C   UNL     1     -10.345  10.922  65.908  1.00  0.00    -0.250 A  
HETATM   15  C   UNL     1     -10.058  10.707  64.552  1.00  0.00    -0.421 A  
HETATM   16 CL   UNL     1      -9.558   9.852  67.018  1.00  0.00    -0.205 Cl 
HETATM   17  C   UNL     1     -10.674  11.471  63.566  1.00  0.00    -0.483 A  
HETATM   18  C   UNL     1     -11.575  12.467  63.932  1.00  0.00    -0.516 A  
HETATM   19  C   UNL     1     -11.869  12.694  65.283  1.00  0.00    -0.408 A  
HETATM   20 CL   UNL     1     -12.979  13.978  65.626  1.00  0.00    -0.471 Cl 
ENDBRANCH  12  13
ENDBRANCH  10  12
ENDBRANCH   6  10
TORSDOF 3
ENDMDL
MODEL       65
REMARK 921   NORMALIZED FREE ENERGY PREDICTED BY IDOCK:   -4.51 KCAL/MOL
REMARK 922        TOTAL FREE ENERGY PREDICTED BY IDOCK:   -5.59 KCAL/MOL
REMARK 923 INTER-LIGAND FREE ENERGY PREDICTED BY IDOCK:   -5.29 KCAL/MOL
REMARK 924 INTRA-LIGAND FREE ENERGY PREDICTED BY IDOCK:   -0.30 KCAL/MOL
REMARK 927      BINDING AFFINITY PREDICTED BY RF-SCORE:    0.00 PKD
ROOT
HETATM    1  N   UNL     1     -11.803  15.967  70.357  1.00  0.00    -0.412 NA 
HETATM    2  H2  UNL     1     -11.278  16.702  70.831  1.00  0.00     0.000 HD 
HETATM    3  C   UNL     1     -11.656  15.642  69.053  1.00  0.00    -0.386 C  
HETATM    4  H1  UNL     1     -12.508  15.382  70.805  1.00  0.00     0.000 HD 
HETATM    5  N   UNL     1     -10.718  16.420  68.458  1.00  0.00    -0.302 NA 
HETATM    6  N   UNL     1     -12.324  14.695  68.474  1.00  0.00    -0.591 NA 
HETATM    7  H1  UNL     1     -10.608  16.176  67.474  1.00  0.00     0.000 HD 
HETATM    8  H2  UNL     1     -10.194  17.155  68.932  1.00  0.00     0.000 HD 
HETATM    9  H   UNL     1     -13.061  14.156  68.927  1.00  0.00     0.000 HD 
ENDROOT
BRANCH   6  10
HETATM   10  N   UNL     1     -11.909  14.504  67.152  1.00  0.00    -0.402 NA 
HETATM   11  H   UNL     1     -11.311  15.147  66.634  1.00  0.00     0.000 HD 
BRANCH  10  12
HETATM   12  C   UNL     1     -12.387  13.399  66.674  1.00  0.00    -0.266 C  
BRANCH  12  13
HETATM   13  C   UNL     1     -11.529  12.267  66.263  1.00  0.00    -0.435 A  
HETATM   14  C   UNL     1     -11.068  11.303  67.178  1.00  0.00    -0.301 A  
HETATM   15  C   UNL     1     -10.314  10.209  66.729  1.00  0.00    -0.285 A  
HETATM   16 CL   UNL     1     -11.423  11.322  68.872  1.00  0.00    -0.326 Cl 
HETATM   17  C   UNL     1     -10.014  10.060  65.379  1.00  0.00    -0.364 A  
HETATM   18  C   UNL     1     -10.458  11.013  64.467  1.00  0.00    -0.411 A  
HETATM   19  C   UNL     1     -11.212  12.112  64.903  1.00  0.00    -0.323 A  
HETATM   20 CL   UNL     1     -11.685  13.253  63.689  1.00  0.00    -0.481 Cl 
ENDBRANCH  12  13
ENDBRANCH  10  12
ENDBRANCH   6  10
TORSDOF 3
ENDMDL
MODEL       66
REMARK 921   NORMALIZED FREE ENERGY PREDICTED BY IDOCK:   -4.51 KCAL/MOL
REMARK 922        TOTAL FREE ENERGY PREDICTED BY IDOCK:   -5.58 KCAL/MOL
REMARK 923 INTER-LIGAND FREE ENERGY PREDICTED BY IDOCK:   -5.28 KCAL/MOL
REMARK 924 INTRA-LIGAND FREE ENERGY PREDICTED BY IDOCK:   -0.30 KCAL/MOL
REMARK 927      BINDING AFFINITY PREDICTED BY RF-SCORE:    0.00 PKD
ROOT
HETATM    1  N   UNL     1      -9.203  18.126  67.695  1.00  0.00    -0.258 NA 
HETATM    2  H2  UNL     1      -8.885  19.087  67.573  1.00  0.00     0.000 HD 
HETATM    3  C   UNL     1     -10.011  17.709  68.695  1.00  0.00    -0.367 C  
HETATM    4  H1  UNL     1      -8.952  17.353  67.078  1.00  0.00     0.000 HD 
HETATM    5  N   UNL     1     -10.343  18.736  69.516  1.00  0.00    -0.230 NA 
HETATM    6  N   UNL     1     -10.413  16.485  68.824  1.00  0.00    -0.287 NA 
HETATM    7  H1  UNL     1     -10.952  18.422  70.271  1.00  0.00     0.000 HD 
HETATM    8  H2  UNL     1     -10.025  19.697  69.393  1.00  0.00     0.000 HD 
HETATM    9  H   UNL     1     -10.110  15.716  68.226  1.00  0.00     0.000 HD 
ENDROOT
BRANCH   6  10
HETATM   10  N   UNL     1     -11.316  16.346  69.884  1.00  0.00    -0.376 NA 
HETATM   11  H   UNL     1     -11.246  16.842  70.772  1.00  0.00     0.000 HD 
BRANCH  10  12
HETATM   12  C   UNL     1     -12.252  15.503  69.585  1.00  0.00    -0.270 C  
BRANCH  12  13
HETATM   13  C   UNL     1     -12.488  14.262  70.355  1.00  0.00    -0.426 A  
HETATM   14  C   UNL     1     -13.263  14.241  71.528  1.00  0.00    -0.348 A  
HETATM   15  C   UNL     1     -13.515  13.028  72.185  1.00  0.00    -0.638 A  
HETATM   16 CL   UNL     1     -14.016  15.637  72.221  1.00  0.00    -0.605 Cl 
HETATM   17  C   UNL     1     -13.006  11.832  71.687  1.00  0.00    -0.467 A  
HETATM   18  C   UNL     1     -12.230  11.844  70.532  1.00  0.00    -0.426 A  
HETATM   19  C   UNL     1     -11.970  13.050  69.866  1.00  0.00    -0.311 A  
HETATM   20 CL   UNL     1     -10.968  12.953  68.458  1.00  0.00    -0.272 Cl 
ENDBRANCH  12  13
ENDBRANCH  10  12
ENDBRANCH   6  10
TORSDOF 3
ENDMDL
MODEL       67
REMARK 921   NORMALIZED FREE ENERGY PREDICTED BY IDOCK:   -4.50 KCAL/MOL
REMARK 922        TOTAL FREE ENERGY PREDICTED BY IDOCK:   -5.57 KCAL/MOL
REMARK 923 INTER-LIGAND FREE ENERGY PREDICTED BY IDOCK:   -5.32 KCAL/MOL
REMARK 924 INTRA-LIGAND FREE ENERGY PREDICTED BY IDOCK:   -0.25 KCAL/MOL
REMARK 927      BINDING AFFINITY PREDICTED BY RF-SCORE:    0.00 PKD
ROOT
HETATM    1  N   UNL     1     -13.856  13.371  72.512  1.00  0.00    -0.738 NA 
HETATM    2  H2  UNL     1     -14.545  13.026  73.180  1.00  0.00     0.000 HD 
HETATM    3  C   UNL     1     -13.115  12.583  71.702  1.00  0.00    -0.315 C  
HETATM    4  H1  UNL     1     -13.636  14.357  72.369  1.00  0.00     0.000 HD 
HETATM    5  N   UNL     1     -13.407  11.272  71.894  1.00  0.00    -0.410 NA 
HETATM    6  N   UNL     1     -12.255  13.044  70.851  1.00  0.00    -0.456 NA 
HETATM    7  H1  UNL     1     -12.847  10.677  71.283  1.00  0.00     0.000 HD 
HETATM    8  H2  UNL     1     -14.096  10.927  72.562  1.00  0.00     0.000 HD 
HETATM    9  H   UNL     1     -12.012  14.029  70.759  1.00  0.00     0.000 HD 
ENDROOT
BRANCH   6  10
HETATM   10  N   UNL     1     -11.699  12.022  70.073  1.00  0.00    -0.477 NA 
HETATM   11  H   UNL     1     -11.880  11.028  70.208  1.00  0.00     0.000 HD 
BRANCH  10  12
HETATM   12  C   UNL     1     -10.923  12.509  69.157  1.00  0.00    -0.144 C  
BRANCH  12  13
HETATM   13  C   UNL     1     -11.344  12.659  67.747  1.00  0.00    -0.349 A  
HETATM   14  C   UNL     1     -11.268  11.601  66.824  1.00  0.00    -0.308 A  
HETATM   15  C   UNL     1     -11.744  11.772  65.515  1.00  0.00    -0.105 A  
HETATM   16 CL   UNL     1     -10.668  10.022  67.202  1.00  0.00    -0.302 Cl 
HETATM   17  C   UNL     1     -12.299  12.983  65.115  1.00  0.00    -0.536 A  
HETATM   18  C   UNL     1     -12.371  14.038  66.019  1.00  0.00    -0.504 A  
HETATM   19  C   UNL     1     -11.898  13.882  67.329  1.00  0.00    -0.407 A  
HETATM   20 CL   UNL     1     -12.007  15.268  68.360  1.00  0.00    -0.272 Cl 
ENDBRANCH  12  13
ENDBRANCH  10  12
ENDBRANCH   6  10
TORSDOF 3
ENDMDL
MODEL       68
REMARK 921   NORMALIZED FREE ENERGY PREDICTED BY IDOCK:   -4.49 KCAL/MOL
REMARK 922        TOTAL FREE ENERGY PREDICTED BY IDOCK:   -5.56 KCAL/MOL
REMARK 923 INTER-LIGAND FREE ENERGY PREDICTED BY IDOCK:   -5.24 KCAL/MOL
REMARK 924 INTRA-LIGAND FREE ENERGY PREDICTED BY IDOCK:   -0.32 KCAL/MOL
REMARK 927      BINDING AFFINITY PREDICTED BY RF-SCORE:    0.00 PKD
ROOT
HETATM    1  N   UNL     1     -12.596  13.745  62.963  1.00  0.00    -0.905 NA 
HETATM    2  H2  UNL     1     -13.432  13.446  62.462  1.00  0.00     0.000 HD 
HETATM    3  C   UNL     1     -11.659  12.905  63.454  1.00  0.00    -0.403 C  
HETATM    4  H1  UNL     1     -12.359  14.718  63.159  1.00  0.00     0.000 HD 
HETATM    5  N   UNL     1     -11.975  11.613  63.194  1.00  0.00    -0.926 NA 
HETATM    6  N   UNL     1     -10.596  13.308  64.077  1.00  0.00    -0.525 NA 
HETATM    7  H1  UNL     1     -11.267  10.979  63.566  1.00  0.00     0.000 HD 
HETATM    8  H2  UNL     1     -12.811  11.314  62.693  1.00  0.00     0.000 HD 
HETATM    9  H   UNL     1     -10.402  14.282  64.308  1.00  0.00     0.000 HD 
ENDROOT
BRANCH   6  10
HETATM   10  N   UNL     1      -9.747  12.242  64.393  1.00  0.00    -0.508 NA 
HETATM   11  H   UNL     1      -9.422  11.543  63.724  1.00  0.00     0.000 HD 
BRANCH  10  12
HETATM   12  C   UNL     1      -9.428  12.262  65.648  1.00  0.00    -0.068 C  
BRANCH  12  13
HETATM   13  C   UNL     1     -10.031  11.346  66.641  1.00  0.00    -0.239 A  
HETATM   14  C   UNL     1      -9.478  10.087  66.935  1.00  0.00    -0.166 A  
HETATM   15  C   UNL     1     -10.047   9.283  67.934  1.00  0.00    -0.246 A  
HETATM   16 CL   UNL     1      -8.059   9.447  66.177  1.00  0.00    -0.110 Cl 
HETATM   17  C   UNL     1     -11.158   9.720  68.648  1.00  0.00    -0.140 A  
HETATM   18  C   UNL     1     -11.717  10.961  68.359  1.00  0.00    -0.290 A  
HETATM   19  C   UNL     1     -11.160  11.773  67.361  1.00  0.00    -0.282 A  
HETATM   20 CL   UNL     1     -11.954  13.282  67.062  1.00  0.00    -0.431 Cl 
ENDBRANCH  12  13
ENDBRANCH  10  12
ENDBRANCH   6  10
TORSDOF 3
ENDMDL
MODEL       69
REMARK 921   NORMALIZED FREE ENERGY PREDICTED BY IDOCK:   -4.47 KCAL/MOL
REMARK 922        TOTAL FREE ENERGY PREDICTED BY IDOCK:   -5.54 KCAL/MOL
REMARK 923 INTER-LIGAND FREE ENERGY PREDICTED BY IDOCK:   -5.40 KCAL/MOL
REMARK 924 INTRA-LIGAND FREE ENERGY PREDICTED BY IDOCK:   -0.14 KCAL/MOL
REMARK 927      BINDING AFFINITY PREDICTED BY RF-SCORE:    0.00 PKD
ROOT
HETATM    1  N   UNL     1      -8.989  11.867  65.831  1.00  0.00    -0.398 NA 
HETATM    2  H2  UNL     1      -8.665  12.390  65.017  1.00  0.00     0.000 HD 
HETATM    3  C   UNL     1      -9.384  12.431  66.994  1.00  0.00    -0.204 C  
HETATM    4  H1  UNL     1      -9.058  10.850  65.872  1.00  0.00     0.000 HD 
HETATM    5  N   UNL     1      -9.293  13.783  66.938  1.00  0.00    -0.253 NA 
HETATM    6  N   UNL     1      -9.806  11.748  68.010  1.00  0.00    -0.178 NA 
HETATM    7  H1  UNL     1      -9.590  14.208  67.816  1.00  0.00     0.000 HD 
HETATM    8  H2  UNL     1      -8.968  14.305  66.125  1.00  0.00     0.000 HD 
HETATM    9  H   UNL     1      -9.818  10.729  68.050  1.00  0.00     0.000 HD 
ENDROOT
BRANCH   6  10
HETATM   10  N   UNL     1     -10.243  12.580  69.047  1.00  0.00    -0.426 NA 
HETATM   11  H   UNL     1      -9.626  13.099  69.671  1.00  0.00     0.000 HD 
BRANCH  10  12
HETATM   12  C   UNL     1     -11.536  12.602  69.107  1.00  0.00    -0.320 C  
BRANCH  12  13
HETATM   13  C   UNL     1     -12.276  13.278  70.195  1.00  0.00    -0.376 A  
HETATM   14  C   UNL     1     -12.810  12.575  71.290  1.00  0.00    -0.241 A  
HETATM   15  C   UNL     1     -13.443  13.269  72.331  1.00  0.00    -0.670 A  
HETATM   16 CL   UNL     1     -12.689  10.861  71.498  1.00  0.00    -0.532 Cl 
HETATM   17  C   UNL     1     -13.549  14.656  72.298  1.00  0.00    -0.536 A  
HETATM   18  C   UNL     1     -13.032  15.359  71.214  1.00  0.00    -0.541 A  
HETATM   19  C   UNL     1     -12.398  14.678  70.166  1.00  0.00    -0.336 A  
HETATM   20 CL   UNL     1     -11.820  15.648  68.854  1.00  0.00    -0.390 Cl 
ENDBRANCH  12  13
ENDBRANCH  10  12
ENDBRANCH   6  10
TORSDOF 3
ENDMDL
MODEL       70
REMARK 921   NORMALIZED FREE ENERGY PREDICTED BY IDOCK:   -4.47 KCAL/MOL
REMARK 922        TOTAL FREE ENERGY PREDICTED BY IDOCK:   -5.54 KCAL/MOL
REMARK 923 INTER-LIGAND FREE ENERGY PREDICTED BY IDOCK:   -5.28 KCAL/MOL
REMARK 924 INTRA-LIGAND FREE ENERGY PREDICTED BY IDOCK:   -0.26 KCAL/MOL
REMARK 927      BINDING AFFINITY PREDICTED BY RF-SCORE:    0.00 PKD
ROOT
HETATM    1  N   UNL     1     -10.526  19.794  66.960  1.00  0.00    -0.459 NA 
HETATM    2  H2  UNL     1     -10.352  20.757  67.246  1.00  0.00     0.000 HD 
HETATM    3  C   UNL     1     -10.467  18.728  67.788  1.00  0.00    -0.420 C  
HETATM    4  H1  UNL     1     -10.766  19.510  66.010  1.00  0.00     0.000 HD 
HETATM    5  N   UNL     1     -10.147  19.106  69.050  1.00  0.00    -0.555 NA 
HETATM    6  N   UNL     1     -10.705  17.514  67.406  1.00  0.00    -0.301 NA 
HETATM    7  H1  UNL     1     -10.102  18.302  69.675  1.00  0.00     0.000 HD 
HETATM    8  H2  UNL     1      -9.973  20.069  69.337  1.00  0.00     0.000 HD 
HETATM    9  H   UNL     1     -10.894  17.244  66.441  1.00  0.00     0.000 HD 
ENDROOT
BRANCH   6  10
HETATM   10  N   UNL     1     -10.672  16.618  68.479  1.00  0.00    -0.334 NA 
HETATM   11  H   UNL     1      -9.884  16.508  69.117  1.00  0.00     0.000 HD 
BRANCH  10  12
HETATM   12  C   UNL     1     -11.777  15.946  68.554  1.00  0.00    -0.292 C  
BRANCH  12  13
HETATM   13  C   UNL     1     -11.823  14.524  68.959  1.00  0.00    -0.354 A  
HETATM   14  C   UNL     1     -12.083  14.128  70.283  1.00  0.00    -0.342 A  
HETATM   15  C   UNL     1     -12.185  12.766  70.604  1.00  0.00    -0.374 A  
HETATM   16 CL   UNL     1     -12.360  15.227  71.590  1.00  0.00    -0.390 Cl 
HETATM   17  C   UNL     1     -12.035  11.792  69.621  1.00  0.00    -0.378 A  
HETATM   18  C   UNL     1     -11.769  12.174  68.310  1.00  0.00    -0.401 A  
HETATM   19  C   UNL     1     -11.663  13.532  67.976  1.00  0.00    -0.359 A  
HETATM   20 CL   UNL     1     -11.299  13.893  66.322  1.00  0.00    -0.318 Cl 
ENDBRANCH  12  13
ENDBRANCH  10  12
ENDBRANCH   6  10
TORSDOF 3
ENDMDL
MODEL       71
REMARK 921   NORMALIZED FREE ENERGY PREDICTED BY IDOCK:   -4.46 KCAL/MOL
REMARK 922        TOTAL FREE ENERGY PREDICTED BY IDOCK:   -5.52 KCAL/MOL
REMARK 923 INTER-LIGAND FREE ENERGY PREDICTED BY IDOCK:   -5.28 KCAL/MOL
REMARK 924 INTRA-LIGAND FREE ENERGY PREDICTED BY IDOCK:   -0.25 KCAL/MOL
REMARK 927      BINDING AFFINITY PREDICTED BY RF-SCORE:    0.00 PKD
ROOT
HETATM    1  N   UNL     1     -11.413   7.503  70.113  1.00  0.00    -0.471 NA 
HETATM    2  H2  UNL     1     -11.363   6.701  70.740  1.00  0.00     0.000 HD 
HETATM    3  C   UNL     1     -11.371   8.792  70.516  1.00  0.00    -0.227 C  
HETATM    4  H1  UNL     1     -11.501   7.437  69.099  1.00  0.00     0.000 HD 
HETATM    5  N   UNL     1     -11.254   8.880  71.865  1.00  0.00    -0.361 NA 
HETATM    6  N   UNL     1     -11.423   9.797  69.701  1.00  0.00    -0.433 NA 
HETATM    7  H1  UNL     1     -11.224   9.852  72.169  1.00  0.00     0.000 HD 
HETATM    8  H2  UNL     1     -11.205   8.077  72.492  1.00  0.00     0.000 HD 
HETATM    9  H   UNL     1     -11.563   9.711  68.694  1.00  0.00     0.000 HD 
ENDROOT
BRANCH   6  10
HETATM   10  N   UNL     1     -11.262  11.015  70.370  1.00  0.00    -0.462 NA 
HETATM   11  H   UNL     1     -10.566  11.190  71.094  1.00  0.00     0.000 HD 
BRANCH  10  12
HETATM   12  C   UNL     1     -12.117  11.891  69.946  1.00  0.00    -0.272 C  
BRANCH  12  13
HETATM   13  C   UNL     1     -12.009  13.332  70.259  1.00  0.00    -0.372 A  
HETATM   14  C   UNL     1     -12.626  13.904  71.387  1.00  0.00    -0.361 A  
HETATM   15  C   UNL     1     -12.438  15.263  71.680  1.00  0.00    -0.433 A  
HETATM   16 CL   UNL     1     -13.586  13.020  72.523  1.00  0.00    -0.643 Cl 
HETATM   17  C   UNL     1     -11.639  16.060  70.865  1.00  0.00    -0.453 A  
HETATM   18  C   UNL     1     -11.032  15.505  69.743  1.00  0.00    -0.299 A  
HETATM   19  C   UNL     1     -11.213  14.149  69.438  1.00  0.00    -0.255 A  
HETATM   20 CL   UNL     1     -10.438  13.571  68.002  1.00  0.00    -0.236 Cl 
ENDBRANCH  12  13
ENDBRANCH  10  12
ENDBRANCH   6  10
TORSDOF 3
ENDMDL
MODEL       72
REMARK 921   NORMALIZED FREE ENERGY PREDICTED BY IDOCK:   -4.46 KCAL/MOL
REMARK 922        TOTAL FREE ENERGY PREDICTED BY IDOCK:   -5.52 KCAL/MOL
REMARK 923 INTER-LIGAND FREE ENERGY PREDICTED BY IDOCK:   -5.57 KCAL/MOL
REMARK 924 INTRA-LIGAND FREE ENERGY PREDICTED BY IDOCK:    0.05 KCAL/MOL
REMARK 927      BINDING AFFINITY PREDICTED BY RF-SCORE:    0.00 PKD
ROOT
HETATM    1  N   UNL     1     -10.645  16.564  67.068  1.00  0.00    -0.292 NA 
HETATM    2  H2  UNL     1     -10.028  17.372  66.996  1.00  0.00     0.000 HD 
HETATM    3  C   UNL     1     -11.233  16.151  68.213  1.00  0.00    -0.343 C  
HETATM    4  H1  UNL     1     -10.900  15.962  66.285  1.00  0.00     0.000 HD 
HETATM    5  N   UNL     1     -10.894  16.951  69.254  1.00  0.00    -0.325 NA 
HETATM    6  N   UNL     1     -12.025  15.128  68.279  1.00  0.00    -0.541 NA 
HETATM    7  H1  UNL     1     -11.337  16.639  70.118  1.00  0.00     0.000 HD 
HETATM    8  H2  UNL     1     -10.276  17.759  69.182  1.00  0.00     0.000 HD 
HETATM    9  H   UNL     1     -12.226  14.508  67.495  1.00  0.00     0.000 HD 
ENDROOT
BRANCH   6  10
HETATM   10  N   UNL     1     -12.571  14.979  69.558  1.00  0.00    -0.595 NA 
HETATM   11  H   UNL     1     -13.440  15.413  69.871  1.00  0.00     0.000 HD 
BRANCH  10  12
HETATM   12  C   UNL     1     -11.826  14.215  70.292  1.00  0.00    -0.303 C  
BRANCH  12  13
HETATM   13  C   UNL     1     -12.074  12.766  70.448  1.00  0.00    -0.382 A  
HETATM   14  C   UNL     1     -11.445  11.804  69.637  1.00  0.00    -0.270 A  
HETATM   15  C   UNL     1     -11.660  10.438  69.868  1.00  0.00    -0.358 A  
HETATM   16 CL   UNL     1     -10.335  12.182  68.364  1.00  0.00    -0.227 Cl 
HETATM   17  C   UNL     1     -12.491  10.015  70.901  1.00  0.00    -0.431 A  
HETATM   18  C   UNL     1     -13.124  10.959  71.704  1.00  0.00    -0.538 A  
HETATM   19  C   UNL     1     -12.919  12.328  71.483  1.00  0.00    -0.289 A  
HETATM   20 CL   UNL     1     -13.780  13.414  72.519  1.00  0.00    -0.677 Cl 
ENDBRANCH  12  13
ENDBRANCH  10  12
ENDBRANCH   6  10
TORSDOF 3
ENDMDL
MODEL       73
REMARK 921   NORMALIZED FREE ENERGY PREDICTED BY IDOCK:   -4.45 KCAL/MOL
REMARK 922        TOTAL FREE ENERGY PREDICTED BY IDOCK:   -5.51 KCAL/MOL
REMARK 923 INTER-LIGAND FREE ENERGY PREDICTED BY IDOCK:   -5.26 KCAL/MOL
REMARK 924 INTRA-LIGAND FREE ENERGY PREDICTED BY IDOCK:   -0.25 KCAL/MOL
REMARK 927      BINDING AFFINITY PREDICTED BY RF-SCORE:    0.00 PKD
ROOT
HETATM    1  N   UNL     1      -9.575   6.444  66.138  1.00  0.00    -0.367 NA 
HETATM    2  H2  UNL     1      -9.755   5.454  65.976  1.00  0.00     0.000 HD 
HETATM    3  C   UNL     1     -10.414   7.275  66.795  1.00  0.00    -0.241 C  
HETATM    4  H1  UNL     1      -8.739   6.937  65.825  1.00  0.00     0.000 HD 
HETATM    5  N   UNL     1     -11.526   6.620  67.211  1.00  0.00    -0.749 NA 
HETATM    6  N   UNL     1     -10.160   8.529  67.001  1.00  0.00    -0.249 NA 
HETATM    7  H1  UNL     1     -12.160   7.247  67.706  1.00  0.00     0.000 HD 
HETATM    8  H2  UNL     1     -11.705   5.629  67.049  1.00  0.00     0.000 HD 
HETATM    9  H   UNL     1      -9.342   9.015  66.635  1.00  0.00     0.000 HD 
ENDROOT
BRANCH   6  10
HETATM   10  N   UNL     1     -11.146   9.134  67.788  1.00  0.00    -0.474 NA 
HETATM   11  H   UNL     1     -12.147   9.085  67.600  1.00  0.00     0.000 HD 
BRANCH  10  12
HETATM   12  C   UNL     1     -10.616   9.764  68.788  1.00  0.00    -0.219 C  
BRANCH  12  13
HETATM   13  C   UNL     1     -11.421  10.356  69.879  1.00  0.00    -0.368 A  
HETATM   14  C   UNL     1     -11.815  11.706  69.875  1.00  0.00    -0.358 A  
HETATM   15  C   UNL     1     -12.636  12.204  70.898  1.00  0.00    -0.340 A  
HETATM   16 CL   UNL     1     -11.404  12.835  68.629  1.00  0.00    -0.307 Cl 
HETATM   17  C   UNL     1     -13.074  11.372  71.923  1.00  0.00    -0.505 A  
HETATM   18  C   UNL     1     -12.683  10.037  71.940  1.00  0.00    -0.493 A  
HETATM   19  C   UNL     1     -11.861   9.527  70.925  1.00  0.00    -0.309 A  
HETATM   20 CL   UNL     1     -11.410   7.861  71.061  1.00  0.00    -0.279 Cl 
ENDBRANCH  12  13
ENDBRANCH  10  12
ENDBRANCH   6  10
TORSDOF 3
ENDMDL
MODEL       74
REMARK 921   NORMALIZED FREE ENERGY PREDICTED BY IDOCK:   -4.44 KCAL/MOL
REMARK 922        TOTAL FREE ENERGY PREDICTED BY IDOCK:   -5.50 KCAL/MOL
REMARK 923 INTER-LIGAND FREE ENERGY PREDICTED BY IDOCK:   -5.29 KCAL/MOL
REMARK 924 INTRA-LIGAND FREE ENERGY PREDICTED BY IDOCK:   -0.21 KCAL/MOL
REMARK 927      BINDING AFFINITY PREDICTED BY RF-SCORE:    0.00 PKD
ROOT
HETATM    1  N   UNL     1     -11.044  14.360  64.399  1.00  0.00    -0.614 NA 
HETATM    2  H2  UNL     1     -11.270  14.228  63.413  1.00  0.00     0.000 HD 
HETATM    3  C   UNL     1     -11.700  13.764  65.419  1.00  0.00    -0.335 C  
HETATM    4  H1  UNL     1     -10.294  14.959  64.743  1.00  0.00     0.000 HD 
HETATM    5  N   UNL     1     -12.697  12.967  64.961  1.00  0.00    -0.724 NA 
HETATM    6  N   UNL     1     -11.387  13.935  66.665  1.00  0.00    -0.320 NA 
HETATM    7  H1  UNL     1     -13.192  12.518  65.732  1.00  0.00     0.000 HD 
HETATM    8  H2  UNL     1     -12.922  12.835  63.976  1.00  0.00     0.000 HD 
HETATM    9  H   UNL     1     -10.667  14.579  66.991  1.00  0.00     0.000 HD 
ENDROOT
BRANCH   6  10
HETATM   10  N   UNL     1     -12.159  13.128  67.507  1.00  0.00    -0.305 NA 
HETATM   11  H   UNL     1     -13.049  12.703  67.246  1.00  0.00     0.000 HD 
BRANCH  10  12
HETATM   12  C   UNL     1     -11.593  12.993  68.664  1.00  0.00    -0.318 C  
BRANCH  12  13
HETATM   13  C   UNL     1     -11.619  11.725  69.425  1.00  0.00    -0.386 A  
HETATM   14  C   UNL     1     -11.039  10.542  68.934  1.00  0.00    -0.261 A  
HETATM   15  C   UNL     1     -11.029   9.382  69.723  1.00  0.00    -0.234 A  
HETATM   16 CL   UNL     1     -10.250  10.410  67.399  1.00  0.00    -0.243 Cl 
HETATM   17  C   UNL     1     -11.586   9.387  70.998  1.00  0.00    -0.400 A  
HETATM   18  C   UNL     1     -12.170  10.550  71.489  1.00  0.00    -0.385 A  
HETATM   19  C   UNL     1     -12.188  11.716  70.711  1.00  0.00    -0.344 A  
HETATM   20 CL   UNL     1     -12.967  13.097  71.407  1.00  0.00    -0.424 Cl 
ENDBRANCH  12  13
ENDBRANCH  10  12
ENDBRANCH   6  10
TORSDOF 3
ENDMDL
MODEL       75
REMARK 921   NORMALIZED FREE ENERGY PREDICTED BY IDOCK:   -4.43 KCAL/MOL
REMARK 922        TOTAL FREE ENERGY PREDICTED BY IDOCK:   -5.50 KCAL/MOL
REMARK 923 INTER-LIGAND FREE ENERGY PREDICTED BY IDOCK:   -5.15 KCAL/MOL
REMARK 924 INTRA-LIGAND FREE ENERGY PREDICTED BY IDOCK:   -0.35 KCAL/MOL
REMARK 927      BINDING AFFINITY PREDICTED BY RF-SCORE:    0.00 PKD
ROOT
HETATM    1  N   UNL     1     -12.472  15.134  63.815  1.00  0.00    -1.007 NA 
HETATM    2  H2  UNL     1     -12.006  15.474  62.975  1.00  0.00     0.000 HD 
HETATM    3  C   UNL     1     -12.197  13.956  64.419  1.00  0.00    -0.413 C  
HETATM    4  H1  UNL     1     -13.209  15.638  64.310  1.00  0.00     0.000 HD 
HETATM    5  N   UNL     1     -11.219  13.286  63.761  1.00  0.00    -0.577 NA 
HETATM    6  N   UNL     1     -12.793  13.549  65.494  1.00  0.00    -0.591 NA 
HETATM    7  H1  UNL     1     -11.011  12.397  64.216  1.00  0.00     0.000 HD 
HETATM    8  H2  UNL     1     -10.752  13.627  62.921  1.00  0.00     0.000 HD 
HETATM    9  H   UNL     1     -13.563  14.044  65.945  1.00  0.00     0.000 HD 
ENDROOT
BRANCH   6  10
HETATM   10  N   UNL     1     -12.252  12.347  65.963  1.00  0.00    -0.624 NA 
HETATM   11  H   UNL     1     -12.186  11.490  65.415  1.00  0.00     0.000 HD 
BRANCH  10  12
HETATM   12  C   UNL     1     -11.845  12.470  67.186  1.00  0.00    -0.316 C  
BRANCH  12  13
HETATM   13  C   UNL     1     -10.419  12.384  67.568  1.00  0.00    -0.229 A  
HETATM   14  C   UNL     1      -9.637  13.526  67.815  1.00  0.00    -0.219 A  
HETATM   15  C   UNL     1      -8.307  13.391  68.242  1.00  0.00    -0.160 A  
HETATM   16 CL   UNL     1     -10.222  15.150  67.692  1.00  0.00    -0.239 Cl 
HETATM   17  C   UNL     1      -7.747  12.131  68.430  1.00  0.00    -0.134 A  
HETATM   18  C   UNL     1      -8.510  10.995  68.179  1.00  0.00    -0.135 A  
HETATM   19  C   UNL     1      -9.840  11.116  67.751  1.00  0.00    -0.171 A  
HETATM   20 CL   UNL     1     -10.687   9.639  67.439  1.00  0.00    -0.336 Cl 
ENDBRANCH  12  13
ENDBRANCH  10  12
ENDBRANCH   6  10
TORSDOF 3
ENDMDL
MODEL       76
REMARK 921   NORMALIZED FREE ENERGY PREDICTED BY IDOCK:   -4.43 KCAL/MOL
REMARK 922        TOTAL FREE ENERGY PREDICTED BY IDOCK:   -5.49 KCAL/MOL
REMARK 923 INTER-LIGAND FREE ENERGY PREDICTED BY IDOCK:   -5.29 KCAL/MOL
REMARK 924 INTRA-LIGAND FREE ENERGY PREDICTED BY IDOCK:   -0.20 KCAL/MOL
REMARK 927      BINDING AFFINITY PREDICTED BY RF-SCORE:    0.00 PKD
ROOT
HETATM    1  N   UNL     1     -13.393  15.529  70.570  1.00  0.00    -0.801 NA 
HETATM    2  H2  UNL     1     -13.521  16.022  71.453  1.00  0.00     0.000 HD 
HETATM    3  C   UNL     1     -12.438  14.601  70.343  1.00  0.00    -0.352 C  
HETATM    4  H1  UNL     1     -13.970  15.674  69.740  1.00  0.00     0.000 HD 
HETATM    5  N   UNL     1     -11.672  14.409  71.446  1.00  0.00    -0.473 NA 
HETATM    6  N   UNL     1     -12.302  13.977  69.216  1.00  0.00    -0.472 NA 
HETATM    7  H1  UNL     1     -10.950  13.708  71.275  1.00  0.00     0.000 HD 
HETATM    8  H2  UNL     1     -11.800  14.902  72.329  1.00  0.00     0.000 HD 
HETATM    9  H   UNL     1     -12.856  14.173  68.383  1.00  0.00     0.000 HD 
ENDROOT
BRANCH   6  10
HETATM   10  N   UNL     1     -11.302  13.001  69.283  1.00  0.00    -0.362 NA 
HETATM   11  H   UNL     1     -10.329  13.185  69.526  1.00  0.00     0.000 HD 
BRANCH  10  12
HETATM   12  C   UNL     1     -11.778  11.832  68.994  1.00  0.00    -0.328 C  
BRANCH  12  13
HETATM   13  C   UNL     1     -11.462  10.622  69.784  1.00  0.00    -0.375 A  
HETATM   14  C   UNL     1     -10.539   9.656  69.343  1.00  0.00    -0.225 A  
HETATM   15  C   UNL     1     -10.222   8.560  70.159  1.00  0.00    -0.202 A  
HETATM   16 CL   UNL     1      -9.680   9.746  67.843  1.00  0.00    -0.162 Cl 
HETATM   17  C   UNL     1     -10.810   8.415  71.411  1.00  0.00    -0.304 A  
HETATM   18  C   UNL     1     -11.731   9.360  71.852  1.00  0.00    -0.376 A  
HETATM   19  C   UNL     1     -12.058  10.459  71.046  1.00  0.00    -0.385 A  
HETATM   20 CL   UNL     1     -13.239  11.556  71.680  1.00  0.00    -0.472 Cl 
ENDBRANCH  12  13
ENDBRANCH  10  12
ENDBRANCH   6  10
TORSDOF 3
ENDMDL
MODEL       77
REMARK 921   NORMALIZED FREE ENERGY PREDICTED BY IDOCK:   -4.41 KCAL/MOL
REMARK 922        TOTAL FREE ENERGY PREDICTED BY IDOCK:   -5.47 KCAL/MOL
REMARK 923 INTER-LIGAND FREE ENERGY PREDICTED BY IDOCK:   -5.13 KCAL/MOL
REMARK 924 INTRA-LIGAND FREE ENERGY PREDICTED BY IDOCK:   -0.34 KCAL/MOL
REMARK 927      BINDING AFFINITY PREDICTED BY RF-SCORE:    0.00 PKD
ROOT
HETATM    1  N   UNL     1     -12.286   6.180  72.505  1.00  0.00    -0.546 NA 
HETATM    2  H2  UNL     1     -13.109   6.181  73.107  1.00  0.00     0.000 HD 
HETATM    3  C   UNL     1     -12.233   6.749  71.281  1.00  0.00    -0.364 C  
HETATM    4  H1  UNL     1     -11.394   5.747  72.749  1.00  0.00     0.000 HD 
HETATM    5  N   UNL     1     -13.419   7.323  70.957  1.00  0.00    -0.579 NA 
HETATM    6  N   UNL     1     -11.172   6.748  70.538  1.00  0.00    -0.298 NA 
HETATM    7  H1  UNL     1     -13.380   7.753  70.033  1.00  0.00     0.000 HD 
HETATM    8  H2  UNL     1     -14.242   7.324  71.560  1.00  0.00     0.000 HD 
HETATM    9  H   UNL     1     -10.306   6.266  70.778  1.00  0.00     0.000 HD 
ENDROOT
BRANCH   6  10
HETATM   10  N   UNL     1     -11.360   7.489  69.366  1.00  0.00    -0.441 NA 
HETATM   11  H   UNL     1     -12.063   7.282  68.657  1.00  0.00     0.000 HD 
BRANCH  10  12
HETATM   12  C   UNL     1     -10.521   8.473  69.303  1.00  0.00    -0.215 C  
BRANCH  12  13
HETATM   13  C   UNL     1     -10.907   9.826  68.847  1.00  0.00    -0.220 A  
HETATM   14  C   UNL     1     -10.718  10.255  67.521  1.00  0.00    -0.294 A  
HETATM   15  C   UNL     1     -11.164  11.523  67.120  1.00  0.00    -0.365 A  
HETATM   16 CL   UNL     1     -10.009   9.283  66.277  1.00  0.00    -0.357 Cl 
HETATM   17  C   UNL     1     -11.798  12.370  68.023  1.00  0.00    -0.376 A  
HETATM   18  C   UNL     1     -11.982  11.958  69.340  1.00  0.00    -0.350 A  
HETATM   19  C   UNL     1     -11.540  10.694  69.754  1.00  0.00    -0.309 A  
HETATM   20 CL   UNL     1     -11.791  10.297  71.420  1.00  0.00    -0.415 Cl 
ENDBRANCH  12  13
ENDBRANCH  10  12
ENDBRANCH   6  10
TORSDOF 3
ENDMDL
MODEL       78
REMARK 921   NORMALIZED FREE ENERGY PREDICTED BY IDOCK:   -4.34 KCAL/MOL
REMARK 922        TOTAL FREE ENERGY PREDICTED BY IDOCK:   -5.39 KCAL/MOL
REMARK 923 INTER-LIGAND FREE ENERGY PREDICTED BY IDOCK:   -5.11 KCAL/MOL
REMARK 924 INTRA-LIGAND FREE ENERGY PREDICTED BY IDOCK:   -0.27 KCAL/MOL
REMARK 927      BINDING AFFINITY PREDICTED BY RF-SCORE:    0.00 PKD
ROOT
HETATM    1  N   UNL     1     -12.302   6.282  72.524  1.00  0.00    -0.538 NA 
HETATM    2  H2  UNL     1     -13.165   6.154  73.052  1.00  0.00     0.000 HD 
HETATM    3  C   UNL     1     -12.229   6.874  71.312  1.00  0.00    -0.380 C  
HETATM    4  H1  UNL     1     -11.382   5.979  72.843  1.00  0.00     0.000 HD 
HETATM    5  N   UNL     1     -13.453   7.276  70.888  1.00  0.00    -0.564 NA 
HETATM    6  N   UNL     1     -11.119   7.038  70.664  1.00  0.00    -0.259 NA 
HETATM    7  H1  UNL     1     -13.397   7.722  69.973  1.00  0.00     0.000 HD 
HETATM    8  H2  UNL     1     -14.316   7.148  71.416  1.00  0.00     0.000 HD 
HETATM    9  H   UNL     1     -10.216   6.682  70.977  1.00  0.00     0.000 HD 
ENDROOT
BRANCH   6  10
HETATM   10  N   UNL     1     -11.311   7.763  69.484  1.00  0.00    -0.437 NA 
HETATM   11  H   UNL     1     -11.930   7.480  68.725  1.00  0.00     0.000 HD 
BRANCH  10  12
HETATM   12  C   UNL     1     -10.598   8.844  69.485  1.00  0.00    -0.228 C  
BRANCH  12  13
HETATM   13  C   UNL     1     -11.033  10.092  68.821  1.00  0.00    -0.242 A  
HETATM   14  C   UNL     1     -11.682  11.127  69.518  1.00  0.00    -0.335 A  
HETATM   15  C   UNL     1     -12.015  12.320  68.858  1.00  0.00    -0.300 A  
HETATM   16 CL   UNL     1     -12.064  11.073  71.205  1.00  0.00    -0.398 Cl 
HETATM   17  C   UNL     1     -11.706  12.497  67.513  1.00  0.00    -0.439 A  
HETATM   18  C   UNL     1     -11.072  11.475  66.813  1.00  0.00    -0.361 A  
HETATM   19  C   UNL     1     -10.735  10.277  67.459  1.00  0.00    -0.294 A  
HETATM   20 CL   UNL     1      -9.978   9.062  66.487  1.00  0.00    -0.339 Cl 
ENDBRANCH  12  13
ENDBRANCH  10  12
ENDBRANCH   6  10
TORSDOF 3
ENDMDL
MODEL       79
REMARK 921   NORMALIZED FREE ENERGY PREDICTED BY IDOCK:   -4.34 KCAL/MOL
REMARK 922        TOTAL FREE ENERGY PREDICTED BY IDOCK:   -5.39 KCAL/MOL
REMARK 923 INTER-LIGAND FREE ENERGY PREDICTED BY IDOCK:   -5.15 KCAL/MOL
REMARK 924 INTRA-LIGAND FREE ENERGY PREDICTED BY IDOCK:   -0.24 KCAL/MOL
REMARK 927      BINDING AFFINITY PREDICTED BY RF-SCORE:    0.00 PKD
ROOT
HETATM    1  N   UNL     1     -11.391   7.174  70.596  1.00  0.00    -0.282 NA 
HETATM    2  H2  UNL     1     -11.071   6.415  71.198  1.00  0.00     0.000 HD 
HETATM    3  C   UNL     1     -11.291   8.486  70.902  1.00  0.00    -0.268 C  
HETATM    4  H1  UNL     1     -11.829   7.041  69.684  1.00  0.00     0.000 HD 
HETATM    5  N   UNL     1     -10.709   8.663  72.114  1.00  0.00    -0.348 NA 
HETATM    6  N   UNL     1     -11.691   9.434  70.116  1.00  0.00    -0.462 NA 
HETATM    7  H1  UNL     1     -10.633   9.654  72.345  1.00  0.00     0.000 HD 
HETATM    8  H2  UNL     1     -10.389   7.904  72.715  1.00  0.00     0.000 HD 
HETATM    9  H   UNL     1     -12.174   9.279  69.231  1.00  0.00     0.000 HD 
ENDROOT
BRANCH   6  10
HETATM   10  N   UNL     1     -11.381  10.698  70.630  1.00  0.00    -0.409 NA 
HETATM   11  H   UNL     1     -10.510  10.931  71.106  1.00  0.00     0.000 HD 
BRANCH  10  12
HETATM   12  C   UNL     1     -12.349  11.533  70.419  1.00  0.00    -0.305 C  
BRANCH  12  13
HETATM   13  C   UNL     1     -12.121  12.956  70.090  1.00  0.00    -0.373 A  
HETATM   14  C   UNL     1     -11.553  13.364  68.870  1.00  0.00    -0.314 A  
HETATM   15  C   UNL     1     -11.420  14.729  68.576  1.00  0.00    -0.330 A  
HETATM   16 CL   UNL     1     -11.040  12.277  67.625  1.00  0.00    -0.295 Cl 
HETATM   17  C   UNL     1     -11.850  15.695  69.480  1.00  0.00    -0.387 A  
HETATM   18  C   UNL     1     -12.405  15.301  70.694  1.00  0.00    -0.427 A  
HETATM   19  C   UNL     1     -12.542  13.941  71.001  1.00  0.00    -0.371 A  
HETATM   20 CL   UNL     1     -13.217  13.564  72.550  1.00  0.00    -0.579 Cl 
ENDBRANCH  12  13
ENDBRANCH  10  12
ENDBRANCH   6  10
TORSDOF 3
ENDMDL
MODEL       80
REMARK 921   NORMALIZED FREE ENERGY PREDICTED BY IDOCK:   -4.31 KCAL/MOL
REMARK 922        TOTAL FREE ENERGY PREDICTED BY IDOCK:   -5.35 KCAL/MOL
REMARK 923 INTER-LIGAND FREE ENERGY PREDICTED BY IDOCK:   -4.96 KCAL/MOL
REMARK 924 INTRA-LIGAND FREE ENERGY PREDICTED BY IDOCK:   -0.39 KCAL/MOL
REMARK 927      BINDING AFFINITY PREDICTED BY RF-SCORE:    0.00 PKD
ROOT
HETATM    1  N   UNL     1     -11.959  13.199  70.568  1.00  0.00    -0.527 NA 
HETATM    2  H2  UNL     1     -11.687  12.728  71.430  1.00  0.00     0.000 HD 
HETATM    3  C   UNL     1     -11.742  14.508  70.311  1.00  0.00    -0.293 C  
HETATM    4  H1  UNL     1     -12.431  12.744  69.786  1.00  0.00     0.000 HD 
HETATM    5  N   UNL     1     -11.115  15.113  71.350  1.00  0.00    -0.551 NA 
HETATM    6  N   UNL     1     -12.083  15.084  69.202  1.00  0.00    -0.525 NA 
HETATM    7  H1  UNL     1     -10.952  16.101  71.157  1.00  0.00     0.000 HD 
HETATM    8  H2  UNL     1     -10.843  14.641  72.213  1.00  0.00     0.000 HD 
HETATM    9  H   UNL     1     -12.600  14.624  68.454  1.00  0.00     0.000 HD 
ENDROOT
BRANCH   6  10
HETATM   10  N   UNL     1     -11.656  16.415  69.158  1.00  0.00    -0.218 NA 
HETATM   11  H   UNL     1     -11.962  17.143  69.803  1.00  0.00     0.000 HD 
BRANCH  10  12
HETATM   12  C   UNL     1     -10.818  16.599  68.187  1.00  0.00    -0.348 C  
BRANCH  12  13
HETATM   13  C   UNL     1      -9.538  17.319  68.360  1.00  0.00    -0.285 A  
HETATM   14  C   UNL     1      -8.372  16.680  68.819  1.00  0.00    -0.252 A  
HETATM   15  C   UNL     1      -7.165  17.390  68.901  1.00  0.00    -0.250 A  
HETATM   16 CL   UNL     1      -8.287  15.006  69.250  1.00  0.00    -0.191 Cl 
HETATM   17  C   UNL     1      -7.103  18.729  68.527  1.00  0.00    -0.298 A  
HETATM   18  C   UNL     1      -8.253  19.372  68.080  1.00  0.00    -0.353 A  
HETATM   19  C   UNL     1      -9.466  18.675  67.995  1.00  0.00    -0.315 A  
HETATM   20 CL   UNL     1     -10.840  19.580  67.455  1.00  0.00    -0.557 Cl 
ENDBRANCH  12  13
ENDBRANCH  10  12
ENDBRANCH   6  10
TORSDOF 3
ENDMDL
MODEL       81
REMARK 921   NORMALIZED FREE ENERGY PREDICTED BY IDOCK:   -4.27 KCAL/MOL
REMARK 922        TOTAL FREE ENERGY PREDICTED BY IDOCK:   -5.31 KCAL/MOL
REMARK 923 INTER-LIGAND FREE ENERGY PREDICTED BY IDOCK:   -5.18 KCAL/MOL
REMARK 924 INTRA-LIGAND FREE ENERGY PREDICTED BY IDOCK:   -0.13 KCAL/MOL
REMARK 927      BINDING AFFINITY PREDICTED BY RF-SCORE:    0.00 PKD
ROOT
HETATM    1  N   UNL     1     -10.173   8.377  70.035  1.00  0.00    -0.197 NA 
HETATM    2  H2  UNL     1      -9.796   8.279  70.977  1.00  0.00     0.000 HD 
HETATM    3  C   UNL     1     -10.769   9.494  69.563  1.00  0.00    -0.228 C  
HETATM    4  H1  UNL     1     -10.149   7.644  69.325  1.00  0.00     0.000 HD 
HETATM    5  N   UNL     1     -10.801  10.468  70.506  1.00  0.00    -0.419 NA 
HETATM    6  N   UNL     1     -11.228   9.602  68.357  1.00  0.00    -0.502 NA 
HETATM    7  H1  UNL     1     -11.251  11.311  70.150  1.00  0.00     0.000 HD 
HETATM    8  H2  UNL     1     -10.424  10.369  71.449  1.00  0.00     0.000 HD 
HETATM    9  H   UNL     1     -11.241   8.841  67.678  1.00  0.00     0.000 HD 
ENDROOT
BRANCH   6  10
HETATM   10  N   UNL     1     -11.705  10.892  68.098  1.00  0.00    -0.665 NA 
HETATM   11  H   UNL     1     -12.600  11.254  68.424  1.00  0.00     0.000 HD 
BRANCH  10  12
HETATM   12  C   UNL     1     -10.855  11.565  67.388  1.00  0.00    -0.246 C  
BRANCH  12  13
HETATM   13  C   UNL     1     -11.027  11.792  65.937  1.00  0.00    -0.354 A  
HETATM   14  C   UNL     1     -11.799  12.852  65.429  1.00  0.00    -0.403 A  
HETATM   15  C   UNL     1     -11.875  13.067  64.045  1.00  0.00    -0.510 A  
HETATM   16 CL   UNL     1     -12.645  13.998  66.412  1.00  0.00    -0.402 Cl 
HETATM   17  C   UNL     1     -11.190  12.241  63.159  1.00  0.00    -0.236 A  
HETATM   18  C   UNL     1     -10.431  11.184  63.652  1.00  0.00    -0.438 A  
HETATM   19  C   UNL     1     -10.347  10.957  65.033  1.00  0.00    -0.288 A  
HETATM   20 CL   UNL     1      -9.402   9.596  65.535  1.00  0.00    -0.286 Cl 
ENDBRANCH  12  13
ENDBRANCH  10  12
ENDBRANCH   6  10
TORSDOF 3
ENDMDL
MODEL       82
REMARK 921   NORMALIZED FREE ENERGY PREDICTED BY IDOCK:   -4.27 KCAL/MOL
REMARK 922        TOTAL FREE ENERGY PREDICTED BY IDOCK:   -5.30 KCAL/MOL
REMARK 923 INTER-LIGAND FREE ENERGY PREDICTED BY IDOCK:   -4.90 KCAL/MOL
REMARK 924 INTRA-LIGAND FREE ENERGY PREDICTED BY IDOCK:   -0.40 KCAL/MOL
REMARK 927      BINDING AFFINITY PREDICTED BY RF-SCORE:    0.00 PKD
ROOT
HETATM    1  N   UNL     1      -9.651   9.374  66.117  1.00  0.00    -0.226 NA 
HETATM    2  H2  UNL     1      -9.339   8.526  65.645  1.00  0.00     0.000 HD 
HETATM    3  C   UNL     1     -10.595   9.407  67.083  1.00  0.00    -0.224 C  
HETATM    4  H1  UNL     1      -9.292  10.308  65.920  1.00  0.00     0.000 HD 
HETATM    5  N   UNL     1     -11.072   8.165  67.344  1.00  0.00    -0.389 NA 
HETATM    6  N   UNL     1     -10.967  10.495  67.679  1.00  0.00    -0.300 NA 
HETATM    7  H1  UNL     1     -11.785   8.191  68.073  1.00  0.00     0.000 HD 
HETATM    8  H2  UNL     1     -10.760   7.317  66.872  1.00  0.00     0.000 HD 
HETATM    9  H   UNL     1     -10.633  11.427  67.432  1.00  0.00     0.000 HD 
ENDROOT
BRANCH   6  10
HETATM   10  N   UNL     1     -11.884  10.236  68.703  1.00  0.00    -0.682 NA 
HETATM   11  H   UNL     1     -12.810   9.833  68.563  1.00  0.00     0.000 HD 
BRANCH  10  12
HETATM   12  C   UNL     1     -11.399  10.578  69.855  1.00  0.00    -0.309 C  
BRANCH  12  13
HETATM   13  C   UNL     1     -11.090   9.596  70.916  1.00  0.00    -0.422 A  
HETATM   14  C   UNL     1     -12.089   9.022  71.723  1.00  0.00    -0.368 A  
HETATM   15  C   UNL     1     -11.753   8.044  72.671  1.00  0.00    -0.418 A  
HETATM   16 CL   UNL     1     -13.775   9.392  71.594  1.00  0.00    -0.410 Cl 
HETATM   17  C   UNL     1     -10.435   7.627  72.823  1.00  0.00    -0.368 A  
HETATM   18  C   UNL     1      -9.438   8.195  72.036  1.00  0.00    -0.279 A  
HETATM   19  C   UNL     1      -9.760   9.175  71.086  1.00  0.00    -0.290 A  
HETATM   20 CL   UNL     1      -8.439   9.837  70.183  1.00  0.00    -0.219 Cl 
ENDBRANCH  12  13
ENDBRANCH  10  12
ENDBRANCH   6  10
TORSDOF 3
ENDMDL
MODEL       83
REMARK 921   NORMALIZED FREE ENERGY PREDICTED BY IDOCK:   -4.27 KCAL/MOL
REMARK 922        TOTAL FREE ENERGY PREDICTED BY IDOCK:   -5.30 KCAL/MOL
REMARK 923 INTER-LIGAND FREE ENERGY PREDICTED BY IDOCK:   -5.01 KCAL/MOL
REMARK 924 INTRA-LIGAND FREE ENERGY PREDICTED BY IDOCK:   -0.30 KCAL/MOL
REMARK 927      BINDING AFFINITY PREDICTED BY RF-SCORE:    0.00 PKD
ROOT
HETATM    1  N   UNL     1     -10.113  18.517  66.273  1.00  0.00    -0.407 NA 
HETATM    2  H2  UNL     1      -9.954  19.522  66.331  1.00  0.00     0.000 HD 
HETATM    3  C   UNL     1     -10.326  17.714  67.339  1.00  0.00    -0.360 C  
HETATM    4  H1  UNL     1     -10.132  17.986  65.402  1.00  0.00     0.000 HD 
HETATM    5  N   UNL     1     -10.300  18.419  68.497  1.00  0.00    -0.366 NA 
HETATM    6  N   UNL     1     -10.539  16.440  67.241  1.00  0.00    -0.313 NA 
HETATM    7  H1  UNL     1     -10.460  17.813  69.301  1.00  0.00     0.000 HD 
HETATM    8  H2  UNL     1     -10.141  19.425  68.555  1.00  0.00     0.000 HD 
HETATM    9  H   UNL     1     -10.503  15.919  66.365  1.00  0.00     0.000 HD 
ENDROOT
BRANCH   6  10
HETATM   10  N   UNL     1     -10.826  15.866  68.485  1.00  0.00    -0.282 NA 
HETATM   11  H   UNL     1     -10.269  16.005  69.328  1.00  0.00     0.000 HD 
BRANCH  10  12
HETATM   12  C   UNL     1     -11.893  15.135  68.421  1.00  0.00    -0.267 C  
BRANCH  12  13
HETATM   13  C   UNL     1     -11.886  13.683  68.705  1.00  0.00    -0.395 A  
HETATM   14  C   UNL     1     -11.709  12.720  67.695  1.00  0.00    -0.367 A  
HETATM   15  C   UNL     1     -11.642  11.358  68.024  1.00  0.00    -0.357 A  
HETATM   16 CL   UNL     1     -11.497  13.097  66.019  1.00  0.00    -0.350 Cl 
HETATM   17  C   UNL     1     -11.745  10.943  69.348  1.00  0.00    -0.397 A  
HETATM   18  C   UNL     1     -11.929  11.887  70.353  1.00  0.00    -0.400 A  
HETATM   19  C   UNL     1     -11.999  13.251  70.038  1.00  0.00    -0.329 A  
HETATM   20 CL   UNL     1     -12.261  14.336  71.361  1.00  0.00    -0.416 Cl 
ENDBRANCH  12  13
ENDBRANCH  10  12
ENDBRANCH   6  10
TORSDOF 3
ENDMDL
MODEL       84
REMARK 921   NORMALIZED FREE ENERGY PREDICTED BY IDOCK:   -4.26 KCAL/MOL
REMARK 922        TOTAL FREE ENERGY PREDICTED BY IDOCK:   -5.29 KCAL/MOL
REMARK 923 INTER-LIGAND FREE ENERGY PREDICTED BY IDOCK:   -5.05 KCAL/MOL
REMARK 924 INTRA-LIGAND FREE ENERGY PREDICTED BY IDOCK:   -0.25 KCAL/MOL
REMARK 927      BINDING AFFINITY PREDICTED BY RF-SCORE:    0.00 PKD
ROOT
HETATM    1  N   UNL     1      -8.306  18.541  65.849  1.00  0.00    -0.475 NA 
HETATM    2  H2  UNL     1      -8.235  18.525  64.832  1.00  0.00     0.000 HD 
HETATM    3  C   UNL     1      -9.355  18.059  66.550  1.00  0.00    -0.285 C  
HETATM    4  H1  UNL     1      -7.592  18.924  66.470  1.00  0.00     0.000 HD 
HETATM    5  N   UNL     1     -10.303  17.550  65.725  1.00  0.00    -0.603 NA 
HETATM    6  N   UNL     1      -9.417  18.078  67.844  1.00  0.00    -0.267 NA 
HETATM    7  H1  UNL     1     -11.095  17.187  66.255  1.00  0.00     0.000 HD 
HETATM    8  H2  UNL     1     -10.233  17.534  64.708  1.00  0.00     0.000 HD 
HETATM    9  H   UNL     1      -8.717  18.512  68.445  1.00  0.00     0.000 HD 
ENDROOT
BRANCH   6  10
HETATM   10  N   UNL     1     -10.563  17.429  68.316  1.00  0.00    -0.376 NA 
HETATM   11  H   UNL     1     -11.508  17.601  67.973  1.00  0.00     0.000 HD 
BRANCH  10  12
HETATM   12  C   UNL     1     -10.263  16.581  69.248  1.00  0.00    -0.290 C  
BRANCH  12  13
HETATM   13  C   UNL     1     -10.944  15.276  69.391  1.00  0.00    -0.271 A  
HETATM   14  C   UNL     1     -10.864  14.274  68.407  1.00  0.00    -0.253 A  
HETATM   15  C   UNL     1     -11.470  13.027  68.620  1.00  0.00    -0.344 A  
HETATM   16 CL   UNL     1      -9.991  14.438  66.922  1.00  0.00    -0.256 Cl 
HETATM   17  C   UNL     1     -12.153  12.763  69.804  1.00  0.00    -0.305 A  
HETATM   18  C   UNL     1     -12.245  13.751  70.779  1.00  0.00    -0.437 A  
HETATM   19  C   UNL     1     -11.645  15.002  70.579  1.00  0.00    -0.298 A  
HETATM   20 CL   UNL     1     -11.848  16.167  71.843  1.00  0.00    -0.589 Cl 
ENDBRANCH  12  13
ENDBRANCH  10  12
ENDBRANCH   6  10
TORSDOF 3
ENDMDL
MODEL       85
REMARK 921   NORMALIZED FREE ENERGY PREDICTED BY IDOCK:   -4.25 KCAL/MOL
REMARK 922        TOTAL FREE ENERGY PREDICTED BY IDOCK:   -5.28 KCAL/MOL
REMARK 923 INTER-LIGAND FREE ENERGY PREDICTED BY IDOCK:   -5.05 KCAL/MOL
REMARK 924 INTRA-LIGAND FREE ENERGY PREDICTED BY IDOCK:   -0.23 KCAL/MOL
REMARK 927      BINDING AFFINITY PREDICTED BY RF-SCORE:    0.00 PKD
ROOT
HETATM    1  N   UNL     1     -10.189   9.002  71.868  1.00  0.00    -0.335 NA 
HETATM    2  H2  UNL     1     -10.597   8.279  72.461  1.00  0.00     0.000 HD 
HETATM    3  C   UNL     1     -10.729   9.431  70.706  1.00  0.00    -0.305 C  
HETATM    4  H1  UNL     1      -9.320   9.495  72.075  1.00  0.00     0.000 HD 
HETATM    5  N   UNL     1     -11.883   8.776  70.430  1.00  0.00    -0.472 NA 
HETATM    6  N   UNL     1     -10.200  10.361  69.975  1.00  0.00    -0.440 NA 
HETATM    7  H1  UNL     1     -12.290   9.099  69.553  1.00  0.00     0.000 HD 
HETATM    8  H2  UNL     1     -12.291   8.053  71.023  1.00  0.00     0.000 HD 
HETATM    9  H   UNL     1      -9.304  10.806  70.173  1.00  0.00     0.000 HD 
ENDROOT
BRANCH   6  10
HETATM   10  N   UNL     1     -11.010  10.681  68.880  1.00  0.00    -0.231 NA 
HETATM   11  H   UNL     1     -11.927  10.272  68.699  1.00  0.00     0.000 HD 
BRANCH  10  12
HETATM   12  C   UNL     1     -10.439  11.566  68.126  1.00  0.00    -0.193 C  
BRANCH  12  13
HETATM   13  C   UNL     1     -11.087  12.130  66.922  1.00  0.00    -0.348 A  
HETATM   14  C   UNL     1     -11.840  13.318  66.961  1.00  0.00    -0.390 A  
HETATM   15  C   UNL     1     -12.377  13.850  65.780  1.00  0.00    -0.518 A  
HETATM   16 CL   UNL     1     -12.116  14.248  68.394  1.00  0.00    -0.345 Cl 
HETATM   17  C   UNL     1     -12.171  13.216  64.558  1.00  0.00    -0.466 A  
HETATM   18  C   UNL     1     -11.436  12.036  64.511  1.00  0.00    -0.385 A  
HETATM   19  C   UNL     1     -10.894  11.493  65.684  1.00  0.00    -0.252 A  
HETATM   20 CL   UNL     1     -10.024  10.006  65.516  1.00  0.00    -0.373 Cl 
ENDBRANCH  12  13
ENDBRANCH  10  12
ENDBRANCH   6  10
TORSDOF 3
ENDMDL
MODEL       86
REMARK 921   NORMALIZED FREE ENERGY PREDICTED BY IDOCK:   -4.21 KCAL/MOL
REMARK 922        TOTAL FREE ENERGY PREDICTED BY IDOCK:   -5.23 KCAL/MOL
REMARK 923 INTER-LIGAND FREE ENERGY PREDICTED BY IDOCK:   -5.13 KCAL/MOL
REMARK 924 INTRA-LIGAND FREE ENERGY PREDICTED BY IDOCK:   -0.10 KCAL/MOL
REMARK 927      BINDING AFFINITY PREDICTED BY RF-SCORE:    0.00 PKD
ROOT
HETATM    1  N   UNL     1     -12.529  13.854  63.185  1.00  0.00    -1.079 NA 
HETATM    2  H2  UNL     1     -12.283  13.961  62.201  1.00  0.00     0.000 HD 
HETATM    3  C   UNL     1     -12.144  12.817  63.961  1.00  0.00    -0.457 C  
HETATM    4  H1  UNL     1     -13.101  14.516  63.711  1.00  0.00     0.000 HD 
HETATM    5  N   UNL     1     -11.385  11.938  63.261  1.00  0.00    -0.681 NA 
HETATM    6  N   UNL     1     -12.458  12.708  65.213  1.00  0.00    -0.639 NA 
HETATM    7  H1  UNL     1     -11.095  11.155  63.846  1.00  0.00     0.000 HD 
HETATM    8  H2  UNL     1     -11.139  12.045  62.277  1.00  0.00     0.000 HD 
HETATM    9  H   UNL     1     -13.072  13.354  65.708  1.00  0.00     0.000 HD 
ENDROOT
BRANCH   6  10
HETATM   10  N   UNL     1     -11.849  11.595  65.803  1.00  0.00    -0.243 NA 
HETATM   11  H   UNL     1     -11.694  10.703  65.333  1.00  0.00     0.000 HD 
BRANCH  10  12
HETATM   12  C   UNL     1     -11.511  11.848  67.027  1.00  0.00    -0.316 C  
BRANCH  12  13
HETATM   13  C   UNL     1     -10.563  11.005  67.787  1.00  0.00    -0.250 A  
HETATM   14  C   UNL     1      -9.306  10.637  67.274  1.00  0.00    -0.150 A  
HETATM   15  C   UNL     1      -8.415   9.892  68.060  1.00  0.00    -0.117 A  
HETATM   16 CL   UNL     1      -8.721  11.099  65.712  1.00  0.00    -0.179 Cl 
HETATM   17  C   UNL     1      -8.757   9.512  69.354  1.00  0.00    -0.166 A  
HETATM   18  C   UNL     1     -10.002   9.864  69.867  1.00  0.00    -0.292 A  
HETATM   19  C   UNL     1     -10.903  10.606  69.092  1.00  0.00    -0.237 A  
HETATM   20 CL   UNL     1     -12.434  10.962  69.817  1.00  0.00    -0.324 Cl 
ENDBRANCH  12  13
ENDBRANCH  10  12
ENDBRANCH   6  10
TORSDOF 3
ENDMDL
MODEL       87
REMARK 921   NORMALIZED FREE ENERGY PREDICTED BY IDOCK:   -4.21 KCAL/MOL
REMARK 922        TOTAL FREE ENERGY PREDICTED BY IDOCK:   -5.23 KCAL/MOL
REMARK 923 INTER-LIGAND FREE ENERGY PREDICTED BY IDOCK:   -4.98 KCAL/MOL
REMARK 924 INTRA-LIGAND FREE ENERGY PREDICTED BY IDOCK:   -0.25 KCAL/MOL
REMARK 927      BINDING AFFINITY PREDICTED BY RF-SCORE:    0.00 PKD
ROOT
HETATM    1  N   UNL     1     -12.022   9.651  70.591  1.00  0.00    -0.385 NA 
HETATM    2  H2  UNL     1     -12.138   9.807  71.592  1.00  0.00     0.000 HD 
HETATM    3  C   UNL     1     -12.102  10.620  69.652  1.00  0.00    -0.240 C  
HETATM    4  H1  UNL     1     -11.832   8.742  70.167  1.00  0.00     0.000 HD 
HETATM    5  N   UNL     1     -12.355  11.827  70.215  1.00  0.00    -0.273 NA 
HETATM    6  N   UNL     1     -11.938  10.401  68.386  1.00  0.00    -0.749 NA 
HETATM    7  H1  UNL     1     -12.416  12.558  69.506  1.00  0.00     0.000 HD 
HETATM    8  H2  UNL     1     -12.471  11.983  71.216  1.00  0.00     0.000 HD 
HETATM    9  H   UNL     1     -11.800   9.477  67.977  1.00  0.00     0.000 HD 
ENDROOT
BRANCH   6  10
HETATM   10  N   UNL     1     -11.974  11.589  67.647  1.00  0.00    -0.634 NA 
HETATM   11  H   UNL     1     -12.720  12.282  67.702  1.00  0.00     0.000 HD 
BRANCH  10  12
HETATM   12  C   UNL     1     -10.933  11.689  66.883  1.00  0.00    -0.292 C  
BRANCH  12  13
HETATM   13  C   UNL     1     -10.418  12.989  66.399  1.00  0.00    -0.285 A  
HETATM   14  C   UNL     1     -11.035  13.699  65.353  1.00  0.00    -0.298 A  
HETATM   15  C   UNL     1     -10.549  14.960  64.976  1.00  0.00    -0.446 A  
HETATM   16 CL   UNL     1     -12.438  13.151  64.501  1.00  0.00    -0.425 Cl 
HETATM   17  C   UNL     1      -9.458  15.524  65.629  1.00  0.00    -0.271 A  
HETATM   18  C   UNL     1      -8.836  14.826  66.659  1.00  0.00    -0.262 A  
HETATM   19  C   UNL     1      -9.310  13.564  67.046  1.00  0.00    -0.247 A  
HETATM   20 CL   UNL     1      -8.443  12.770  68.316  1.00  0.00    -0.172 Cl 
ENDBRANCH  12  13
ENDBRANCH  10  12
ENDBRANCH   6  10
TORSDOF 3
ENDMDL
MODEL       88
REMARK 921   NORMALIZED FREE ENERGY PREDICTED BY IDOCK:   -4.21 KCAL/MOL
REMARK 922        TOTAL FREE ENERGY PREDICTED BY IDOCK:   -5.23 KCAL/MOL
REMARK 923 INTER-LIGAND FREE ENERGY PREDICTED BY IDOCK:   -4.98 KCAL/MOL
REMARK 924 INTRA-LIGAND FREE ENERGY PREDICTED BY IDOCK:   -0.25 KCAL/MOL
REMARK 927      BINDING AFFINITY PREDICTED BY RF-SCORE:    0.00 PKD
ROOT
HETATM    1  N   UNL     1     -11.911  13.607  70.590  1.00  0.00    -0.522 NA 
HETATM    2  H2  UNL     1     -12.139  14.312  71.290  1.00  0.00     0.000 HD 
HETATM    3  C   UNL     1     -12.009  13.796  69.255  1.00  0.00    -0.352 C  
HETATM    4  H1  UNL     1     -11.580  12.666  70.805  1.00  0.00     0.000 HD 
HETATM    5  N   UNL     1     -12.449  15.046  68.969  1.00  0.00    -0.578 NA 
HETATM    6  N   UNL     1     -11.701  12.889  68.382  1.00  0.00    -0.326 NA 
HETATM    7  H1  UNL     1     -12.524  15.188  67.962  1.00  0.00     0.000 HD 
HETATM    8  H2  UNL     1     -12.677  15.751  69.669  1.00  0.00     0.000 HD 
HETATM    9  H   UNL     1     -11.421  11.938  68.619  1.00  0.00     0.000 HD 
ENDROOT
BRANCH   6  10
HETATM   10  N   UNL     1     -11.800  13.376  67.074  1.00  0.00    -0.384 NA 
HETATM   11  H   UNL     1     -12.664  13.705  66.643  1.00  0.00     0.000 HD 
BRANCH  10  12
HETATM   12  C   UNL     1     -10.647  13.353  66.485  1.00  0.00    -0.287 C  
BRANCH  12  13
HETATM   13  C   UNL     1     -10.283  12.332  65.479  1.00  0.00    -0.296 A  
HETATM   14  C   UNL     1     -10.855  12.305  64.194  1.00  0.00    -0.365 A  
HETATM   15  C   UNL     1     -10.426  11.359  63.252  1.00  0.00    -0.397 A  
HETATM   16 CL   UNL     1     -12.046  13.430  63.637  1.00  0.00    -0.550 Cl 
HETATM   17  C   UNL     1      -9.432  10.439  63.572  1.00  0.00    -0.356 A  
HETATM   18  C   UNL     1      -8.867  10.452  64.843  1.00  0.00    -0.209 A  
HETATM   19  C   UNL     1      -9.287  11.392  65.795  1.00  0.00    -0.228 A  
HETATM   20 CL   UNL     1      -8.540  11.298  67.354  1.00  0.00    -0.134 Cl 
ENDBRANCH  12  13
ENDBRANCH  10  12
ENDBRANCH   6  10
TORSDOF 3
ENDMDL
MODEL       89
REMARK 921   NORMALIZED FREE ENERGY PREDICTED BY IDOCK:   -4.20 KCAL/MOL
REMARK 922        TOTAL FREE ENERGY PREDICTED BY IDOCK:   -5.22 KCAL/MOL
REMARK 923 INTER-LIGAND FREE ENERGY PREDICTED BY IDOCK:   -4.88 KCAL/MOL
REMARK 924 INTRA-LIGAND FREE ENERGY PREDICTED BY IDOCK:   -0.35 KCAL/MOL
REMARK 927      BINDING AFFINITY PREDICTED BY RF-SCORE:    0.00 PKD
ROOT
HETATM    1  N   UNL     1      -9.257  11.348  64.318  1.00  0.00    -0.409 NA 
HETATM    2  H2  UNL     1      -8.431  11.674  63.816  1.00  0.00     0.000 HD 
HETATM    3  C   UNL     1      -9.471  11.533  65.639  1.00  0.00    -0.222 C  
HETATM    4  H1  UNL     1     -10.029  10.838  63.887  1.00  0.00     0.000 HD 
HETATM    5  N   UNL     1      -8.444  12.209  66.211  1.00  0.00    -0.397 NA 
HETATM    6  N   UNL     1     -10.534  11.122  66.254  1.00  0.00    -0.253 NA 
HETATM    7  H1  UNL     1      -8.605  12.349  67.208  1.00  0.00     0.000 HD 
HETATM    8  H2  UNL     1      -7.618  12.535  65.709  1.00  0.00     0.000 HD 
HETATM    9  H   UNL     1     -11.271  10.569  65.817  1.00  0.00     0.000 HD 
ENDROOT
BRANCH   6  10
HETATM   10  N   UNL     1     -10.547  11.529  67.592  1.00  0.00    -0.191 NA 
HETATM   11  H   UNL     1      -9.768  11.412  68.240  1.00  0.00     0.000 HD 
BRANCH  10  12
HETATM   12  C   UNL     1     -11.681  12.073  67.898  1.00  0.00    -0.323 C  
BRANCH  12  13
HETATM   13  C   UNL     1     -11.789  13.268  68.764  1.00  0.00    -0.371 A  
HETATM   14  C   UNL     1     -11.590  14.571  68.273  1.00  0.00    -0.329 A  
HETATM   15  C   UNL     1     -11.770  15.677  69.118  1.00  0.00    -0.402 A  
HETATM   16 CL   UNL     1     -11.186  14.942  66.632  1.00  0.00    -0.345 Cl 
HETATM   17  C   UNL     1     -12.149  15.501  70.445  1.00  0.00    -0.426 A  
HETATM   18  C   UNL     1     -12.340  14.215  70.941  1.00  0.00    -0.438 A  
HETATM   19  C   UNL     1     -12.162  13.101  70.109  1.00  0.00    -0.290 A  
HETATM   20 CL   UNL     1     -12.393  11.548  70.837  1.00  0.00    -0.480 Cl 
ENDBRANCH  12  13
ENDBRANCH  10  12
ENDBRANCH   6  10
TORSDOF 3
ENDMDL
MODEL       90
REMARK 921   NORMALIZED FREE ENERGY PREDICTED BY IDOCK:   -4.19 KCAL/MOL
REMARK 922        TOTAL FREE ENERGY PREDICTED BY IDOCK:   -5.21 KCAL/MOL
REMARK 923 INTER-LIGAND FREE ENERGY PREDICTED BY IDOCK:   -5.01 KCAL/MOL
REMARK 924 INTRA-LIGAND FREE ENERGY PREDICTED BY IDOCK:   -0.21 KCAL/MOL
REMARK 927      BINDING AFFINITY PREDICTED BY RF-SCORE:    0.00 PKD
ROOT
HETATM    1  N   UNL     1     -10.024   7.623  66.394  1.00  0.00    -0.457 NA 
HETATM    2  H2  UNL     1      -9.860   6.617  66.392  1.00  0.00     0.000 HD 
HETATM    3  C   UNL     1     -10.764   8.276  67.318  1.00  0.00    -0.171 C  
HETATM    4  H1  UNL     1      -9.652   8.269  65.698  1.00  0.00     0.000 HD 
HETATM    5  N   UNL     1     -11.259   7.417  68.243  1.00  0.00    -0.374 NA 
HETATM    6  N   UNL     1     -10.948   9.558  67.309  1.00  0.00    -0.329 NA 
HETATM    7  H1  UNL     1     -11.817   7.909  68.941  1.00  0.00     0.000 HD 
HETATM    8  H2  UNL     1     -11.095   6.410  68.241  1.00  0.00     0.000 HD 
HETATM    9  H   UNL     1     -10.609  10.180  66.575  1.00  0.00     0.000 HD 
ENDROOT
BRANCH   6  10
HETATM   10  N   UNL     1     -11.668   9.985  68.430  1.00  0.00    -0.566 NA 
HETATM   11  H   UNL     1     -12.612   9.678  68.662  1.00  0.00     0.000 HD 
BRANCH  10  12
HETATM   12  C   UNL     1     -10.973  10.822  69.133  1.00  0.00    -0.244 C  
BRANCH  12  13
HETATM   13  C   UNL     1     -11.538  12.080  69.667  1.00  0.00    -0.371 A  
HETATM   14  C   UNL     1     -11.305  13.327  69.059  1.00  0.00    -0.285 A  
HETATM   15  C   UNL     1     -11.919  14.483  69.563  1.00  0.00    -0.363 A  
HETATM   16 CL   UNL     1     -10.333  13.551  67.644  1.00  0.00    -0.236 Cl 
HETATM   17  C   UNL     1     -12.765  14.413  70.664  1.00  0.00    -0.421 A  
HETATM   18  C   UNL     1     -12.995  13.186  71.279  1.00  0.00    -0.339 A  
HETATM   19  C   UNL     1     -12.387  12.023  70.786  1.00  0.00    -0.308 A  
HETATM   20 CL   UNL     1     -12.718  10.557  71.645  1.00  0.00    -0.541 Cl 
ENDBRANCH  12  13
ENDBRANCH  10  12
ENDBRANCH   6  10
TORSDOF 3
ENDMDL
MODEL       91
REMARK 921   NORMALIZED FREE ENERGY PREDICTED BY IDOCK:   -4.18 KCAL/MOL
REMARK 922        TOTAL FREE ENERGY PREDICTED BY IDOCK:   -5.20 KCAL/MOL
REMARK 923 INTER-LIGAND FREE ENERGY PREDICTED BY IDOCK:   -4.88 KCAL/MOL
REMARK 924 INTRA-LIGAND FREE ENERGY PREDICTED BY IDOCK:   -0.33 KCAL/MOL
REMARK 927      BINDING AFFINITY PREDICTED BY RF-SCORE:    0.00 PKD
ROOT
HETATM    1  N   UNL     1      -8.818   9.272  63.038  1.00  0.00    -0.375 NA 
HETATM    2  H2  UNL     1      -7.885   9.166  62.640  1.00  0.00     0.000 HD 
HETATM    3  C   UNL     1      -9.495  10.440  63.098  1.00  0.00    -0.327 C  
HETATM    4  H1  UNL     1      -9.362   8.509  63.442  1.00  0.00     0.000 HD 
HETATM    5  N   UNL     1      -8.772  11.453  62.561  1.00  0.00    -0.560 NA 
HETATM    6  N   UNL     1     -10.686  10.549  63.596  1.00  0.00    -0.282 NA 
HETATM    7  H1  UNL     1      -9.283  12.335  62.607  1.00  0.00     0.000 HD 
HETATM    8  H2  UNL     1      -7.839  11.348  62.163  1.00  0.00     0.000 HD 
HETATM    9  H   UNL     1     -11.193   9.785  64.042  1.00  0.00     0.000 HD 
ENDROOT
BRANCH   6  10
HETATM   10  N   UNL     1     -11.193  11.844  63.445  1.00  0.00    -0.632 NA 
HETATM   11  H   UNL     1     -11.263  12.339  62.556  1.00  0.00     0.000 HD 
BRANCH  10  12
HETATM   12  C   UNL     1     -11.562  12.331  64.587  1.00  0.00    -0.344 C  
BRANCH  12  13
HETATM   13  C   UNL     1     -10.699  13.221  65.395  1.00  0.00    -0.308 A  
HETATM   14  C   UNL     1      -9.755  12.723  66.311  1.00  0.00    -0.262 A  
HETATM   15  C   UNL     1      -8.912  13.605  67.003  1.00  0.00    -0.244 A  
HETATM   16 CL   UNL     1      -9.494  11.040  66.620  1.00  0.00    -0.200 Cl 
HETATM   17  C   UNL     1      -8.995  14.978  66.792  1.00  0.00    -0.293 A  
HETATM   18  C   UNL     1      -9.932  15.480  65.894  1.00  0.00    -0.377 A  
HETATM   19  C   UNL     1     -10.781  14.610  65.197  1.00  0.00    -0.414 A  
HETATM   20 CL   UNL     1     -11.930  15.343  64.129  1.00  0.00    -0.258 Cl 
ENDBRANCH  12  13
ENDBRANCH  10  12
ENDBRANCH   6  10
TORSDOF 3
ENDMDL
MODEL       92
REMARK 921   NORMALIZED FREE ENERGY PREDICTED BY IDOCK:   -4.17 KCAL/MOL
REMARK 922        TOTAL FREE ENERGY PREDICTED BY IDOCK:   -5.19 KCAL/MOL
REMARK 923 INTER-LIGAND FREE ENERGY PREDICTED BY IDOCK:   -4.87 KCAL/MOL
REMARK 924 INTRA-LIGAND FREE ENERGY PREDICTED BY IDOCK:   -0.32 KCAL/MOL
REMARK 927      BINDING AFFINITY PREDICTED BY RF-SCORE:    0.00 PKD
ROOT
HETATM    1  N   UNL     1      -9.765  12.895  65.906  1.00  0.00    -0.395 NA 
HETATM    2  H2  UNL     1     -10.248  13.542  65.283  1.00  0.00     0.000 HD 
HETATM    3  C   UNL     1     -10.383  11.987  66.693  1.00  0.00    -0.208 C  
HETATM    4  H1  UNL     1      -8.751  12.849  66.016  1.00  0.00     0.000 HD 
HETATM    5  N   UNL     1     -11.729  12.047  66.546  1.00  0.00    -0.575 NA 
HETATM    6  N   UNL     1      -9.748  11.165  67.467  1.00  0.00    -0.175 NA 
HETATM    7  H1  UNL     1     -12.195  11.362  67.141  1.00  0.00     0.000 HD 
HETATM    8  H2  UNL     1     -12.212  12.694  65.924  1.00  0.00     0.000 HD 
HETATM    9  H   UNL     1      -8.737  11.170  67.602  1.00  0.00     0.000 HD 
ENDROOT
BRANCH   6  10
HETATM   10  N   UNL     1     -10.619  10.268  68.096  1.00  0.00    -0.204 NA 
HETATM   11  H   UNL     1     -11.343   9.733  67.616  1.00  0.00     0.000 HD 
BRANCH  10  12
HETATM   12  C   UNL     1     -10.384  10.211  69.368  1.00  0.00    -0.232 C  
BRANCH  12  13
HETATM   13  C   UNL     1     -11.436   9.913  70.364  1.00  0.00    -0.372 A  
HETATM   14  C   UNL     1     -11.646   8.617  70.870  1.00  0.00    -0.269 A  
HETATM   15  C   UNL     1     -12.611   8.398  71.864  1.00  0.00    -0.389 A  
HETATM   16 CL   UNL     1     -10.733   7.227  70.393  1.00  0.00    -0.244 Cl 
HETATM   17  C   UNL     1     -13.367   9.453  72.364  1.00  0.00    -0.503 A  
HETATM   18  C   UNL     1     -13.172  10.737  71.864  1.00  0.00    -0.524 A  
HETATM   19  C   UNL     1     -12.213  10.970  70.869  1.00  0.00    -0.367 A  
HETATM   20 CL   UNL     1     -12.075  12.598  70.296  1.00  0.00    -0.415 Cl 
ENDBRANCH  12  13
ENDBRANCH  10  12
ENDBRANCH   6  10
TORSDOF 3
ENDMDL
MODEL       93
REMARK 921   NORMALIZED FREE ENERGY PREDICTED BY IDOCK:   -4.16 KCAL/MOL
REMARK 922        TOTAL FREE ENERGY PREDICTED BY IDOCK:   -5.17 KCAL/MOL
REMARK 923 INTER-LIGAND FREE ENERGY PREDICTED BY IDOCK:   -5.00 KCAL/MOL
REMARK 924 INTRA-LIGAND FREE ENERGY PREDICTED BY IDOCK:   -0.17 KCAL/MOL
REMARK 927      BINDING AFFINITY PREDICTED BY RF-SCORE:    0.00 PKD
ROOT
HETATM    1  N   UNL     1     -12.130  15.582  63.739  1.00  0.00    -0.974 NA 
HETATM    2  H2  UNL     1     -12.949  16.144  63.509  1.00  0.00     0.000 HD 
HETATM    3  C   UNL     1     -11.025  16.057  64.356  1.00  0.00     0.014 C  
HETATM    4  H1  UNL     1     -12.037  14.587  63.533  1.00  0.00     0.000 HD 
HETATM    5  N   UNL     1     -11.148  17.380  64.630  1.00  0.00    -0.851 NA 
HETATM    6  N   UNL     1     -10.001  15.321  64.651  1.00  0.00    -0.361 NA 
HETATM    7  H1  UNL     1     -10.315  17.738  65.095  1.00  0.00     0.000 HD 
HETATM    8  H2  UNL     1     -11.967  17.942  64.399  1.00  0.00     0.000 HD 
HETATM    9  H   UNL     1      -9.907  14.340  64.391  1.00  0.00     0.000 HD 
ENDROOT
BRANCH   6  10
HETATM   10  N   UNL     1      -9.040  16.038  65.372  1.00  0.00    -0.123 NA 
HETATM   11  H   UNL     1      -8.571  16.878  65.034  1.00  0.00     0.000 HD 
BRANCH  10  12
HETATM   12  C   UNL     1      -8.825  15.491  66.526  1.00  0.00    -0.313 C  
BRANCH  12  13
HETATM   13  C   UNL     1      -9.912  14.954  67.372  1.00  0.00    -0.223 A  
HETATM   14  C   UNL     1     -10.190  13.577  67.455  1.00  0.00    -0.237 A  
HETATM   15  C   UNL     1     -11.187  13.110  68.324  1.00  0.00    -0.307 A  
HETATM   16 CL   UNL     1      -9.325  12.357  66.583  1.00  0.00    -0.223 Cl 
HETATM   17  C   UNL     1     -11.909  13.997  69.116  1.00  0.00    -0.391 A  
HETATM   18  C   UNL     1     -11.648  15.362  69.035  1.00  0.00    -0.361 A  
HETATM   19  C   UNL     1     -10.656  15.842  68.169  1.00  0.00    -0.275 A  
HETATM   20 CL   UNL     1     -10.435  17.558  68.124  1.00  0.00    -0.375 Cl 
ENDBRANCH  12  13
ENDBRANCH  10  12
ENDBRANCH   6  10
TORSDOF 3
ENDMDL
MODEL       94
REMARK 921   NORMALIZED FREE ENERGY PREDICTED BY IDOCK:   -4.15 KCAL/MOL
REMARK 922        TOTAL FREE ENERGY PREDICTED BY IDOCK:   -5.17 KCAL/MOL
REMARK 923 INTER-LIGAND FREE ENERGY PREDICTED BY IDOCK:   -4.90 KCAL/MOL
REMARK 924 INTRA-LIGAND FREE ENERGY PREDICTED BY IDOCK:   -0.26 KCAL/MOL
REMARK 927      BINDING AFFINITY PREDICTED BY RF-SCORE:    0.00 PKD
ROOT
HETATM    1  N   UNL     1     -10.163   6.319  66.301  1.00  0.00    -0.421 NA 
HETATM    2  H2  UNL     1     -10.203   5.300  66.307  1.00  0.00     0.000 HD 
HETATM    3  C   UNL     1     -10.783   7.113  67.201  1.00  0.00    -0.352 C  
HETATM    4  H1  UNL     1      -9.649   6.871  65.614  1.00  0.00     0.000 HD 
HETATM    5  N   UNL     1     -11.466   6.379  68.114  1.00  0.00    -0.551 NA 
HETATM    6  N   UNL     1     -10.706   8.406  67.183  1.00  0.00    -0.429 NA 
HETATM    7  H1  UNL     1     -11.934   6.979  68.793  1.00  0.00     0.000 HD 
HETATM    8  H2  UNL     1     -11.506   5.360  68.120  1.00  0.00     0.000 HD 
HETATM    9  H   UNL     1     -10.230   8.942  66.457  1.00  0.00     0.000 HD 
ENDROOT
BRANCH   6  10
HETATM   10  N   UNL     1     -11.358   8.979  68.281  1.00  0.00    -0.158 NA 
HETATM   11  H   UNL     1     -12.260   8.670  68.644  1.00  0.00     0.000 HD 
BRANCH  10  12
HETATM   12  C   UNL     1     -10.662   9.953  68.775  1.00  0.00    -0.220 C  
BRANCH  12  13
HETATM   13  C   UNL     1     -11.274  11.209  69.259  1.00  0.00    -0.331 A  
HETATM   14  C   UNL     1     -11.913  11.300  70.509  1.00  0.00    -0.371 A  
HETATM   15  C   UNL     1     -12.417  12.531  70.953  1.00  0.00    -0.361 A  
HETATM   16 CL   UNL     1     -12.079   9.980  71.615  1.00  0.00    -0.461 Cl 
HETATM   17  C   UNL     1     -12.291  13.674  70.170  1.00  0.00    -0.372 A  
HETATM   18  C   UNL     1     -11.668  13.592  68.929  1.00  0.00    -0.379 A  
HETATM   19  C   UNL     1     -11.161  12.368  68.472  1.00  0.00    -0.258 A  
HETATM   20 CL   UNL     1     -10.434  12.372  66.900  1.00  0.00    -0.239 Cl 
ENDBRANCH  12  13
ENDBRANCH  10  12
ENDBRANCH   6  10
TORSDOF 3
ENDMDL
MODEL       95
REMARK 921   NORMALIZED FREE ENERGY PREDICTED BY IDOCK:   -4.14 KCAL/MOL
REMARK 922        TOTAL FREE ENERGY PREDICTED BY IDOCK:   -5.15 KCAL/MOL
REMARK 923 INTER-LIGAND FREE ENERGY PREDICTED BY IDOCK:   -4.87 KCAL/MOL
REMARK 924 INTRA-LIGAND FREE ENERGY PREDICTED BY IDOCK:   -0.28 KCAL/MOL
REMARK 927      BINDING AFFINITY PREDICTED BY RF-SCORE:    0.00 PKD
ROOT
HETATM    1  N   UNL     1      -9.457   6.889  68.909  1.00  0.00    -0.137 NA 
HETATM    2  H2  UNL     1      -9.477   6.263  69.714  1.00  0.00     0.000 HD 
HETATM    3  C   UNL     1     -10.282   7.947  68.743  1.00  0.00    -0.205 C  
HETATM    4  H1  UNL     1      -8.812   6.798  68.124  1.00  0.00     0.000 HD 
HETATM    5  N   UNL     1     -11.139   8.068  69.787  1.00  0.00    -0.433 NA 
HETATM    6  N   UNL     1     -10.230   8.737  67.718  1.00  0.00    -0.215 NA 
HETATM    7  H1  UNL     1     -11.762   8.865  69.661  1.00  0.00     0.000 HD 
HETATM    8  H2  UNL     1     -11.159   7.442  70.591  1.00  0.00     0.000 HD 
HETATM    9  H   UNL     1      -9.613   8.599  66.918  1.00  0.00     0.000 HD 
ENDROOT
BRANCH   6  10
HETATM   10  N   UNL     1     -11.126   9.804  67.842  1.00  0.00    -0.504 NA 
HETATM   11  H   UNL     1     -12.100   9.712  68.132  1.00  0.00     0.000 HD 
BRANCH  10  12
HETATM   12  C   UNL     1     -10.554  10.926  67.539  1.00  0.00    -0.230 C  
BRANCH  12  13
HETATM   13  C   UNL     1     -11.183  11.934  66.659  1.00  0.00    -0.384 A  
HETATM   14  C   UNL     1     -11.879  13.046  67.168  1.00  0.00    -0.373 A  
HETATM   15  C   UNL     1     -12.399  14.011  66.294  1.00  0.00    -0.482 A  
HETATM   16 CL   UNL     1     -12.100  13.366  68.855  1.00  0.00    -0.344 Cl 
HETATM   17  C   UNL     1     -12.233  13.886  64.919  1.00  0.00    -0.445 A  
HETATM   18  C   UNL     1     -11.554  12.785  64.405  1.00  0.00    -0.415 A  
HETATM   19  C   UNL     1     -11.030  11.812  65.267  1.00  0.00    -0.295 A  
HETATM   20 CL   UNL     1     -10.232  10.470  64.521  1.00  0.00    -0.407 Cl 
ENDBRANCH  12  13
ENDBRANCH  10  12
ENDBRANCH   6  10
TORSDOF 3
ENDMDL
MODEL       96
REMARK 921   NORMALIZED FREE ENERGY PREDICTED BY IDOCK:   -4.14 KCAL/MOL
REMARK 922        TOTAL FREE ENERGY PREDICTED BY IDOCK:   -5.15 KCAL/MOL
REMARK 923 INTER-LIGAND FREE ENERGY PREDICTED BY IDOCK:   -4.90 KCAL/MOL
REMARK 924 INTRA-LIGAND FREE ENERGY PREDICTED BY IDOCK:   -0.25 KCAL/MOL
REMARK 927      BINDING AFFINITY PREDICTED BY RF-SCORE:    0.00 PKD
ROOT
HETATM    1  N   UNL     1     -10.742  18.886  67.487  1.00  0.00    -0.455 NA 
HETATM    2  H2  UNL     1     -10.947  19.754  66.994  1.00  0.00     0.000 HD 
HETATM    3  C   UNL     1     -10.436  17.717  66.882  1.00  0.00    -0.290 C  
HETATM    4  H1  UNL     1     -10.742  18.785  68.503  1.00  0.00     0.000 HD 
HETATM    5  N   UNL     1     -10.437  17.850  65.532  1.00  0.00    -0.631 NA 
HETATM    6  N   UNL     1     -10.167  16.628  67.529  1.00  0.00    -0.282 NA 
HETATM    7  H1  UNL     1     -10.207  16.968  65.075  1.00  0.00     0.000 HD 
HETATM    8  H2  UNL     1     -10.641  18.719  65.039  1.00  0.00     0.000 HD 
HETATM    9  H   UNL     1     -10.222  16.535  68.542  1.00  0.00     0.000 HD 
ENDROOT
BRANCH   6  10
HETATM   10  N   UNL     1      -9.789  15.593  66.665  1.00  0.00    -0.234 NA 
HETATM   11  H   UNL     1      -9.001  15.638  66.019  1.00  0.00     0.000 HD 
BRANCH  10  12
HETATM   12  C   UNL     1     -10.574  14.572  66.797  1.00  0.00    -0.276 C  
BRANCH  12  13
HETATM   13  C   UNL     1     -10.823  13.608  65.704  1.00  0.00    -0.280 A  
HETATM   14  C   UNL     1     -11.639  13.917  64.600  1.00  0.00    -0.385 A  
HETATM   15  C   UNL     1     -11.790  12.993  63.555  1.00  0.00    -0.582 A  
HETATM   16 CL   UNL     1     -12.456  15.428  64.388  1.00  0.00    -0.157 Cl 
HETATM   17  C   UNL     1     -11.135  11.767  63.592  1.00  0.00    -0.518 A  
HETATM   18  C   UNL     1     -10.332  11.448  64.684  1.00  0.00    -0.362 A  
HETATM   19  C   UNL     1     -10.174  12.361  65.736  1.00  0.00    -0.260 A  
HETATM   20 CL   UNL     1      -9.180  11.850  67.058  1.00  0.00    -0.185 Cl 
ENDBRANCH  12  13
ENDBRANCH  10  12
ENDBRANCH   6  10
TORSDOF 3
ENDMDL
MODEL       97
REMARK 921   NORMALIZED FREE ENERGY PREDICTED BY IDOCK:   -4.13 KCAL/MOL
REMARK 922        TOTAL FREE ENERGY PREDICTED BY IDOCK:   -5.14 KCAL/MOL
REMARK 923 INTER-LIGAND FREE ENERGY PREDICTED BY IDOCK:   -4.97 KCAL/MOL
REMARK 924 INTRA-LIGAND FREE ENERGY PREDICTED BY IDOCK:   -0.17 KCAL/MOL
REMARK 927      BINDING AFFINITY PREDICTED BY RF-SCORE:    0.00 PKD
ROOT
HETATM    1  N   UNL     1     -12.186  12.712  70.498  1.00  0.00    -0.411 NA 
HETATM    2  H2  UNL     1     -11.919  12.746  71.481  1.00  0.00     0.000 HD 
HETATM    3  C   UNL     1     -11.728  11.800  69.612  1.00  0.00    -0.344 C  
HETATM    4  H1  UNL     1     -12.833  13.365  70.054  1.00  0.00     0.000 HD 
HETATM    5  N   UNL     1     -10.868  10.934  70.202  1.00  0.00    -0.462 NA 
HETATM    6  N   UNL     1     -12.091  11.768  68.369  1.00  0.00    -0.480 NA 
HETATM    7  H1  UNL     1     -10.522  10.246  69.533  1.00  0.00     0.000 HD 
HETATM    8  H2  UNL     1     -10.601  10.967  71.186  1.00  0.00     0.000 HD 
HETATM    9  H   UNL     1     -12.700  12.460  67.932  1.00  0.00     0.000 HD 
ENDROOT
BRANCH   6  10
HETATM   10  N   UNL     1     -11.546  10.668  67.699  1.00  0.00    -0.616 NA 
HETATM   11  H   UNL     1     -11.589   9.706  68.037  1.00  0.00     0.000 HD 
BRANCH  10  12
HETATM   12  C   UNL     1     -10.981  11.034  66.593  1.00  0.00    -0.190 C  
BRANCH  12  13
HETATM   13  C   UNL     1     -10.546  12.424  66.338  1.00  0.00    -0.271 A  
HETATM   14  C   UNL     1      -9.378  12.962  66.908  1.00  0.00    -0.240 A  
HETATM   15  C   UNL     1      -8.970  14.264  66.582  1.00  0.00    -0.212 A  
HETATM   16 CL   UNL     1      -8.326  12.093  67.974  1.00  0.00    -0.159 Cl 
HETATM   17  C   UNL     1      -9.709  15.036  65.691  1.00  0.00    -0.344 A  
HETATM   18  C   UNL     1     -10.871  14.516  65.129  1.00  0.00    -0.407 A  
HETATM   19  C   UNL     1     -11.290  13.217  65.448  1.00  0.00    -0.295 A  
HETATM   20 CL   UNL     1     -12.765  12.682  64.717  1.00  0.00    -0.537 Cl 
ENDBRANCH  12  13
ENDBRANCH  10  12
ENDBRANCH   6  10
TORSDOF 3
ENDMDL
MODEL       98
REMARK 921   NORMALIZED FREE ENERGY PREDICTED BY IDOCK:   -4.13 KCAL/MOL
REMARK 922        TOTAL FREE ENERGY PREDICTED BY IDOCK:   -5.14 KCAL/MOL
REMARK 923 INTER-LIGAND FREE ENERGY PREDICTED BY IDOCK:   -4.84 KCAL/MOL
REMARK 924 INTRA-LIGAND FREE ENERGY PREDICTED BY IDOCK:   -0.30 KCAL/MOL
REMARK 927      BINDING AFFINITY PREDICTED BY RF-SCORE:    0.00 PKD
ROOT
HETATM    1  N   UNL     1     -13.830  15.544  70.786  1.00  0.00    -0.865 NA 
HETATM    2  H2  UNL     1     -14.301  15.404  71.679  1.00  0.00     0.000 HD 
HETATM    3  C   UNL     1     -12.502  15.390  70.589  1.00  0.00    -0.428 C  
HETATM    4  H1  UNL     1     -14.301  15.819  69.923  1.00  0.00     0.000 HD 
HETATM    5  N   UNL     1     -11.877  15.024  71.736  1.00  0.00    -0.371 NA 
HETATM    6  N   UNL     1     -11.927  15.559  69.441  1.00  0.00    -0.452 NA 
HETATM    7  H1  UNL     1     -10.875  14.908  71.588  1.00  0.00     0.000 HD 
HETATM    8  H2  UNL     1     -12.348  14.884  72.629  1.00  0.00     0.000 HD 
HETATM    9  H   UNL     1     -12.406  15.885  68.603  1.00  0.00     0.000 HD 
ENDROOT
BRANCH   6  10
HETATM   10  N   UNL     1     -10.565  15.241  69.494  1.00  0.00    -0.253 NA 
HETATM   11  H   UNL     1     -10.126  14.698  70.237  1.00  0.00     0.000 HD 
BRANCH  10  12
HETATM   12  C   UNL     1      -9.937  15.730  68.472  1.00  0.00    -0.208 C  
BRANCH  12  13
HETATM   13  C   UNL     1      -8.987  16.858  68.581  1.00  0.00    -0.266 A  
HETATM   14  C   UNL     1      -9.365  18.187  68.316  1.00  0.00    -0.303 A  
HETATM   15  C   UNL     1      -8.447  19.231  68.500  1.00  0.00    -0.401 A  
HETATM   16 CL   UNL     1     -10.954  18.666  67.823  1.00  0.00    -0.295 Cl 
HETATM   17  C   UNL     1      -7.156  18.969  68.948  1.00  0.00    -0.363 A  
HETATM   18  C   UNL     1      -6.770  17.657  69.204  1.00  0.00    -0.243 A  
HETATM   19  C   UNL     1      -7.677  16.604  69.023  1.00  0.00    -0.221 A  
HETATM   20 CL   UNL     1      -7.083  15.010  69.340  1.00  0.00    -0.172 Cl 
ENDBRANCH  12  13
ENDBRANCH  10  12
ENDBRANCH   6  10
TORSDOF 3
ENDMDL
MODEL       99
REMARK 921   NORMALIZED FREE ENERGY PREDICTED BY IDOCK:   -4.12 KCAL/MOL
REMARK 922        TOTAL FREE ENERGY PREDICTED BY IDOCK:   -5.13 KCAL/MOL
REMARK 923 INTER-LIGAND FREE ENERGY PREDICTED BY IDOCK:   -4.93 KCAL/MOL
REMARK 924 INTRA-LIGAND FREE ENERGY PREDICTED BY IDOCK:   -0.20 KCAL/MOL
REMARK 927      BINDING AFFINITY PREDICTED BY RF-SCORE:    0.00 PKD
ROOT
HETATM    1  N   UNL     1      -7.545  14.507  67.196  1.00  0.00    -0.316 NA 
HETATM    2  H2  UNL     1      -6.844  15.112  66.768  1.00  0.00     0.000 HD 
HETATM    3  C   UNL     1      -8.479  14.925  68.078  1.00  0.00    -0.151 C  
HETATM    4  H1  UNL     1      -7.631  13.507  67.014  1.00  0.00     0.000 HD 
HETATM    5  N   UNL     1      -8.363  16.254  68.321  1.00  0.00    -0.179 NA 
HETATM    6  N   UNL     1      -9.369  14.141  68.599  1.00  0.00    -0.300 NA 
HETATM    7  H1  UNL     1      -9.068  16.569  68.987  1.00  0.00     0.000 HD 
HETATM    8  H2  UNL     1      -7.663  16.859  67.893  1.00  0.00     0.000 HD 
HETATM    9  H   UNL     1      -9.407  13.134  68.444  1.00  0.00     0.000 HD 
ENDROOT
BRANCH   6  10
HETATM   10  N   UNL     1     -10.273  14.846  69.402  1.00  0.00    -0.326 NA 
HETATM   11  H   UNL     1     -10.017  15.611  70.026  1.00  0.00     0.000 HD 
BRANCH  10  12
HETATM   12  C   UNL     1     -11.477  14.395  69.247  1.00  0.00    -0.285 C  
BRANCH  12  13
HETATM   13  C   UNL     1     -12.111  13.460  70.200  1.00  0.00    -0.415 A  
HETATM   14  C   UNL     1     -11.908  12.069  70.137  1.00  0.00    -0.301 A  
HETATM   15  C   UNL     1     -12.477  11.230  71.106  1.00  0.00    -0.479 A  
HETATM   16 CL   UNL     1     -10.925  11.284  68.949  1.00  0.00    -0.248 Cl 
HETATM   17  C   UNL     1     -13.242  11.757  72.141  1.00  0.00    -0.342 A  
HETATM   18  C   UNL     1     -13.455  13.131  72.207  1.00  0.00    -0.665 A  
HETATM   19  C   UNL     1     -12.895  13.981  71.245  1.00  0.00    -0.358 A  
HETATM   20 CL   UNL     1     -13.249  15.668  71.405  1.00  0.00    -0.563 Cl 
ENDBRANCH  12  13
ENDBRANCH  10  12
ENDBRANCH   6  10
TORSDOF 3
ENDMDL
MODEL      100
REMARK 921   NORMALIZED FREE ENERGY PREDICTED BY IDOCK:   -4.12 KCAL/MOL
REMARK 922        TOTAL FREE ENERGY PREDICTED BY IDOCK:   -5.13 KCAL/MOL
REMARK 923 INTER-LIGAND FREE ENERGY PREDICTED BY IDOCK:   -4.87 KCAL/MOL
REMARK 924 INTRA-LIGAND FREE ENERGY PREDICTED BY IDOCK:   -0.26 KCAL/MOL
REMARK 927      BINDING AFFINITY PREDICTED BY RF-SCORE:    0.00 PKD
ROOT
HETATM    1  N   UNL     1      -7.169   9.981  70.692  1.00  0.00    -0.348 NA 
HETATM    2  H2  UNL     1      -6.406   9.387  71.013  1.00  0.00     0.000 HD 
HETATM    3  C   UNL     1      -8.430   9.551  70.467  1.00  0.00    -0.169 C  
HETATM    4  H1  UNL     1      -7.080  10.979  70.497  1.00  0.00     0.000 HD 
HETATM    5  N   UNL     1      -8.548   8.225  70.726  1.00  0.00    -0.131 NA 
HETATM    6  N   UNL     1      -9.389  10.326  70.071  1.00  0.00    -0.389 NA 
HETATM    7  H1  UNL     1      -9.500   7.900  70.556  1.00  0.00     0.000 HD 
HETATM    8  H2  UNL     1      -7.784   7.630  71.047  1.00  0.00     0.000 HD 
HETATM    9  H   UNL     1      -9.268  11.310  69.833  1.00  0.00     0.000 HD 
ENDROOT
BRANCH   6  10
HETATM   10  N   UNL     1     -10.612   9.649  70.012  1.00  0.00    -0.240 NA 
HETATM   11  H   UNL     1     -10.758   8.690  70.327  1.00  0.00     0.000 HD 
BRANCH  10  12
HETATM   12  C   UNL     1     -11.533  10.402  69.501  1.00  0.00    -0.246 C  
BRANCH  12  13
HETATM   13  C   UNL     1     -12.114  11.556  70.221  1.00  0.00    -0.444 A  
HETATM   14  C   UNL     1     -12.912  11.400  71.369  1.00  0.00    -0.365 A  
HETATM   15  C   UNL     1     -13.384  12.528  72.057  1.00  0.00    -0.528 A  
HETATM   16 CL   UNL     1     -13.325   9.871  72.066  1.00  0.00    -0.534 Cl 
HETATM   17  C   UNL     1     -13.068  13.810  71.619  1.00  0.00    -0.456 A  
HETATM   18  C   UNL     1     -12.286  13.974  70.479  1.00  0.00    -0.437 A  
HETATM   19  C   UNL     1     -11.809  12.856  69.781  1.00  0.00    -0.310 A  
HETATM   20 CL   UNL     1     -10.873  13.174  68.361  1.00  0.00    -0.271 Cl 
ENDBRANCH  12  13
ENDBRANCH  10  12
ENDBRANCH   6  10
TORSDOF 3
ENDMDL
MODEL      101
REMARK 921   NORMALIZED FREE ENERGY PREDICTED BY IDOCK:   -4.12 KCAL/MOL
REMARK 922        TOTAL FREE ENERGY PREDICTED BY IDOCK:   -5.12 KCAL/MOL
REMARK 923 INTER-LIGAND FREE ENERGY PREDICTED BY IDOCK:   -4.85 KCAL/MOL
REMARK 924 INTRA-LIGAND FREE ENERGY PREDICTED BY IDOCK:   -0.28 KCAL/MOL
REMARK 927      BINDING AFFINITY PREDICTED BY RF-SCORE:    0.00 PKD
ROOT
HETATM    1  N   UNL     1     -11.765  14.692  71.614  1.00  0.00    -0.450 NA 
HETATM    2  H2  UNL     1     -12.602  14.265  72.010  1.00  0.00     0.000 HD 
HETATM    3  C   UNL     1     -11.768  15.567  70.584  1.00  0.00    -0.357 C  
HETATM    4  H1  UNL     1     -10.816  14.514  71.943  1.00  0.00     0.000 HD 
HETATM    5  N   UNL     1     -13.030  15.803  70.146  1.00  0.00    -0.661 NA 
HETATM    6  N   UNL     1     -10.693  16.109  70.105  1.00  0.00    -0.315 NA 
HETATM    7  H1  UNL     1     -13.032  16.463  69.369  1.00  0.00     0.000 HD 
HETATM    8  H2  UNL     1     -13.866  15.376  70.543  1.00  0.00     0.000 HD 
HETATM    9  H   UNL     1      -9.749  15.879  70.414  1.00  0.00     0.000 HD 
ENDROOT
BRANCH   6  10
HETATM   10  N   UNL     1     -10.987  17.048  69.111  1.00  0.00    -0.297 NA 
HETATM   11  H   UNL     1     -11.747  17.726  69.162  1.00  0.00     0.000 HD 
BRANCH  10  12
HETATM   12  C   UNL     1     -10.163  16.941  68.117  1.00  0.00    -0.311 C  
BRANCH  12  13
HETATM   13  C   UNL     1      -9.032  17.871  67.911  1.00  0.00    -0.264 A  
HETATM   14  C   UNL     1      -9.194  19.128  67.300  1.00  0.00    -0.290 A  
HETATM   15  C   UNL     1      -8.104  20.003  67.188  1.00  0.00    -0.357 A  
HETATM   16 CL   UNL     1     -10.703  19.733  66.706  1.00  0.00    -0.580 Cl 
HETATM   17  C   UNL     1      -6.853  19.645  67.681  1.00  0.00    -0.270 A  
HETATM   18  C   UNL     1      -6.681  18.400  68.279  1.00  0.00    -0.229 A  
HETATM   19  C   UNL     1      -7.762  17.515  68.396  1.00  0.00    -0.260 A  
HETATM   20 CL   UNL     1      -7.429  15.982  69.128  1.00  0.00    -0.206 Cl 
ENDBRANCH  12  13
ENDBRANCH  10  12
ENDBRANCH   6  10
TORSDOF 3
ENDMDL
MODEL      102
REMARK 921   NORMALIZED FREE ENERGY PREDICTED BY IDOCK:   -4.11 KCAL/MOL
REMARK 922        TOTAL FREE ENERGY PREDICTED BY IDOCK:   -5.12 KCAL/MOL
REMARK 923 INTER-LIGAND FREE ENERGY PREDICTED BY IDOCK:   -4.94 KCAL/MOL
REMARK 924 INTRA-LIGAND FREE ENERGY PREDICTED BY IDOCK:   -0.18 KCAL/MOL
REMARK 927      BINDING AFFINITY PREDICTED BY RF-SCORE:    0.00 PKD
ROOT
HETATM    1  N   UNL     1     -11.557   6.466  66.834  1.00  0.00    -0.634 NA 
HETATM    2  H2  UNL     1     -11.072   6.467  65.937  1.00  0.00     0.000 HD 
HETATM    3  C   UNL     1     -10.948   6.319  68.031  1.00  0.00    -0.327 C  
HETATM    4  H1  UNL     1     -12.566   6.574  66.944  1.00  0.00     0.000 HD 
HETATM    5  N   UNL     1      -9.608   6.174  67.884  1.00  0.00    -0.118 NA 
HETATM    6  N   UNL     1     -11.583   6.333  69.160  1.00  0.00    -0.485 NA 
HETATM    7  H1  UNL     1      -9.149   6.063  68.788  1.00  0.00     0.000 HD 
HETATM    8  H2  UNL     1      -9.123   6.176  66.987  1.00  0.00     0.000 HD 
HETATM    9  H   UNL     1     -12.597   6.391  69.247  1.00  0.00     0.000 HD 
ENDROOT
BRANCH   6  10
HETATM   10  N   UNL     1     -10.705   6.259  70.248  1.00  0.00    -0.255 NA 
HETATM   11  H   UNL     1      -9.745   5.919  70.194  1.00  0.00     0.000 HD 
BRANCH  10  12
HETATM   12  C   UNL     1     -11.276   6.681  71.331  1.00  0.00    -0.274 C  
BRANCH  12  13
HETATM   13  C   UNL     1     -11.951   7.994  71.421  1.00  0.00    -0.328 A  
HETATM   14  C   UNL     1     -13.329   8.114  71.681  1.00  0.00    -0.331 A  
HETATM   15  C   UNL     1     -13.911   9.382  71.825  1.00  0.00    -0.357 A  
HETATM   16 CL   UNL     1     -14.396   6.770  71.908  1.00  0.00    -0.367 Cl 
HETATM   17  C   UNL     1     -13.137  10.533  71.717  1.00  0.00    -0.570 A  
HETATM   18  C   UNL     1     -11.776  10.425  71.451  1.00  0.00    -0.230 A  
HETATM   19  C   UNL     1     -11.182   9.164  71.303  1.00  0.00    -0.337 A  
HETATM   20 CL   UNL     1      -9.488   9.146  70.944  1.00  0.00    -0.325 Cl 
ENDBRANCH  12  13
ENDBRANCH  10  12
ENDBRANCH   6  10
TORSDOF 3
ENDMDL
MODEL      103
REMARK 921   NORMALIZED FREE ENERGY PREDICTED BY IDOCK:   -4.11 KCAL/MOL
REMARK 922        TOTAL FREE ENERGY PREDICTED BY IDOCK:   -5.11 KCAL/MOL
REMARK 923 INTER-LIGAND FREE ENERGY PREDICTED BY IDOCK:   -4.73 KCAL/MOL
REMARK 924 INTRA-LIGAND FREE ENERGY PREDICTED BY IDOCK:   -0.39 KCAL/MOL
REMARK 927      BINDING AFFINITY PREDICTED BY RF-SCORE:    0.00 PKD
ROOT
HETATM    1  N   UNL     1     -12.033  11.366  63.070  1.00  0.00    -0.867 NA 
HETATM    2  H2  UNL     1     -12.428  11.885  62.287  1.00  0.00     0.000 HD 
HETATM    3  C   UNL     1     -10.941  11.748  63.768  1.00  0.00    -0.429 C  
HETATM    4  H1  UNL     1     -12.411  10.488  63.429  1.00  0.00     0.000 HD 
HETATM    5  N   UNL     1     -10.439  12.914  63.291  1.00  0.00    -0.380 NA 
HETATM    6  N   UNL     1     -10.465  11.079  64.770  1.00  0.00    -0.325 NA 
HETATM    7  H1  UNL     1      -9.614  13.202  63.817  1.00  0.00     0.000 HD 
HETATM    8  H2  UNL     1     -10.833  13.433  62.507  1.00  0.00     0.000 HD 
HETATM    9  H   UNL     1     -10.826  10.178  65.081  1.00  0.00     0.000 HD 
ENDROOT
BRANCH   6  10
HETATM   10  N   UNL     1      -9.392  11.745  65.373  1.00  0.00    -0.399 NA 
HETATM   11  H   UNL     1      -8.472  11.864  64.949  1.00  0.00     0.000 HD 
BRANCH  10  12
HETATM   12  C   UNL     1      -9.724  12.191  66.543  1.00  0.00    -0.223 C  
BRANCH  12  13
HETATM   13  C   UNL     1      -9.682  13.627  66.894  1.00  0.00    -0.262 A  
HETATM   14  C   UNL     1     -10.821  14.450  66.831  1.00  0.00    -0.301 A  
HETATM   15  C   UNL     1     -10.746  15.790  67.240  1.00  0.00    -0.313 A  
HETATM   16 CL   UNL     1     -12.385  13.908  66.328  1.00  0.00    -0.494 Cl 
HETATM   17  C   UNL     1      -9.550  16.320  67.716  1.00  0.00    -0.223 A  
HETATM   18  C   UNL     1      -8.416  15.516  67.774  1.00  0.00    -0.159 A  
HETATM   19  C   UNL     1      -8.477  14.176  67.367  1.00  0.00    -0.203 A  
HETATM   20 CL   UNL     1      -7.001  13.276  67.452  1.00  0.00    -0.149 Cl 
ENDBRANCH  12  13
ENDBRANCH  10  12
ENDBRANCH   6  10
TORSDOF 3
ENDMDL
MODEL      104
REMARK 921   NORMALIZED FREE ENERGY PREDICTED BY IDOCK:   -4.10 KCAL/MOL
REMARK 922        TOTAL FREE ENERGY PREDICTED BY IDOCK:   -5.10 KCAL/MOL
REMARK 923 INTER-LIGAND FREE ENERGY PREDICTED BY IDOCK:   -4.83 KCAL/MOL
REMARK 924 INTRA-LIGAND FREE ENERGY PREDICTED BY IDOCK:   -0.27 KCAL/MOL
REMARK 927      BINDING AFFINITY PREDICTED BY RF-SCORE:    0.00 PKD
ROOT
HETATM    1  N   UNL     1      -7.417  13.974  69.335  1.00  0.00    -0.338 NA 
HETATM    2  H2  UNL     1      -6.651  14.642  69.251  1.00  0.00     0.000 HD 
HETATM    3  C   UNL     1      -7.820  13.145  68.347  1.00  0.00    -0.135 C  
HETATM    4  H1  UNL     1      -7.980  13.845  70.177  1.00  0.00     0.000 HD 
HETATM    5  N   UNL     1      -7.073  13.317  67.229  1.00  0.00    -0.344 NA 
HETATM    6  N   UNL     1      -8.788  12.295  68.480  1.00  0.00    -0.343 NA 
HETATM    7  H1  UNL     1      -7.377  12.692  66.482  1.00  0.00     0.000 HD 
HETATM    8  H2  UNL     1      -6.307  13.985  67.145  1.00  0.00     0.000 HD 
HETATM    9  H   UNL     1      -9.372  12.217  69.312  1.00  0.00     0.000 HD 
ENDROOT
BRANCH   6  10
HETATM   10  N   UNL     1      -8.934  11.495  67.341  1.00  0.00    -0.153 NA 
HETATM   11  H   UNL     1      -8.160  11.145  66.777  1.00  0.00     0.000 HD 
BRANCH  10  12
HETATM   12  C   UNL     1     -10.184  11.260  67.099  1.00  0.00    -0.201 C  
BRANCH  12  13
HETATM   13  C   UNL     1     -10.891  11.817  65.925  1.00  0.00    -0.339 A  
HETATM   14  C   UNL     1     -11.786  12.897  66.030  1.00  0.00    -0.430 A  
HETATM   15  C   UNL     1     -12.379  13.434  64.878  1.00  0.00    -0.457 A  
HETATM   16 CL   UNL     1     -12.184  13.689  67.516  1.00  0.00    -0.335 Cl 
HETATM   17  C   UNL     1     -12.089  12.912  63.621  1.00  0.00    -0.611 A  
HETATM   18  C   UNL     1     -11.212  11.839  63.508  1.00  0.00    -0.494 A  
HETATM   19  C   UNL     1     -10.613  11.291  64.651  1.00  0.00    -0.327 A  
HETATM   20 CL   UNL     1      -9.562   9.938  64.399  1.00  0.00    -0.325 Cl 
ENDBRANCH  12  13
ENDBRANCH  10  12
ENDBRANCH   6  10
TORSDOF 3
ENDMDL
MODEL      105
REMARK 921   NORMALIZED FREE ENERGY PREDICTED BY IDOCK:   -4.08 KCAL/MOL
REMARK 922        TOTAL FREE ENERGY PREDICTED BY IDOCK:   -5.08 KCAL/MOL
REMARK 923 INTER-LIGAND FREE ENERGY PREDICTED BY IDOCK:   -4.87 KCAL/MOL
REMARK 924 INTRA-LIGAND FREE ENERGY PREDICTED BY IDOCK:   -0.21 KCAL/MOL
REMARK 927      BINDING AFFINITY PREDICTED BY RF-SCORE:    0.00 PKD
ROOT
HETATM    1  N   UNL     1     -12.585  15.969  72.495  1.00  0.00    -0.454 NA 
HETATM    2  H2  UNL     1     -13.352  16.032  73.164  1.00  0.00     0.000 HD 
HETATM    3  C   UNL     1     -12.735  15.668  71.187  1.00  0.00    -0.465 C  
HETATM    4  H1  UNL     1     -11.604  16.126  72.727  1.00  0.00     0.000 HD 
HETATM    5  N   UNL     1     -14.039  15.459  70.879  1.00  0.00    -0.864 NA 
HETATM    6  N   UNL     1     -11.747  15.607  70.351  1.00  0.00    -0.326 NA 
HETATM    7  H1  UNL     1     -14.152  15.231  69.891  1.00  0.00     0.000 HD 
HETATM    8  H2  UNL     1     -14.806  15.521  71.548  1.00  0.00     0.000 HD 
HETATM    9  H   UNL     1     -10.768  15.717  70.613  1.00  0.00     0.000 HD 
ENDROOT
BRANCH   6  10
HETATM   10  N   UNL     1     -12.189  15.373  69.044  1.00  0.00    -0.610 NA 
HETATM   11  H   UNL     1     -12.844  14.639  68.778  1.00  0.00     0.000 HD 
BRANCH  10  12
HETATM   12  C   UNL     1     -11.654  16.215  68.218  1.00  0.00    -0.181 C  
BRANCH  12  13
HETATM   13  C   UNL     1     -10.235  16.143  67.808  1.00  0.00    -0.267 A  
HETATM   14  C   UNL     1      -9.294  17.121  68.178  1.00  0.00    -0.264 A  
HETATM   15  C   UNL     1      -7.946  16.972  67.822  1.00  0.00    -0.192 A  
HETATM   16 CL   UNL     1      -9.668  18.518  69.129  1.00  0.00    -0.242 Cl 
HETATM   17  C   UNL     1      -7.520  15.859  67.105  1.00  0.00    -0.262 A  
HETATM   18  C   UNL     1      -8.445  14.890  66.726  1.00  0.00    -0.215 A  
HETATM   19  C   UNL     1      -9.796  15.027  67.074  1.00  0.00    -0.238 A  
HETATM   20 CL   UNL     1     -10.864  13.780  66.526  1.00  0.00    -0.286 Cl 
ENDBRANCH  12  13
ENDBRANCH  10  12
ENDBRANCH   6  10
TORSDOF 3
ENDMDL
MODEL      106
REMARK 921   NORMALIZED FREE ENERGY PREDICTED BY IDOCK:   -4.06 KCAL/MOL
REMARK 922        TOTAL FREE ENERGY PREDICTED BY IDOCK:   -5.06 KCAL/MOL
REMARK 923 INTER-LIGAND FREE ENERGY PREDICTED BY IDOCK:   -4.84 KCAL/MOL
REMARK 924 INTRA-LIGAND FREE ENERGY PREDICTED BY IDOCK:   -0.23 KCAL/MOL
REMARK 927      BINDING AFFINITY PREDICTED BY RF-SCORE:    0.00 PKD
ROOT
HETATM    1  N   UNL     1     -11.171   5.284  66.142  1.00  0.00    -0.713 NA 
HETATM    2  H2  UNL     1     -10.933   4.295  66.213  1.00  0.00     0.000 HD 
HETATM    3  C   UNL     1     -10.934   6.198  67.108  1.00  0.00    -0.331 C  
HETATM    4  H1  UNL     1     -11.619   5.712  65.332  1.00  0.00     0.000 HD 
HETATM    5  N   UNL     1     -10.338   5.629  68.186  1.00  0.00    -0.195 NA 
HETATM    6  N   UNL     1     -11.232   7.453  66.991  1.00  0.00    -0.440 NA 
HETATM    7  H1  UNL     1     -10.160   6.319  68.915  1.00  0.00     0.000 HD 
HETATM    8  H2  UNL     1     -10.101   4.640  68.257  1.00  0.00     0.000 HD 
HETATM    9  H   UNL     1     -11.727   7.852  66.194  1.00  0.00     0.000 HD 
ENDROOT
BRANCH   6  10
HETATM   10  N   UNL     1     -10.792   8.195  68.093  1.00  0.00    -0.450 NA 
HETATM   11  H   UNL     1     -11.044   7.997  69.061  1.00  0.00     0.000 HD 
BRANCH  10  12
HETATM   12  C   UNL     1     -10.022   9.166  67.718  1.00  0.00    -0.189 C  
BRANCH  12  13
HETATM   13  C   UNL     1     -10.533  10.521  67.415  1.00  0.00    -0.291 A  
HETATM   14  C   UNL     1     -10.592  11.026  66.104  1.00  0.00    -0.228 A  
HETATM   15  C   UNL     1     -11.149  12.291  65.860  1.00  0.00    -0.360 A  
HETATM   16 CL   UNL     1     -10.072  10.155  64.702  1.00  0.00    -0.331 Cl 
HETATM   17  C   UNL     1     -11.650  13.058  66.907  1.00  0.00    -0.419 A  
HETATM   18  C   UNL     1     -11.588  12.571  68.208  1.00  0.00    -0.376 A  
HETATM   19  C   UNL     1     -11.034  11.309  68.466  1.00  0.00    -0.220 A  
HETATM   20 CL   UNL     1     -10.978  10.815  70.124  1.00  0.00    -0.293 Cl 
ENDBRANCH  12  13
ENDBRANCH  10  12
ENDBRANCH   6  10
TORSDOF 3
ENDMDL
MODEL      107
REMARK 921   NORMALIZED FREE ENERGY PREDICTED BY IDOCK:   -4.06 KCAL/MOL
REMARK 922        TOTAL FREE ENERGY PREDICTED BY IDOCK:   -5.06 KCAL/MOL
REMARK 923 INTER-LIGAND FREE ENERGY PREDICTED BY IDOCK:   -4.89 KCAL/MOL
REMARK 924 INTRA-LIGAND FREE ENERGY PREDICTED BY IDOCK:   -0.17 KCAL/MOL
REMARK 927      BINDING AFFINITY PREDICTED BY RF-SCORE:    0.00 PKD
ROOT
HETATM    1  N   UNL     1     -11.130   4.772  65.410  1.00  0.00    -0.926 NA 
HETATM    2  H2  UNL     1     -10.674   3.981  64.956  1.00  0.00     0.000 HD 
HETATM    3  C   UNL     1     -10.777   5.268  66.616  1.00  0.00    -0.200 C  
HETATM    4  H1  UNL     1     -11.913   5.292  65.013  1.00  0.00     0.000 HD 
HETATM    5  N   UNL     1      -9.736   4.578  67.144  1.00  0.00    -0.189 NA 
HETATM    6  N   UNL     1     -11.362   6.283  67.169  1.00  0.00    -0.673 NA 
HETATM    7  H1  UNL     1      -9.470   4.952  68.055  1.00  0.00     0.000 HD 
HETATM    8  H2  UNL     1      -9.280   3.787  66.690  1.00  0.00     0.000 HD 
HETATM    9  H   UNL     1     -12.177   6.757  66.780  1.00  0.00     0.000 HD 
ENDROOT
BRANCH   6  10
HETATM   10  N   UNL     1     -10.739   6.650  68.367  1.00  0.00    -0.240 NA 
HETATM   11  H   UNL     1      -9.797   7.034  68.435  1.00  0.00     0.000 HD 
BRANCH  10  12
HETATM   12  C   UNL     1     -11.520   6.437  69.378  1.00  0.00    -0.305 C  
BRANCH  12  13
HETATM   13  C   UNL     1     -11.071   6.581  70.780  1.00  0.00    -0.354 A  
HETATM   14  C   UNL     1     -11.371   7.719  71.551  1.00  0.00    -0.255 A  
HETATM   15  C   UNL     1     -10.983   7.779  72.898  1.00  0.00    -0.467 A  
HETATM   16 CL   UNL     1     -12.270   9.078  70.970  1.00  0.00    -0.306 Cl 
HETATM   17  C   UNL     1     -10.302   6.719  73.488  1.00  0.00    -0.342 A  
HETATM   18  C   UNL     1      -9.993   5.593  72.731  1.00  0.00    -0.195 A  
HETATM   19  C   UNL     1     -10.374   5.520  71.384  1.00  0.00    -0.229 A  
HETATM   20 CL   UNL     1      -9.912   4.088  70.527  1.00  0.00    -0.210 Cl 
ENDBRANCH  12  13
ENDBRANCH  10  12
ENDBRANCH   6  10
TORSDOF 3
ENDMDL
MODEL      108
REMARK 921   NORMALIZED FREE ENERGY PREDICTED BY IDOCK:   -4.06 KCAL/MOL
REMARK 922        TOTAL FREE ENERGY PREDICTED BY IDOCK:   -5.06 KCAL/MOL
REMARK 923 INTER-LIGAND FREE ENERGY PREDICTED BY IDOCK:   -4.92 KCAL/MOL
REMARK 924 INTRA-LIGAND FREE ENERGY PREDICTED BY IDOCK:   -0.14 KCAL/MOL
REMARK 927      BINDING AFFINITY PREDICTED BY RF-SCORE:    0.00 PKD
ROOT
HETATM    1  N   UNL     1      -7.493  10.112  70.365  1.00  0.00    -0.401 NA 
HETATM    2  H2  UNL     1      -6.633   9.746  69.957  1.00  0.00     0.000 HD 
HETATM    3  C   UNL     1      -8.737   9.744  69.985  1.00  0.00    -0.209 C  
HETATM    4  H1  UNL     1      -7.526  10.803  71.115  1.00  0.00     0.000 HD 
HETATM    5  N   UNL     1      -8.692   8.825  68.989  1.00  0.00    -0.132 NA 
HETATM    6  N   UNL     1      -9.816  10.211  70.528  1.00  0.00    -0.313 NA 
HETATM    7  H1  UNL     1      -9.630   8.548  68.702  1.00  0.00     0.000 HD 
HETATM    8  H2  UNL     1      -7.832   8.460  68.580  1.00  0.00     0.000 HD 
HETATM    9  H   UNL     1      -9.829  10.940  71.241  1.00  0.00     0.000 HD 
ENDROOT
BRANCH   6  10
HETATM   10  N   UNL     1     -10.962   9.592  70.016  1.00  0.00    -0.247 NA 
HETATM   11  H   UNL     1     -11.110   8.584  69.985  1.00  0.00     0.000 HD 
BRANCH  10  12
HETATM   12  C   UNL     1     -11.809  10.472  69.587  1.00  0.00    -0.234 C  
BRANCH  12  13
HETATM   13  C   UNL     1     -12.231  11.638  70.394  1.00  0.00    -0.434 A  
HETATM   14  C   UNL     1     -11.975  12.962  69.994  1.00  0.00    -0.309 A  
HETATM   15  C   UNL     1     -12.456  14.034  70.759  1.00  0.00    -0.442 A  
HETATM   16 CL   UNL     1     -11.135  13.393  68.544  1.00  0.00    -0.282 Cl 
HETATM   17  C   UNL     1     -13.192  13.806  71.917  1.00  0.00    -0.486 A  
HETATM   18  C   UNL     1     -13.443  12.500  72.326  1.00  0.00    -0.490 A  
HETATM   19  C   UNL     1     -12.968  11.418  71.571  1.00  0.00    -0.399 A  
HETATM   20 CL   UNL     1     -13.310   9.837  72.188  1.00  0.00    -0.538 Cl 
ENDBRANCH  12  13
ENDBRANCH  10  12
ENDBRANCH   6  10
TORSDOF 3
ENDMDL
MODEL      109
REMARK 921   NORMALIZED FREE ENERGY PREDICTED BY IDOCK:   -4.05 KCAL/MOL
REMARK 922        TOTAL FREE ENERGY PREDICTED BY IDOCK:   -5.05 KCAL/MOL
REMARK 923 INTER-LIGAND FREE ENERGY PREDICTED BY IDOCK:   -4.93 KCAL/MOL
REMARK 924 INTRA-LIGAND FREE ENERGY PREDICTED BY IDOCK:   -0.12 KCAL/MOL
REMARK 927      BINDING AFFINITY PREDICTED BY RF-SCORE:    0.00 PKD
ROOT
HETATM    1  N   UNL     1      -8.442  20.126  66.434  1.00  0.00    -0.502 NA 
HETATM    2  H2  UNL     1      -8.657  21.122  66.485  1.00  0.00     0.000 HD 
HETATM    3  C   UNL     1      -9.344  19.163  66.144  1.00  0.00    -0.239 C  
HETATM    4  H1  UNL     1      -7.517  19.728  66.596  1.00  0.00     0.000 HD 
HETATM    5  N   UNL     1     -10.574  19.692  65.929  1.00  0.00    -0.510 NA 
HETATM    6  N   UNL     1      -9.045  17.905  66.071  1.00  0.00    -0.518 NA 
HETATM    7  H1  UNL     1     -11.255  18.965  65.711  1.00  0.00     0.000 HD 
HETATM    8  H2  UNL     1     -10.789  20.688  65.981  1.00  0.00     0.000 HD 
HETATM    9  H   UNL     1      -8.125  17.521  66.287  1.00  0.00     0.000 HD 
ENDROOT
BRANCH   6  10
HETATM   10  N   UNL     1     -10.140  17.136  65.660  1.00  0.00    -0.590 NA 
HETATM   11  H   UNL     1     -10.691  17.317  64.821  1.00  0.00     0.000 HD 
BRANCH  10  12
HETATM   12  C   UNL     1     -10.358  16.164  66.487  1.00  0.00    -0.308 C  
BRANCH  12  13
HETATM   13  C   UNL     1     -10.347  14.744  66.074  1.00  0.00    -0.318 A  
HETATM   14  C   UNL     1     -11.157  14.258  65.031  1.00  0.00    -0.373 A  
HETATM   15  C   UNL     1     -11.061  12.917  64.631  1.00  0.00    -0.352 A  
HETATM   16 CL   UNL     1     -12.261  15.233  64.123  1.00  0.00    -0.300 Cl 
HETATM   17  C   UNL     1     -10.165  12.053  65.254  1.00  0.00    -0.304 A  
HETATM   18  C   UNL     1      -9.367  12.522  66.292  1.00  0.00    -0.177 A  
HETATM   19  C   UNL     1      -9.454  13.860  66.703  1.00  0.00    -0.285 A  
HETATM   20 CL   UNL     1      -8.438  14.329  68.024  1.00  0.00    -0.154 Cl 
ENDBRANCH  12  13
ENDBRANCH  10  12
ENDBRANCH   6  10
TORSDOF 3
ENDMDL
MODEL      110
REMARK 921   NORMALIZED FREE ENERGY PREDICTED BY IDOCK:   -4.05 KCAL/MOL
REMARK 922        TOTAL FREE ENERGY PREDICTED BY IDOCK:   -5.05 KCAL/MOL
REMARK 923 INTER-LIGAND FREE ENERGY PREDICTED BY IDOCK:   -4.70 KCAL/MOL
REMARK 924 INTRA-LIGAND FREE ENERGY PREDICTED BY IDOCK:   -0.35 KCAL/MOL
REMARK 927      BINDING AFFINITY PREDICTED BY RF-SCORE:    0.00 PKD
ROOT
HETATM    1  N   UNL     1      -8.693  13.143  66.740  1.00  0.00    -0.402 NA 
HETATM    2  H2  UNL     1      -7.690  13.196  66.565  1.00  0.00     0.000 HD 
HETATM    3  C   UNL     1      -9.246  12.786  67.920  1.00  0.00    -0.205 C  
HETATM    4  H1  UNL     1      -9.411  13.352  66.045  1.00  0.00     0.000 HD 
HETATM    5  N   UNL     1      -8.292  12.509  68.843  1.00  0.00    -0.344 NA 
HETATM    6  N   UNL     1     -10.524  12.739  68.123  1.00  0.00    -0.229 NA 
HETATM    7  H1  UNL     1      -8.709  12.239  69.733  1.00  0.00     0.000 HD 
HETATM    8  H2  UNL     1      -7.289  12.562  68.668  1.00  0.00     0.000 HD 
HETATM    9  H   UNL     1     -11.225  12.901  67.401  1.00  0.00     0.000 HD 
ENDROOT
BRANCH   6  10
HETATM   10  N   UNL     1     -10.825  12.437  69.456  1.00  0.00    -0.452 NA 
HETATM   11  H   UNL     1     -10.301  12.782  70.260  1.00  0.00     0.000 HD 
BRANCH  10  12
HETATM   12  C   UNL     1     -11.858  11.659  69.532  1.00  0.00    -0.348 C  
BRANCH  12  13
HETATM   13  C   UNL     1     -11.876  10.430  70.353  1.00  0.00    -0.418 A  
HETATM   14  C   UNL     1     -11.172   9.269  69.984  1.00  0.00    -0.168 A  
HETATM   15  C   UNL     1     -11.164   8.151  70.831  1.00  0.00    -0.286 A  
HETATM   16 CL   UNL     1     -10.225   9.123  68.543  1.00  0.00    -0.214 Cl 
HETATM   17  C   UNL     1     -11.846   8.175  72.044  1.00  0.00    -0.392 A  
HETATM   18  C   UNL     1     -12.552   9.315  72.413  1.00  0.00    -0.348 A  
HETATM   19  C   UNL     1     -12.570  10.439  71.576  1.00  0.00    -0.439 A  
HETATM   20 CL   UNL     1     -13.505  11.791  72.118  1.00  0.00    -0.453 Cl 
ENDBRANCH  12  13
ENDBRANCH  10  12
ENDBRANCH   6  10
TORSDOF 3
ENDMDL
MODEL      111
REMARK 921   NORMALIZED FREE ENERGY PREDICTED BY IDOCK:   -4.02 KCAL/MOL
REMARK 922        TOTAL FREE ENERGY PREDICTED BY IDOCK:   -5.01 KCAL/MOL
REMARK 923 INTER-LIGAND FREE ENERGY PREDICTED BY IDOCK:   -4.88 KCAL/MOL
REMARK 924 INTRA-LIGAND FREE ENERGY PREDICTED BY IDOCK:   -0.13 KCAL/MOL
REMARK 927      BINDING AFFINITY PREDICTED BY RF-SCORE:    0.00 PKD
ROOT
HETATM    1  N   UNL     1      -9.795   7.795  66.052  1.00  0.00    -0.431 NA 
HETATM    2  H2  UNL     1      -9.267   7.739  65.182  1.00  0.00     0.000 HD 
HETATM    3  C   UNL     1     -10.340   8.929  66.544  1.00  0.00    -0.197 C  
HETATM    4  H1  UNL     1      -9.979   7.001  66.667  1.00  0.00     0.000 HD 
HETATM    5  N   UNL     1     -10.093   9.984  65.728  1.00  0.00    -0.271 NA 
HETATM    6  N   UNL     1     -11.018   8.975  67.646  1.00  0.00    -0.479 NA 
HETATM    7  H1  UNL     1     -10.504  10.840  66.099  1.00  0.00     0.000 HD 
HETATM    8  H2  UNL     1      -9.566   9.928  64.857  1.00  0.00     0.000 HD 
HETATM    9  H   UNL     1     -11.148   8.181  68.272  1.00  0.00     0.000 HD 
ENDROOT
BRANCH   6  10
HETATM   10  N   UNL     1     -11.551  10.248  67.873  1.00  0.00    -0.670 NA 
HETATM   11  H   UNL     1     -12.187  10.731  67.238  1.00  0.00     0.000 HD 
BRANCH  10  12
HETATM   12  C   UNL     1     -11.129  10.733  68.997  1.00  0.00    -0.253 C  
BRANCH  12  13
HETATM   13  C   UNL     1     -10.679   9.879  70.118  1.00  0.00    -0.361 A  
HETATM   14  C   UNL     1      -9.333   9.508  70.288  1.00  0.00    -0.259 A  
HETATM   15  C   UNL     1      -8.946   8.754  71.405  1.00  0.00    -0.307 A  
HETATM   16 CL   UNL     1      -8.054   9.977  69.221  1.00  0.00    -0.127 Cl 
HETATM   17  C   UNL     1      -9.882   8.368  72.359  1.00  0.00    -0.378 A  
HETATM   18  C   UNL     1     -11.217   8.722  72.196  1.00  0.00    -0.408 A  
HETATM   19  C   UNL     1     -11.618   9.475  71.083  1.00  0.00    -0.367 A  
HETATM   20 CL   UNL     1     -13.308   9.834  70.963  1.00  0.00    -0.368 Cl 
ENDBRANCH  12  13
ENDBRANCH  10  12
ENDBRANCH   6  10
TORSDOF 3
ENDMDL
MODEL      112
REMARK 921   NORMALIZED FREE ENERGY PREDICTED BY IDOCK:   -4.01 KCAL/MOL
REMARK 922        TOTAL FREE ENERGY PREDICTED BY IDOCK:   -5.00 KCAL/MOL
REMARK 923 INTER-LIGAND FREE ENERGY PREDICTED BY IDOCK:   -4.63 KCAL/MOL
REMARK 924 INTRA-LIGAND FREE ENERGY PREDICTED BY IDOCK:   -0.38 KCAL/MOL
REMARK 927      BINDING AFFINITY PREDICTED BY RF-SCORE:    0.00 PKD
ROOT
HETATM    1  N   UNL     1      -8.737  10.999  64.242  1.00  0.00    -0.374 NA 
HETATM    2  H2  UNL     1      -7.964  11.504  63.810  1.00  0.00     0.000 HD 
HETATM    3  C   UNL     1      -9.022  11.021  65.563  1.00  0.00    -0.194 C  
HETATM    4  H1  UNL     1      -9.397  10.411  63.733  1.00  0.00     0.000 HD 
HETATM    5  N   UNL     1      -8.144  11.803  66.239  1.00  0.00    -0.382 NA 
HETATM    6  N   UNL     1     -10.018  10.382  66.089  1.00  0.00    -0.221 NA 
HETATM    7  H1  UNL     1      -8.358  11.819  67.236  1.00  0.00     0.000 HD 
HETATM    8  H2  UNL     1      -7.371  12.308  65.807  1.00  0.00     0.000 HD 
HETATM    9  H   UNL     1     -10.636   9.758  65.571  1.00  0.00     0.000 HD 
ENDROOT
BRANCH   6  10
HETATM   10  N   UNL     1     -10.143  10.654  67.455  1.00  0.00    -0.178 NA 
HETATM   11  H   UNL     1      -9.375  10.621  68.125  1.00  0.00     0.000 HD 
BRANCH  10  12
HETATM   12  C   UNL     1     -11.367  10.952  67.757  1.00  0.00    -0.292 C  
BRANCH  12  13
HETATM   13  C   UNL     1     -11.728  12.148  68.549  1.00  0.00    -0.382 A  
HETATM   14  C   UNL     1     -11.992  12.084  69.929  1.00  0.00    -0.318 A  
HETATM   15  C   UNL     1     -12.263  13.256  70.649  1.00  0.00    -0.417 A  
HETATM   16 CL   UNL     1     -11.946  10.626  70.861  1.00  0.00    -0.455 Cl 
HETATM   17  C   UNL     1     -12.271  14.494  70.013  1.00  0.00    -0.396 A  
HETATM   18  C   UNL     1     -12.020  14.566  68.647  1.00  0.00    -0.320 A  
HETATM   19  C   UNL     1     -11.749  13.402  67.914  1.00  0.00    -0.361 A  
HETATM   20 CL   UNL     1     -11.483  13.604  66.216  1.00  0.00    -0.335 Cl 
ENDBRANCH  12  13
ENDBRANCH  10  12
ENDBRANCH   6  10
TORSDOF 3
ENDMDL
MODEL      113
REMARK 921   NORMALIZED FREE ENERGY PREDICTED BY IDOCK:   -4.00 KCAL/MOL
REMARK 922        TOTAL FREE ENERGY PREDICTED BY IDOCK:   -4.98 KCAL/MOL
REMARK 923 INTER-LIGAND FREE ENERGY PREDICTED BY IDOCK:   -4.75 KCAL/MOL
REMARK 924 INTRA-LIGAND FREE ENERGY PREDICTED BY IDOCK:   -0.24 KCAL/MOL
REMARK 927      BINDING AFFINITY PREDICTED BY RF-SCORE:    0.00 PKD
ROOT
HETATM    1  N   UNL     1      -5.540  11.274  65.638  1.00  0.00    -0.484 NA 
HETATM    2  H2  UNL     1      -4.608  10.905  65.826  1.00  0.00     0.000 HD 
HETATM    3  C   UNL     1      -6.659  10.895  66.294  1.00  0.00    -0.126 C  
HETATM    4  H1  UNL     1      -5.749  11.976  64.928  1.00  0.00     0.000 HD 
HETATM    5  N   UNL     1      -6.381   9.961  67.237  1.00  0.00    -0.067 NA 
HETATM    6  N   UNL     1      -7.832  11.387  66.047  1.00  0.00    -0.372 NA 
HETATM    7  H1  UNL     1      -7.226   9.675  67.732  1.00  0.00     0.000 HD 
HETATM    8  H2  UNL     1      -5.449   9.592  67.425  1.00  0.00     0.000 HD 
HETATM    9  H   UNL     1      -8.028  12.051  65.299  1.00  0.00     0.000 HD 
ENDROOT
BRANCH   6  10
HETATM   10  N   UNL     1      -8.796  10.896  66.934  1.00  0.00    -0.140 NA 
HETATM   11  H   UNL     1      -8.667  10.815  67.942  1.00  0.00     0.000 HD 
BRANCH  10  12
HETATM   12  C   UNL     1      -9.874  10.556  66.302  1.00  0.00    -0.217 C  
BRANCH  12  13
HETATM   13  C   UNL     1     -10.695  11.524  65.543  1.00  0.00    -0.328 A  
HETATM   14  C   UNL     1     -10.702  11.564  64.137  1.00  0.00    -0.368 A  
HETATM   15  C   UNL     1     -11.550  12.455  63.461  1.00  0.00    -0.577 A  
HETATM   16 CL   UNL     1      -9.759  10.519  63.130  1.00  0.00    -0.364 Cl 
HETATM   17  C   UNL     1     -12.394  13.305  64.169  1.00  0.00    -0.408 A  
HETATM   18  C   UNL     1     -12.388  13.279  65.560  1.00  0.00    -0.533 A  
HETATM   19  C   UNL     1     -11.545  12.395  66.247  1.00  0.00    -0.393 A  
HETATM   20 CL   UNL     1     -11.595  12.469  67.976  1.00  0.00    -0.372 Cl 
ENDBRANCH  12  13
ENDBRANCH  10  12
ENDBRANCH   6  10
TORSDOF 3
ENDMDL
MODEL      114
REMARK 921   NORMALIZED FREE ENERGY PREDICTED BY IDOCK:   -3.98 KCAL/MOL
REMARK 922        TOTAL FREE ENERGY PREDICTED BY IDOCK:   -4.97 KCAL/MOL
REMARK 923 INTER-LIGAND FREE ENERGY PREDICTED BY IDOCK:   -4.58 KCAL/MOL
REMARK 924 INTRA-LIGAND FREE ENERGY PREDICTED BY IDOCK:   -0.39 KCAL/MOL
REMARK 927      BINDING AFFINITY PREDICTED BY RF-SCORE:    0.00 PKD
ROOT
HETATM    1  N   UNL     1      -7.915  11.615  68.749  1.00  0.00    -0.273 NA 
HETATM    2  H2  UNL     1      -7.305  10.941  68.288  1.00  0.00     0.000 HD 
HETATM    3  C   UNL     1      -8.285  12.800  68.217  1.00  0.00    -0.159 C  
HETATM    4  H1  UNL     1      -8.326  11.481  69.674  1.00  0.00     0.000 HD 
HETATM    5  N   UNL     1      -7.738  12.977  66.989  1.00  0.00    -0.392 NA 
HETATM    6  N   UNL     1      -9.074  13.636  68.816  1.00  0.00    -0.391 NA 
HETATM    7  H1  UNL     1      -8.017  13.872  66.588  1.00  0.00     0.000 HD 
HETATM    8  H2  UNL     1      -7.128  12.303  66.528  1.00  0.00     0.000 HD 
HETATM    9  H   UNL     1      -9.433  13.508  69.761  1.00  0.00     0.000 HD 
ENDROOT
BRANCH   6  10
HETATM   10  N   UNL     1      -9.372  14.737  68.005  1.00  0.00    -0.192 NA 
HETATM   11  H   UNL     1      -8.685  15.414  67.673  1.00  0.00     0.000 HD 
BRANCH  10  12
HETATM   12  C   UNL     1     -10.637  14.780  67.733  1.00  0.00    -0.257 C  
BRANCH  12  13
HETATM   13  C   UNL     1     -11.206  14.239  66.480  1.00  0.00    -0.333 A  
HETATM   14  C   UNL     1     -11.738  12.940  66.396  1.00  0.00    -0.395 A  
HETATM   15  C   UNL     1     -12.329  12.496  65.203  1.00  0.00    -0.496 A  
HETATM   16 CL   UNL     1     -11.783  11.820  67.715  1.00  0.00    -0.368 Cl 
HETATM   17  C   UNL     1     -12.399  13.332  64.093  1.00  0.00    -0.408 A  
HETATM   18  C   UNL     1     -11.867  14.615  64.164  1.00  0.00    -0.263 A  
HETATM   19  C   UNL     1     -11.273  15.071  65.349  1.00  0.00    -0.356 A  
HETATM   20 CL   UNL     1     -10.616  16.672  65.316  1.00  0.00    -0.301 Cl 
ENDBRANCH  12  13
ENDBRANCH  10  12
ENDBRANCH   6  10
TORSDOF 3
ENDMDL
MODEL      115
REMARK 921   NORMALIZED FREE ENERGY PREDICTED BY IDOCK:   -3.98 KCAL/MOL
REMARK 922        TOTAL FREE ENERGY PREDICTED BY IDOCK:   -4.97 KCAL/MOL
REMARK 923 INTER-LIGAND FREE ENERGY PREDICTED BY IDOCK:   -4.84 KCAL/MOL
REMARK 924 INTRA-LIGAND FREE ENERGY PREDICTED BY IDOCK:   -0.13 KCAL/MOL
REMARK 927      BINDING AFFINITY PREDICTED BY RF-SCORE:    0.00 PKD
ROOT
HETATM    1  N   UNL     1     -10.653  18.671  67.883  1.00  0.00    -0.381 NA 
HETATM    2  H2  UNL     1     -10.559  19.642  67.586  1.00  0.00     0.000 HD 
HETATM    3  C   UNL     1     -10.511  17.604  67.066  1.00  0.00    -0.305 C  
HETATM    4  H1  UNL     1     -10.868  18.378  68.837  1.00  0.00     0.000 HD 
HETATM    5  N   UNL     1     -10.226  17.993  65.799  1.00  0.00    -0.597 NA 
HETATM    6  N   UNL     1     -10.621  16.378  67.468  1.00  0.00    -0.312 NA 
HETATM    7  H1  UNL     1     -10.119  17.188  65.182  1.00  0.00     0.000 HD 
HETATM    8  H2  UNL     1     -10.132  18.964  65.501  1.00  0.00     0.000 HD 
HETATM    9  H   UNL     1     -10.887  16.107  68.415  1.00  0.00     0.000 HD 
ENDROOT
BRANCH   6  10
HETATM   10  N   UNL     1     -10.331  15.469  66.444  1.00  0.00    -0.285 NA 
HETATM   11  H   UNL     1      -9.808  15.698  65.599  1.00  0.00     0.000 HD 
BRANCH  10  12
HETATM   12  C   UNL     1     -10.815  14.299  66.714  1.00  0.00    -0.298 C  
BRANCH  12  13
HETATM   13  C   UNL     1     -10.588  13.120  65.851  1.00  0.00    -0.290 A  
HETATM   14  C   UNL     1      -9.807  12.026  66.263  1.00  0.00    -0.231 A  
HETATM   15  C   UNL     1      -9.678  10.901  65.436  1.00  0.00    -0.287 A  
HETATM   16 CL   UNL     1      -9.011  11.922  67.797  1.00  0.00    -0.166 Cl 
HETATM   17  C   UNL     1     -10.320  10.850  64.202  1.00  0.00    -0.432 A  
HETATM   18  C   UNL     1     -11.087  11.931  63.781  1.00  0.00    -0.510 A  
HETATM   19  C   UNL     1     -11.224  13.062  64.598  1.00  0.00    -0.326 A  
HETATM   20 CL   UNL     1     -12.175  14.362  63.963  1.00  0.00    -0.418 Cl 
ENDBRANCH  12  13
ENDBRANCH  10  12
ENDBRANCH   6  10
TORSDOF 3
ENDMDL
MODEL      116
REMARK 921   NORMALIZED FREE ENERGY PREDICTED BY IDOCK:   -3.97 KCAL/MOL
REMARK 922        TOTAL FREE ENERGY PREDICTED BY IDOCK:   -4.95 KCAL/MOL
REMARK 923 INTER-LIGAND FREE ENERGY PREDICTED BY IDOCK:   -4.91 KCAL/MOL
REMARK 924 INTRA-LIGAND FREE ENERGY PREDICTED BY IDOCK:   -0.04 KCAL/MOL
REMARK 927      BINDING AFFINITY PREDICTED BY RF-SCORE:    0.00 PKD
ROOT
HETATM    1  N   UNL     1      -9.056  13.784  66.168  1.00  0.00    -0.486 NA 
HETATM    2  H2  UNL     1      -8.118  13.624  65.801  1.00  0.00     0.000 HD 
HETATM    3  C   UNL     1      -9.449  13.475  67.423  1.00  0.00    -0.225 C  
HETATM    4  H1  UNL     1      -9.821  14.197  65.634  1.00  0.00     0.000 HD 
HETATM    5  N   UNL     1      -8.432  12.925  68.132  1.00  0.00    -0.171 NA 
HETATM    6  N   UNL     1     -10.643  13.699  67.872  1.00  0.00    -0.245 NA 
HETATM    7  H1  UNL     1      -8.729  12.691  69.079  1.00  0.00     0.000 HD 
HETATM    8  H2  UNL     1      -7.494  12.765  67.765  1.00  0.00     0.000 HD 
HETATM    9  H   UNL     1     -11.408  14.066  67.307  1.00  0.00     0.000 HD 
ENDROOT
BRANCH   6  10
HETATM   10  N   UNL     1     -10.754  13.375  69.229  1.00  0.00    -0.444 NA 
HETATM   11  H   UNL     1     -10.013  13.506  69.918  1.00  0.00     0.000 HD 
BRANCH  10  12
HETATM   12  C   UNL     1     -11.924  12.887  69.493  1.00  0.00    -0.285 C  
BRANCH  12  13
HETATM   13  C   UNL     1     -12.118  11.676  70.319  1.00  0.00    -0.443 A  
HETATM   14  C   UNL     1     -12.896  11.682  71.491  1.00  0.00    -0.364 A  
HETATM   15  C   UNL     1     -13.107  10.491  72.202  1.00  0.00    -0.413 A  
HETATM   16 CL   UNL     1     -13.698  13.081  72.118  1.00  0.00    -0.587 Cl 
HETATM   17  C   UNL     1     -12.556   9.293  71.759  1.00  0.00    -0.461 A  
HETATM   18  C   UNL     1     -11.778   9.279  70.606  1.00  0.00    -0.276 A  
HETATM   19  C   UNL     1     -11.558  10.461  69.886  1.00  0.00    -0.284 A  
HETATM   20 CL   UNL     1     -10.549  10.335  68.485  1.00  0.00    -0.224 Cl 
ENDBRANCH  12  13
ENDBRANCH  10  12
ENDBRANCH   6  10
TORSDOF 3
ENDMDL
MODEL      117
REMARK 921   NORMALIZED FREE ENERGY PREDICTED BY IDOCK:   -3.97 KCAL/MOL
REMARK 922        TOTAL FREE ENERGY PREDICTED BY IDOCK:   -4.95 KCAL/MOL
REMARK 923 INTER-LIGAND FREE ENERGY PREDICTED BY IDOCK:   -4.82 KCAL/MOL
REMARK 924 INTRA-LIGAND FREE ENERGY PREDICTED BY IDOCK:   -0.12 KCAL/MOL
REMARK 927      BINDING AFFINITY PREDICTED BY RF-SCORE:    0.00 PKD
ROOT
HETATM    1  N   UNL     1     -12.535  14.172  63.336  1.00  0.00    -1.116 NA 
HETATM    2  H2  UNL     1     -13.446  13.774  63.112  1.00  0.00     0.000 HD 
HETATM    3  C   UNL     1     -11.661  13.636  64.217  1.00  0.00    -0.403 C  
HETATM    4  H1  UNL     1     -12.164  15.030  62.925  1.00  0.00     0.000 HD 
HETATM    5  N   UNL     1     -12.155  12.498  64.764  1.00  0.00    -0.417 NA 
HETATM    6  N   UNL     1     -10.502  14.153  64.477  1.00  0.00    -0.577 NA 
HETATM    7  H1  UNL     1     -11.496  12.094  65.429  1.00  0.00     0.000 HD 
HETATM    8  H2  UNL     1     -13.066  12.099  64.540  1.00  0.00     0.000 HD 
HETATM    9  H   UNL     1     -10.171  15.038  64.094  1.00  0.00     0.000 HD 
ENDROOT
BRANCH   6  10
HETATM   10  N   UNL     1      -9.760  13.348  65.348  1.00  0.00    -0.517 NA 
HETATM   11  H   UNL     1      -9.295  12.482  65.080  1.00  0.00     0.000 HD 
BRANCH  10  12
HETATM   12  C   UNL     1      -9.745  13.851  66.541  1.00  0.00    -0.294 C  
BRANCH  12  13
HETATM   13  C   UNL     1      -8.617  14.659  67.055  1.00  0.00    -0.249 A  
HETATM   14  C   UNL     1      -8.583  16.060  66.941  1.00  0.00    -0.231 A  
HETATM   15  C   UNL     1      -7.524  16.787  67.505  1.00  0.00    -0.181 A  
HETATM   16 CL   UNL     1      -9.821  17.005  66.185  1.00  0.00    -0.306 Cl 
HETATM   17  C   UNL     1      -6.500  16.136  68.185  1.00  0.00    -0.132 A  
HETATM   18  C   UNL     1      -6.521  14.750  68.296  1.00  0.00    -0.121 A  
HETATM   19  C   UNL     1      -7.572  14.011  67.736  1.00  0.00    -0.170 A  
HETATM   20 CL   UNL     1      -7.482  12.290  67.906  1.00  0.00    -0.109 Cl 
ENDBRANCH  12  13
ENDBRANCH  10  12
ENDBRANCH   6  10
TORSDOF 3
ENDMDL
MODEL      118
REMARK 921   NORMALIZED FREE ENERGY PREDICTED BY IDOCK:   -3.96 KCAL/MOL
REMARK 922        TOTAL FREE ENERGY PREDICTED BY IDOCK:   -4.94 KCAL/MOL
REMARK 923 INTER-LIGAND FREE ENERGY PREDICTED BY IDOCK:   -4.64 KCAL/MOL
REMARK 924 INTRA-LIGAND FREE ENERGY PREDICTED BY IDOCK:   -0.30 KCAL/MOL
REMARK 927      BINDING AFFINITY PREDICTED BY RF-SCORE:    0.00 PKD
ROOT
HETATM    1  N   UNL     1     -12.008  11.575  68.319  1.00  0.00    -0.590 NA 
HETATM    2  H2  UNL     1     -12.275  12.559  68.331  1.00  0.00     0.000 HD 
HETATM    3  C   UNL     1     -11.713  10.850  69.421  1.00  0.00    -0.325 C  
HETATM    4  H1  UNL     1     -11.927  11.010  67.473  1.00  0.00     0.000 HD 
HETATM    5  N   UNL     1     -11.819  11.601  70.544  1.00  0.00    -0.488 NA 
HETATM    6  N   UNL     1     -11.388   9.597  69.383  1.00  0.00    -0.441 NA 
HETATM    7  H1  UNL     1     -11.596  11.054  71.375  1.00  0.00     0.000 HD 
HETATM    8  H2  UNL     1     -12.087  12.585  70.556  1.00  0.00     0.000 HD 
HETATM    9  H   UNL     1     -11.263   9.063  68.524  1.00  0.00     0.000 HD 
ENDROOT
BRANCH   6  10
HETATM   10  N   UNL     1     -11.230   9.065  70.668  1.00  0.00    -0.263 NA 
HETATM   11  H   UNL     1     -10.730   9.526  71.427  1.00  0.00     0.000 HD 
BRANCH  10  12
HETATM   12  C   UNL     1     -11.804   7.908  70.762  1.00  0.00    -0.176 C  
BRANCH  12  13
HETATM   13  C   UNL     1     -11.044   6.641  70.839  1.00  0.00    -0.335 A  
HETATM   14  C   UNL     1     -10.747   5.873  69.698  1.00  0.00    -0.345 A  
HETATM   15  C   UNL     1      -9.964   4.715  69.814  1.00  0.00    -0.295 A  
HETATM   16 CL   UNL     1     -11.234   6.290  68.091  1.00  0.00    -0.363 Cl 
HETATM   17  C   UNL     1      -9.470   4.313  71.051  1.00  0.00    -0.236 A  
HETATM   18  C   UNL     1      -9.766   5.061  72.186  1.00  0.00    -0.208 A  
HETATM   19  C   UNL     1     -10.548   6.220  72.085  1.00  0.00    -0.223 A  
HETATM   20 CL   UNL     1     -10.881   7.057  73.563  1.00  0.00    -0.353 Cl 
ENDBRANCH  12  13
ENDBRANCH  10  12
ENDBRANCH   6  10
TORSDOF 3
ENDMDL
MODEL      119
REMARK 921   NORMALIZED FREE ENERGY PREDICTED BY IDOCK:   -3.96 KCAL/MOL
REMARK 922        TOTAL FREE ENERGY PREDICTED BY IDOCK:   -4.94 KCAL/MOL
REMARK 923 INTER-LIGAND FREE ENERGY PREDICTED BY IDOCK:   -4.53 KCAL/MOL
REMARK 924 INTRA-LIGAND FREE ENERGY PREDICTED BY IDOCK:   -0.41 KCAL/MOL
REMARK 927      BINDING AFFINITY PREDICTED BY RF-SCORE:    0.00 PKD
ROOT
HETATM    1  N   UNL     1     -11.648  11.318  63.055  1.00  0.00    -0.808 NA 
HETATM    2  H2  UNL     1     -11.627  11.696  62.108  1.00  0.00     0.000 HD 
HETATM    3  C   UNL     1     -10.710  11.564  63.996  1.00  0.00    -0.384 C  
HETATM    4  H1  UNL     1     -12.379  10.705  63.415  1.00  0.00     0.000 HD 
HETATM    5  N   UNL     1      -9.737  12.379  63.517  1.00  0.00    -0.663 NA 
HETATM    6  N   UNL     1     -10.763  11.084  65.198  1.00  0.00    -0.230 NA 
HETATM    7  H1  UNL     1      -9.029  12.564  64.228  1.00  0.00     0.000 HD 
HETATM    8  H2  UNL     1      -9.717  12.757  62.570  1.00  0.00     0.000 HD 
HETATM    9  H   UNL     1     -11.475  10.431  65.523  1.00  0.00     0.000 HD 
ENDROOT
BRANCH   6  10
HETATM   10  N   UNL     1      -9.722  11.572  65.996  1.00  0.00    -0.219 NA 
HETATM   11  H   UNL     1      -8.731  11.457  65.788  1.00  0.00     0.000 HD 
BRANCH  10  12
HETATM   12  C   UNL     1     -10.188  12.189  67.035  1.00  0.00    -0.207 C  
BRANCH  12  13
HETATM   13  C   UNL     1      -9.971  13.632  67.274  1.00  0.00    -0.240 A  
HETATM   14  C   UNL     1      -8.832  14.121  67.939  1.00  0.00    -0.182 A  
HETATM   15  C   UNL     1      -8.637  15.503  68.080  1.00  0.00    -0.155 A  
HETATM   16 CL   UNL     1      -7.568  13.120  68.568  1.00  0.00    -0.129 Cl 
HETATM   17  C   UNL     1      -9.562  16.406  67.563  1.00  0.00    -0.227 A  
HETATM   18  C   UNL     1     -10.696  15.931  66.911  1.00  0.00    -0.289 A  
HETATM   19  C   UNL     1     -10.903  14.553  66.765  1.00  0.00    -0.305 A  
HETATM   20 CL   UNL     1     -12.362  14.072  65.965  1.00  0.00    -0.493 Cl 
ENDBRANCH  12  13
ENDBRANCH  10  12
ENDBRANCH   6  10
TORSDOF 3
ENDMDL
MODEL      120
REMARK 921   NORMALIZED FREE ENERGY PREDICTED BY IDOCK:   -3.96 KCAL/MOL
REMARK 922        TOTAL FREE ENERGY PREDICTED BY IDOCK:   -4.94 KCAL/MOL
REMARK 923 INTER-LIGAND FREE ENERGY PREDICTED BY IDOCK:   -4.63 KCAL/MOL
REMARK 924 INTRA-LIGAND FREE ENERGY PREDICTED BY IDOCK:   -0.31 KCAL/MOL
REMARK 927      BINDING AFFINITY PREDICTED BY RF-SCORE:    0.00 PKD
ROOT
HETATM    1  N   UNL     1      -7.507  14.781  69.733  1.00  0.00    -0.378 NA 
HETATM    2  H2  UNL     1      -6.944  15.631  69.719  1.00  0.00     0.000 HD 
HETATM    3  C   UNL     1      -7.862  14.081  68.633  1.00  0.00    -0.130 C  
HETATM    4  H1  UNL     1      -7.878  14.349  70.580  1.00  0.00     0.000 HD 
HETATM    5  N   UNL     1      -7.370  14.656  67.508  1.00  0.00    -0.189 NA 
HETATM    6  N   UNL     1      -8.568  12.996  68.675  1.00  0.00    -0.367 NA 
HETATM    7  H1  UNL     1      -7.638  14.128  66.677  1.00  0.00     0.000 HD 
HETATM    8  H2  UNL     1      -6.806  15.506  67.494  1.00  0.00     0.000 HD 
HETATM    9  H   UNL     1      -8.973  12.609  69.526  1.00  0.00     0.000 HD 
ENDROOT
BRANCH   6  10
HETATM   10  N   UNL     1      -8.708  12.421  67.407  1.00  0.00    -0.174 NA 
HETATM   11  H   UNL     1      -7.980  12.410  66.693  1.00  0.00     0.000 HD 
BRANCH  10  12
HETATM   12  C   UNL     1      -9.886  11.904  67.262  1.00  0.00    -0.187 C  
BRANCH  12  13
HETATM   13  C   UNL     1     -10.732  12.160  66.076  1.00  0.00    -0.308 A  
HETATM   14  C   UNL     1     -10.583  11.440  64.877  1.00  0.00    -0.307 A  
HETATM   15  C   UNL     1     -11.455  11.672  63.803  1.00  0.00    -0.457 A  
HETATM   16 CL   UNL     1      -9.404  10.198  64.629  1.00  0.00    -0.303 Cl 
HETATM   17  C   UNL     1     -12.477  12.611  63.909  1.00  0.00    -0.498 A  
HETATM   18  C   UNL     1     -12.627  13.334  65.088  1.00  0.00    -0.512 A  
HETATM   19  C   UNL     1     -11.762  13.113  66.168  1.00  0.00    -0.381 A  
HETATM   20 CL   UNL     1     -12.019  14.089  67.575  1.00  0.00    -0.440 Cl 
ENDBRANCH  12  13
ENDBRANCH  10  12
ENDBRANCH   6  10
TORSDOF 3
ENDMDL
MODEL      121
REMARK 921   NORMALIZED FREE ENERGY PREDICTED BY IDOCK:   -3.96 KCAL/MOL
REMARK 922        TOTAL FREE ENERGY PREDICTED BY IDOCK:   -4.94 KCAL/MOL
REMARK 923 INTER-LIGAND FREE ENERGY PREDICTED BY IDOCK:   -4.97 KCAL/MOL
REMARK 924 INTRA-LIGAND FREE ENERGY PREDICTED BY IDOCK:    0.03 KCAL/MOL
REMARK 927      BINDING AFFINITY PREDICTED BY RF-SCORE:    0.00 PKD
ROOT
HETATM    1  N   UNL     1     -11.565  16.351  63.860  1.00  0.00    -1.602 NA 
HETATM    2  H2  UNL     1     -11.473  17.264  63.414  1.00  0.00     0.000 HD 
HETATM    3  C   UNL     1     -10.879  15.963  64.958  1.00  0.00    -0.426 C  
HETATM    4  H1  UNL     1     -12.188  15.611  63.534  1.00  0.00     0.000 HD 
HETATM    5  N   UNL     1     -10.052  16.947  65.390  1.00  0.00    -0.590 NA 
HETATM    6  N   UNL     1     -11.022  14.803  65.515  1.00  0.00    -0.329 NA 
HETATM    7  H1  UNL     1      -9.534  16.654  66.218  1.00  0.00     0.000 HD 
HETATM    8  H2  UNL     1      -9.960  17.859  64.945  1.00  0.00     0.000 HD 
HETATM    9  H   UNL     1     -11.611  14.058  65.144  1.00  0.00     0.000 HD 
ENDROOT
BRANCH   6  10
HETATM   10  N   UNL     1     -10.269  14.697  66.689  1.00  0.00    -0.269 NA 
HETATM   11  H   UNL     1     -10.426  15.253  67.530  1.00  0.00     0.000 HD 
BRANCH  10  12
HETATM   12  C   UNL     1      -9.345  13.798  66.566  1.00  0.00    -0.233 C  
BRANCH  12  13
HETATM   13  C   UNL     1      -9.147  12.713  67.552  1.00  0.00    -0.192 A  
HETATM   14  C   UNL     1     -10.218  11.964  68.071  1.00  0.00    -0.192 A  
HETATM   15  C   UNL     1      -9.973  10.900  68.951  1.00  0.00    -0.208 A  
HETATM   16 CL   UNL     1     -11.877  12.216  67.646  1.00  0.00    -0.381 Cl 
HETATM   17  C   UNL     1      -8.672  10.570  69.320  1.00  0.00    -0.135 A  
HETATM   18  C   UNL     1      -7.607  11.312  68.819  1.00  0.00    -0.130 A  
HETATM   19  C   UNL     1      -7.838  12.378  67.939  1.00  0.00    -0.145 A  
HETATM   20 CL   UNL     1      -6.443  13.252  67.402  1.00  0.00    -0.136 Cl 
ENDBRANCH  12  13
ENDBRANCH  10  12
ENDBRANCH   6  10
TORSDOF 3
ENDMDL
MODEL      122
REMARK 921   NORMALIZED FREE ENERGY PREDICTED BY IDOCK:   -3.95 KCAL/MOL
REMARK 922        TOTAL FREE ENERGY PREDICTED BY IDOCK:   -4.93 KCAL/MOL
REMARK 923 INTER-LIGAND FREE ENERGY PREDICTED BY IDOCK:   -4.70 KCAL/MOL
REMARK 924 INTRA-LIGAND FREE ENERGY PREDICTED BY IDOCK:   -0.23 KCAL/MOL
REMARK 927      BINDING AFFINITY PREDICTED BY RF-SCORE:    0.00 PKD
ROOT
HETATM    1  N   UNL     1     -10.239  10.335  63.668  1.00  0.00    -0.462 NA 
HETATM    2  H2  UNL     1     -10.512   9.362  63.804  1.00  0.00     0.000 HD 
HETATM    3  C   UNL     1     -10.046  11.222  64.669  1.00  0.00    -0.290 C  
HETATM    4  H1  UNL     1     -10.077  10.767  62.757  1.00  0.00     0.000 HD 
HETATM    5  N   UNL     1     -10.262  10.649  65.879  1.00  0.00    -0.256 NA 
HETATM    6  N   UNL     1      -9.687  12.451  64.474  1.00  0.00    -0.499 NA 
HETATM    7  H1  UNL     1     -10.117  11.318  66.634  1.00  0.00     0.000 HD 
HETATM    8  H2  UNL     1     -10.535   9.676  66.015  1.00  0.00     0.000 HD 
HETATM    9  H   UNL     1      -9.579  12.877  63.554  1.00  0.00     0.000 HD 
ENDROOT
BRANCH   6  10
HETATM   10  N   UNL     1      -9.463  13.122  65.681  1.00  0.00    -0.476 NA 
HETATM   11  H   UNL     1      -8.768  12.848  66.376  1.00  0.00     0.000 HD 
BRANCH  10  12
HETATM   12  C   UNL     1     -10.257  14.138  65.799  1.00  0.00    -0.332 C  
BRANCH  12  13
HETATM   13  C   UNL     1     -10.440  14.868  67.072  1.00  0.00    -0.272 A  
HETATM   14  C   UNL     1      -9.802  16.094  67.334  1.00  0.00    -0.238 A  
HETATM   15  C   UNL     1     -10.061  16.782  68.528  1.00  0.00    -0.281 A  
HETATM   16 CL   UNL     1      -8.728  16.887  66.231  1.00  0.00    -0.326 Cl 
HETATM   17  C   UNL     1     -10.951  16.266  69.465  1.00  0.00    -0.339 A  
HETATM   18  C   UNL     1     -11.580  15.050  69.219  1.00  0.00    -0.338 A  
HETATM   19  C   UNL     1     -11.329  14.351  68.030  1.00  0.00    -0.294 A  
HETATM   20 CL   UNL     1     -12.141  12.834  67.841  1.00  0.00    -0.300 Cl 
ENDBRANCH  12  13
ENDBRANCH  10  12
ENDBRANCH   6  10
TORSDOF 3
ENDMDL
MODEL      123
REMARK 921   NORMALIZED FREE ENERGY PREDICTED BY IDOCK:   -3.95 KCAL/MOL
REMARK 922        TOTAL FREE ENERGY PREDICTED BY IDOCK:   -4.92 KCAL/MOL
REMARK 923 INTER-LIGAND FREE ENERGY PREDICTED BY IDOCK:   -4.72 KCAL/MOL
REMARK 924 INTRA-LIGAND FREE ENERGY PREDICTED BY IDOCK:   -0.21 KCAL/MOL
REMARK 927      BINDING AFFINITY PREDICTED BY RF-SCORE:    0.00 PKD
ROOT
HETATM    1  N   UNL     1      -9.565  10.273  66.396  1.00  0.00    -0.177 NA 
HETATM    2  H2  UNL     1      -9.945  10.459  65.468  1.00  0.00     0.000 HD 
HETATM    3  C   UNL     1     -10.163  10.635  67.553  1.00  0.00    -0.199 C  
HETATM    4  H1  UNL     1      -8.683   9.791  66.572  1.00  0.00     0.000 HD 
HETATM    5  N   UNL     1     -11.334  11.276  67.318  1.00  0.00    -0.447 NA 
HETATM    6  N   UNL     1      -9.668  10.377  68.722  1.00  0.00    -0.174 NA 
HETATM    7  H1  UNL     1     -11.785  11.549  68.191  1.00  0.00     0.000 HD 
HETATM    8  H2  UNL     1     -11.714  11.461  66.390  1.00  0.00     0.000 HD 
HETATM    9  H   UNL     1      -8.761   9.939  68.876  1.00  0.00     0.000 HD 
ENDROOT
BRANCH   6  10
HETATM   10  N   UNL     1     -10.534  10.772  69.748  1.00  0.00    -0.436 NA 
HETATM   11  H   UNL     1     -11.128  11.601  69.716  1.00  0.00     0.000 HD 
BRANCH  10  12
HETATM   12  C   UNL     1     -10.479   9.946  70.743  1.00  0.00    -0.183 C  
BRANCH  12  13
HETATM   13  C   UNL     1     -11.639   9.139  71.179  1.00  0.00    -0.386 A  
HETATM   14  C   UNL     1     -12.838   9.726  71.622  1.00  0.00    -0.421 A  
HETATM   15  C   UNL     1     -13.935   8.920  71.960  1.00  0.00    -0.497 A  
HETATM   16 CL   UNL     1     -13.103  11.433  71.730  1.00  0.00    -0.577 Cl 
HETATM   17  C   UNL     1     -13.854   7.534  71.859  1.00  0.00    -0.352 A  
HETATM   18  C   UNL     1     -12.670   6.944  71.430  1.00  0.00    -0.384 A  
HETATM   19  C   UNL     1     -11.566   7.738  71.090  1.00  0.00    -0.281 A  
HETATM   20 CL   UNL     1     -10.133   6.899  70.599  1.00  0.00    -0.205 Cl 
ENDBRANCH  12  13
ENDBRANCH  10  12
ENDBRANCH   6  10
TORSDOF 3
ENDMDL
MODEL      124
REMARK 921   NORMALIZED FREE ENERGY PREDICTED BY IDOCK:   -3.93 KCAL/MOL
REMARK 922        TOTAL FREE ENERGY PREDICTED BY IDOCK:   -4.91 KCAL/MOL
REMARK 923 INTER-LIGAND FREE ENERGY PREDICTED BY IDOCK:   -4.75 KCAL/MOL
REMARK 924 INTRA-LIGAND FREE ENERGY PREDICTED BY IDOCK:   -0.16 KCAL/MOL
REMARK 927      BINDING AFFINITY PREDICTED BY RF-SCORE:    0.00 PKD
ROOT
HETATM    1  N   UNL     1     -11.013  13.941  65.027  1.00  0.00    -0.347 NA 
HETATM    2  H2  UNL     1     -11.257  13.892  64.038  1.00  0.00     0.000 HD 
HETATM    3  C   UNL     1     -11.604  13.210  65.998  1.00  0.00    -0.353 C  
HETATM    4  H1  UNL     1     -10.291  14.550  65.412  1.00  0.00     0.000 HD 
HETATM    5  N   UNL     1     -12.564  12.402  65.485  1.00  0.00    -0.507 NA 
HETATM    6  N   UNL     1     -11.268  13.279  67.247  1.00  0.00    -0.282 NA 
HETATM    7  H1  UNL     1     -13.011  11.850  66.218  1.00  0.00     0.000 HD 
HETATM    8  H2  UNL     1     -12.809  12.352  64.496  1.00  0.00     0.000 HD 
HETATM    9  H   UNL     1     -10.579  13.932  67.619  1.00  0.00     0.000 HD 
ENDROOT
BRANCH   6  10
HETATM   10  N   UNL     1     -11.968  12.349  68.023  1.00  0.00    -0.412 NA 
HETATM   11  H   UNL     1     -12.765  11.803  67.693  1.00  0.00     0.000 HD 
BRANCH  10  12
HETATM   12  C   UNL     1     -11.469  12.273  69.215  1.00  0.00    -0.292 C  
BRANCH  12  13
HETATM   13  C   UNL     1     -11.206  10.985  69.892  1.00  0.00    -0.327 A  
HETATM   14  C   UNL     1     -11.916  10.579  71.037  1.00  0.00    -0.364 A  
HETATM   15  C   UNL     1     -11.678   9.318  71.603  1.00  0.00    -0.462 A  
HETATM   16 CL   UNL     1     -13.153  11.520  71.798  1.00  0.00    -0.564 Cl 
HETATM   17  C   UNL     1     -10.743   8.453  71.042  1.00  0.00    -0.267 A  
HETATM   18  C   UNL     1     -10.030   8.849  69.915  1.00  0.00    -0.197 A  
HETATM   19  C   UNL     1     -10.257  10.107  69.340  1.00  0.00    -0.227 A  
HETATM   20 CL   UNL     1      -9.292  10.510  67.960  1.00  0.00    -0.144 Cl 
ENDBRANCH  12  13
ENDBRANCH  10  12
ENDBRANCH   6  10
TORSDOF 3
ENDMDL
MODEL      125
REMARK 921   NORMALIZED FREE ENERGY PREDICTED BY IDOCK:   -3.89 KCAL/MOL
REMARK 922        TOTAL FREE ENERGY PREDICTED BY IDOCK:   -4.85 KCAL/MOL
REMARK 923 INTER-LIGAND FREE ENERGY PREDICTED BY IDOCK:   -4.61 KCAL/MOL
REMARK 924 INTRA-LIGAND FREE ENERGY PREDICTED BY IDOCK:   -0.24 KCAL/MOL
REMARK 927      BINDING AFFINITY PREDICTED BY RF-SCORE:    0.00 PKD
ROOT
HETATM    1  N   UNL     1      -6.964  14.514  67.219  1.00  0.00    -0.356 NA 
HETATM    2  H2  UNL     1      -6.238  14.960  67.780  1.00  0.00     0.000 HD 
HETATM    3  C   UNL     1      -8.141  15.092  66.892  1.00  0.00    -0.159 C  
HETATM    4  H1  UNL     1      -6.896  13.572  66.832  1.00  0.00     0.000 HD 
HETATM    5  N   UNL     1      -8.231  16.343  67.407  1.00  0.00    -0.153 NA 
HETATM    6  N   UNL     1      -9.043  14.512  66.167  1.00  0.00    -0.507 NA 
HETATM    7  H1  UNL     1      -9.120  16.779  67.160  1.00  0.00     0.000 HD 
HETATM    8  H2  UNL     1      -7.505  16.789  67.967  1.00  0.00     0.000 HD 
HETATM    9  H   UNL     1      -8.979  13.551  65.832  1.00  0.00     0.000 HD 
ENDROOT
BRANCH   6  10
HETATM   10  N   UNL     1     -10.119  15.365  65.898  1.00  0.00    -0.318 NA 
HETATM   11  H   UNL     1     -10.030  16.298  65.494  1.00  0.00     0.000 HD 
BRANCH  10  12
HETATM   12  C   UNL     1     -11.242  14.813  66.231  1.00  0.00    -0.343 C  
BRANCH  12  13
HETATM   13  C   UNL     1     -11.396  13.983  67.446  1.00  0.00    -0.350 A  
HETATM   14  C   UNL     1     -11.444  14.542  68.736  1.00  0.00    -0.294 A  
HETATM   15  C   UNL     1     -11.661  13.720  69.851  1.00  0.00    -0.353 A  
HETATM   16 CL   UNL     1     -11.315  16.235  69.068  1.00  0.00    -0.325 Cl 
HETATM   17  C   UNL     1     -11.835  12.348  69.699  1.00  0.00    -0.380 A  
HETATM   18  C   UNL     1     -11.781  11.785  68.427  1.00  0.00    -0.389 A  
HETATM   19  C   UNL     1     -11.563  12.595  67.304  1.00  0.00    -0.364 A  
HETATM   20 CL   UNL     1     -11.482  11.787  65.775  1.00  0.00    -0.319 Cl 
ENDBRANCH  12  13
ENDBRANCH  10  12
ENDBRANCH   6  10
TORSDOF 3
ENDMDL
MODEL      126
REMARK 921   NORMALIZED FREE ENERGY PREDICTED BY IDOCK:   -3.88 KCAL/MOL
REMARK 922        TOTAL FREE ENERGY PREDICTED BY IDOCK:   -4.84 KCAL/MOL
REMARK 923 INTER-LIGAND FREE ENERGY PREDICTED BY IDOCK:   -4.52 KCAL/MOL
REMARK 924 INTRA-LIGAND FREE ENERGY PREDICTED BY IDOCK:   -0.32 KCAL/MOL
REMARK 927      BINDING AFFINITY PREDICTED BY RF-SCORE:    0.00 PKD
ROOT
HETATM    1  N   UNL     1      -9.508   5.026  66.969  1.00  0.00    -0.134 NA 
HETATM    2  H2  UNL     1      -9.496   4.840  65.966  1.00  0.00     0.000 HD 
HETATM    3  C   UNL     1     -10.424   5.800  67.591  1.00  0.00    -0.235 C  
HETATM    4  H1  UNL     1      -8.829   4.653  67.633  1.00  0.00     0.000 HD 
HETATM    5  N   UNL     1     -11.326   6.297  66.708  1.00  0.00    -0.712 NA 
HETATM    6  N   UNL     1     -10.429   6.013  68.869  1.00  0.00    -0.220 NA 
HETATM    7  H1  UNL     1     -12.017   6.882  67.178  1.00  0.00     0.000 HD 
HETATM    8  H2  UNL     1     -11.314   6.110  65.706  1.00  0.00     0.000 HD 
HETATM    9  H   UNL     1      -9.712   5.673  69.508  1.00  0.00     0.000 HD 
ENDROOT
BRANCH   6  10
HETATM   10  N   UNL     1     -11.539   6.767  69.263  1.00  0.00    -0.623 NA 
HETATM   11  H   UNL     1     -12.458   6.717  68.825  1.00  0.00     0.000 HD 
BRANCH  10  12
HETATM   12  C   UNL     1     -11.242   7.539  70.260  1.00  0.00    -0.236 C  
BRANCH  12  13
HETATM   13  C   UNL     1     -11.438   9.005  70.224  1.00  0.00    -0.147 A  
HETATM   14  C   UNL     1     -10.675   9.845  69.393  1.00  0.00    -0.232 A  
HETATM   15  C   UNL     1     -10.946  11.220  69.344  1.00  0.00    -0.282 A  
HETATM   16 CL   UNL     1      -9.421   9.290  68.338  1.00  0.00    -0.142 Cl 
HETATM   17  C   UNL     1     -11.969  11.770  70.109  1.00  0.00    -0.421 A  
HETATM   18  C   UNL     1     -12.724  10.949  70.940  1.00  0.00    -0.464 A  
HETATM   19  C   UNL     1     -12.464   9.572  71.001  1.00  0.00    -0.267 A  
HETATM   20 CL   UNL     1     -13.441   8.649  72.091  1.00  0.00    -0.408 Cl 
ENDBRANCH  12  13
ENDBRANCH  10  12
ENDBRANCH   6  10
TORSDOF 3
ENDMDL
MODEL      127
REMARK 921   NORMALIZED FREE ENERGY PREDICTED BY IDOCK:   -3.84 KCAL/MOL
REMARK 922        TOTAL FREE ENERGY PREDICTED BY IDOCK:   -4.80 KCAL/MOL
REMARK 923 INTER-LIGAND FREE ENERGY PREDICTED BY IDOCK:   -4.52 KCAL/MOL
REMARK 924 INTRA-LIGAND FREE ENERGY PREDICTED BY IDOCK:   -0.28 KCAL/MOL
REMARK 927      BINDING AFFINITY PREDICTED BY RF-SCORE:    0.00 PKD
ROOT
HETATM    1  N   UNL     1      -7.755  11.948  68.414  1.00  0.00    -0.125 NA 
HETATM    2  H2  UNL     1      -7.149  11.354  67.849  1.00  0.00     0.000 HD 
HETATM    3  C   UNL     1      -8.300  13.108  67.988  1.00  0.00    -0.162 C  
HETATM    4  H1  UNL     1      -8.027  11.744  69.376  1.00  0.00     0.000 HD 
HETATM    5  N   UNL     1      -7.937  13.379  66.709  1.00  0.00    -0.353 NA 
HETATM    6  N   UNL     1      -9.079  13.841  68.718  1.00  0.00    -0.386 NA 
HETATM    7  H1  UNL     1      -8.349  14.255  66.388  1.00  0.00     0.000 HD 
HETATM    8  H2  UNL     1      -7.331  12.785  66.145  1.00  0.00     0.000 HD 
HETATM    9  H   UNL     1      -9.298  13.647  69.695  1.00  0.00     0.000 HD 
ENDROOT
BRANCH   6  10
HETATM   10  N   UNL     1      -9.582  14.933  68.003  1.00  0.00    -0.204 NA 
HETATM   11  H   UNL     1      -9.030  15.742  67.718  1.00  0.00     0.000 HD 
BRANCH  10  12
HETATM   12  C   UNL     1     -10.844  14.780  67.753  1.00  0.00    -0.278 C  
BRANCH  12  13
HETATM   13  C   UNL     1     -11.343  14.186  66.494  1.00  0.00    -0.348 A  
HETATM   14  C   UNL     1     -11.378  14.906  65.285  1.00  0.00    -0.358 A  
HETATM   15  C   UNL     1     -11.796  14.277  64.103  1.00  0.00    -0.338 A  
HETATM   16 CL   UNL     1     -10.867  16.551  65.119  1.00  0.00    -0.329 Cl 
HETATM   17  C   UNL     1     -12.177  12.939  64.107  1.00  0.00    -0.487 A  
HETATM   18  C   UNL     1     -12.154  12.222  65.299  1.00  0.00    -0.361 A  
HETATM   19  C   UNL     1     -11.740  12.838  66.488  1.00  0.00    -0.400 A  
HETATM   20 CL   UNL     1     -11.780  11.861  67.918  1.00  0.00    -0.388 Cl 
ENDBRANCH  12  13
ENDBRANCH  10  12
ENDBRANCH   6  10
TORSDOF 3
ENDMDL
MODEL      128
REMARK 921   NORMALIZED FREE ENERGY PREDICTED BY IDOCK:   -3.82 KCAL/MOL
REMARK 922        TOTAL FREE ENERGY PREDICTED BY IDOCK:   -4.77 KCAL/MOL
REMARK 923 INTER-LIGAND FREE ENERGY PREDICTED BY IDOCK:   -4.57 KCAL/MOL
REMARK 924 INTRA-LIGAND FREE ENERGY PREDICTED BY IDOCK:   -0.20 KCAL/MOL
REMARK 927      BINDING AFFINITY PREDICTED BY RF-SCORE:    0.00 PKD
ROOT
HETATM    1  N   UNL     1      -8.466   9.672  64.764  1.00  0.00    -0.147 NA 
HETATM    2  H2  UNL     1      -7.689   9.453  64.141  1.00  0.00     0.000 HD 
HETATM    3  C   UNL     1      -9.344  10.680  64.567  1.00  0.00    -0.243 C  
HETATM    4  H1  UNL     1      -8.681   9.157  65.619  1.00  0.00     0.000 HD 
HETATM    5  N   UNL     1      -9.058  11.363  63.432  1.00  0.00    -0.481 NA 
HETATM    6  N   UNL     1     -10.332  10.931  65.366  1.00  0.00    -0.272 NA 
HETATM    7  H1  UNL     1      -9.720  12.125  63.284  1.00  0.00     0.000 HD 
HETATM    8  H2  UNL     1      -8.281  11.145  62.808  1.00  0.00     0.000 HD 
HETATM    9  H   UNL     1     -10.500  10.437  66.242  1.00  0.00     0.000 HD 
ENDROOT
BRANCH   6  10
HETATM   10  N   UNL     1     -11.142  11.962  64.878  1.00  0.00    -0.310 NA 
HETATM   11  H   UNL     1     -11.047  12.385  63.955  1.00  0.00     0.000 HD 
BRANCH  10  12
HETATM   12  C   UNL     1     -12.027  12.309  65.758  1.00  0.00    -0.293 C  
BRANCH  12  13
HETATM   13  C   UNL     1     -11.747  13.281  66.836  1.00  0.00    -0.437 A  
HETATM   14  C   UNL     1     -11.717  12.910  68.193  1.00  0.00    -0.352 A  
HETATM   15  C   UNL     1     -11.379  13.854  69.174  1.00  0.00    -0.331 A  
HETATM   16 CL   UNL     1     -12.015  11.306  68.769  1.00  0.00    -0.391 Cl 
HETATM   17  C   UNL     1     -11.065  15.163  68.821  1.00  0.00    -0.272 A  
HETATM   18  C   UNL     1     -11.101  15.541  67.483  1.00  0.00    -0.305 A  
HETATM   19  C   UNL     1     -11.439  14.609  66.492  1.00  0.00    -0.351 A  
HETATM   20 CL   UNL     1     -11.482  15.194  64.863  1.00  0.00    -0.389 Cl 
ENDBRANCH  12  13
ENDBRANCH  10  12
ENDBRANCH   6  10
TORSDOF 3
ENDMDL
MODEL      129
REMARK 921   NORMALIZED FREE ENERGY PREDICTED BY IDOCK:   -3.81 KCAL/MOL
REMARK 922        TOTAL FREE ENERGY PREDICTED BY IDOCK:   -4.77 KCAL/MOL
REMARK 923 INTER-LIGAND FREE ENERGY PREDICTED BY IDOCK:   -4.41 KCAL/MOL
REMARK 924 INTRA-LIGAND FREE ENERGY PREDICTED BY IDOCK:   -0.36 KCAL/MOL
REMARK 927      BINDING AFFINITY PREDICTED BY RF-SCORE:    0.00 PKD
ROOT
HETATM    1  N   UNL     1      -7.642  10.855  67.196  1.00  0.00    -0.104 NA 
HETATM    2  H2  UNL     1      -7.089  10.386  67.914  1.00  0.00     0.000 HD 
HETATM    3  C   UNL     1      -8.257  12.047  67.363  1.00  0.00    -0.168 C  
HETATM    4  H1  UNL     1      -7.803  10.485  66.259  1.00  0.00     0.000 HD 
HETATM    5  N   UNL     1      -8.043  12.538  68.608  1.00  0.00    -0.316 NA 
HETATM    6  N   UNL     1      -8.944  12.631  66.433  1.00  0.00    -0.417 NA 
HETATM    7  H1  UNL     1      -8.508  13.437  68.734  1.00  0.00     0.000 HD 
HETATM    8  H2  UNL     1      -7.490  12.069  69.325  1.00  0.00     0.000 HD 
HETATM    9  H   UNL     1      -9.136  12.221  65.520  1.00  0.00     0.000 HD 
ENDROOT
BRANCH   6  10
HETATM   10  N   UNL     1      -9.389  13.895  66.835  1.00  0.00    -0.249 NA 
HETATM   11  H   UNL     1      -8.784  14.704  66.976  1.00  0.00     0.000 HD 
BRANCH  10  12
HETATM   12  C   UNL     1     -10.673  13.899  67.005  1.00  0.00    -0.283 C  
BRANCH  12  13
HETATM   13  C   UNL     1     -11.304  14.053  68.334  1.00  0.00    -0.321 A  
HETATM   14  C   UNL     1     -11.731  12.950  69.096  1.00  0.00    -0.324 A  
HETATM   15  C   UNL     1     -12.261  13.144  70.380  1.00  0.00    -0.389 A  
HETATM   16 CL   UNL     1     -11.593  11.303  68.583  1.00  0.00    -0.356 Cl 
HETATM   17  C   UNL     1     -12.368  14.423  70.918  1.00  0.00    -0.419 A  
HETATM   18  C   UNL     1     -11.957  15.520  70.169  1.00  0.00    -0.389 A  
HETATM   19  C   UNL     1     -11.426  15.341  68.883  1.00  0.00    -0.332 A  
HETATM   20 CL   UNL     1     -10.975  16.777  68.028  1.00  0.00    -0.338 Cl 
ENDBRANCH  12  13
ENDBRANCH  10  12
ENDBRANCH   6  10
TORSDOF 3
ENDMDL
MODEL      130
REMARK 921   NORMALIZED FREE ENERGY PREDICTED BY IDOCK:   -3.80 KCAL/MOL
REMARK 922        TOTAL FREE ENERGY PREDICTED BY IDOCK:   -4.75 KCAL/MOL
REMARK 923 INTER-LIGAND FREE ENERGY PREDICTED BY IDOCK:   -4.45 KCAL/MOL
REMARK 924 INTRA-LIGAND FREE ENERGY PREDICTED BY IDOCK:   -0.30 KCAL/MOL
REMARK 927      BINDING AFFINITY PREDICTED BY RF-SCORE:    0.00 PKD
ROOT
HETATM    1  N   UNL     1      -9.910   3.175  66.236  1.00  0.00    -0.379 NA 
HETATM    2  H2  UNL     1     -10.450   2.394  65.864  1.00  0.00     0.000 HD 
HETATM    3  C   UNL     1     -10.191   4.476  66.007  1.00  0.00    -0.260 C  
HETATM    4  H1  UNL     1      -9.086   3.074  66.830  1.00  0.00     0.000 HD 
HETATM    5  N   UNL     1     -11.286   4.609  65.219  1.00  0.00    -1.078 NA 
HETATM    6  N   UNL     1      -9.499   5.453  66.501  1.00  0.00    -0.143 NA 
HETATM    7  H1  UNL     1     -11.498   5.592  65.045  1.00  0.00     0.000 HD 
HETATM    8  H2  UNL     1     -11.827   3.828  64.847  1.00  0.00     0.000 HD 
HETATM    9  H   UNL     1      -8.648   5.332  67.050  1.00  0.00     0.000 HD 
ENDROOT
BRANCH   6  10
HETATM   10  N   UNL     1     -10.062   6.696  66.190  1.00  0.00    -0.406 NA 
HETATM   11  H   UNL     1     -10.827   6.835  65.530  1.00  0.00     0.000 HD 
BRANCH  10  12
HETATM   12  C   UNL     1      -9.481   7.645  66.852  1.00  0.00    -0.172 C  
BRANCH  12  13
HETATM   13  C   UNL     1     -10.203   8.515  67.805  1.00  0.00    -0.283 A  
HETATM   14  C   UNL     1     -10.416   8.147  69.146  1.00  0.00    -0.206 A  
HETATM   15  C   UNL     1     -11.046   9.036  70.029  1.00  0.00    -0.197 A  
HETATM   16 CL   UNL     1      -9.886   6.652  69.840  1.00  0.00    -0.176 Cl 
HETATM   17  C   UNL     1     -11.465  10.289  69.595  1.00  0.00    -0.297 A  
HETATM   18  C   UNL     1     -11.267  10.659  68.268  1.00  0.00    -0.362 A  
HETATM   19  C   UNL     1     -10.640   9.780  67.374  1.00  0.00    -0.267 A  
HETATM   20 CL   UNL     1     -10.473  10.328  65.741  1.00  0.00    -0.221 Cl 
ENDBRANCH  12  13
ENDBRANCH  10  12
ENDBRANCH   6  10
TORSDOF 3
ENDMDL
MODEL      131
REMARK 921   NORMALIZED FREE ENERGY PREDICTED BY IDOCK:   -3.80 KCAL/MOL
REMARK 922        TOTAL FREE ENERGY PREDICTED BY IDOCK:   -4.75 KCAL/MOL
REMARK 923 INTER-LIGAND FREE ENERGY PREDICTED BY IDOCK:   -4.37 KCAL/MOL
REMARK 924 INTRA-LIGAND FREE ENERGY PREDICTED BY IDOCK:   -0.38 KCAL/MOL
REMARK 927      BINDING AFFINITY PREDICTED BY RF-SCORE:    0.00 PKD
ROOT
HETATM    1  N   UNL     1      -7.742  10.988  67.167  1.00  0.00    -0.124 NA 
HETATM    2  H2  UNL     1      -7.121  10.508  67.818  1.00  0.00     0.000 HD 
HETATM    3  C   UNL     1      -8.356  12.164  67.423  1.00  0.00    -0.174 C  
HETATM    4  H1  UNL     1      -7.983  10.641  66.238  1.00  0.00     0.000 HD 
HETATM    5  N   UNL     1      -8.037  12.624  68.658  1.00  0.00    -0.322 NA 
HETATM    6  N   UNL     1      -9.132  12.763  66.576  1.00  0.00    -0.376 NA 
HETATM    7  H1  UNL     1      -8.500  13.512  68.851  1.00  0.00     0.000 HD 
HETATM    8  H2  UNL     1      -7.415  12.145  69.308  1.00  0.00     0.000 HD 
HETATM    9  H   UNL     1      -9.401  12.375  65.672  1.00  0.00     0.000 HD 
ENDROOT
BRANCH   6  10
HETATM   10  N   UNL     1      -9.556  14.008  67.054  1.00  0.00    -0.244 NA 
HETATM   11  H   UNL     1      -8.948  14.817  67.178  1.00  0.00     0.000 HD 
BRANCH  10  12
HETATM   12  C   UNL     1     -10.824  13.994  67.316  1.00  0.00    -0.284 C  
BRANCH  12  13
HETATM   13  C   UNL     1     -11.364  14.246  68.670  1.00  0.00    -0.302 A  
HETATM   14  C   UNL     1     -11.536  15.546  69.180  1.00  0.00    -0.362 A  
HETATM   15  C   UNL     1     -12.116  15.736  70.443  1.00  0.00    -0.399 A  
HETATM   16 CL   UNL     1     -11.132  16.991  68.317  1.00  0.00    -0.272 Cl 
HETATM   17  C   UNL     1     -12.531  14.647  71.204  1.00  0.00    -0.402 A  
HETATM   18  C   UNL     1     -12.356  13.358  70.712  1.00  0.00    -0.433 A  
HETATM   19  C   UNL     1     -11.777  13.154  69.452  1.00  0.00    -0.327 A  
HETATM   20 CL   UNL     1     -11.579  11.508  68.951  1.00  0.00    -0.347 Cl 
ENDBRANCH  12  13
ENDBRANCH  10  12
ENDBRANCH   6  10
TORSDOF 3
ENDMDL
MODEL      132
REMARK 921   NORMALIZED FREE ENERGY PREDICTED BY IDOCK:   -3.79 KCAL/MOL
REMARK 922        TOTAL FREE ENERGY PREDICTED BY IDOCK:   -4.73 KCAL/MOL
REMARK 923 INTER-LIGAND FREE ENERGY PREDICTED BY IDOCK:   -4.62 KCAL/MOL
REMARK 924 INTRA-LIGAND FREE ENERGY PREDICTED BY IDOCK:   -0.11 KCAL/MOL
REMARK 927      BINDING AFFINITY PREDICTED BY RF-SCORE:    0.00 PKD
ROOT
HETATM    1  N   UNL     1      -7.084  14.438  67.370  1.00  0.00    -0.247 NA 
HETATM    2  H2  UNL     1      -6.376  14.867  67.966  1.00  0.00     0.000 HD 
HETATM    3  C   UNL     1      -8.198  15.066  66.932  1.00  0.00    -0.171 C  
HETATM    4  H1  UNL     1      -7.043  13.478  67.026  1.00  0.00     0.000 HD 
HETATM    5  N   UNL     1      -8.251  16.342  67.389  1.00  0.00    -0.154 NA 
HETATM    6  N   UNL     1      -9.077  14.506  66.164  1.00  0.00    -0.507 NA 
HETATM    7  H1  UNL     1      -9.092  16.816  67.059  1.00  0.00     0.000 HD 
HETATM    8  H2  UNL     1      -7.544  16.771  67.985  1.00  0.00     0.000 HD 
HETATM    9  H   UNL     1      -9.045  13.529  65.874  1.00  0.00     0.000 HD 
ENDROOT
BRANCH   6  10
HETATM   10  N   UNL     1     -10.078  15.406  65.781  1.00  0.00    -0.334 NA 
HETATM   11  H   UNL     1      -9.905  16.314  65.351  1.00  0.00     0.000 HD 
BRANCH  10  12
HETATM   12  C   UNL     1     -11.253  14.930  66.047  1.00  0.00    -0.327 C  
BRANCH  12  13
HETATM   13  C   UNL     1     -11.490  13.930  67.110  1.00  0.00    -0.370 A  
HETATM   14  C   UNL     1     -11.564  12.551  66.841  1.00  0.00    -0.370 A  
HETATM   15  C   UNL     1     -11.722  11.636  67.892  1.00  0.00    -0.329 A  
HETATM   16 CL   UNL     1     -11.408  11.859  65.263  1.00  0.00    -0.361 Cl 
HETATM   17  C   UNL     1     -11.803  12.076  69.210  1.00  0.00    -0.377 A  
HETATM   18  C   UNL     1     -11.739  13.438  69.485  1.00  0.00    -0.385 A  
HETATM   19  C   UNL     1     -11.583  14.364  68.444  1.00  0.00    -0.319 A  
HETATM   20 CL   UNL     1     -11.547  16.035  68.896  1.00  0.00    -0.374 Cl 
ENDBRANCH  12  13
ENDBRANCH  10  12
ENDBRANCH   6  10
TORSDOF 3
ENDMDL
MODEL      133
REMARK 921   NORMALIZED FREE ENERGY PREDICTED BY IDOCK:   -3.78 KCAL/MOL
REMARK 922        TOTAL FREE ENERGY PREDICTED BY IDOCK:   -4.73 KCAL/MOL
REMARK 923 INTER-LIGAND FREE ENERGY PREDICTED BY IDOCK:   -4.76 KCAL/MOL
REMARK 924 INTRA-LIGAND FREE ENERGY PREDICTED BY IDOCK:    0.03 KCAL/MOL
REMARK 927      BINDING AFFINITY PREDICTED BY RF-SCORE:    0.00 PKD
ROOT
HETATM    1  N   UNL     1      -7.135  14.630  70.026  1.00  0.00    -0.375 NA 
HETATM    2  H2  UNL     1      -6.195  15.017  69.937  1.00  0.00     0.000 HD 
HETATM    3  C   UNL     1      -8.154  14.896  69.179  1.00  0.00    -0.160 C  
HETATM    4  H1  UNL     1      -7.428  13.992  70.766  1.00  0.00     0.000 HD 
HETATM    5  N   UNL     1      -7.765  15.744  68.196  1.00  0.00    -0.125 NA 
HETATM    6  N   UNL     1      -9.337  14.383  69.304  1.00  0.00    -0.399 NA 
HETATM    7  H1  UNL     1      -8.534  15.945  67.557  1.00  0.00     0.000 HD 
HETATM    8  H2  UNL     1      -6.825  16.131  68.107  1.00  0.00     0.000 HD 
HETATM    9  H   UNL     1      -9.624  13.788  70.080  1.00  0.00     0.000 HD 
ENDROOT
BRANCH   6  10
HETATM   10  N   UNL     1     -10.172  14.745  68.241  1.00  0.00    -0.223 NA 
HETATM   11  H   UNL     1      -9.844  15.097  67.342  1.00  0.00     0.000 HD 
BRANCH  10  12
HETATM   12  C   UNL     1     -11.417  14.574  68.554  1.00  0.00    -0.301 C  
BRANCH  12  13
HETATM   13  C   UNL     1     -11.857  13.622  69.597  1.00  0.00    -0.396 A  
HETATM   14  C   UNL     1     -12.456  14.047  70.797  1.00  0.00    -0.372 A  
HETATM   15  C   UNL     1     -12.919  13.103  71.726  1.00  0.00    -0.435 A  
HETATM   16 CL   UNL     1     -12.736  15.704  71.210  1.00  0.00    -0.509 Cl 
HETATM   17  C   UNL     1     -12.796  11.741  71.473  1.00  0.00    -0.450 A  
HETATM   18  C   UNL     1     -12.198  11.311  70.293  1.00  0.00    -0.428 A  
HETATM   19  C   UNL     1     -11.729  12.243  69.357  1.00  0.00    -0.330 A  
HETATM   20 CL   UNL     1     -10.973  11.600  67.939  1.00  0.00    -0.256 Cl 
ENDBRANCH  12  13
ENDBRANCH  10  12
ENDBRANCH   6  10
TORSDOF 3
ENDMDL
MODEL      134
REMARK 921   NORMALIZED FREE ENERGY PREDICTED BY IDOCK:   -3.78 KCAL/MOL
REMARK 922        TOTAL FREE ENERGY PREDICTED BY IDOCK:   -4.73 KCAL/MOL
REMARK 923 INTER-LIGAND FREE ENERGY PREDICTED BY IDOCK:   -4.46 KCAL/MOL
REMARK 924 INTRA-LIGAND FREE ENERGY PREDICTED BY IDOCK:   -0.28 KCAL/MOL
REMARK 927      BINDING AFFINITY PREDICTED BY RF-SCORE:    0.00 PKD
ROOT
HETATM    1  N   UNL     1      -8.473   9.754  64.924  1.00  0.00    -0.145 NA 
HETATM    2  H2  UNL     1      -7.760   9.412  64.281  1.00  0.00     0.000 HD 
HETATM    3  C   UNL     1      -9.302  10.790  64.665  1.00  0.00    -0.233 C  
HETATM    4  H1  UNL     1      -8.654   9.360  65.847  1.00  0.00     0.000 HD 
HETATM    5  N   UNL     1      -9.062  11.314  63.437  1.00  0.00    -0.442 NA 
HETATM    6  N   UNL     1     -10.211  11.200  65.491  1.00  0.00    -0.253 NA 
HETATM    7  H1  UNL     1      -9.687  12.096  63.242  1.00  0.00     0.000 HD 
HETATM    8  H2  UNL     1      -8.348  10.971  62.794  1.00  0.00     0.000 HD 
HETATM    9  H   UNL     1     -10.341  10.826  66.431  1.00  0.00     0.000 HD 
ENDROOT
BRANCH   6  10
HETATM   10  N   UNL     1     -10.992  12.220  64.937  1.00  0.00    -0.293 NA 
HETATM   11  H   UNL     1     -10.895  12.570  63.984  1.00  0.00     0.000 HD 
BRANCH  10  12
HETATM   12  C   UNL     1     -11.855  12.660  65.797  1.00  0.00    -0.444 C  
BRANCH  12  13
HETATM   13  C   UNL     1     -11.539  13.724  66.774  1.00  0.00    -0.394 A  
HETATM   14  C   UNL     1     -11.281  15.051  66.383  1.00  0.00    -0.310 A  
HETATM   15  C   UNL     1     -11.055  16.039  67.352  1.00  0.00    -0.167 A  
HETATM   16 CL   UNL     1     -11.281  15.598  64.741  1.00  0.00    -0.428 Cl 
HETATM   17  C   UNL     1     -11.086  15.724  68.707  1.00  0.00    -0.321 A  
HETATM   18  C   UNL     1     -11.332  14.414  69.103  1.00  0.00    -0.308 A  
HETATM   19  C   UNL     1     -11.558  13.416  68.145  1.00  0.00    -0.341 A  
HETATM   20 CL   UNL     1     -11.823  11.814  68.747  1.00  0.00    -0.377 Cl 
ENDBRANCH  12  13
ENDBRANCH  10  12
ENDBRANCH   6  10
TORSDOF 3
ENDMDL
MODEL      135
REMARK 921   NORMALIZED FREE ENERGY PREDICTED BY IDOCK:   -3.76 KCAL/MOL
REMARK 922        TOTAL FREE ENERGY PREDICTED BY IDOCK:   -4.71 KCAL/MOL
REMARK 923 INTER-LIGAND FREE ENERGY PREDICTED BY IDOCK:   -4.39 KCAL/MOL
REMARK 924 INTRA-LIGAND FREE ENERGY PREDICTED BY IDOCK:   -0.32 KCAL/MOL
REMARK 927      BINDING AFFINITY PREDICTED BY RF-SCORE:    0.00 PKD
ROOT
HETATM    1  N   UNL     1      -7.046  10.376  70.696  1.00  0.00    -0.442 NA 
HETATM    2  H2  UNL     1      -6.606  10.820  71.503  1.00  0.00     0.000 HD 
HETATM    3  C   UNL     1      -7.848   9.291  70.764  1.00  0.00    -0.145 C  
HETATM    4  H1  UNL     1      -6.936  10.694  69.733  1.00  0.00     0.000 HD 
HETATM    5  N   UNL     1      -7.993   8.868  72.044  1.00  0.00    -0.364 NA 
HETATM    6  N   UNL     1      -8.407   8.752  69.727  1.00  0.00    -0.122 NA 
HETATM    7  H1  UNL     1      -8.599   8.049  72.095  1.00  0.00     0.000 HD 
HETATM    8  H2  UNL     1      -7.554   9.312  72.850  1.00  0.00     0.000 HD 
HETATM    9  H   UNL     1      -8.244   9.053  68.767  1.00  0.00     0.000 HD 
ENDROOT
BRANCH   6  10
HETATM   10  N   UNL     1      -9.263   7.705  70.086  1.00  0.00    -0.154 NA 
HETATM   11  H   UNL     1      -8.974   6.871  70.598  1.00  0.00     0.000 HD 
BRANCH  10  12
HETATM   12  C   UNL     1     -10.471   7.937  69.682  1.00  0.00    -0.226 C  
BRANCH  12  13
HETATM   13  C   UNL     1     -11.438   8.736  70.464  1.00  0.00    -0.222 A  
HETATM   14  C   UNL     1     -11.632  10.111  70.239  1.00  0.00    -0.302 A  
HETATM   15  C   UNL     1     -12.610  10.812  70.961  1.00  0.00    -0.520 A  
HETATM   16 CL   UNL     1     -10.772  11.033  69.054  1.00  0.00    -0.237 Cl 
HETATM   17  C   UNL     1     -13.401  10.159  71.902  1.00  0.00    -0.505 A  
HETATM   18  C   UNL     1     -13.210   8.801  72.138  1.00  0.00    -0.456 A  
HETATM   19  C   UNL     1     -12.235   8.090  71.425  1.00  0.00    -0.309 A  
HETATM   20 CL   UNL     1     -12.061   6.413  71.820  1.00  0.00    -0.387 Cl 
ENDBRANCH  12  13
ENDBRANCH  10  12
ENDBRANCH   6  10
TORSDOF 3
ENDMDL
MODEL      136
REMARK 921   NORMALIZED FREE ENERGY PREDICTED BY IDOCK:   -3.76 KCAL/MOL
REMARK 922        TOTAL FREE ENERGY PREDICTED BY IDOCK:   -4.70 KCAL/MOL
REMARK 923 INTER-LIGAND FREE ENERGY PREDICTED BY IDOCK:   -4.48 KCAL/MOL
REMARK 924 INTRA-LIGAND FREE ENERGY PREDICTED BY IDOCK:   -0.23 KCAL/MOL
REMARK 927      BINDING AFFINITY PREDICTED BY RF-SCORE:    0.00 PKD
ROOT
HETATM    1  N   UNL     1      -9.938   6.852  66.525  1.00  0.00    -0.381 NA 
HETATM    2  H2  UNL     1     -10.178   6.060  67.120  1.00  0.00     0.000 HD 
HETATM    3  C   UNL     1     -10.301   8.131  66.771  1.00  0.00    -0.291 C  
HETATM    4  H1  UNL     1      -9.392   6.783  65.666  1.00  0.00     0.000 HD 
HETATM    5  N   UNL     1     -11.026   8.222  67.914  1.00  0.00    -0.476 NA 
HETATM    6  N   UNL     1      -9.973   9.125  66.008  1.00  0.00    -0.366 NA 
HETATM    7  H1  UNL     1     -11.300   9.187  68.099  1.00  0.00     0.000 HD 
HETATM    8  H2  UNL     1     -11.266   7.429  68.509  1.00  0.00     0.000 HD 
HETATM    9  H   UNL     1      -9.471   9.028  65.126  1.00  0.00     0.000 HD 
ENDROOT
BRANCH   6  10
HETATM   10  N   UNL     1     -10.393  10.347  66.543  1.00  0.00    -0.237 NA 
HETATM   11  H   UNL     1     -11.168  10.458  67.197  1.00  0.00     0.000 HD 
BRANCH  10  12
HETATM   12  C   UNL     1      -9.664  11.321  66.097  1.00  0.00    -0.220 C  
BRANCH  12  13
HETATM   13  C   UNL     1     -10.196  12.684  65.879  1.00  0.00    -0.290 A  
HETATM   14  C   UNL     1     -11.142  12.970  64.878  1.00  0.00    -0.301 A  
HETATM   15  C   UNL     1     -11.667  14.265  64.755  1.00  0.00    -0.420 A  
HETATM   16 CL   UNL     1     -11.783  11.795  63.781  1.00  0.00    -0.517 Cl 
HETATM   17  C   UNL     1     -11.265  15.279  65.620  1.00  0.00    -0.256 A  
HETATM   18  C   UNL     1     -10.324  15.007  66.608  1.00  0.00    -0.278 A  
HETATM   19  C   UNL     1      -9.789  13.717  66.741  1.00  0.00    -0.275 A  
HETATM   20 CL   UNL     1      -8.603  13.498  67.982  1.00  0.00    -0.167 Cl 
ENDBRANCH  12  13
ENDBRANCH  10  12
ENDBRANCH   6  10
TORSDOF 3
ENDMDL
MODEL      137
REMARK 921   NORMALIZED FREE ENERGY PREDICTED BY IDOCK:   -3.74 KCAL/MOL
REMARK 922        TOTAL FREE ENERGY PREDICTED BY IDOCK:   -4.68 KCAL/MOL
REMARK 923 INTER-LIGAND FREE ENERGY PREDICTED BY IDOCK:   -4.71 KCAL/MOL
REMARK 924 INTRA-LIGAND FREE ENERGY PREDICTED BY IDOCK:    0.03 KCAL/MOL
REMARK 927      BINDING AFFINITY PREDICTED BY RF-SCORE:    0.00 PKD
ROOT
HETATM    1  N   UNL     1     -10.286  17.874  65.635  1.00  0.00    -0.589 NA 
HETATM    2  H2  UNL     1     -10.130  18.804  66.022  1.00  0.00     0.000 HD 
HETATM    3  C   UNL     1     -10.597  16.783  66.369  1.00  0.00    -0.192 C  
HETATM    4  H1  UNL     1     -10.226  17.645  64.642  1.00  0.00     0.000 HD 
HETATM    5  N   UNL     1     -10.676  17.087  67.688  1.00  0.00    -0.328 NA 
HETATM    6  N   UNL     1     -10.803  15.612  65.854  1.00  0.00    -0.318 NA 
HETATM    7  H1  UNL     1     -10.911  16.264  68.242  1.00  0.00     0.000 HD 
HETATM    8  H2  UNL     1     -10.521  18.018  68.075  1.00  0.00     0.000 HD 
HETATM    9  H   UNL     1     -10.688  15.393  64.866  1.00  0.00     0.000 HD 
ENDROOT
BRANCH   6  10
HETATM   10  N   UNL     1     -11.204  14.685  66.823  1.00  0.00    -0.336 NA 
HETATM   11  H   UNL     1     -11.099  14.817  67.829  1.00  0.00     0.000 HD 
BRANCH  10  12
HETATM   12  C   UNL     1     -11.727  13.637  66.270  1.00  0.00    -0.367 C  
BRANCH  12  13
HETATM   13  C   UNL     1     -10.919  12.483  65.819  1.00  0.00    -0.327 A  
HETATM   14  C   UNL     1     -11.063  11.920  64.538  1.00  0.00    -0.325 A  
HETATM   15  C   UNL     1     -10.226  10.870  64.132  1.00  0.00    -0.424 A  
HETATM   16 CL   UNL     1     -12.191  12.480  63.351  1.00  0.00    -0.632 Cl 
HETATM   17  C   UNL     1      -9.244  10.376  64.984  1.00  0.00    -0.256 A  
HETATM   18  C   UNL     1      -9.100  10.920  66.257  1.00  0.00    -0.192 A  
HETATM   19  C   UNL     1      -9.931  11.969  66.676  1.00  0.00    -0.201 A  
HETATM   20 CL   UNL     1      -9.686  12.549  68.288  1.00  0.00    -0.224 Cl 
ENDBRANCH  12  13
ENDBRANCH  10  12
ENDBRANCH   6  10
TORSDOF 3
ENDMDL
MODEL      138
REMARK 921   NORMALIZED FREE ENERGY PREDICTED BY IDOCK:   -3.74 KCAL/MOL
REMARK 922        TOTAL FREE ENERGY PREDICTED BY IDOCK:   -4.68 KCAL/MOL
REMARK 923 INTER-LIGAND FREE ENERGY PREDICTED BY IDOCK:   -4.57 KCAL/MOL
REMARK 924 INTRA-LIGAND FREE ENERGY PREDICTED BY IDOCK:   -0.11 KCAL/MOL
REMARK 927      BINDING AFFINITY PREDICTED BY RF-SCORE:    0.00 PKD
ROOT
HETATM    1  N   UNL     1     -10.542  17.852  65.693  1.00  0.00    -0.587 NA 
HETATM    2  H2  UNL     1     -10.055  18.663  65.314  1.00  0.00     0.000 HD 
HETATM    3  C   UNL     1      -9.940  16.695  66.048  1.00  0.00    -0.324 C  
HETATM    4  H1  UNL     1     -11.549  17.808  65.854  1.00  0.00     0.000 HD 
HETATM    5  N   UNL     1      -8.602  16.754  65.834  1.00  0.00    -0.502 NA 
HETATM    6  N   UNL     1     -10.578  15.681  66.541  1.00  0.00    -0.305 NA 
HETATM    7  H1  UNL     1      -8.148  15.881  66.101  1.00  0.00     0.000 HD 
HETATM    8  H2  UNL     1      -8.115  17.565  65.454  1.00  0.00     0.000 HD 
HETATM    9  H   UNL     1     -11.591  15.638  66.646  1.00  0.00     0.000 HD 
ENDROOT
BRANCH   6  10
HETATM   10  N   UNL     1      -9.705  14.652  66.912  1.00  0.00    -0.234 NA 
HETATM   11  H   UNL     1      -9.269  14.000  66.261  1.00  0.00     0.000 HD 
BRANCH  10  12
HETATM   12  C   UNL     1      -9.526  14.639  68.195  1.00  0.00    -0.212 C  
BRANCH  12  13
HETATM   13  C   UNL     1     -10.647  14.615  69.160  1.00  0.00    -0.247 A  
HETATM   14  C   UNL     1     -11.122  15.780  69.789  1.00  0.00    -0.322 A  
HETATM   15  C   UNL     1     -12.232  15.716  70.644  1.00  0.00    -0.446 A  
HETATM   16 CL   UNL     1     -10.462  17.360  69.536  1.00  0.00    -0.135 Cl 
HETATM   17  C   UNL     1     -12.878  14.507  70.879  1.00  0.00    -0.425 A  
HETATM   18  C   UNL     1     -12.410  13.347  70.268  1.00  0.00    -0.354 A  
HETATM   19  C   UNL     1     -11.301  13.397  69.412  1.00  0.00    -0.226 A  
HETATM   20 CL   UNL     1     -10.784  11.891  68.731  1.00  0.00    -0.250 Cl 
ENDBRANCH  12  13
ENDBRANCH  10  12
ENDBRANCH   6  10
TORSDOF 3
ENDMDL
MODEL      139
REMARK 921   NORMALIZED FREE ENERGY PREDICTED BY IDOCK:   -3.73 KCAL/MOL
REMARK 922        TOTAL FREE ENERGY PREDICTED BY IDOCK:   -4.67 KCAL/MOL
REMARK 923 INTER-LIGAND FREE ENERGY PREDICTED BY IDOCK:   -4.87 KCAL/MOL
REMARK 924 INTRA-LIGAND FREE ENERGY PREDICTED BY IDOCK:    0.20 KCAL/MOL
REMARK 927      BINDING AFFINITY PREDICTED BY RF-SCORE:    0.00 PKD
ROOT
HETATM    1  N   UNL     1     -11.507  16.410  63.998  1.00  0.00    -1.573 NA 
HETATM    2  H2  UNL     1     -11.305  17.325  63.594  1.00  0.00     0.000 HD 
HETATM    3  C   UNL     1     -10.887  15.902  65.086  1.00  0.00    -0.421 C  
HETATM    4  H1  UNL     1     -12.203  15.760  63.633  1.00  0.00     0.000 HD 
HETATM    5  N   UNL     1      -9.961  16.766  65.571  1.00  0.00    -0.584 NA 
HETATM    6  N   UNL     1     -11.169  14.742  65.591  1.00  0.00    -0.338 NA 
HETATM    7  H1  UNL     1      -9.493  16.382  66.391  1.00  0.00     0.000 HD 
HETATM    8  H2  UNL     1      -9.760  17.680  65.167  1.00  0.00     0.000 HD 
HETATM    9  H   UNL     1     -11.832  14.085  65.181  1.00  0.00     0.000 HD 
ENDROOT
BRANCH   6  10
HETATM   10  N   UNL     1     -10.452  14.502  66.768  1.00  0.00    -0.268 NA 
HETATM   11  H   UNL     1     -10.670  14.917  67.673  1.00  0.00     0.000 HD 
BRANCH  10  12
HETATM   12  C   UNL     1      -9.472  13.683  66.553  1.00  0.00    -0.259 C  
BRANCH  12  13
HETATM   13  C   UNL     1      -9.114  12.599  67.494  1.00  0.00    -0.192 A  
HETATM   14  C   UNL     1      -7.801  12.416  67.963  1.00  0.00    -0.141 A  
HETATM   15  C   UNL     1      -7.523  11.417  68.908  1.00  0.00    -0.113 A  
HETATM   16 CL   UNL     1      -6.456  13.402  67.500  1.00  0.00    -0.169 Cl 
HETATM   17  C   UNL     1      -8.539  10.599  69.394  1.00  0.00    -0.046 A  
HETATM   18  C   UNL     1      -9.839  10.767  68.929  1.00  0.00    -0.209 A  
HETATM   19  C   UNL     1     -10.130  11.761  67.984  1.00  0.00    -0.192 A  
HETATM   20 CL   UNL     1     -11.774  11.862  67.451  1.00  0.00    -0.367 Cl 
ENDBRANCH  12  13
ENDBRANCH  10  12
ENDBRANCH   6  10
TORSDOF 3
ENDMDL
MODEL      140
REMARK 921   NORMALIZED FREE ENERGY PREDICTED BY IDOCK:   -3.73 KCAL/MOL
REMARK 922        TOTAL FREE ENERGY PREDICTED BY IDOCK:   -4.66 KCAL/MOL
REMARK 923 INTER-LIGAND FREE ENERGY PREDICTED BY IDOCK:   -4.40 KCAL/MOL
REMARK 924 INTRA-LIGAND FREE ENERGY PREDICTED BY IDOCK:   -0.27 KCAL/MOL
REMARK 927      BINDING AFFINITY PREDICTED BY RF-SCORE:    0.00 PKD
ROOT
HETATM    1  N   UNL     1      -7.604  12.712  69.094  1.00  0.00    -0.324 NA 
HETATM    2  H2  UNL     1      -7.125  11.813  69.128  1.00  0.00     0.000 HD 
HETATM    3  C   UNL     1      -7.851  13.404  67.960  1.00  0.00    -0.148 C  
HETATM    4  H1  UNL     1      -7.958  13.208  69.913  1.00  0.00     0.000 HD 
HETATM    5  N   UNL     1      -7.380  12.745  66.872  1.00  0.00    -0.363 NA 
HETATM    6  N   UNL     1      -8.473  14.540  67.938  1.00  0.00    -0.152 NA 
HETATM    7  H1  UNL     1      -7.565  13.267  66.016  1.00  0.00     0.000 HD 
HETATM    8  H2  UNL     1      -6.901  11.845  66.907  1.00  0.00     0.000 HD 
HETATM    9  H   UNL     1      -8.774  15.044  68.772  1.00  0.00     0.000 HD 
ENDROOT
BRANCH   6  10
HETATM   10  N   UNL     1      -8.682  14.990  66.630  1.00  0.00    -0.362 NA 
HETATM   11  H   UNL     1      -9.150  14.453  65.901  1.00  0.00     0.000 HD 
BRANCH  10  12
HETATM   12  C   UNL     1      -8.200  16.182  66.470  1.00  0.00    -0.308 C  
BRANCH  12  13
HETATM   13  C   UNL     1      -8.910  17.399  66.919  1.00  0.00    -0.259 A  
HETATM   14  C   UNL     1     -10.096  17.846  66.307  1.00  0.00    -0.351 A  
HETATM   15  C   UNL     1     -10.769  18.968  66.813  1.00  0.00    -0.450 A  
HETATM   16 CL   UNL     1     -10.855  17.058  64.967  1.00  0.00    -0.175 Cl 
HETATM   17  C   UNL     1     -10.279  19.649  67.923  1.00  0.00    -0.574 A  
HETATM   18  C   UNL     1      -9.103  19.219  68.529  1.00  0.00    -0.425 A  
HETATM   19  C   UNL     1      -8.419  18.101  68.033  1.00  0.00    -0.262 A  
HETATM   20 CL   UNL     1      -6.950  17.673  68.844  1.00  0.00    -0.245 Cl 
ENDBRANCH  12  13
ENDBRANCH  10  12
ENDBRANCH   6  10
TORSDOF 3
ENDMDL
MODEL      141
REMARK 921   NORMALIZED FREE ENERGY PREDICTED BY IDOCK:   -3.72 KCAL/MOL
REMARK 922        TOTAL FREE ENERGY PREDICTED BY IDOCK:   -4.65 KCAL/MOL
REMARK 923 INTER-LIGAND FREE ENERGY PREDICTED BY IDOCK:   -4.41 KCAL/MOL
REMARK 924 INTRA-LIGAND FREE ENERGY PREDICTED BY IDOCK:   -0.24 KCAL/MOL
REMARK 927      BINDING AFFINITY PREDICTED BY RF-SCORE:    0.00 PKD
ROOT
HETATM    1  N   UNL     1      -9.050   7.650  70.673  1.00  0.00    -0.157 NA 
HETATM    2  H2  UNL     1      -8.125   7.254  70.837  1.00  0.00     0.000 HD 
HETATM    3  C   UNL     1      -9.304   8.970  70.534  1.00  0.00    -0.219 C  
HETATM    4  H1  UNL     1      -9.906   7.100  70.593  1.00  0.00     0.000 HD 
HETATM    5  N   UNL     1      -8.166   9.700  70.640  1.00  0.00    -0.332 NA 
HETATM    6  N   UNL     1     -10.486   9.450  70.313  1.00  0.00    -0.231 NA 
HETATM    7  H1  UNL     1      -8.357  10.696  70.536  1.00  0.00     0.000 HD 
HETATM    8  H2  UNL     1      -7.241   9.304  70.804  1.00  0.00     0.000 HD 
HETATM    9  H   UNL     1     -11.337   8.888  70.287  1.00  0.00     0.000 HD 
ENDROOT
BRANCH   6  10
HETATM   10  N   UNL     1     -10.453  10.834  70.112  1.00  0.00    -0.400 NA 
HETATM   11  H   UNL     1      -9.652  11.430  70.320  1.00  0.00     0.000 HD 
BRANCH  10  12
HETATM   12  C   UNL     1     -11.577  11.257  69.627  1.00  0.00    -0.330 C  
BRANCH  12  13
HETATM   13  C   UNL     1     -11.664  12.390  68.680  1.00  0.00    -0.372 A  
HETATM   14  C   UNL     1     -12.032  13.685  69.088  1.00  0.00    -0.351 A  
HETATM   15  C   UNL     1     -12.034  14.740  68.165  1.00  0.00    -0.265 A  
HETATM   16 CL   UNL     1     -12.438  14.112  70.715  1.00  0.00    -0.414 Cl 
HETATM   17  C   UNL     1     -11.670  14.524  66.839  1.00  0.00    -0.399 A  
HETATM   18  C   UNL     1     -11.314  13.245  66.424  1.00  0.00    -0.341 A  
HETATM   19  C   UNL     1     -11.309  12.180  67.336  1.00  0.00    -0.326 A  
HETATM   20 CL   UNL     1     -10.880  10.626  66.706  1.00  0.00    -0.272 Cl 
ENDBRANCH  12  13
ENDBRANCH  10  12
ENDBRANCH   6  10
TORSDOF 3
ENDMDL
MODEL      142
REMARK 921   NORMALIZED FREE ENERGY PREDICTED BY IDOCK:   -3.71 KCAL/MOL
REMARK 922        TOTAL FREE ENERGY PREDICTED BY IDOCK:   -4.64 KCAL/MOL
REMARK 923 INTER-LIGAND FREE ENERGY PREDICTED BY IDOCK:   -4.24 KCAL/MOL
REMARK 924 INTRA-LIGAND FREE ENERGY PREDICTED BY IDOCK:   -0.40 KCAL/MOL
REMARK 927      BINDING AFFINITY PREDICTED BY RF-SCORE:    0.00 PKD
ROOT
HETATM    1  N   UNL     1     -10.566  13.499  65.033  1.00  0.00    -0.350 NA 
HETATM    2  H2  UNL     1     -11.147  13.568  64.198  1.00  0.00     0.000 HD 
HETATM    3  C   UNL     1     -10.904  12.812  66.146  1.00  0.00    -0.279 C  
HETATM    4  H1  UNL     1      -9.652  13.942  65.137  1.00  0.00     0.000 HD 
HETATM    5  N   UNL     1     -12.119  12.225  66.008  1.00  0.00    -0.630 NA 
HETATM    6  N   UNL     1     -10.144  12.727  67.191  1.00  0.00    -0.232 NA 
HETATM    7  H1  UNL     1     -12.375  11.707  66.848  1.00  0.00     0.000 HD 
HETATM    8  H2  UNL     1     -12.700  12.293  65.173  1.00  0.00     0.000 HD 
HETATM    9  H   UNL     1      -9.257  13.219  67.295  1.00  0.00     0.000 HD 
ENDROOT
BRANCH   6  10
HETATM   10  N   UNL     1     -10.689  11.878  68.160  1.00  0.00    -0.205 NA 
HETATM   11  H   UNL     1     -11.602  12.007  68.595  1.00  0.00     0.000 HD 
BRANCH  10  12
HETATM   12  C   UNL     1      -9.877  10.905  68.430  1.00  0.00    -0.177 C  
BRANCH  12  13
HETATM   13  C   UNL     1     -10.276   9.484  68.349  1.00  0.00    -0.221 A  
HETATM   14  C   UNL     1     -10.309   8.781  67.131  1.00  0.00    -0.293 A  
HETATM   15  C   UNL     1     -10.628   7.415  67.114  1.00  0.00    -0.413 A  
HETATM   16 CL   UNL     1      -9.912   9.475  65.597  1.00  0.00    -0.351 Cl 
HETATM   17  C   UNL     1     -10.912   6.738  68.296  1.00  0.00    -0.270 A  
HETATM   18  C   UNL     1     -10.890   7.427  69.505  1.00  0.00    -0.201 A  
HETATM   19  C   UNL     1     -10.575   8.792  69.536  1.00  0.00    -0.219 A  
HETATM   20 CL   UNL     1     -10.608   9.557  71.089  1.00  0.00    -0.402 Cl 
ENDBRANCH  12  13
ENDBRANCH  10  12
ENDBRANCH   6  10
TORSDOF 3
ENDMDL
MODEL      143
REMARK 921   NORMALIZED FREE ENERGY PREDICTED BY IDOCK:   -3.70 KCAL/MOL
REMARK 922        TOTAL FREE ENERGY PREDICTED BY IDOCK:   -4.64 KCAL/MOL
REMARK 923 INTER-LIGAND FREE ENERGY PREDICTED BY IDOCK:   -4.30 KCAL/MOL
REMARK 924 INTRA-LIGAND FREE ENERGY PREDICTED BY IDOCK:   -0.34 KCAL/MOL
REMARK 927      BINDING AFFINITY PREDICTED BY RF-SCORE:    0.00 PKD
ROOT
HETATM    1  N   UNL     1      -6.152  10.312  64.724  1.00  0.00    -0.141 NA 
HETATM    2  H2  UNL     1      -5.269  10.800  64.576  1.00  0.00     0.000 HD 
HETATM    3  C   UNL     1      -7.108  10.709  65.593  1.00  0.00    -0.076 C  
HETATM    4  H1  UNL     1      -6.429   9.461  64.235  1.00  0.00     0.000 HD 
HETATM    5  N   UNL     1      -6.739  11.840  66.243  1.00  0.00    -0.337 NA 
HETATM    6  N   UNL     1      -8.229  10.081  65.755  1.00  0.00    -0.125 NA 
HETATM    7  H1  UNL     1      -7.460  12.139  66.899  1.00  0.00     0.000 HD 
HETATM    8  H2  UNL     1      -5.856  12.328  66.095  1.00  0.00     0.000 HD 
HETATM    9  H   UNL     1      -8.466   9.203  65.294  1.00  0.00     0.000 HD 
ENDROOT
BRANCH   6  10
HETATM   10  N   UNL     1      -9.076  10.757  66.640  1.00  0.00    -0.157 NA 
HETATM   11  H   UNL     1      -8.766  11.244  67.480  1.00  0.00     0.000 HD 
BRANCH  10  12
HETATM   12  C   UNL     1     -10.309  10.679  66.249  1.00  0.00    -0.234 C  
BRANCH  12  13
HETATM   13  C   UNL     1     -11.089  11.861  65.822  1.00  0.00    -0.367 A  
HETATM   14  C   UNL     1     -11.756  12.693  66.739  1.00  0.00    -0.392 A  
HETATM   15  C   UNL     1     -12.426  13.841  66.291  1.00  0.00    -0.441 A  
HETATM   16 CL   UNL     1     -11.767  12.440  68.451  1.00  0.00    -0.368 Cl 
HETATM   17  C   UNL     1     -12.436  14.174  64.941  1.00  0.00    -0.419 A  
HETATM   18  C   UNL     1     -11.786  13.353  64.025  1.00  0.00    -0.498 A  
HETATM   19  C   UNL     1     -11.115  12.202  64.459  1.00  0.00    -0.325 A  
HETATM   20 CL   UNL     1     -10.367  11.236  63.232  1.00  0.00    -0.416 Cl 
ENDBRANCH  12  13
ENDBRANCH  10  12
ENDBRANCH   6  10
TORSDOF 3
ENDMDL
MODEL      144
REMARK 921   NORMALIZED FREE ENERGY PREDICTED BY IDOCK:   -3.69 KCAL/MOL
REMARK 922        TOTAL FREE ENERGY PREDICTED BY IDOCK:   -4.63 KCAL/MOL
REMARK 923 INTER-LIGAND FREE ENERGY PREDICTED BY IDOCK:   -4.71 KCAL/MOL
REMARK 924 INTRA-LIGAND FREE ENERGY PREDICTED BY IDOCK:    0.08 KCAL/MOL
REMARK 927      BINDING AFFINITY PREDICTED BY RF-SCORE:    0.00 PKD
ROOT
HETATM    1  N   UNL     1     -12.296  14.383  63.606  1.00  0.00    -1.106 NA 
HETATM    2  H2  UNL     1     -12.350  14.506  62.596  1.00  0.00     0.000 HD 
HETATM    3  C   UNL     1     -12.142  13.191  64.225  1.00  0.00    -0.414 C  
HETATM    4  H1  UNL     1     -12.352  15.144  64.283  1.00  0.00     0.000 HD 
HETATM    5  N   UNL     1     -12.069  12.179  63.325  1.00  0.00    -0.747 NA 
HETATM    6  N   UNL     1     -12.063  13.059  65.511  1.00  0.00    -0.427 NA 
HETATM    7  H1  UNL     1     -11.953  11.280  63.791  1.00  0.00     0.000 HD 
HETATM    8  H2  UNL     1     -12.122  12.302  62.314  1.00  0.00     0.000 HD 
HETATM    9  H   UNL     1     -12.173  13.827  66.173  1.00  0.00     0.000 HD 
ENDROOT
BRANCH   6  10
HETATM   10  N   UNL     1     -11.808  11.734  65.880  1.00  0.00    -0.369 NA 
HETATM   11  H   UNL     1     -12.525  11.059  66.142  1.00  0.00     0.000 HD 
BRANCH  10  12
HETATM   12  C   UNL     1     -10.538  11.482  65.845  1.00  0.00    -0.268 C  
BRANCH  12  13
HETATM   13  C   UNL     1      -9.761  11.115  67.050  1.00  0.00    -0.210 A  
HETATM   14  C   UNL     1      -9.665   9.788  67.507  1.00  0.00    -0.157 A  
HETATM   15  C   UNL     1      -8.860   9.482  68.614  1.00  0.00    -0.132 A  
HETATM   16 CL   UNL     1     -10.439   8.440  66.747  1.00  0.00    -0.368 Cl 
HETATM   17  C   UNL     1      -8.147  10.479  69.270  1.00  0.00    -0.152 A  
HETATM   18  C   UNL     1      -8.242  11.796  68.831  1.00  0.00     0.054 A  
HETATM   19  C   UNL     1      -9.044  12.117  67.727  1.00  0.00    -0.189 A  
HETATM   20 CL   UNL     1      -9.116  13.789  67.285  1.00  0.00    -0.222 Cl 
ENDBRANCH  12  13
ENDBRANCH  10  12
ENDBRANCH   6  10
TORSDOF 3
ENDMDL
MODEL      145
REMARK 921   NORMALIZED FREE ENERGY PREDICTED BY IDOCK:   -3.68 KCAL/MOL
REMARK 922        TOTAL FREE ENERGY PREDICTED BY IDOCK:   -4.62 KCAL/MOL
REMARK 923 INTER-LIGAND FREE ENERGY PREDICTED BY IDOCK:   -4.49 KCAL/MOL
REMARK 924 INTRA-LIGAND FREE ENERGY PREDICTED BY IDOCK:   -0.12 KCAL/MOL
REMARK 927      BINDING AFFINITY PREDICTED BY RF-SCORE:    0.00 PKD
ROOT
HETATM    1  N   UNL     1     -13.786   8.224  72.080  1.00  0.00    -0.523 NA 
HETATM    2  H2  UNL     1     -14.086   8.676  72.944  1.00  0.00     0.000 HD 
HETATM    3  C   UNL     1     -12.601   7.596  71.918  1.00  0.00    -0.303 C  
HETATM    4  H1  UNL     1     -14.343   8.188  71.226  1.00  0.00     0.000 HD 
HETATM    5  N   UNL     1     -11.861   7.645  73.053  1.00  0.00    -0.598 NA 
HETATM    6  N   UNL     1     -12.246   7.017  70.815  1.00  0.00    -0.535 NA 
HETATM    7  H1  UNL     1     -10.966   7.172  72.930  1.00  0.00     0.000 HD 
HETATM    8  H2  UNL     1     -12.161   8.097  73.917  1.00  0.00     0.000 HD 
HETATM    9  H   UNL     1     -12.795   7.035  69.956  1.00  0.00     0.000 HD 
ENDROOT
BRANCH   6  10
HETATM   10  N   UNL     1     -11.017   6.361  70.948  1.00  0.00    -0.264 NA 
HETATM   11  H   UNL     1     -10.723   5.845  71.777  1.00  0.00     0.000 HD 
BRANCH  10  12
HETATM   12  C   UNL     1     -10.303   6.497  69.876  1.00  0.00    -0.191 C  
BRANCH  12  13
HETATM   13  C   UNL     1     -10.283   7.744  69.080  1.00  0.00    -0.210 A  
HETATM   14  C   UNL     1      -9.903   8.981  69.631  1.00  0.00    -0.178 A  
HETATM   15  C   UNL     1      -9.834  10.123  68.819  1.00  0.00    -0.180 A  
HETATM   16 CL   UNL     1      -9.434   9.207  71.282  1.00  0.00    -0.338 Cl 
HETATM   17  C   UNL     1     -10.136  10.048  67.463  1.00  0.00    -0.243 A  
HETATM   18  C   UNL     1     -10.522   8.830  66.911  1.00  0.00    -0.319 A  
HETATM   19  C   UNL     1     -10.596   7.682  67.711  1.00  0.00    -0.196 A  
HETATM   20 CL   UNL     1     -11.116   6.228  66.929  1.00  0.00    -0.414 Cl 
ENDBRANCH  12  13
ENDBRANCH  10  12
ENDBRANCH   6  10
TORSDOF 3
ENDMDL
MODEL      146
REMARK 921   NORMALIZED FREE ENERGY PREDICTED BY IDOCK:   -3.66 KCAL/MOL
REMARK 922        TOTAL FREE ENERGY PREDICTED BY IDOCK:   -4.59 KCAL/MOL
REMARK 923 INTER-LIGAND FREE ENERGY PREDICTED BY IDOCK:   -4.36 KCAL/MOL
REMARK 924 INTRA-LIGAND FREE ENERGY PREDICTED BY IDOCK:   -0.23 KCAL/MOL
REMARK 927      BINDING AFFINITY PREDICTED BY RF-SCORE:    0.00 PKD
ROOT
HETATM    1  N   UNL     1      -7.505  12.689  69.045  1.00  0.00    -0.313 NA 
HETATM    2  H2  UNL     1      -7.025  11.789  69.056  1.00  0.00     0.000 HD 
HETATM    3  C   UNL     1      -7.754  13.409  67.928  1.00  0.00    -0.153 C  
HETATM    4  H1  UNL     1      -7.859  13.163  69.876  1.00  0.00     0.000 HD 
HETATM    5  N   UNL     1      -7.282  12.778  66.824  1.00  0.00    -0.302 NA 
HETATM    6  N   UNL     1      -8.377  14.544  67.936  1.00  0.00    -0.149 NA 
HETATM    7  H1  UNL     1      -7.470  13.322  65.982  1.00  0.00     0.000 HD 
HETATM    8  H2  UNL     1      -6.803  11.878  66.835  1.00  0.00     0.000 HD 
HETATM    9  H   UNL     1      -8.678  15.027  68.783  1.00  0.00     0.000 HD 
ENDROOT
BRANCH   6  10
HETATM   10  N   UNL     1      -8.587  15.028  66.640  1.00  0.00    -0.393 NA 
HETATM   11  H   UNL     1      -9.059  14.510  65.899  1.00  0.00     0.000 HD 
BRANCH  10  12
HETATM   12  C   UNL     1      -8.103  16.221  66.509  1.00  0.00    -0.302 C  
BRANCH  12  13
HETATM   13  C   UNL     1      -8.753  17.418  67.085  1.00  0.00    -0.239 A  
HETATM   14  C   UNL     1      -8.215  18.110  68.185  1.00  0.00    -0.276 A  
HETATM   15  C   UNL     1      -8.832  19.279  68.653  1.00  0.00    -0.415 A  
HETATM   16 CL   UNL     1      -6.759  17.653  69.003  1.00  0.00    -0.242 Cl 
HETATM   17  C   UNL     1      -9.978  19.771  68.036  1.00  0.00    -0.553 A  
HETATM   18  C   UNL     1     -10.524  19.089  66.953  1.00  0.00    -0.505 A  
HETATM   19  C   UNL     1      -9.918  17.918  66.477  1.00  0.00    -0.357 A  
HETATM   20 CL   UNL     1     -10.697  17.133  65.145  1.00  0.00    -0.159 Cl 
ENDBRANCH  12  13
ENDBRANCH  10  12
ENDBRANCH   6  10
TORSDOF 3
ENDMDL
MODEL      147
REMARK 921   NORMALIZED FREE ENERGY PREDICTED BY IDOCK:   -3.66 KCAL/MOL
REMARK 922        TOTAL FREE ENERGY PREDICTED BY IDOCK:   -4.58 KCAL/MOL
REMARK 923 INTER-LIGAND FREE ENERGY PREDICTED BY IDOCK:   -4.29 KCAL/MOL
REMARK 924 INTRA-LIGAND FREE ENERGY PREDICTED BY IDOCK:   -0.30 KCAL/MOL
REMARK 927      BINDING AFFINITY PREDICTED BY RF-SCORE:    0.00 PKD
ROOT
HETATM    1  N   UNL     1      -8.372  11.504  68.848  1.00  0.00    -0.351 NA 
HETATM    2  H2  UNL     1      -7.374  11.513  68.642  1.00  0.00     0.000 HD 
HETATM    3  C   UNL     1      -9.341  11.786  67.950  1.00  0.00    -0.184 C  
HETATM    4  H1  UNL     1      -8.770  11.281  69.761  1.00  0.00     0.000 HD 
HETATM    5  N   UNL     1      -8.812  12.083  66.737  1.00  0.00    -0.196 NA 
HETATM    6  N   UNL     1     -10.605  11.755  68.230  1.00  0.00    -0.203 NA 
HETATM    7  H1  UNL     1      -9.543  12.297  66.059  1.00  0.00     0.000 HD 
HETATM    8  H2  UNL     1      -7.813  12.093  66.531  1.00  0.00     0.000 HD 
HETATM    9  H   UNL     1     -10.981  11.579  69.162  1.00  0.00     0.000 HD 
ENDROOT
BRANCH   6  10
HETATM   10  N   UNL     1     -11.392  11.991  67.098  1.00  0.00    -0.315 NA 
HETATM   11  H   UNL     1     -11.414  11.391  66.273  1.00  0.00     0.000 HD 
BRANCH  10  12
HETATM   12  C   UNL     1     -12.089  13.074  67.237  1.00  0.00    -0.245 C  
BRANCH  12  13
HETATM   13  C   UNL     1     -11.543  14.419  66.955  1.00  0.00    -0.404 A  
HETATM   14  C   UNL     1     -11.126  15.290  67.977  1.00  0.00    -0.312 A  
HETATM   15  C   UNL     1     -10.551  16.529  67.656  1.00  0.00    -0.321 A  
HETATM   16 CL   UNL     1     -11.209  14.919  69.666  1.00  0.00    -0.282 Cl 
HETATM   17  C   UNL     1     -10.382  16.910  66.329  1.00  0.00    -0.312 A  
HETATM   18  C   UNL     1     -10.800  16.058  65.311  1.00  0.00    -0.376 A  
HETATM   19  C   UNL     1     -11.377  14.818  65.617  1.00  0.00    -0.343 A  
HETATM   20 CL   UNL     1     -11.889  13.853  64.275  1.00  0.00    -0.441 Cl 
ENDBRANCH  12  13
ENDBRANCH  10  12
ENDBRANCH   6  10
TORSDOF 3
ENDMDL
MODEL      148
REMARK 921   NORMALIZED FREE ENERGY PREDICTED BY IDOCK:   -3.63 KCAL/MOL
REMARK 922        TOTAL FREE ENERGY PREDICTED BY IDOCK:   -4.55 KCAL/MOL
REMARK 923 INTER-LIGAND FREE ENERGY PREDICTED BY IDOCK:   -4.32 KCAL/MOL
REMARK 924 INTRA-LIGAND FREE ENERGY PREDICTED BY IDOCK:   -0.23 KCAL/MOL
REMARK 927      BINDING AFFINITY PREDICTED BY RF-SCORE:    0.00 PKD
ROOT
HETATM    1  N   UNL     1     -10.159  14.205  67.684  1.00  0.00    -0.235 NA 
HETATM    2  H2  UNL     1      -9.573  14.624  66.963  1.00  0.00     0.000 HD 
HETATM    3  C   UNL     1      -9.977  12.967  68.195  1.00  0.00    -0.234 C  
HETATM    4  H1  UNL     1     -10.962  14.666  68.115  1.00  0.00     0.000 HD 
HETATM    5  N   UNL     1      -8.911  12.354  67.622  1.00  0.00    -0.174 NA 
HETATM    6  N   UNL     1     -10.727  12.459  69.121  1.00  0.00    -0.433 NA 
HETATM    7  H1  UNL     1      -8.774  11.420  68.007  1.00  0.00     0.000 HD 
HETATM    8  H2  UNL     1      -8.325  12.773  66.901  1.00  0.00     0.000 HD 
HETATM    9  H   UNL     1     -11.555  12.916  69.502  1.00  0.00     0.000 HD 
ENDROOT
BRANCH   6  10
HETATM   10  N   UNL     1     -10.261  11.207  69.535  1.00  0.00    -0.438 NA 
HETATM   11  H   UNL     1      -9.337  11.036  69.932  1.00  0.00     0.000 HD 
BRANCH  10  12
HETATM   12  C   UNL     1     -11.160  10.294  69.347  1.00  0.00    -0.252 C  
BRANCH  12  13
HETATM   13  C   UNL     1     -11.392   9.190  70.303  1.00  0.00    -0.217 A  
HETATM   14  C   UNL     1     -12.262   9.317  71.401  1.00  0.00    -0.349 A  
HETATM   15  C   UNL     1     -12.502   8.219  72.241  1.00  0.00    -0.384 A  
HETATM   16 CL   UNL     1     -13.145  10.756  71.781  1.00  0.00    -0.583 Cl 
HETATM   17  C   UNL     1     -11.889   6.994  71.998  1.00  0.00    -0.336 A  
HETATM   18  C   UNL     1     -11.020   6.861  70.920  1.00  0.00    -0.290 A  
HETATM   19  C   UNL     1     -10.770   7.951  70.074  1.00  0.00    -0.244 A  
HETATM   20 CL   UNL     1      -9.648   7.684  68.783  1.00  0.00    -0.152 Cl 
ENDBRANCH  12  13
ENDBRANCH  10  12
ENDBRANCH   6  10
TORSDOF 3
ENDMDL
MODEL      149
REMARK 921   NORMALIZED FREE ENERGY PREDICTED BY IDOCK:   -3.63 KCAL/MOL
REMARK 922        TOTAL FREE ENERGY PREDICTED BY IDOCK:   -4.55 KCAL/MOL
REMARK 923 INTER-LIGAND FREE ENERGY PREDICTED BY IDOCK:   -4.28 KCAL/MOL
REMARK 924 INTRA-LIGAND FREE ENERGY PREDICTED BY IDOCK:   -0.27 KCAL/MOL
REMARK 927      BINDING AFFINITY PREDICTED BY RF-SCORE:    0.00 PKD
ROOT
HETATM    1  N   UNL     1      -8.162   6.344  66.847  1.00  0.00    -0.109 NA 
HETATM    2  H2  UNL     1      -8.069   5.936  65.918  1.00  0.00     0.000 HD 
HETATM    3  C   UNL     1      -9.019   7.341  67.161  1.00  0.00    -0.126 C  
HETATM    4  H1  UNL     1      -7.620   6.054  67.661  1.00  0.00     0.000 HD 
HETATM    5  N   UNL     1      -9.739   7.727  66.079  1.00  0.00    -0.446 NA 
HETATM    6  N   UNL     1      -9.131   7.836  68.353  1.00  0.00    -0.132 NA 
HETATM    7  H1  UNL     1     -10.385   8.479  66.316  1.00  0.00     0.000 HD 
HETATM    8  H2  UNL     1      -9.645   7.318  65.149  1.00  0.00     0.000 HD 
HETATM    9  H   UNL     1      -8.544   7.568  69.142  1.00  0.00     0.000 HD 
ENDROOT
BRANCH   6  10
HETATM   10  N   UNL     1     -10.157   8.785  68.424  1.00  0.00    -0.184 NA 
HETATM   11  H   UNL     1     -10.848   8.945  67.692  1.00  0.00     0.000 HD 
BRANCH  10  12
HETATM   12  C   UNL     1     -10.110   9.432  69.545  1.00  0.00    -0.205 C  
BRANCH  12  13
HETATM   13  C   UNL     1     -11.262   9.521  70.468  1.00  0.00    -0.345 A  
HETATM   14  C   UNL     1     -11.672   8.436  71.264  1.00  0.00    -0.285 A  
HETATM   15  C   UNL     1     -12.728   8.590  72.174  1.00  0.00    -0.423 A  
HETATM   16 CL   UNL     1     -10.909   6.883  71.258  1.00  0.00    -0.256 Cl 
HETATM   17  C   UNL     1     -13.380   9.812  72.304  1.00  0.00    -0.472 A  
HETATM   18  C   UNL     1     -12.987  10.888  71.514  1.00  0.00    -0.556 A  
HETATM   19  C   UNL     1     -11.934  10.748  70.600  1.00  0.00    -0.367 A  
HETATM   20 CL   UNL     1     -11.550  12.141  69.646  1.00  0.00    -0.371 Cl 
ENDBRANCH  12  13
ENDBRANCH  10  12
ENDBRANCH   6  10
TORSDOF 3
ENDMDL
MODEL      150
REMARK 921   NORMALIZED FREE ENERGY PREDICTED BY IDOCK:   -3.61 KCAL/MOL
REMARK 922        TOTAL FREE ENERGY PREDICTED BY IDOCK:   -4.52 KCAL/MOL
REMARK 923 INTER-LIGAND FREE ENERGY PREDICTED BY IDOCK:   -4.19 KCAL/MOL
REMARK 924 INTRA-LIGAND FREE ENERGY PREDICTED BY IDOCK:   -0.33 KCAL/MOL
REMARK 927      BINDING AFFINITY PREDICTED BY RF-SCORE:    0.00 PKD
ROOT
HETATM    1  N   UNL     1     -10.813  19.034  67.011  1.00  0.00    -0.417 NA 
HETATM    2  H2  UNL     1     -11.025  19.399  66.083  1.00  0.00     0.000 HD 
HETATM    3  C   UNL     1      -9.938  18.034  67.258  1.00  0.00    -0.323 C  
HETATM    4  H1  UNL     1     -11.235  19.376  67.875  1.00  0.00     0.000 HD 
HETATM    5  N   UNL     1      -9.378  17.579  66.110  1.00  0.00    -0.478 NA 
HETATM    6  N   UNL     1      -9.674  17.595  68.447  1.00  0.00    -0.305 NA 
HETATM    7  H1  UNL     1      -8.719  16.824  66.296  1.00  0.00     0.000 HD 
HETATM    8  H2  UNL     1      -9.590  17.944  65.181  1.00  0.00     0.000 HD 
HETATM    9  H   UNL     1     -10.144  17.915  69.294  1.00  0.00     0.000 HD 
ENDROOT
BRANCH   6  10
HETATM   10  N   UNL     1      -8.664  16.627  68.429  1.00  0.00    -0.217 NA 
HETATM   11  H   UNL     1      -7.760  16.743  67.971  1.00  0.00     0.000 HD 
BRANCH  10  12
HETATM   12  C   UNL     1      -9.031  15.564  69.071  1.00  0.00    -0.237 C  
BRANCH  12  13
HETATM   13  C   UNL     1      -9.870  14.510  68.461  1.00  0.00    -0.231 A  
HETATM   14  C   UNL     1     -11.257  14.429  68.685  1.00  0.00    -0.259 A  
HETATM   15  C   UNL     1     -12.021  13.453  68.029  1.00  0.00    -0.357 A  
HETATM   16 CL   UNL     1     -12.143  15.519  69.696  1.00  0.00    -0.375 Cl 
HETATM   17  C   UNL     1     -11.422  12.557  67.149  1.00  0.00    -0.414 A  
HETATM   18  C   UNL     1     -10.050  12.623  66.928  1.00  0.00    -0.234 A  
HETATM   19  C   UNL     1      -9.275  13.593  67.578  1.00  0.00    -0.218 A  
HETATM   20 CL   UNL     1      -7.574  13.565  67.254  1.00  0.00    -0.128 Cl 
ENDBRANCH  12  13
ENDBRANCH  10  12
ENDBRANCH   6  10
TORSDOF 3
ENDMDL
MODEL      151
REMARK 921   NORMALIZED FREE ENERGY PREDICTED BY IDOCK:   -3.61 KCAL/MOL
REMARK 922        TOTAL FREE ENERGY PREDICTED BY IDOCK:   -4.52 KCAL/MOL
REMARK 923 INTER-LIGAND FREE ENERGY PREDICTED BY IDOCK:   -4.26 KCAL/MOL
REMARK 924 INTRA-LIGAND FREE ENERGY PREDICTED BY IDOCK:   -0.26 KCAL/MOL
REMARK 927      BINDING AFFINITY PREDICTED BY RF-SCORE:    0.00 PKD
ROOT
HETATM    1  N   UNL     1      -7.593  10.093  70.344  1.00  0.00    -0.428 NA 
HETATM    2  H2  UNL     1      -7.703   9.280  70.949  1.00  0.00     0.000 HD 
HETATM    3  C   UNL     1      -8.608  10.710  69.700  1.00  0.00     0.148 C  
HETATM    4  H1  UNL     1      -6.700  10.545  70.144  1.00  0.00     0.000 HD 
HETATM    5  N   UNL     1      -9.793  10.108  69.965  1.00  0.00    -0.404 NA 
HETATM    6  N   UNL     1      -8.446  11.750  68.945  1.00  0.00    -0.368 NA 
HETATM    7  H1  UNL     1     -10.559  10.573  69.478  1.00  0.00     0.000 HD 
HETATM    8  H2  UNL     1      -9.904   9.295  70.570  1.00  0.00     0.000 HD 
HETATM    9  H   UNL     1      -7.539  12.157  68.717  1.00  0.00     0.000 HD 
ENDROOT
BRANCH   6  10
HETATM   10  N   UNL     1      -9.668  12.248  68.481  1.00  0.00    -0.340 NA 
HETATM   11  H   UNL     1     -10.576  12.028  68.892  1.00  0.00     0.000 HD 
BRANCH  10  12
HETATM   12  C   UNL     1      -9.493  13.024  67.460  1.00  0.00    -0.198 C  
BRANCH  12  13
HETATM   13  C   UNL     1     -10.387  13.011  66.281  1.00  0.00    -0.291 A  
HETATM   14  C   UNL     1     -10.416  11.939  65.372  1.00  0.00    -0.270 A  
HETATM   15  C   UNL     1     -11.330  11.942  64.308  1.00  0.00    -0.425 A  
HETATM   16 CL   UNL     1      -9.420  10.529  65.499  1.00  0.00    -0.244 Cl 
HETATM   17  C   UNL     1     -12.219  12.999  64.140  1.00  0.00    -0.471 A  
HETATM   18  C   UNL     1     -12.192  14.069  65.029  1.00  0.00    -0.448 A  
HETATM   19  C   UNL     1     -11.283  14.079  66.096  1.00  0.00    -0.318 A  
HETATM   20 CL   UNL     1     -11.313  15.473  67.123  1.00  0.00    -0.207 Cl 
ENDBRANCH  12  13
ENDBRANCH  10  12
ENDBRANCH   6  10
TORSDOF 3
ENDMDL
MODEL      152
REMARK 921   NORMALIZED FREE ENERGY PREDICTED BY IDOCK:   -3.53 KCAL/MOL
REMARK 922        TOTAL FREE ENERGY PREDICTED BY IDOCK:   -4.43 KCAL/MOL
REMARK 923 INTER-LIGAND FREE ENERGY PREDICTED BY IDOCK:   -4.13 KCAL/MOL
REMARK 924 INTRA-LIGAND FREE ENERGY PREDICTED BY IDOCK:   -0.30 KCAL/MOL
REMARK 927      BINDING AFFINITY PREDICTED BY RF-SCORE:    0.00 PKD
ROOT
HETATM    1  N   UNL     1     -10.447   9.451  71.299  1.00  0.00    -0.331 NA 
HETATM    2  H2  UNL     1      -9.878   8.686  71.662  1.00  0.00     0.000 HD 
HETATM    3  C   UNL     1     -10.492   9.819  70.000  1.00  0.00    -0.270 C  
HETATM    4  H1  UNL     1     -11.054  10.038  71.870  1.00  0.00     0.000 HD 
HETATM    5  N   UNL     1      -9.684   9.039  69.241  1.00  0.00    -0.165 NA 
HETATM    6  N   UNL     1     -11.232  10.787  69.559  1.00  0.00    -0.259 NA 
HETATM    7  H1  UNL     1      -9.718   9.317  68.260  1.00  0.00     0.000 HD 
HETATM    8  H2  UNL     1      -9.116   8.274  69.604  1.00  0.00     0.000 HD 
HETATM    9  H   UNL     1     -11.793  11.396  70.153  1.00  0.00     0.000 HD 
ENDROOT
BRANCH   6  10
HETATM   10  N   UNL     1     -11.166  10.894  68.165  1.00  0.00    -0.278 NA 
HETATM   11  H   UNL     1     -10.608  10.288  67.564  1.00  0.00     0.000 HD 
BRANCH  10  12
HETATM   12  C   UNL     1     -11.910  11.866  67.741  1.00  0.00    -0.219 C  
BRANCH  12  13
HETATM   13  C   UNL     1     -11.359  13.178  67.339  1.00  0.00    -0.344 A  
HETATM   14  C   UNL     1     -10.723  13.380  66.101  1.00  0.00    -0.284 A  
HETATM   15  C   UNL     1     -10.278  14.659  65.737  1.00  0.00    -0.360 A  
HETATM   16 CL   UNL     1     -10.489  12.141  64.916  1.00  0.00    -0.310 Cl 
HETATM   17  C   UNL     1     -10.463  15.743  66.590  1.00  0.00    -0.302 A  
HETATM   18  C   UNL     1     -11.083  15.553  67.820  1.00  0.00    -0.315 A  
HETATM   19  C   UNL     1     -11.531  14.279  68.197  1.00  0.00    -0.308 A  
HETATM   20 CL   UNL     1     -12.260  14.149  69.762  1.00  0.00    -0.391 Cl 
ENDBRANCH  12  13
ENDBRANCH  10  12
ENDBRANCH   6  10
TORSDOF 3
ENDMDL
MODEL      153
REMARK 921   NORMALIZED FREE ENERGY PREDICTED BY IDOCK:   -3.52 KCAL/MOL
REMARK 922        TOTAL FREE ENERGY PREDICTED BY IDOCK:   -4.42 KCAL/MOL
REMARK 923 INTER-LIGAND FREE ENERGY PREDICTED BY IDOCK:   -4.18 KCAL/MOL
REMARK 924 INTRA-LIGAND FREE ENERGY PREDICTED BY IDOCK:   -0.24 KCAL/MOL
REMARK 927      BINDING AFFINITY PREDICTED BY RF-SCORE:    0.00 PKD
ROOT
HETATM    1  N   UNL     1      -7.676  15.885  69.339  1.00  0.00    -0.227 NA 
HETATM    2  H2  UNL     1      -6.684  16.040  69.158  1.00  0.00     0.000 HD 
HETATM    3  C   UNL     1      -8.656  16.063  68.427  1.00  0.00    -0.185 C  
HETATM    4  H1  UNL     1      -8.057  15.576  70.234  1.00  0.00     0.000 HD 
HETATM    5  N   UNL     1      -8.150  16.474  67.238  1.00  0.00    -0.159 NA 
HETATM    6  N   UNL     1      -9.909  15.847  68.675  1.00  0.00    -0.206 NA 
HETATM    7  H1  UNL     1      -8.890  16.609  66.549  1.00  0.00     0.000 HD 
HETATM    8  H2  UNL     1      -7.159  16.629  67.057  1.00  0.00     0.000 HD 
HETATM    9  H   UNL     1     -10.275  15.587  69.590  1.00  0.00     0.000 HD 
ENDROOT
BRANCH   6  10
HETATM   10  N   UNL     1     -10.699  16.013  67.532  1.00  0.00    -0.317 NA 
HETATM   11  H   UNL     1     -10.508  16.685  66.790  1.00  0.00     0.000 HD 
BRANCH  10  12
HETATM   12  C   UNL     1     -11.705  15.197  67.544  1.00  0.00    -0.199 C  
BRANCH  12  13
HETATM   13  C   UNL     1     -11.545  13.729  67.624  1.00  0.00    -0.381 A  
HETATM   14  C   UNL     1     -11.773  13.012  68.813  1.00  0.00    -0.324 A  
HETATM   15  C   UNL     1     -11.675  11.613  68.822  1.00  0.00    -0.392 A  
HETATM   16 CL   UNL     1     -12.246  13.739  70.311  1.00  0.00    -0.416 Cl 
HETATM   17  C   UNL     1     -11.355  10.917  67.660  1.00  0.00    -0.345 A  
HETATM   18  C   UNL     1     -11.118  11.618  66.482  1.00  0.00    -0.357 A  
HETATM   19  C   UNL     1     -11.212  13.017  66.459  1.00  0.00    -0.302 A  
HETATM   20 CL   UNL     1     -10.867  13.789  64.949  1.00  0.00    -0.371 Cl 
ENDBRANCH  12  13
ENDBRANCH  10  12
ENDBRANCH   6  10
TORSDOF 3
ENDMDL
MODEL      154
REMARK 921   NORMALIZED FREE ENERGY PREDICTED BY IDOCK:   -3.50 KCAL/MOL
REMARK 922        TOTAL FREE ENERGY PREDICTED BY IDOCK:   -4.40 KCAL/MOL
REMARK 923 INTER-LIGAND FREE ENERGY PREDICTED BY IDOCK:   -4.17 KCAL/MOL
REMARK 924 INTRA-LIGAND FREE ENERGY PREDICTED BY IDOCK:   -0.23 KCAL/MOL
REMARK 927      BINDING AFFINITY PREDICTED BY RF-SCORE:    0.00 PKD
ROOT
HETATM    1  N   UNL     1     -10.498  18.266  65.479  1.00  0.00    -0.580 NA 
HETATM    2  H2  UNL     1     -10.618  18.637  64.537  1.00  0.00     0.000 HD 
HETATM    3  C   UNL     1     -10.685  16.971  65.819  1.00  0.00    -0.142 C  
HETATM    4  H1  UNL     1     -10.222  18.823  66.287  1.00  0.00     0.000 HD 
HETATM    5  N   UNL     1     -11.053  16.231  64.745  1.00  0.00    -0.645 NA 
HETATM    6  N   UNL     1     -10.514  16.518  67.021  1.00  0.00    -0.304 NA 
HETATM    7  H1  UNL     1     -11.195  15.254  65.002  1.00  0.00     0.000 HD 
HETATM    8  H2  UNL     1     -11.173  16.603  63.803  1.00  0.00     0.000 HD 
HETATM    9  H   UNL     1     -10.288  17.101  67.826  1.00  0.00     0.000 HD 
ENDROOT
BRANCH   6  10
HETATM   10  N   UNL     1     -10.678  15.130  67.078  1.00  0.00    -0.302 NA 
HETATM   11  H   UNL     1     -11.146  14.572  66.363  1.00  0.00     0.000 HD 
BRANCH  10  12
HETATM   12  C   UNL     1     -10.155  14.647  68.160  1.00  0.00    -0.224 C  
BRANCH  12  13
HETATM   13  C   UNL     1     -10.378  13.254  68.605  1.00  0.00    -0.206 A  
HETATM   14  C   UNL     1      -9.490  12.212  68.283  1.00  0.00    -0.204 A  
HETATM   15  C   UNL     1      -9.708  10.921  68.786  1.00  0.00    -0.196 A  
HETATM   16 CL   UNL     1      -8.059  12.412  67.331  1.00  0.00    -0.169 Cl 
HETATM   17  C   UNL     1     -10.799  10.655  69.609  1.00  0.00    -0.318 A  
HETATM   18  C   UNL     1     -11.687  11.678  69.925  1.00  0.00    -0.414 A  
HETATM   19  C   UNL     1     -11.481  12.972  69.428  1.00  0.00    -0.261 A  
HETATM   20 CL   UNL     1     -12.665  14.161  69.859  1.00  0.00    -0.204 Cl 
ENDBRANCH  12  13
ENDBRANCH  10  12
ENDBRANCH   6  10
TORSDOF 3
ENDMDL
MODEL      155
REMARK 921   NORMALIZED FREE ENERGY PREDICTED BY IDOCK:   -3.50 KCAL/MOL
REMARK 922        TOTAL FREE ENERGY PREDICTED BY IDOCK:   -4.39 KCAL/MOL
REMARK 923 INTER-LIGAND FREE ENERGY PREDICTED BY IDOCK:   -4.38 KCAL/MOL
REMARK 924 INTRA-LIGAND FREE ENERGY PREDICTED BY IDOCK:   -0.01 KCAL/MOL
REMARK 927      BINDING AFFINITY PREDICTED BY RF-SCORE:    0.00 PKD
ROOT
HETATM    1  N   UNL     1     -11.823  16.102  63.869  1.00  0.00    -1.382 NA 
HETATM    2  H2  UNL     1     -12.262  16.968  63.558  1.00  0.00     0.000 HD 
HETATM    3  C   UNL     1     -10.810  16.036  64.761  1.00  0.00    -0.294 C  
HETATM    4  H1  UNL     1     -12.091  15.172  63.547  1.00  0.00     0.000 HD 
HETATM    5  N   UNL     1     -10.453  17.273  65.188  1.00  0.00    -0.546 NA 
HETATM    6  N   UNL     1     -10.275  14.924  65.153  1.00  0.00    -0.388 NA 
HETATM    7  H1  UNL     1      -9.688  17.224  65.860  1.00  0.00     0.000 HD 
HETATM    8  H2  UNL     1     -10.892  18.139  64.876  1.00  0.00     0.000 HD 
HETATM    9  H   UNL     1     -10.523  14.007  64.781  1.00  0.00     0.000 HD 
ENDROOT
BRANCH   6  10
HETATM   10  N   UNL     1      -9.316  15.133  66.150  1.00  0.00    -0.332 NA 
HETATM   11  H   UNL     1      -8.778  15.992  66.264  1.00  0.00     0.000 HD 
BRANCH  10  12
HETATM   12  C   UNL     1      -9.204  14.090  66.909  1.00  0.00    -0.260 C  
BRANCH  12  13
HETATM   13  C   UNL     1      -8.170  13.973  67.960  1.00  0.00    -0.155 A  
HETATM   14  C   UNL     1      -7.902  15.011  68.870  1.00  0.00    -0.162 A  
HETATM   15  C   UNL     1      -6.960  14.827  69.892  1.00  0.00    -0.128 A  
HETATM   16 CL   UNL     1      -8.717  16.538  68.869  1.00  0.00    -0.254 Cl 
HETATM   17  C   UNL     1      -6.283  13.618  70.023  1.00  0.00    -0.109 A  
HETATM   18  C   UNL     1      -6.535  12.588  69.123  1.00  0.00    -0.099 A  
HETATM   19  C   UNL     1      -7.473  12.760  68.095  1.00  0.00    -0.124 A  
HETATM   20 CL   UNL     1      -7.685  11.425  67.013  1.00  0.00    -0.148 Cl 
ENDBRANCH  12  13
ENDBRANCH  10  12
ENDBRANCH   6  10
TORSDOF 3
ENDMDL
MODEL      156
REMARK 921   NORMALIZED FREE ENERGY PREDICTED BY IDOCK:   -3.48 KCAL/MOL
REMARK 922        TOTAL FREE ENERGY PREDICTED BY IDOCK:   -4.38 KCAL/MOL
REMARK 923 INTER-LIGAND FREE ENERGY PREDICTED BY IDOCK:   -4.08 KCAL/MOL
REMARK 924 INTRA-LIGAND FREE ENERGY PREDICTED BY IDOCK:   -0.30 KCAL/MOL
REMARK 927      BINDING AFFINITY PREDICTED BY RF-SCORE:    0.00 PKD
ROOT
HETATM    1  N   UNL     1     -12.859  10.902  71.573  1.00  0.00    -0.441 NA 
HETATM    2  H2  UNL     1     -12.956  10.192  72.299  1.00  0.00     0.000 HD 
HETATM    3  C   UNL     1     -12.421  10.657  70.318  1.00  0.00    -0.304 C  
HETATM    4  H1  UNL     1     -13.080  11.890  71.700  1.00  0.00     0.000 HD 
HETATM    5  N   UNL     1     -12.127   9.344  70.150  1.00  0.00    -0.445 NA 
HETATM    6  N   UNL     1     -12.318  11.572  69.408  1.00  0.00    -0.193 NA 
HETATM    7  H1  UNL     1     -11.795   9.159  69.204  1.00  0.00     0.000 HD 
HETATM    8  H2  UNL     1     -12.223   8.634  70.876  1.00  0.00     0.000 HD 
HETATM    9  H   UNL     1     -12.495  12.563  69.569  1.00  0.00     0.000 HD 
ENDROOT
BRANCH   6  10
HETATM   10  N   UNL     1     -11.935  11.034  68.174  1.00  0.00    -0.763 NA 
HETATM   11  H   UNL     1     -12.308  10.171  67.779  1.00  0.00     0.000 HD 
BRANCH  10  12
HETATM   12  C   UNL     1     -11.044  11.779  67.602  1.00  0.00    -0.252 C  
BRANCH  12  13
HETATM   13  C   UNL     1      -9.962  11.228  66.758  1.00  0.00    -0.238 A  
HETATM   14  C   UNL     1      -8.782  10.691  67.303  1.00  0.00    -0.129 A  
HETATM   15  C   UNL     1      -7.815  10.117  66.464  1.00  0.00    -0.112 A  
HETATM   16 CL   UNL     1      -8.439  10.620  68.998  1.00  0.00    -0.151 Cl 
HETATM   17  C   UNL     1      -8.010  10.068  65.088  1.00  0.00    -0.145 A  
HETATM   18  C   UNL     1      -9.170  10.604  64.538  1.00  0.00    -0.264 A  
HETATM   19  C   UNL     1     -10.144  11.182  65.365  1.00  0.00    -0.264 A  
HETATM   20 CL   UNL     1     -11.533  11.847  64.573  1.00  0.00    -0.379 Cl 
ENDBRANCH  12  13
ENDBRANCH  10  12
ENDBRANCH   6  10
TORSDOF 3
ENDMDL
MODEL      157
REMARK 921   NORMALIZED FREE ENERGY PREDICTED BY IDOCK:   -3.48 KCAL/MOL
REMARK 922        TOTAL FREE ENERGY PREDICTED BY IDOCK:   -4.37 KCAL/MOL
REMARK 923 INTER-LIGAND FREE ENERGY PREDICTED BY IDOCK:   -4.21 KCAL/MOL
REMARK 924 INTRA-LIGAND FREE ENERGY PREDICTED BY IDOCK:   -0.16 KCAL/MOL
REMARK 927      BINDING AFFINITY PREDICTED BY RF-SCORE:    0.00 PKD
ROOT
HETATM    1  N   UNL     1     -12.010  11.946  70.383  1.00  0.00    -0.460 NA 
HETATM    2  H2  UNL     1     -11.628  12.872  70.191  1.00  0.00     0.000 HD 
HETATM    3  C   UNL     1     -11.424  10.786  70.013  1.00  0.00    -0.331 C  
HETATM    4  H1  UNL     1     -12.884  11.775  70.880  1.00  0.00     0.000 HD 
HETATM    5  N   UNL     1     -10.262  11.014  69.352  1.00  0.00    -0.418 NA 
HETATM    6  N   UNL     1     -11.920   9.620  70.279  1.00  0.00    -0.463 NA 
HETATM    7  H1  UNL     1      -9.820  10.138  69.072  1.00  0.00     0.000 HD 
HETATM    8  H2  UNL     1      -9.880  11.940  69.160  1.00  0.00     0.000 HD 
HETATM    9  H   UNL     1     -12.822   9.471  70.732  1.00  0.00     0.000 HD 
ENDROOT
BRANCH   6  10
HETATM   10  N   UNL     1     -11.067   8.589  69.870  1.00  0.00    -0.418 NA 
HETATM   11  H   UNL     1     -10.221   8.724  69.317  1.00  0.00     0.000 HD 
BRANCH  10  12
HETATM   12  C   UNL     1     -11.497   7.441  70.287  1.00  0.00    -0.181 C  
BRANCH  12  13
HETATM   13  C   UNL     1     -10.700   6.200  70.177  1.00  0.00    -0.366 A  
HETATM   14  C   UNL     1     -10.104   5.588  71.295  1.00  0.00    -0.207 A  
HETATM   15  C   UNL     1      -9.416   4.375  71.151  1.00  0.00    -0.228 A  
HETATM   16 CL   UNL     1     -10.208   6.202  72.910  1.00  0.00    -0.196 Cl 
HETATM   17  C   UNL     1      -9.316   3.760  69.906  1.00  0.00    -0.248 A  
HETATM   18  C   UNL     1      -9.894   4.362  68.793  1.00  0.00    -0.149 A  
HETATM   19  C   UNL     1     -10.584   5.575  68.924  1.00  0.00    -0.188 A  
HETATM   20 CL   UNL     1     -11.237   6.251  67.470  1.00  0.00    -0.358 Cl 
ENDBRANCH  12  13
ENDBRANCH  10  12
ENDBRANCH   6  10
TORSDOF 3
ENDMDL
MODEL      158
REMARK 921   NORMALIZED FREE ENERGY PREDICTED BY IDOCK:   -3.46 KCAL/MOL
REMARK 922        TOTAL FREE ENERGY PREDICTED BY IDOCK:   -4.35 KCAL/MOL
REMARK 923 INTER-LIGAND FREE ENERGY PREDICTED BY IDOCK:   -4.20 KCAL/MOL
REMARK 924 INTRA-LIGAND FREE ENERGY PREDICTED BY IDOCK:   -0.15 KCAL/MOL
REMARK 927      BINDING AFFINITY PREDICTED BY RF-SCORE:    0.00 PKD
ROOT
HETATM    1  N   UNL     1      -9.297   7.816  66.730  1.00  0.00    -0.170 NA 
HETATM    2  H2  UNL     1      -9.125   6.952  66.217  1.00  0.00     0.000 HD 
HETATM    3  C   UNL     1      -9.426   9.033  66.157  1.00  0.00    -0.253 C  
HETATM    4  H1  UNL     1      -9.394   7.874  67.744  1.00  0.00     0.000 HD 
HETATM    5  N   UNL     1      -9.297   8.956  64.809  1.00  0.00    -0.374 NA 
HETATM    6  N   UNL     1      -9.659  10.116  66.828  1.00  0.00    -0.171 NA 
HETATM    7  H1  UNL     1      -9.394   9.874  64.377  1.00  0.00     0.000 HD 
HETATM    8  H2  UNL     1      -9.125   8.092  64.296  1.00  0.00     0.000 HD 
HETATM    9  H   UNL     1      -9.701  10.162  67.846  1.00  0.00     0.000 HD 
ENDROOT
BRANCH   6  10
HETATM   10  N   UNL     1      -9.845  11.217  65.985  1.00  0.00    -0.219 NA 
HETATM   11  H   UNL     1      -9.756  11.190  64.969  1.00  0.00     0.000 HD 
BRANCH  10  12
HETATM   12  C   UNL     1     -10.145  12.276  66.667  1.00  0.00    -0.215 C  
BRANCH  12  13
HETATM   13  C   UNL     1     -10.414  13.586  66.035  1.00  0.00    -0.299 A  
HETATM   14  C   UNL     1     -11.478  13.783  65.137  1.00  0.00    -0.321 A  
HETATM   15  C   UNL     1     -11.734  15.060  64.617  1.00  0.00    -0.383 A  
HETATM   16 CL   UNL     1     -12.581  12.541  64.649  1.00  0.00    -0.553 Cl 
HETATM   17  C   UNL     1     -10.945  16.146  64.984  1.00  0.00    -0.357 A  
HETATM   18  C   UNL     1      -9.885  15.960  65.865  1.00  0.00    -0.383 A  
HETATM   19  C   UNL     1      -9.617  14.688  66.391  1.00  0.00    -0.301 A  
HETATM   20 CL   UNL     1      -8.256  14.564  67.453  1.00  0.00    -0.204 Cl 
ENDBRANCH  12  13
ENDBRANCH  10  12
ENDBRANCH   6  10
TORSDOF 3
ENDMDL
MODEL      159
REMARK 921   NORMALIZED FREE ENERGY PREDICTED BY IDOCK:   -3.45 KCAL/MOL
REMARK 922        TOTAL FREE ENERGY PREDICTED BY IDOCK:   -4.34 KCAL/MOL
REMARK 923 INTER-LIGAND FREE ENERGY PREDICTED BY IDOCK:   -4.07 KCAL/MOL
REMARK 924 INTRA-LIGAND FREE ENERGY PREDICTED BY IDOCK:   -0.27 KCAL/MOL
REMARK 927      BINDING AFFINITY PREDICTED BY RF-SCORE:    0.00 PKD
ROOT
HETATM    1  N   UNL     1     -10.170   9.228  65.881  1.00  0.00    -0.310 NA 
HETATM    2  H2  UNL     1      -9.710   9.370  64.982  1.00  0.00     0.000 HD 
HETATM    3  C   UNL     1     -10.124   8.079  66.591  1.00  0.00    -0.259 C  
HETATM    4  H1  UNL     1     -10.725   9.936  66.362  1.00  0.00     0.000 HD 
HETATM    5  N   UNL     1      -9.386   7.138  65.951  1.00  0.00    -0.386 NA 
HETATM    6  N   UNL     1     -10.704   7.926  67.739  1.00  0.00    -0.465 NA 
HETATM    7  H1  UNL     1      -9.351   6.271  66.487  1.00  0.00     0.000 HD 
HETATM    8  H2  UNL     1      -8.926   7.280  65.052  1.00  0.00     0.000 HD 
HETATM    9  H   UNL     1     -11.298   8.628  68.179  1.00  0.00     0.000 HD 
ENDROOT
BRANCH   6  10
HETATM   10  N   UNL     1     -10.417   6.677  68.301  1.00  0.00    -0.189 NA 
HETATM   11  H   UNL     1      -9.610   6.104  68.055  1.00  0.00     0.000 HD 
BRANCH  10  12
HETATM   12  C   UNL     1     -11.314   6.347  69.174  1.00  0.00    -0.296 C  
BRANCH  12  13
HETATM   13  C   UNL     1     -10.994   6.107  70.598  1.00  0.00    -0.376 A  
HETATM   14  C   UNL     1     -10.282   4.972  71.028  1.00  0.00    -0.213 A  
HETATM   15  C   UNL     1      -9.943   4.824  72.381  1.00  0.00    -0.226 A  
HETATM   16 CL   UNL     1      -9.711   3.726  69.972  1.00  0.00    -0.255 Cl 
HETATM   17  C   UNL     1     -10.302   5.792  73.312  1.00  0.00    -0.234 A  
HETATM   18  C   UNL     1     -11.015   6.913  72.899  1.00  0.00    -0.315 A  
HETATM   19  C   UNL     1     -11.361   7.074  71.550  1.00  0.00    -0.258 A  
HETATM   20 CL   UNL     1     -12.275   8.490  71.151  1.00  0.00    -0.292 Cl 
ENDBRANCH  12  13
ENDBRANCH  10  12
ENDBRANCH   6  10
TORSDOF 3
ENDMDL
MODEL      160
REMARK 921   NORMALIZED FREE ENERGY PREDICTED BY IDOCK:   -3.45 KCAL/MOL
REMARK 922        TOTAL FREE ENERGY PREDICTED BY IDOCK:   -4.34 KCAL/MOL
REMARK 923 INTER-LIGAND FREE ENERGY PREDICTED BY IDOCK:   -3.99 KCAL/MOL
REMARK 924 INTRA-LIGAND FREE ENERGY PREDICTED BY IDOCK:   -0.34 KCAL/MOL
REMARK 927      BINDING AFFINITY PREDICTED BY RF-SCORE:    0.00 PKD
ROOT
HETATM    1  N   UNL     1      -9.548   6.514  66.017  1.00  0.00    -0.390 NA 
HETATM    2  H2  UNL     1      -9.912   5.661  65.593  1.00  0.00     0.000 HD 
HETATM    3  C   UNL     1     -10.253   7.319  66.841  1.00  0.00    -0.269 C  
HETATM    4  H1  UNL     1      -8.603   6.871  65.873  1.00  0.00     0.000 HD 
HETATM    5  N   UNL     1     -11.509   6.845  67.032  1.00  0.00    -0.641 NA 
HETATM    6  N   UNL     1      -9.765   8.391  67.380  1.00  0.00    -0.159 NA 
HETATM    7  H1  UNL     1     -12.042   7.453  67.654  1.00  0.00     0.000 HD 
HETATM    8  H2  UNL     1     -11.874   5.993  66.608  1.00  0.00     0.000 HD 
HETATM    9  H   UNL     1      -8.835   8.759  67.183  1.00  0.00     0.000 HD 
ENDROOT
BRANCH   6  10
HETATM   10  N   UNL     1     -10.672   8.984  68.266  1.00  0.00    -0.419 NA 
HETATM   11  H   UNL     1     -11.544   9.433  67.986  1.00  0.00     0.000 HD 
BRANCH  10  12
HETATM   12  C   UNL     1     -10.255   8.885  69.488  1.00  0.00    -0.204 C  
BRANCH  12  13
HETATM   13  C   UNL     1     -10.693   7.805  70.398  1.00  0.00    -0.238 A  
HETATM   14  C   UNL     1      -9.910   6.662  70.640  1.00  0.00    -0.183 A  
HETATM   15  C   UNL     1     -10.337   5.698  71.565  1.00  0.00    -0.279 A  
HETATM   16 CL   UNL     1      -8.371   6.366  69.907  1.00  0.00    -0.128 Cl 
HETATM   17  C   UNL     1     -11.534   5.859  72.256  1.00  0.00    -0.351 A  
HETATM   18  C   UNL     1     -12.320   6.982  72.017  1.00  0.00    -0.302 A  
HETATM   19  C   UNL     1     -11.906   7.953  71.095  1.00  0.00    -0.287 A  
HETATM   20 CL   UNL     1     -12.974   9.293  70.852  1.00  0.00    -0.143 Cl 
ENDBRANCH  12  13
ENDBRANCH  10  12
ENDBRANCH   6  10
TORSDOF 3
ENDMDL
MODEL      161
REMARK 921   NORMALIZED FREE ENERGY PREDICTED BY IDOCK:   -3.45 KCAL/MOL
REMARK 922        TOTAL FREE ENERGY PREDICTED BY IDOCK:   -4.34 KCAL/MOL
REMARK 923 INTER-LIGAND FREE ENERGY PREDICTED BY IDOCK:   -4.04 KCAL/MOL
REMARK 924 INTRA-LIGAND FREE ENERGY PREDICTED BY IDOCK:   -0.30 KCAL/MOL
REMARK 927      BINDING AFFINITY PREDICTED BY RF-SCORE:    0.00 PKD
ROOT
HETATM    1  N   UNL     1      -8.111   6.627  67.088  1.00  0.00    -0.112 NA 
HETATM    2  H2  UNL     1      -7.853   6.386  66.132  1.00  0.00     0.000 HD 
HETATM    3  C   UNL     1      -8.569   7.838  67.476  1.00  0.00    -0.122 C  
HETATM    4  H1  UNL     1      -8.057   5.983  67.879  1.00  0.00     0.000 HD 
HETATM    5  N   UNL     1      -8.640   8.692  66.425  1.00  0.00    -0.114 NA 
HETATM    6  N   UNL     1      -8.904   8.117  68.695  1.00  0.00    -0.134 NA 
HETATM    7  H1  UNL     1      -8.985   9.607  66.717  1.00  0.00     0.000 HD 
HETATM    8  H2  UNL     1      -8.381   8.452  65.468  1.00  0.00     0.000 HD 
HETATM    9  H   UNL     1      -8.794   7.476  69.480  1.00  0.00     0.000 HD 
ENDROOT
BRANCH   6  10
HETATM   10  N   UNL     1      -9.436   9.407  68.803  1.00  0.00    -0.148 NA 
HETATM   11  H   UNL     1      -9.719   9.984  68.011  1.00  0.00     0.000 HD 
BRANCH  10  12
HETATM   12  C   UNL     1      -9.520   9.769  70.043  1.00  0.00    -0.238 C  
BRANCH  12  13
HETATM   13  C   UNL     1     -10.787   9.728  70.805  1.00  0.00    -0.403 A  
HETATM   14  C   UNL     1     -11.820  10.660  70.597  1.00  0.00    -0.363 A  
HETATM   15  C   UNL     1     -13.030  10.538  71.295  1.00  0.00    -0.532 A  
HETATM   16 CL   UNL     1     -11.741  11.961  69.458  1.00  0.00    -0.384 Cl 
HETATM   17  C   UNL     1     -13.227   9.497  72.197  1.00  0.00    -0.539 A  
HETATM   18  C   UNL     1     -12.208   8.575  72.416  1.00  0.00    -0.432 A  
HETATM   19  C   UNL     1     -10.993   8.686  71.726  1.00  0.00    -0.326 A  
HETATM   20 CL   UNL     1      -9.784   7.505  72.098  1.00  0.00    -0.193 Cl 
ENDBRANCH  12  13
ENDBRANCH  10  12
ENDBRANCH   6  10
TORSDOF 3
ENDMDL
MODEL      162
REMARK 921   NORMALIZED FREE ENERGY PREDICTED BY IDOCK:   -3.45 KCAL/MOL
REMARK 922        TOTAL FREE ENERGY PREDICTED BY IDOCK:   -4.34 KCAL/MOL
REMARK 923 INTER-LIGAND FREE ENERGY PREDICTED BY IDOCK:   -4.09 KCAL/MOL
REMARK 924 INTRA-LIGAND FREE ENERGY PREDICTED BY IDOCK:   -0.25 KCAL/MOL
REMARK 927      BINDING AFFINITY PREDICTED BY RF-SCORE:    0.00 PKD
ROOT
HETATM    1  N   UNL     1      -7.429  11.673  67.008  1.00  0.00    -0.148 NA 
HETATM    2  H2  UNL     1      -6.755  10.960  67.286  1.00  0.00     0.000 HD 
HETATM    3  C   UNL     1      -8.462  12.089  67.773  1.00  0.00    -0.157 C  
HETATM    4  H1  UNL     1      -7.411  12.166  66.115  1.00  0.00     0.000 HD 
HETATM    5  N   UNL     1      -8.487  11.434  68.960  1.00  0.00    -0.371 NA 
HETATM    6  N   UNL     1      -9.299  13.007  67.405  1.00  0.00    -0.201 NA 
HETATM    7  H1  UNL     1      -9.267  11.747  69.538  1.00  0.00     0.000 HD 
HETATM    8  H2  UNL     1      -7.813  10.720  69.239  1.00  0.00     0.000 HD 
HETATM    9  H   UNL     1      -9.294  13.451  66.487  1.00  0.00     0.000 HD 
ENDROOT
BRANCH   6  10
HETATM   10  N   UNL     1     -10.210  13.314  68.422  1.00  0.00    -0.249 NA 
HETATM   11  H   UNL     1     -10.183  12.919  69.361  1.00  0.00     0.000 HD 
BRANCH  10  12
HETATM   12  C   UNL     1     -11.091  14.168  68.009  1.00  0.00    -0.267 C  
BRANCH  12  13
HETATM   13  C   UNL     1     -10.787  15.602  67.813  1.00  0.00    -0.307 A  
HETATM   14  C   UNL     1     -10.590  16.162  66.537  1.00  0.00    -0.268 A  
HETATM   15  C   UNL     1     -10.372  17.540  66.399  1.00  0.00    -0.334 A  
HETATM   16 CL   UNL     1     -10.661  15.263  65.060  1.00  0.00    -0.447 Cl 
HETATM   17  C   UNL     1     -10.350  18.371  67.515  1.00  0.00    -0.416 A  
HETATM   18  C   UNL     1     -10.535  17.825  68.782  1.00  0.00    -0.252 A  
HETATM   19  C   UNL     1     -10.753  16.449  68.935  1.00  0.00    -0.319 A  
HETATM   20 CL   UNL     1     -10.938  15.873  70.556  1.00  0.00    -0.351 Cl 
ENDBRANCH  12  13
ENDBRANCH  10  12
ENDBRANCH   6  10
TORSDOF 3
ENDMDL
MODEL      163
REMARK 921   NORMALIZED FREE ENERGY PREDICTED BY IDOCK:   -3.45 KCAL/MOL
REMARK 922        TOTAL FREE ENERGY PREDICTED BY IDOCK:   -4.33 KCAL/MOL
REMARK 923 INTER-LIGAND FREE ENERGY PREDICTED BY IDOCK:   -4.01 KCAL/MOL
REMARK 924 INTRA-LIGAND FREE ENERGY PREDICTED BY IDOCK:   -0.33 KCAL/MOL
REMARK 927      BINDING AFFINITY PREDICTED BY RF-SCORE:    0.00 PKD
ROOT
HETATM    1  N   UNL     1      -8.815   4.616  71.929  1.00  0.00    -0.121 NA 
HETATM    2  H2  UNL     1      -8.690   4.278  72.882  1.00  0.00     0.000 HD 
HETATM    3  C   UNL     1      -9.052   5.906  71.600  1.00  0.00    -0.143 C  
HETATM    4  H1  UNL     1      -8.780   4.025  71.098  1.00  0.00     0.000 HD 
HETATM    5  N   UNL     1      -9.099   6.691  72.704  1.00  0.00    -0.134 NA 
HETATM    6  N   UNL     1      -9.195   6.316  70.380  1.00  0.00    -0.154 NA 
HETATM    7  H1  UNL     1      -9.278   7.664  72.456  1.00  0.00     0.000 HD 
HETATM    8  H2  UNL     1      -8.973   6.353  73.658  1.00  0.00     0.000 HD 
HETATM    9  H   UNL     1      -9.207   5.701  69.567  1.00  0.00     0.000 HD 
ENDROOT
BRANCH   6  10
HETATM   10  N   UNL     1      -9.331   7.707  70.314  1.00  0.00    -0.157 NA 
HETATM   11  H   UNL     1      -8.612   8.372  70.598  1.00  0.00     0.000 HD 
BRANCH  10  12
HETATM   12  C   UNL     1     -10.492   8.036  69.846  1.00  0.00    -0.233 C  
BRANCH  12  13
HETATM   13  C   UNL     1     -11.395   8.984  70.535  1.00  0.00    -0.282 A  
HETATM   14  C   UNL     1     -11.390  10.363  70.257  1.00  0.00    -0.328 A  
HETATM   15  C   UNL     1     -12.313  11.211  70.887  1.00  0.00    -0.500 A  
HETATM   16 CL   UNL     1     -10.340  11.120  69.109  1.00  0.00    -0.214 Cl 
HETATM   17  C   UNL     1     -13.243  10.703  71.789  1.00  0.00    -0.526 A  
HETATM   18  C   UNL     1     -13.249   9.342  72.077  1.00  0.00    -0.519 A  
HETATM   19  C   UNL     1     -12.332   8.483  71.455  1.00  0.00    -0.314 A  
HETATM   20 CL   UNL     1     -12.407   6.814  71.910  1.00  0.00    -0.382 Cl 
ENDBRANCH  12  13
ENDBRANCH  10  12
ENDBRANCH   6  10
TORSDOF 3
ENDMDL
MODEL      164
REMARK 921   NORMALIZED FREE ENERGY PREDICTED BY IDOCK:   -3.44 KCAL/MOL
REMARK 922        TOTAL FREE ENERGY PREDICTED BY IDOCK:   -4.33 KCAL/MOL
REMARK 923 INTER-LIGAND FREE ENERGY PREDICTED BY IDOCK:   -4.11 KCAL/MOL
REMARK 924 INTRA-LIGAND FREE ENERGY PREDICTED BY IDOCK:   -0.22 KCAL/MOL
REMARK 927      BINDING AFFINITY PREDICTED BY RF-SCORE:    0.00 PKD
ROOT
HETATM    1  N   UNL     1     -11.884  11.449  63.001  1.00  0.00    -0.867 NA 
HETATM    2  H2  UNL     1     -12.435  12.169  62.533  1.00  0.00     0.000 HD 
HETATM    3  C   UNL     1     -10.653  11.647  63.520  1.00  0.00    -0.435 C  
HETATM    4  H1  UNL     1     -12.192  10.486  63.137  1.00  0.00     0.000 HD 
HETATM    5  N   UNL     1     -10.244  12.927  63.338  1.00  0.00    -0.540 NA 
HETATM    6  N   UNL     1      -9.976  10.722  64.122  1.00  0.00    -0.319 NA 
HETATM    7  H1  UNL     1      -9.314  13.076  63.729  1.00  0.00     0.000 HD 
HETATM    8  H2  UNL     1     -10.795  13.646  62.869  1.00  0.00     0.000 HD 
HETATM    9  H   UNL     1     -10.279   9.751  64.204  1.00  0.00     0.000 HD 
ENDROOT
BRANCH   6  10
HETATM   10  N   UNL     1      -8.778  11.217  64.649  1.00  0.00    -0.375 NA 
HETATM   11  H   UNL     1      -7.974  11.502  64.089  1.00  0.00     0.000 HD 
BRANCH  10  12
HETATM   12  C   UNL     1      -8.826  11.264  65.942  1.00  0.00    -0.169 C  
BRANCH  12  13
HETATM   13  C   UNL     1      -9.078  10.071  66.778  1.00  0.00    -0.159 A  
HETATM   14  C   UNL     1      -8.174   8.995  66.845  1.00  0.00    -0.116 A  
HETATM   15  C   UNL     1      -8.425   7.916  67.705  1.00  0.00    -0.125 A  
HETATM   16 CL   UNL     1      -6.687   8.920  65.963  1.00  0.00    -0.068 Cl 
HETATM   17  C   UNL     1      -9.564   7.896  68.504  1.00  0.00    -0.153 A  
HETATM   18  C   UNL     1     -10.469   8.951  68.439  1.00  0.00    -0.230 A  
HETATM   19  C   UNL     1     -10.231  10.035  67.582  1.00  0.00    -0.204 A  
HETATM   20 CL   UNL     1     -11.437  11.277  67.557  1.00  0.00    -0.352 Cl 
ENDBRANCH  12  13
ENDBRANCH  10  12
ENDBRANCH   6  10
TORSDOF 3
ENDMDL
MODEL      165
REMARK 921   NORMALIZED FREE ENERGY PREDICTED BY IDOCK:   -3.44 KCAL/MOL
REMARK 922        TOTAL FREE ENERGY PREDICTED BY IDOCK:   -4.32 KCAL/MOL
REMARK 923 INTER-LIGAND FREE ENERGY PREDICTED BY IDOCK:   -4.12 KCAL/MOL
REMARK 924 INTRA-LIGAND FREE ENERGY PREDICTED BY IDOCK:   -0.20 KCAL/MOL
REMARK 927      BINDING AFFINITY PREDICTED BY RF-SCORE:    0.00 PKD
ROOT
HETATM    1  N   UNL     1      -9.684   6.800  66.470  1.00  0.00    -0.306 NA 
HETATM    2  H2  UNL     1      -9.733   6.051  67.161  1.00  0.00     0.000 HD 
HETATM    3  C   UNL     1     -10.196   8.038  66.648  1.00  0.00    -0.245 C  
HETATM    4  H1  UNL     1      -9.243   6.712  65.554  1.00  0.00     0.000 HD 
HETATM    5  N   UNL     1     -10.783   8.155  67.865  1.00  0.00    -0.456 NA 
HETATM    6  N   UNL     1     -10.111   8.979  65.762  1.00  0.00    -0.362 NA 
HETATM    7  H1  UNL     1     -11.169   9.089  67.999  1.00  0.00     0.000 HD 
HETATM    8  H2  UNL     1     -10.831   7.406  68.555  1.00  0.00     0.000 HD 
HETATM    9  H   UNL     1      -9.711   8.856  64.832  1.00  0.00     0.000 HD 
ENDROOT
BRANCH   6  10
HETATM   10  N   UNL     1     -10.635  10.186  66.237  1.00  0.00    -0.109 NA 
HETATM   11  H   UNL     1     -11.381  10.261  66.929  1.00  0.00     0.000 HD 
BRANCH  10  12
HETATM   12  C   UNL     1     -10.045  11.196  65.681  1.00  0.00    -0.253 C  
BRANCH  12  13
HETATM   13  C   UNL     1     -10.203  12.583  66.169  1.00  0.00    -0.269 A  
HETATM   14  C   UNL     1      -9.216  13.226  66.938  1.00  0.00    -0.241 A  
HETATM   15  C   UNL     1      -9.382  14.566  67.319  1.00  0.00    -0.213 A  
HETATM   16 CL   UNL     1      -7.726  12.490  67.420  1.00  0.00    -0.161 Cl 
HETATM   17  C   UNL     1     -10.518  15.276  66.941  1.00  0.00    -0.289 A  
HETATM   18  C   UNL     1     -11.503  14.646  66.187  1.00  0.00    -0.339 A  
HETATM   19  C   UNL     1     -11.351  13.307  65.801  1.00  0.00    -0.307 A  
HETATM   20 CL   UNL     1     -12.651  12.613  64.893  1.00  0.00    -0.571 Cl 
ENDBRANCH  12  13
ENDBRANCH  10  12
ENDBRANCH   6  10
TORSDOF 3
ENDMDL
MODEL      166
REMARK 921   NORMALIZED FREE ENERGY PREDICTED BY IDOCK:   -3.43 KCAL/MOL
REMARK 922        TOTAL FREE ENERGY PREDICTED BY IDOCK:   -4.32 KCAL/MOL
REMARK 923 INTER-LIGAND FREE ENERGY PREDICTED BY IDOCK:   -3.93 KCAL/MOL
REMARK 924 INTRA-LIGAND FREE ENERGY PREDICTED BY IDOCK:   -0.39 KCAL/MOL
REMARK 927      BINDING AFFINITY PREDICTED BY RF-SCORE:    0.00 PKD
ROOT
HETATM    1  N   UNL     1     -14.091   8.167  72.264  1.00  0.00    -0.589 NA 
HETATM    2  H2  UNL     1     -14.210   8.514  73.216  1.00  0.00     0.000 HD 
HETATM    3  C   UNL     1     -12.970   7.573  71.801  1.00  0.00    -0.328 C  
HETATM    4  H1  UNL     1     -14.805   8.225  71.537  1.00  0.00     0.000 HD 
HETATM    5  N   UNL     1     -12.022   7.497  72.767  1.00  0.00    -0.575 NA 
HETATM    6  N   UNL     1     -12.846   7.127  70.591  1.00  0.00    -0.578 NA 
HETATM    7  H1  UNL     1     -11.175   7.049  72.418  1.00  0.00     0.000 HD 
HETATM    8  H2  UNL     1     -12.140   7.843  73.719  1.00  0.00     0.000 HD 
HETATM    9  H   UNL     1     -13.552   7.240  69.864  1.00  0.00     0.000 HD 
ENDROOT
BRANCH   6  10
HETATM   10  N   UNL     1     -11.624   6.472  70.404  1.00  0.00    -0.401 NA 
HETATM   11  H   UNL     1     -11.321   5.652  70.930  1.00  0.00     0.000 HD 
BRANCH  10  12
HETATM   12  C   UNL     1     -10.930   7.045  69.473  1.00  0.00    -0.220 C  
BRANCH  12  13
HETATM   13  C   UNL     1      -9.694   7.808  69.751  1.00  0.00    -0.176 A  
HETATM   14  C   UNL     1      -9.716   9.168  70.110  1.00  0.00    -0.204 A  
HETATM   15  C   UNL     1      -8.522   9.831  70.431  1.00  0.00    -0.102 A  
HETATM   16 CL   UNL     1     -11.158  10.113  70.255  1.00  0.00    -0.356 Cl 
HETATM   17  C   UNL     1      -7.306   9.155  70.402  1.00  0.00    -0.100 A  
HETATM   18  C   UNL     1      -7.274   7.812  70.040  1.00  0.00    -0.067 A  
HETATM   19  C   UNL     1      -8.459   7.138  69.715  1.00  0.00    -0.137 A  
HETATM   20 CL   UNL     1      -8.300   5.479  69.249  1.00  0.00    -0.101 Cl 
ENDBRANCH  12  13
ENDBRANCH  10  12
ENDBRANCH   6  10
TORSDOF 3
ENDMDL
MODEL      167
REMARK 921   NORMALIZED FREE ENERGY PREDICTED BY IDOCK:   -3.42 KCAL/MOL
REMARK 922        TOTAL FREE ENERGY PREDICTED BY IDOCK:   -4.31 KCAL/MOL
REMARK 923 INTER-LIGAND FREE ENERGY PREDICTED BY IDOCK:   -4.24 KCAL/MOL
REMARK 924 INTRA-LIGAND FREE ENERGY PREDICTED BY IDOCK:   -0.07 KCAL/MOL
REMARK 927      BINDING AFFINITY PREDICTED BY RF-SCORE:    0.00 PKD
ROOT
HETATM    1  N   UNL     1     -10.431  19.830  68.756  1.00  0.00    -0.541 NA 
HETATM    2  H2  UNL     1     -10.957  20.703  68.716  1.00  0.00     0.000 HD 
HETATM    3  C   UNL     1      -9.433  19.500  67.907  1.00  0.00    -0.336 C  
HETATM    4  H1  UNL     1     -10.589  19.093  69.443  1.00  0.00     0.000 HD 
HETATM    5  N   UNL     1      -9.223  20.479  66.993  1.00  0.00    -0.569 NA 
HETATM    6  N   UNL     1      -8.768  18.391  67.985  1.00  0.00    -0.280 NA 
HETATM    7  H1  UNL     1      -8.470  20.230  66.352  1.00  0.00     0.000 HD 
HETATM    8  H2  UNL     1      -9.749  21.352  66.953  1.00  0.00     0.000 HD 
HETATM    9  H   UNL     1      -8.976  17.644  68.647  1.00  0.00     0.000 HD 
ENDROOT
BRANCH   6  10
HETATM   10  N   UNL     1      -7.729  18.344  67.049  1.00  0.00    -0.218 NA 
HETATM   11  H   UNL     1      -6.899  18.936  67.076  1.00  0.00     0.000 HD 
BRANCH  10  12
HETATM   12  C   UNL     1      -7.963  17.447  66.144  1.00  0.00    -0.240 C  
BRANCH  12  13
HETATM   13  C   UNL     1      -8.781  16.243  66.403  1.00  0.00    -0.354 A  
HETATM   14  C   UNL     1      -8.258  15.101  67.038  1.00  0.00    -0.228 A  
HETATM   15  C   UNL     1      -9.092  14.010  67.324  1.00  0.00    -0.224 A  
HETATM   16 CL   UNL     1      -6.619  14.952  67.574  1.00  0.00    -0.186 Cl 
HETATM   17  C   UNL     1     -10.442  14.042  66.988  1.00  0.00    -0.275 A  
HETATM   18  C   UNL     1     -10.966  15.162  66.352  1.00  0.00    -0.329 A  
HETATM   19  C   UNL     1     -10.144  16.260  66.060  1.00  0.00    -0.356 A  
HETATM   20 CL   UNL     1     -10.892  17.588  65.239  1.00  0.00    -0.100 Cl 
ENDBRANCH  12  13
ENDBRANCH  10  12
ENDBRANCH   6  10
TORSDOF 3
ENDMDL
MODEL      168
REMARK 921   NORMALIZED FREE ENERGY PREDICTED BY IDOCK:   -3.40 KCAL/MOL
REMARK 922        TOTAL FREE ENERGY PREDICTED BY IDOCK:   -4.28 KCAL/MOL
REMARK 923 INTER-LIGAND FREE ENERGY PREDICTED BY IDOCK:   -4.54 KCAL/MOL
REMARK 924 INTRA-LIGAND FREE ENERGY PREDICTED BY IDOCK:    0.26 KCAL/MOL
REMARK 927      BINDING AFFINITY PREDICTED BY RF-SCORE:    0.00 PKD
ROOT
HETATM    1  N   UNL     1     -10.933   5.945  70.176  1.00  0.00    -0.344 NA 
HETATM    2  H2  UNL     1     -10.880   5.438  71.059  1.00  0.00     0.000 HD 
HETATM    3  C   UNL     1     -10.864   7.290  70.062  1.00  0.00    -0.253 C  
HETATM    4  H1  UNL     1     -11.047   5.503  69.263  1.00  0.00     0.000 HD 
HETATM    5  N   UNL     1     -10.713   7.877  71.275  1.00  0.00    -0.226 NA 
HETATM    6  N   UNL     1     -10.920   7.913  68.928  1.00  0.00    -0.424 NA 
HETATM    7  H1  UNL     1     -10.661   8.892  71.189  1.00  0.00     0.000 HD 
HETATM    8  H2  UNL     1     -10.660   7.369  72.158  1.00  0.00     0.000 HD 
HETATM    9  H   UNL     1     -11.086   7.457  68.031  1.00  0.00     0.000 HD 
ENDROOT
BRANCH   6  10
HETATM   10  N   UNL     1     -10.726   9.290  69.084  1.00  0.00    -0.311 NA 
HETATM   11  H   UNL     1     -10.336   9.728  69.918  1.00  0.00     0.000 HD 
BRANCH  10  12
HETATM   12  C   UNL     1     -11.108   9.933  68.027  1.00  0.00    -0.158 C  
BRANCH  12  13
HETATM   13  C   UNL     1     -11.273  11.402  68.000  1.00  0.00    -0.346 A  
HETATM   14  C   UNL     1     -11.025  12.165  66.845  1.00  0.00    -0.270 A  
HETATM   15  C   UNL     1     -11.261  13.548  66.849  1.00  0.00    -0.329 A  
HETATM   16 CL   UNL     1     -10.489  11.502  65.338  1.00  0.00    -0.320 Cl 
HETATM   17  C   UNL     1     -11.746  14.181  67.989  1.00  0.00    -0.394 A  
HETATM   18  C   UNL     1     -11.986  13.436  69.140  1.00  0.00    -0.363 A  
HETATM   19  C   UNL     1     -11.753  12.054  69.150  1.00  0.00    -0.330 A  
HETATM   20 CL   UNL     1     -12.055  11.231  70.642  1.00  0.00    -0.471 Cl 
ENDBRANCH  12  13
ENDBRANCH  10  12
ENDBRANCH   6  10
TORSDOF 3
ENDMDL
MODEL      169
REMARK 921   NORMALIZED FREE ENERGY PREDICTED BY IDOCK:   -3.40 KCAL/MOL
REMARK 922        TOTAL FREE ENERGY PREDICTED BY IDOCK:   -4.28 KCAL/MOL
REMARK 923 INTER-LIGAND FREE ENERGY PREDICTED BY IDOCK:   -4.13 KCAL/MOL
REMARK 924 INTRA-LIGAND FREE ENERGY PREDICTED BY IDOCK:   -0.15 KCAL/MOL
REMARK 927      BINDING AFFINITY PREDICTED BY RF-SCORE:    0.00 PKD
ROOT
HETATM    1  N   UNL     1     -11.378   6.647  67.221  1.00  0.00    -0.783 NA 
HETATM    2  H2  UNL     1     -12.209   6.086  67.041  1.00  0.00     0.000 HD 
HETATM    3  C   UNL     1     -10.877   6.900  68.451  1.00  0.00    -0.180 C  
HETATM    4  H1  UNL     1     -10.814   7.093  66.496  1.00  0.00     0.000 HD 
HETATM    5  N   UNL     1     -11.626   6.309  69.414  1.00  0.00    -0.540 NA 
HETATM    6  N   UNL     1      -9.811   7.606  68.656  1.00  0.00    -0.166 NA 
HETATM    7  H1  UNL     1     -11.249   6.500  70.342  1.00  0.00     0.000 HD 
HETATM    8  H2  UNL     1     -12.458   5.748  69.234  1.00  0.00     0.000 HD 
HETATM    9  H   UNL     1      -9.291   8.085  67.921  1.00  0.00     0.000 HD 
ENDROOT
BRANCH   6  10
HETATM   10  N   UNL     1      -9.459   7.629  70.010  1.00  0.00    -0.161 NA 
HETATM   11  H   UNL     1      -9.436   6.810  70.616  1.00  0.00     0.000 HD 
BRANCH  10  12
HETATM   12  C   UNL     1      -9.165   8.832  70.389  1.00  0.00    -0.180 C  
BRANCH  12  13
HETATM   13  C   UNL     1      -9.925  10.020  69.944  1.00  0.00    -0.280 A  
HETATM   14  C   UNL     1     -11.123  10.422  70.563  1.00  0.00    -0.265 A  
HETATM   15  C   UNL     1     -11.771  11.595  70.150  1.00  0.00    -0.381 A  
HETATM   16 CL   UNL     1     -11.858   9.588  71.889  1.00  0.00    -0.420 Cl 
HETATM   17  C   UNL     1     -11.239  12.376  69.128  1.00  0.00    -0.295 A  
HETATM   18  C   UNL     1     -10.060  11.982  68.503  1.00  0.00    -0.201 A  
HETATM   19  C   UNL     1      -9.403  10.811  68.906  1.00  0.00    -0.175 A  
HETATM   20 CL   UNL     1      -7.962  10.399  68.041  1.00  0.00    -0.104 Cl 
ENDBRANCH  12  13
ENDBRANCH  10  12
ENDBRANCH   6  10
TORSDOF 3
ENDMDL
MODEL      170
REMARK 921   NORMALIZED FREE ENERGY PREDICTED BY IDOCK:   -3.40 KCAL/MOL
REMARK 922        TOTAL FREE ENERGY PREDICTED BY IDOCK:   -4.28 KCAL/MOL
REMARK 923 INTER-LIGAND FREE ENERGY PREDICTED BY IDOCK:   -4.19 KCAL/MOL
REMARK 924 INTRA-LIGAND FREE ENERGY PREDICTED BY IDOCK:   -0.09 KCAL/MOL
REMARK 927      BINDING AFFINITY PREDICTED BY RF-SCORE:    0.00 PKD
ROOT
HETATM    1  N   UNL     1      -8.332  15.358  66.745  1.00  0.00    -0.253 NA 
HETATM    2  H2  UNL     1      -8.283  16.354  66.533  1.00  0.00     0.000 HD 
HETATM    3  C   UNL     1      -9.295  14.526  66.290  1.00  0.00    -0.247 C  
HETATM    4  H1  UNL     1      -7.661  14.859  67.330  1.00  0.00     0.000 HD 
HETATM    5  N   UNL     1     -10.187  15.189  65.513  1.00  0.00    -0.351 NA 
HETATM    6  N   UNL     1      -9.331  13.260  66.561  1.00  0.00    -0.357 NA 
HETATM    7  H1  UNL     1     -10.914  14.561  65.170  1.00  0.00     0.000 HD 
HETATM    8  H2  UNL     1     -10.138  16.185  65.301  1.00  0.00     0.000 HD 
HETATM    9  H   UNL     1      -8.679  12.790  67.190  1.00  0.00     0.000 HD 
ENDROOT
BRANCH   6  10
HETATM   10  N   UNL     1     -10.373  12.615  65.886  1.00  0.00    -0.271 NA 
HETATM   11  H   UNL     1     -10.393  12.445  64.881  1.00  0.00     0.000 HD 
BRANCH  10  12
HETATM   12  C   UNL     1     -11.309  12.264  66.710  1.00  0.00    -0.339 C  
BRANCH  12  13
HETATM   13  C   UNL     1     -11.093  11.284  67.796  1.00  0.00    -0.328 A  
HETATM   14  C   UNL     1     -10.562  10.004  67.559  1.00  0.00    -0.280 A  
HETATM   15  C   UNL     1     -10.312   9.135  68.632  1.00  0.00    -0.233 A  
HETATM   16 CL   UNL     1     -10.116   9.411  65.996  1.00  0.00    -0.353 Cl 
HETATM   17  C   UNL     1     -10.580   9.527  69.939  1.00  0.00    -0.269 A  
HETATM   18  C   UNL     1     -11.114  10.789  70.183  1.00  0.00    -0.298 A  
HETATM   19  C   UNL     1     -11.370  11.666  69.121  1.00  0.00    -0.283 A  
HETATM   20 CL   UNL     1     -12.063  13.198  69.535  1.00  0.00    -0.330 Cl 
ENDBRANCH  12  13
ENDBRANCH  10  12
ENDBRANCH   6  10
TORSDOF 3
ENDMDL
MODEL      171
REMARK 921   NORMALIZED FREE ENERGY PREDICTED BY IDOCK:   -3.39 KCAL/MOL
REMARK 922        TOTAL FREE ENERGY PREDICTED BY IDOCK:   -4.27 KCAL/MOL
REMARK 923 INTER-LIGAND FREE ENERGY PREDICTED BY IDOCK:   -4.06 KCAL/MOL
REMARK 924 INTRA-LIGAND FREE ENERGY PREDICTED BY IDOCK:   -0.20 KCAL/MOL
REMARK 927      BINDING AFFINITY PREDICTED BY RF-SCORE:    0.00 PKD
ROOT
HETATM    1  N   UNL     1     -11.284   4.866  65.855  1.00  0.00    -0.815 NA 
HETATM    2  H2  UNL     1     -11.184   3.853  65.917  1.00  0.00     0.000 HD 
HETATM    3  C   UNL     1     -10.782   5.740  66.754  1.00  0.00    -0.297 C  
HETATM    4  H1  UNL     1     -11.777   5.352  65.105  1.00  0.00     0.000 HD 
HETATM    5  N   UNL     1     -10.127   5.095  67.751  1.00  0.00    -0.159 NA 
HETATM    6  N   UNL     1     -10.909   7.025  66.648  1.00  0.00    -0.511 NA 
HETATM    7  H1  UNL     1      -9.749   5.755  68.431  1.00  0.00     0.000 HD 
HETATM    8  H2  UNL     1     -10.028   4.082  67.814  1.00  0.00     0.000 HD 
HETATM    9  H   UNL     1     -11.450   7.489  65.919  1.00  0.00     0.000 HD 
ENDROOT
BRANCH   6  10
HETATM   10  N   UNL     1     -10.214   7.699  67.658  1.00  0.00    -0.197 NA 
HETATM   11  H   UNL     1     -10.319   7.514  68.655  1.00  0.00     0.000 HD 
BRANCH  10  12
HETATM   12  C   UNL     1      -9.419   8.590  67.156  1.00  0.00    -0.162 C  
BRANCH  12  13
HETATM   13  C   UNL     1      -9.736  10.034  67.152  1.00  0.00    -0.217 A  
HETATM   14  C   UNL     1      -9.932  10.764  68.339  1.00  0.00    -0.164 A  
HETATM   15  C   UNL     1     -10.163  12.146  68.286  1.00  0.00    -0.209 A  
HETATM   16 CL   UNL     1      -9.848  10.079  69.926  1.00  0.00    -0.275 Cl 
HETATM   17  C   UNL     1     -10.197  12.813  67.066  1.00  0.00    -0.245 A  
HETATM   18  C   UNL     1     -10.012  12.099  65.886  1.00  0.00    -0.267 A  
HETATM   19  C   UNL     1      -9.782  10.717  65.924  1.00  0.00    -0.223 A  
HETATM   20 CL   UNL     1      -9.598   9.923  64.397  1.00  0.00    -0.325 Cl 
ENDBRANCH  12  13
ENDBRANCH  10  12
ENDBRANCH   6  10
TORSDOF 3
ENDMDL
MODEL      172
REMARK 921   NORMALIZED FREE ENERGY PREDICTED BY IDOCK:   -3.38 KCAL/MOL
REMARK 922        TOTAL FREE ENERGY PREDICTED BY IDOCK:   -4.25 KCAL/MOL
REMARK 923 INTER-LIGAND FREE ENERGY PREDICTED BY IDOCK:   -4.22 KCAL/MOL
REMARK 924 INTRA-LIGAND FREE ENERGY PREDICTED BY IDOCK:   -0.04 KCAL/MOL
REMARK 927      BINDING AFFINITY PREDICTED BY RF-SCORE:    0.00 PKD
ROOT
HETATM    1  N   UNL     1     -12.346  13.417  63.983  1.00  0.00    -0.649 NA 
HETATM    2  H2  UNL     1     -13.224  13.238  63.496  1.00  0.00     0.000 HD 
HETATM    3  C   UNL     1     -11.763  14.632  64.085  1.00  0.00    -0.177 C  
HETATM    4  H1  UNL     1     -11.792  12.702  64.455  1.00  0.00     0.000 HD 
HETATM    5  N   UNL     1     -12.499  15.582  63.457  1.00  0.00    -0.556 NA 
HETATM    6  N   UNL     1     -10.653  14.840  64.719  1.00  0.00    -0.563 NA 
HETATM    7  H1  UNL     1     -12.059  16.499  63.533  1.00  0.00     0.000 HD 
HETATM    8  H2  UNL     1     -13.377  15.403  62.970  1.00  0.00     0.000 HD 
HETATM    9  H   UNL     1     -10.088  14.103  65.141  1.00  0.00     0.000 HD 
ENDROOT
BRANCH   6  10
HETATM   10  N   UNL     1     -10.324  16.199  64.755  1.00  0.00    -0.560 NA 
HETATM   11  H   UNL     1     -10.707  16.904  64.125  1.00  0.00     0.000 HD 
BRANCH  10  12
HETATM   12  C   UNL     1      -9.468  16.442  65.696  1.00  0.00    -0.016 C  
BRANCH  12  13
HETATM   13  C   UNL     1      -9.868  16.911  67.041  1.00  0.00    -0.270 A  
HETATM   14  C   UNL     1     -10.435  16.051  67.998  1.00  0.00    -0.275 A  
HETATM   15  C   UNL     1     -10.734  16.527  69.283  1.00  0.00    -0.331 A  
HETATM   16 CL   UNL     1     -10.749  14.370  67.731  1.00  0.00    -0.246 Cl 
HETATM   17  C   UNL     1     -10.473  17.849  69.629  1.00  0.00     0.514 A  
HETATM   18  C   UNL     1      -9.920  18.710  68.685  1.00  0.00    -0.431 A  
HETATM   19  C   UNL     1      -9.617  18.247  67.397  1.00  0.00    -0.283 A  
HETATM   20 CL   UNL     1      -8.962  19.410  66.294  1.00  0.00    -0.372 Cl 
ENDBRANCH  12  13
ENDBRANCH  10  12
ENDBRANCH   6  10
TORSDOF 3
ENDMDL
MODEL      173
REMARK 921   NORMALIZED FREE ENERGY PREDICTED BY IDOCK:   -3.37 KCAL/MOL
REMARK 922        TOTAL FREE ENERGY PREDICTED BY IDOCK:   -4.24 KCAL/MOL
REMARK 923 INTER-LIGAND FREE ENERGY PREDICTED BY IDOCK:   -4.14 KCAL/MOL
REMARK 924 INTRA-LIGAND FREE ENERGY PREDICTED BY IDOCK:   -0.10 KCAL/MOL
REMARK 927      BINDING AFFINITY PREDICTED BY RF-SCORE:    0.00 PKD
ROOT
HETATM    1  N   UNL     1      -6.533  11.916  66.474  1.00  0.00    -0.414 NA 
HETATM    2  H2  UNL     1      -5.718  11.506  66.019  1.00  0.00     0.000 HD 
HETATM    3  C   UNL     1      -7.159  11.381  67.546  1.00  0.00    -0.106 C  
HETATM    4  H1  UNL     1      -6.983  12.783  66.179  1.00  0.00     0.000 HD 
HETATM    5  N   UNL     1      -6.562  10.229  67.937  1.00  0.00    -0.062 NA 
HETATM    6  N   UNL     1      -8.186  11.927  68.117  1.00  0.00    -0.151 NA 
HETATM    7  H1  UNL     1      -7.035   9.825  68.746  1.00  0.00     0.000 HD 
HETATM    8  H2  UNL     1      -5.747   9.819  67.482  1.00  0.00     0.000 HD 
HETATM    9  H   UNL     1      -8.652  12.767  67.776  1.00  0.00     0.000 HD 
ENDROOT
BRANCH   6  10
HETATM   10  N   UNL     1      -8.577  11.222  69.261  1.00  0.00    -0.373 NA 
HETATM   11  H   UNL     1      -8.110  11.281  70.165  1.00  0.00     0.000 HD 
BRANCH  10  12
HETATM   12  C   UNL     1      -9.611  10.482  69.016  1.00  0.00    -0.202 C  
BRANCH  12  13
HETATM   13  C   UNL     1     -10.773  10.402  69.928  1.00  0.00    -0.331 A  
HETATM   14  C   UNL     1     -10.873   9.422  70.932  1.00  0.00    -0.322 A  
HETATM   15  C   UNL     1     -11.962   9.430  71.817  1.00  0.00    -0.452 A  
HETATM   16 CL   UNL     1      -9.686   8.196  71.217  1.00  0.00    -0.195 Cl 
HETATM   17  C   UNL     1     -12.950  10.404  71.718  1.00  0.00    -0.580 A  
HETATM   18  C   UNL     1     -12.864  11.372  70.722  1.00  0.00    -0.255 A  
HETATM   19  C   UNL     1     -11.782  11.376  69.830  1.00  0.00    -0.346 A  
HETATM   20 CL   UNL     1     -11.790  12.605  68.612  1.00  0.00    -0.351 Cl 
ENDBRANCH  12  13
ENDBRANCH  10  12
ENDBRANCH   6  10
TORSDOF 3
ENDMDL
MODEL      174
REMARK 921   NORMALIZED FREE ENERGY PREDICTED BY IDOCK:   -3.36 KCAL/MOL
REMARK 922        TOTAL FREE ENERGY PREDICTED BY IDOCK:   -4.23 KCAL/MOL
REMARK 923 INTER-LIGAND FREE ENERGY PREDICTED BY IDOCK:   -3.95 KCAL/MOL
REMARK 924 INTRA-LIGAND FREE ENERGY PREDICTED BY IDOCK:   -0.28 KCAL/MOL
REMARK 927      BINDING AFFINITY PREDICTED BY RF-SCORE:    0.00 PKD
ROOT
HETATM    1  N   UNL     1      -8.316   9.869  70.529  1.00  0.00    -0.392 NA 
HETATM    2  H2  UNL     1      -8.381   8.956  70.978  1.00  0.00     0.000 HD 
HETATM    3  C   UNL     1      -9.038  10.243  69.450  1.00  0.00    -0.187 C  
HETATM    4  H1  UNL     1      -7.697  10.620  70.836  1.00  0.00     0.000 HD 
HETATM    5  N   UNL     1      -9.861   9.245  69.042  1.00  0.00    -0.162 NA 
HETATM    6  N   UNL     1      -8.950  11.414  68.903  1.00  0.00    -0.372 NA 
HETATM    7  H1  UNL     1     -10.405   9.526  68.227  1.00  0.00     0.000 HD 
HETATM    8  H2  UNL     1      -9.925   8.332  69.491  1.00  0.00     0.000 HD 
HETATM    9  H   UNL     1      -8.288  12.133  69.193  1.00  0.00     0.000 HD 
ENDROOT
BRANCH   6  10
HETATM   10  N   UNL     1      -9.875  11.571  67.865  1.00  0.00    -0.180 NA 
HETATM   11  H   UNL     1     -10.839  11.240  67.894  1.00  0.00     0.000 HD 
BRANCH  10  12
HETATM   12  C   UNL     1      -9.343  12.193  66.862  1.00  0.00    -0.203 C  
BRANCH  12  13
HETATM   13  C   UNL     1      -9.705  13.580  66.496  1.00  0.00    -0.287 A  
HETATM   14  C   UNL     1     -10.960  13.910  65.953  1.00  0.00    -0.284 A  
HETATM   15  C   UNL     1     -11.282  15.249  65.686  1.00  0.00    -0.256 A  
HETATM   16 CL   UNL     1     -12.214  12.761  65.633  1.00  0.00    -0.515 Cl 
HETATM   17  C   UNL     1     -10.370  16.265  65.956  1.00  0.00    -0.363 A  
HETATM   18  C   UNL     1      -9.123  15.947  66.485  1.00  0.00    -0.320 A  
HETATM   19  C   UNL     1      -8.788  14.613  66.755  1.00  0.00    -0.241 A  
HETATM   20 CL   UNL     1      -7.200  14.328  67.382  1.00  0.00    -0.190 Cl 
ENDBRANCH  12  13
ENDBRANCH  10  12
ENDBRANCH   6  10
TORSDOF 3
ENDMDL
MODEL      175
REMARK 921   NORMALIZED FREE ENERGY PREDICTED BY IDOCK:   -3.34 KCAL/MOL
REMARK 922        TOTAL FREE ENERGY PREDICTED BY IDOCK:   -4.22 KCAL/MOL
REMARK 923 INTER-LIGAND FREE ENERGY PREDICTED BY IDOCK:   -4.07 KCAL/MOL
REMARK 924 INTRA-LIGAND FREE ENERGY PREDICTED BY IDOCK:   -0.15 KCAL/MOL
REMARK 927      BINDING AFFINITY PREDICTED BY RF-SCORE:    0.00 PKD
ROOT
HETATM    1  N   UNL     1      -9.497  14.136  65.694  1.00  0.00    -0.527 NA 
HETATM    2  H2  UNL     1      -8.938  14.884  65.283  1.00  0.00     0.000 HD 
HETATM    3  C   UNL     1      -9.152  13.444  66.802  1.00  0.00    -0.212 C  
HETATM    4  H1  UNL     1     -10.391  13.813  65.321  1.00  0.00     0.000 HD 
HETATM    5  N   UNL     1      -7.964  13.874  67.296  1.00  0.00    -0.304 NA 
HETATM    6  N   UNL     1      -9.884  12.507  67.315  1.00  0.00    -0.202 NA 
HETATM    7  H1  UNL     1      -7.703  13.351  68.132  1.00  0.00     0.000 HD 
HETATM    8  H2  UNL     1      -7.405  14.621  66.885  1.00  0.00     0.000 HD 
HETATM    9  H   UNL     1     -10.749  12.163  66.898  1.00  0.00     0.000 HD 
ENDROOT
BRANCH   6  10
HETATM   10  N   UNL     1      -9.342  12.024  68.511  1.00  0.00    -0.336 NA 
HETATM   11  H   UNL     1      -8.939  12.610  69.242  1.00  0.00     0.000 HD 
BRANCH  10  12
HETATM   12  C   UNL     1      -9.421  10.732  68.565  1.00  0.00    -0.181 C  
BRANCH  12  13
HETATM   13  C   UNL     1      -9.795  10.004  69.797  1.00  0.00    -0.270 A  
HETATM   14  C   UNL     1      -8.897   9.157  70.471  1.00  0.00    -0.224 A  
HETATM   15  C   UNL     1      -9.276   8.542  71.673  1.00  0.00    -0.304 A  
HETATM   16 CL   UNL     1      -7.276   8.847  69.950  1.00  0.00    -0.050 Cl 
HETATM   17  C   UNL     1     -10.537   8.763  72.216  1.00  0.00    -0.319 A  
HETATM   18  C   UNL     1     -11.436   9.593  71.553  1.00  0.00    -0.439 A  
HETATM   19  C   UNL     1     -11.071  10.212  70.349  1.00  0.00    -0.324 A  
HETATM   20 CL   UNL     1     -12.276  11.198  69.593  1.00  0.00    -0.376 Cl 
ENDBRANCH  12  13
ENDBRANCH  10  12
ENDBRANCH   6  10
TORSDOF 3
ENDMDL
MODEL      176
REMARK 921   NORMALIZED FREE ENERGY PREDICTED BY IDOCK:   -3.34 KCAL/MOL
REMARK 922        TOTAL FREE ENERGY PREDICTED BY IDOCK:   -4.21 KCAL/MOL
REMARK 923 INTER-LIGAND FREE ENERGY PREDICTED BY IDOCK:   -4.26 KCAL/MOL
REMARK 924 INTRA-LIGAND FREE ENERGY PREDICTED BY IDOCK:    0.04 KCAL/MOL
REMARK 927      BINDING AFFINITY PREDICTED BY RF-SCORE:    0.00 PKD
ROOT
HETATM    1  N   UNL     1     -12.146  11.983  70.594  1.00  0.00    -0.466 NA 
HETATM    2  H2  UNL     1     -11.884  12.654  71.316  1.00  0.00     0.000 HD 
HETATM    3  C   UNL     1     -11.884  12.136  69.278  1.00  0.00    -0.313 C  
HETATM    4  H1  UNL     1     -12.641  11.109  70.772  1.00  0.00     0.000 HD 
HETATM    5  N   UNL     1     -11.226  13.298  69.041  1.00  0.00    -0.266 NA 
HETATM    6  N   UNL     1     -12.214  11.264  68.379  1.00  0.00    -0.638 NA 
HETATM    7  H1  UNL     1     -11.029  13.414  68.048  1.00  0.00     0.000 HD 
HETATM    8  H2  UNL     1     -10.965  13.969  69.763  1.00  0.00     0.000 HD 
HETATM    9  H   UNL     1     -12.754  10.420  68.570  1.00  0.00     0.000 HD 
ENDROOT
BRANCH   6  10
HETATM   10  N   UNL     1     -11.739  11.621  67.112  1.00  0.00    -0.598 NA 
HETATM   11  H   UNL     1     -11.815  12.554  66.708  1.00  0.00     0.000 HD 
BRANCH  10  12
HETATM   12  C   UNL     1     -11.189  10.607  66.523  1.00  0.00     0.208 C  
BRANCH  12  13
HETATM   13  C   UNL     1     -10.260  10.753  65.381  1.00  0.00    -0.341 A  
HETATM   14  C   UNL     1      -8.991  10.146  65.364  1.00  0.00    -0.177 A  
HETATM   15  C   UNL     1      -8.173  10.256  64.230  1.00  0.00    -0.157 A  
HETATM   16 CL   UNL     1      -8.355   9.184  66.655  1.00  0.00    -0.121 Cl 
HETATM   17  C   UNL     1      -8.604  10.960  63.110  1.00  0.00    -0.095 A  
HETATM   18  C   UNL     1      -9.854  11.571  63.121  1.00  0.00    -0.413 A  
HETATM   19  C   UNL     1     -10.681  11.470  64.248  1.00  0.00    -0.355 A  
HETATM   20 CL   UNL     1     -12.201  12.294  64.167  1.00  0.00    -0.522 Cl 
ENDBRANCH  12  13
ENDBRANCH  10  12
ENDBRANCH   6  10
TORSDOF 3
ENDMDL
MODEL      177
REMARK 921   NORMALIZED FREE ENERGY PREDICTED BY IDOCK:   -3.33 KCAL/MOL
REMARK 922        TOTAL FREE ENERGY PREDICTED BY IDOCK:   -4.20 KCAL/MOL
REMARK 923 INTER-LIGAND FREE ENERGY PREDICTED BY IDOCK:   -4.09 KCAL/MOL
REMARK 924 INTRA-LIGAND FREE ENERGY PREDICTED BY IDOCK:   -0.11 KCAL/MOL
REMARK 927      BINDING AFFINITY PREDICTED BY RF-SCORE:    0.00 PKD
ROOT
HETATM    1  N   UNL     1      -7.062   9.970  69.565  1.00  0.00    -0.078 NA 
HETATM    2  H2  UNL     1      -6.451   9.287  70.012  1.00  0.00     0.000 HD 
HETATM    3  C   UNL     1      -8.391  10.068  69.787  1.00  0.00    -0.172 C  
HETATM    4  H1  UNL     1      -6.748  10.669  68.891  1.00  0.00     0.000 HD 
HETATM    5  N   UNL     1      -8.807   9.138  70.682  1.00  0.00    -0.215 NA 
HETATM    6  N   UNL     1      -9.146  10.953  69.217  1.00  0.00    -0.395 NA 
HETATM    7  H1  UNL     1      -9.811   9.212  70.849  1.00  0.00     0.000 HD 
HETATM    8  H2  UNL     1      -8.197   8.455  71.129  1.00  0.00     0.000 HD 
HETATM    9  H   UNL     1      -8.823  11.610  68.507  1.00  0.00     0.000 HD 
ENDROOT
BRANCH   6  10
HETATM   10  N   UNL     1     -10.459  10.898  69.696  1.00  0.00    -0.433 NA 
HETATM   11  H   UNL     1     -10.717  10.920  70.682  1.00  0.00     0.000 HD 
BRANCH  10  12
HETATM   12  C   UNL     1     -11.304  10.813  68.718  1.00  0.00    -0.288 C  
BRANCH  12  13
HETATM   13  C   UNL     1     -10.916  11.013  67.305  1.00  0.00    -0.356 A  
HETATM   14  C   UNL     1     -10.432   9.964  66.503  1.00  0.00    -0.143 A  
HETATM   15  C   UNL     1     -10.142  10.189  65.149  1.00  0.00    -0.329 A  
HETATM   16 CL   UNL     1     -10.216   8.338  67.055  1.00  0.00    -0.352 Cl 
HETATM   17  C   UNL     1     -10.330  11.445  64.582  1.00  0.00    -0.362 A  
HETATM   18  C   UNL     1     -10.800  12.492  65.370  1.00  0.00    -0.316 A  
HETATM   19  C   UNL     1     -11.093  12.281  66.725  1.00  0.00    -0.296 A  
HETATM   20 CL   UNL     1     -11.640  13.659  67.619  1.00  0.00    -0.358 Cl 
ENDBRANCH  12  13
ENDBRANCH  10  12
ENDBRANCH   6  10
TORSDOF 3
ENDMDL
MODEL      178
REMARK 921   NORMALIZED FREE ENERGY PREDICTED BY IDOCK:   -3.33 KCAL/MOL
REMARK 922        TOTAL FREE ENERGY PREDICTED BY IDOCK:   -4.20 KCAL/MOL
REMARK 923 INTER-LIGAND FREE ENERGY PREDICTED BY IDOCK:   -3.96 KCAL/MOL
REMARK 924 INTRA-LIGAND FREE ENERGY PREDICTED BY IDOCK:   -0.24 KCAL/MOL
REMARK 927      BINDING AFFINITY PREDICTED BY RF-SCORE:    0.00 PKD
ROOT
HETATM    1  N   UNL     1     -11.791  13.647  70.513  1.00  0.00    -0.514 NA 
HETATM    2  H2  UNL     1     -11.927  14.320  71.266  1.00  0.00     0.000 HD 
HETATM    3  C   UNL     1     -11.896  13.940  69.198  1.00  0.00    -0.358 C  
HETATM    4  H1  UNL     1     -11.560  12.663  70.653  1.00  0.00     0.000 HD 
HETATM    5  N   UNL     1     -12.204  15.248  69.011  1.00  0.00    -0.594 NA 
HETATM    6  N   UNL     1     -11.706  13.072  68.256  1.00  0.00    -0.335 NA 
HETATM    7  H1  UNL     1     -12.283  15.469  68.019  1.00  0.00     0.000 HD 
HETATM    8  H2  UNL     1     -12.339  15.921  69.765  1.00  0.00     0.000 HD 
HETATM    9  H   UNL     1     -11.526  12.081  68.418  1.00  0.00     0.000 HD 
ENDROOT
BRANCH   6  10
HETATM   10  N   UNL     1     -11.778  13.659  66.988  1.00  0.00    -0.362 NA 
HETATM   11  H   UNL     1     -12.528  14.277  66.679  1.00  0.00     0.000 HD 
BRANCH  10  12
HETATM   12  C   UNL     1     -10.764  13.313  66.260  1.00  0.00    -0.286 C  
BRANCH  12  13
HETATM   13  C   UNL     1      -9.391  13.206  66.799  1.00  0.00    -0.244 A  
HETATM   14  C   UNL     1      -8.645  14.333  67.187  1.00  0.00    -0.216 A  
HETATM   15  C   UNL     1      -7.374  14.175  67.757  1.00  0.00    -0.177 A  
HETATM   16 CL   UNL     1      -9.216  15.963  67.072  1.00  0.00    -0.221 Cl 
HETATM   17  C   UNL     1      -6.835  12.906  67.949  1.00  0.00    -0.120 A  
HETATM   18  C   UNL     1      -7.562  11.785  67.561  1.00  0.00    -0.135 A  
HETATM   19  C   UNL     1      -8.834  11.929  66.989  1.00  0.00    -0.190 A  
HETATM   20 CL   UNL     1      -9.636  10.470  66.514  1.00  0.00    -0.204 Cl 
ENDBRANCH  12  13
ENDBRANCH  10  12
ENDBRANCH   6  10
TORSDOF 3
ENDMDL
MODEL      179
REMARK 921   NORMALIZED FREE ENERGY PREDICTED BY IDOCK:   -3.31 KCAL/MOL
REMARK 922        TOTAL FREE ENERGY PREDICTED BY IDOCK:   -4.18 KCAL/MOL
REMARK 923 INTER-LIGAND FREE ENERGY PREDICTED BY IDOCK:   -4.01 KCAL/MOL
REMARK 924 INTRA-LIGAND FREE ENERGY PREDICTED BY IDOCK:   -0.17 KCAL/MOL
REMARK 927      BINDING AFFINITY PREDICTED BY RF-SCORE:    0.00 PKD
ROOT
HETATM    1  N   UNL     1      -8.112   6.061  66.273  1.00  0.00    -0.109 NA 
HETATM    2  H2  UNL     1      -7.634   5.438  66.924  1.00  0.00     0.000 HD 
HETATM    3  C   UNL     1      -9.048   6.968  66.630  1.00  0.00    -0.152 C  
HETATM    4  H1  UNL     1      -7.946   6.079  65.266  1.00  0.00     0.000 HD 
HETATM    5  N   UNL     1      -9.268   6.943  67.967  1.00  0.00    -0.123 NA 
HETATM    6  N   UNL     1      -9.633   7.759  65.787  1.00  0.00    -0.389 NA 
HETATM    7  H1  UNL     1      -9.975   7.627  68.237  1.00  0.00     0.000 HD 
HETATM    8  H2  UNL     1      -8.791   6.321  68.618  1.00  0.00     0.000 HD 
HETATM    9  H   UNL     1      -9.491   7.726  64.778  1.00  0.00     0.000 HD 
ENDROOT
BRANCH   6  10
HETATM   10  N   UNL     1     -10.484   8.663  66.431  1.00  0.00    -0.285 NA 
HETATM   11  H   UNL     1     -11.376   8.414  66.858  1.00  0.00     0.000 HD 
BRANCH  10  12
HETATM   12  C   UNL     1      -9.987   9.859  66.412  1.00  0.00    -0.244 C  
BRANCH  12  13
HETATM   13  C   UNL     1     -10.716  11.037  66.928  1.00  0.00    -0.325 A  
HETATM   14  C   UNL     1     -10.911  11.257  68.303  1.00  0.00    -0.224 A  
HETATM   15  C   UNL     1     -11.550  12.425  68.747  1.00  0.00    -0.373 A  
HETATM   16 CL   UNL     1     -10.351  10.192  69.547  1.00  0.00    -0.244 Cl 
HETATM   17  C   UNL     1     -11.993  13.380  67.837  1.00  0.00    -0.360 A  
HETATM   18  C   UNL     1     -11.813  13.167  66.474  1.00  0.00    -0.456 A  
HETATM   19  C   UNL     1     -11.177  12.004  66.017  1.00  0.00    -0.335 A  
HETATM   20 CL   UNL     1     -11.033  11.826  64.301  1.00  0.00    -0.391 Cl 
ENDBRANCH  12  13
ENDBRANCH  10  12
ENDBRANCH   6  10
TORSDOF 3
ENDMDL
MODEL      180
REMARK 921   NORMALIZED FREE ENERGY PREDICTED BY IDOCK:   -3.29 KCAL/MOL
REMARK 922        TOTAL FREE ENERGY PREDICTED BY IDOCK:   -4.15 KCAL/MOL
REMARK 923 INTER-LIGAND FREE ENERGY PREDICTED BY IDOCK:   -3.89 KCAL/MOL
REMARK 924 INTRA-LIGAND FREE ENERGY PREDICTED BY IDOCK:   -0.26 KCAL/MOL
REMARK 927      BINDING AFFINITY PREDICTED BY RF-SCORE:    0.00 PKD
ROOT
HETATM    1  N   UNL     1      -8.145   4.738  72.698  1.00  0.00    -0.099 NA 
HETATM    2  H2  UNL     1      -7.290   4.615  73.239  1.00  0.00     0.000 HD 
HETATM    3  C   UNL     1      -9.071   5.692  72.939  1.00  0.00    -0.125 C  
HETATM    4  H1  UNL     1      -8.413   4.156  71.904  1.00  0.00     0.000 HD 
HETATM    5  N   UNL     1      -8.715   6.464  73.995  1.00  0.00    -0.127 NA 
HETATM    6  N   UNL     1     -10.145   5.839  72.230  1.00  0.00    -0.181 NA 
HETATM    7  H1  UNL     1      -9.414   7.184  74.177  1.00  0.00     0.000 HD 
HETATM    8  H2  UNL     1      -7.859   6.341  74.536  1.00  0.00     0.000 HD 
HETATM    9  H   UNL     1     -10.420   5.215  71.472  1.00  0.00     0.000 HD 
ENDROOT
BRANCH   6  10
HETATM   10  N   UNL     1     -10.880   6.959  72.631  1.00  0.00    -0.243 NA 
HETATM   11  H   UNL     1     -10.776   7.428  73.531  1.00  0.00     0.000 HD 
BRANCH  10  12
HETATM   12  C   UNL     1     -11.712   7.321  71.707  1.00  0.00    -0.286 C  
BRANCH  12  13
HETATM   13  C   UNL     1     -11.883   8.730  71.290  1.00  0.00    -0.358 A  
HETATM   14  C   UNL     1     -12.985   9.505  71.697  1.00  0.00    -0.396 A  
HETATM   15  C   UNL     1     -13.067  10.857  71.332  1.00  0.00    -0.457 A  
HETATM   16 CL   UNL     1     -14.266   8.921  72.703  1.00  0.00    -0.415 Cl 
HETATM   17  C   UNL     1     -12.065  11.449  70.570  1.00  0.00    -0.487 A  
HETATM   18  C   UNL     1     -10.976  10.688  70.155  1.00  0.00    -0.292 A  
HETATM   19  C   UNL     1     -10.882   9.335  70.512  1.00  0.00    -0.263 A  
HETATM   20 CL   UNL     1      -9.502   8.475  69.917  1.00  0.00    -0.162 Cl 
ENDBRANCH  12  13
ENDBRANCH  10  12
ENDBRANCH   6  10
TORSDOF 3
ENDMDL
MODEL      181
REMARK 921   NORMALIZED FREE ENERGY PREDICTED BY IDOCK:   -3.29 KCAL/MOL
REMARK 922        TOTAL FREE ENERGY PREDICTED BY IDOCK:   -4.15 KCAL/MOL
REMARK 923 INTER-LIGAND FREE ENERGY PREDICTED BY IDOCK:   -3.82 KCAL/MOL
REMARK 924 INTRA-LIGAND FREE ENERGY PREDICTED BY IDOCK:   -0.33 KCAL/MOL
REMARK 927      BINDING AFFINITY PREDICTED BY RF-SCORE:    0.00 PKD
ROOT
HETATM    1  N   UNL     1      -8.031  11.442  69.169  1.00  0.00    -0.354 NA 
HETATM    2  H2  UNL     1      -7.019  11.473  69.043  1.00  0.00     0.000 HD 
HETATM    3  C   UNL     1      -8.927  11.419  68.157  1.00  0.00    -0.169 C  
HETATM    4  H1  UNL     1      -8.498  11.425  70.076  1.00  0.00     0.000 HD 
HETATM    5  N   UNL     1      -8.305  11.443  66.952  1.00  0.00    -0.154 NA 
HETATM    6  N   UNL     1     -10.208  11.366  68.341  1.00  0.00    -0.192 NA 
HETATM    7  H1  UNL     1      -8.981  11.426  66.189  1.00  0.00     0.000 HD 
HETATM    8  H2  UNL     1      -7.294  11.474  66.826  1.00  0.00     0.000 HD 
HETATM    9  H   UNL     1     -10.658  11.402  69.255  1.00  0.00     0.000 HD 
ENDROOT
BRANCH   6  10
HETATM   10  N   UNL     1     -10.899  11.254  67.129  1.00  0.00    -0.256 NA 
HETATM   11  H   UNL     1     -10.706  10.552  66.416  1.00  0.00     0.000 HD 
BRANCH  10  12
HETATM   12  C   UNL     1     -11.817  12.163  67.036  1.00  0.00    -0.216 C  
BRANCH  12  13
HETATM   13  C   UNL     1     -11.699  13.330  66.136  1.00  0.00    -0.416 A  
HETATM   14  C   UNL     1     -12.179  13.311  64.814  1.00  0.00    -0.417 A  
HETATM   15  C   UNL     1     -12.106  14.466  64.021  1.00  0.00    -0.312 A  
HETATM   16 CL   UNL     1     -12.940  11.943  64.075  1.00  0.00    -0.348 Cl 
HETATM   17  C   UNL     1     -11.564  15.642  64.529  1.00  0.00    -0.262 A  
HETATM   18  C   UNL     1     -11.079  15.668  65.833  1.00  0.00    -0.155 A  
HETATM   19  C   UNL     1     -11.144  14.521  66.636  1.00  0.00    -0.333 A  
HETATM   20 CL   UNL     1     -10.483  14.656  68.230  1.00  0.00    -0.232 Cl 
ENDBRANCH  12  13
ENDBRANCH  10  12
ENDBRANCH   6  10
TORSDOF 3
ENDMDL
MODEL      182
REMARK 921   NORMALIZED FREE ENERGY PREDICTED BY IDOCK:   -3.27 KCAL/MOL
REMARK 922        TOTAL FREE ENERGY PREDICTED BY IDOCK:   -4.13 KCAL/MOL
REMARK 923 INTER-LIGAND FREE ENERGY PREDICTED BY IDOCK:   -3.87 KCAL/MOL
REMARK 924 INTRA-LIGAND FREE ENERGY PREDICTED BY IDOCK:   -0.26 KCAL/MOL
REMARK 927      BINDING AFFINITY PREDICTED BY RF-SCORE:    0.00 PKD
ROOT
HETATM    1  N   UNL     1     -12.662  14.298  64.167  1.00  0.00    -0.650 NA 
HETATM    2  H2  UNL     1     -13.252  14.649  63.412  1.00  0.00     0.000 HD 
HETATM    3  C   UNL     1     -12.057  13.090  64.165  1.00  0.00    -0.427 C  
HETATM    4  H1  UNL     1     -12.452  14.814  65.022  1.00  0.00     0.000 HD 
HETATM    5  N   UNL     1     -12.336  12.405  63.029  1.00  0.00    -0.645 NA 
HETATM    6  N   UNL     1     -11.300  12.670  65.129  1.00  0.00    -0.299 NA 
HETATM    7  H1  UNL     1     -11.880  11.493  63.028  1.00  0.00     0.000 HD 
HETATM    8  H2  UNL     1     -12.926  12.756  62.275  1.00  0.00     0.000 HD 
HETATM    9  H   UNL     1     -11.145  13.179  65.998  1.00  0.00     0.000 HD 
ENDROOT
BRANCH   6  10
HETATM   10  N   UNL     1     -10.723  11.431  64.831  1.00  0.00    -0.298 NA 
HETATM   11  H   UNL     1     -11.090  10.772  64.144  1.00  0.00     0.000 HD 
BRANCH  10  12
HETATM   12  C   UNL     1      -9.660  11.233  65.543  1.00  0.00    -0.228 C  
BRANCH  12  13
HETATM   13  C   UNL     1      -9.268   9.898  66.043  1.00  0.00    -0.215 A  
HETATM   14  C   UNL     1      -9.936   9.267  67.107  1.00  0.00    -0.216 A  
HETATM   15  C   UNL     1      -9.571   7.971  67.500  1.00  0.00    -0.191 A  
HETATM   16 CL   UNL     1     -11.268   9.962  67.967  1.00  0.00    -0.218 Cl 
HETATM   17  C   UNL     1      -8.550   7.292  66.842  1.00  0.00    -0.124 A  
HETATM   18  C   UNL     1      -7.877   7.911  65.793  1.00  0.00    -0.103 A  
HETATM   19  C   UNL     1      -8.231   9.207  65.392  1.00  0.00    -0.130 A  
HETATM   20 CL   UNL     1      -7.307   9.893  64.098  1.00  0.00    -0.130 Cl 
ENDBRANCH  12  13
ENDBRANCH  10  12
ENDBRANCH   6  10
TORSDOF 3
ENDMDL
MODEL      183
REMARK 921   NORMALIZED FREE ENERGY PREDICTED BY IDOCK:   -3.22 KCAL/MOL
REMARK 922        TOTAL FREE ENERGY PREDICTED BY IDOCK:   -4.07 KCAL/MOL
REMARK 923 INTER-LIGAND FREE ENERGY PREDICTED BY IDOCK:   -3.85 KCAL/MOL
REMARK 924 INTRA-LIGAND FREE ENERGY PREDICTED BY IDOCK:   -0.22 KCAL/MOL
REMARK 927      BINDING AFFINITY PREDICTED BY RF-SCORE:    0.00 PKD
ROOT
HETATM    1  N   UNL     1      -8.133   7.567  66.733  1.00  0.00    -0.120 NA 
HETATM    2  H2  UNL     1      -7.963   7.628  65.730  1.00  0.00     0.000 HD 
HETATM    3  C   UNL     1      -9.357   7.596  67.304  1.00  0.00    -0.144 C  
HETATM    4  H1  UNL     1      -7.400   7.476  67.437  1.00  0.00     0.000 HD 
HETATM    5  N   UNL     1     -10.331   7.718  66.368  1.00  0.00    -0.461 NA 
HETATM    6  N   UNL     1      -9.551   7.503  68.582  1.00  0.00    -0.150 NA 
HETATM    7  H1  UNL     1     -11.255   7.741  66.800  1.00  0.00     0.000 HD 
HETATM    8  H2  UNL     1     -10.161   7.779  65.365  1.00  0.00     0.000 HD 
HETATM    9  H   UNL     1      -8.802   7.465  69.273  1.00  0.00     0.000 HD 
ENDROOT
BRANCH   6  10
HETATM   10  N   UNL     1     -10.913   7.462  68.897  1.00  0.00    -0.421 NA 
HETATM   11  H   UNL     1     -11.546   8.260  68.835  1.00  0.00     0.000 HD 
BRANCH  10  12
HETATM   12  C   UNL     1     -11.263   6.275  69.278  1.00  0.00    -0.389 C  
BRANCH  12  13
HETATM   13  C   UNL     1     -10.885   5.712  70.592  1.00  0.00    -0.304 A  
HETATM   14  C   UNL     1     -11.400   6.213  71.801  1.00  0.00    -0.291 A  
HETATM   15  C   UNL     1     -11.065   5.601  73.018  1.00  0.00    -0.327 A  
HETATM   16 CL   UNL     1     -12.509   7.538  71.910  1.00  0.00    -0.335 Cl 
HETATM   17  C   UNL     1     -10.224   4.493  73.046  1.00  0.00    -0.220 A  
HETATM   18  C   UNL     1      -9.703   3.995  71.856  1.00  0.00    -0.236 A  
HETATM   19  C   UNL     1     -10.029   4.598  70.633  1.00  0.00    -0.223 A  
HETATM   20 CL   UNL     1      -9.300   3.917  69.218  1.00  0.00    -0.226 Cl 
ENDBRANCH  12  13
ENDBRANCH  10  12
ENDBRANCH   6  10
TORSDOF 3
ENDMDL
MODEL      184
REMARK 921   NORMALIZED FREE ENERGY PREDICTED BY IDOCK:   -3.20 KCAL/MOL
REMARK 922        TOTAL FREE ENERGY PREDICTED BY IDOCK:   -4.04 KCAL/MOL
REMARK 923 INTER-LIGAND FREE ENERGY PREDICTED BY IDOCK:   -3.70 KCAL/MOL
REMARK 924 INTRA-LIGAND FREE ENERGY PREDICTED BY IDOCK:   -0.34 KCAL/MOL
REMARK 927      BINDING AFFINITY PREDICTED BY RF-SCORE:    0.00 PKD
ROOT
HETATM    1  N   UNL     1     -14.253   8.024  72.130  1.00  0.00    -0.584 NA 
HETATM    2  H2  UNL     1     -14.401   8.495  73.023  1.00  0.00     0.000 HD 
HETATM    3  C   UNL     1     -13.071   7.508  71.726  1.00  0.00    -0.322 C  
HETATM    4  H1  UNL     1     -14.977   7.883  71.426  1.00  0.00     0.000 HD 
HETATM    5  N   UNL     1     -12.109   7.696  72.662  1.00  0.00    -0.576 NA 
HETATM    6  N   UNL     1     -12.909   6.902  70.592  1.00  0.00    -0.478 NA 
HETATM    7  H1  UNL     1     -11.217   7.307  72.356  1.00  0.00     0.000 HD 
HETATM    8  H2  UNL     1     -12.257   8.167  73.554  1.00  0.00     0.000 HD 
HETATM    9  H   UNL     1     -13.633   6.816  69.880  1.00  0.00     0.000 HD 
ENDROOT
BRANCH   6  10
HETATM   10  N   UNL     1     -11.617   6.379  70.466  1.00  0.00    -0.382 NA 
HETATM   11  H   UNL     1     -11.165   5.781  71.157  1.00  0.00     0.000 HD 
BRANCH  10  12
HETATM   12  C   UNL     1     -11.073   6.758  69.354  1.00  0.00    -0.261 C  
BRANCH  12  13
HETATM   13  C   UNL     1      -9.631   7.063  69.231  1.00  0.00    -0.154 A  
HETATM   14  C   UNL     1      -8.710   6.140  68.701  1.00  0.00    -0.112 A  
HETATM   15  C   UNL     1      -7.364   6.501  68.541  1.00  0.00    -0.087 A  
HETATM   16 CL   UNL     1      -9.130   4.554  68.150  1.00  0.00    -0.141 Cl 
HETATM   17  C   UNL     1      -6.923   7.772  68.899  1.00  0.00    -0.066 A  
HETATM   18  C   UNL     1      -7.824   8.688  69.432  1.00  0.00    -0.096 A  
HETATM   19  C   UNL     1      -9.172   8.339  69.599  1.00  0.00    -0.158 A  
HETATM   20 CL   UNL     1     -10.199   9.544  70.299  1.00  0.00    -0.287 Cl 
ENDBRANCH  12  13
ENDBRANCH  10  12
ENDBRANCH   6  10
TORSDOF 3
ENDMDL
MODEL      185
REMARK 921   NORMALIZED FREE ENERGY PREDICTED BY IDOCK:   -3.13 KCAL/MOL
REMARK 922        TOTAL FREE ENERGY PREDICTED BY IDOCK:   -3.97 KCAL/MOL
REMARK 923 INTER-LIGAND FREE ENERGY PREDICTED BY IDOCK:   -3.76 KCAL/MOL
REMARK 924 INTRA-LIGAND FREE ENERGY PREDICTED BY IDOCK:   -0.21 KCAL/MOL
REMARK 927      BINDING AFFINITY PREDICTED BY RF-SCORE:    0.00 PKD
ROOT
HETATM    1  N   UNL     1      -9.938   6.852  66.525  1.00  0.00    -0.381 NA 
HETATM    2  H2  UNL     1     -10.178   6.060  67.120  1.00  0.00     0.000 HD 
HETATM    3  C   UNL     1     -10.301   8.131  66.771  1.00  0.00    -0.291 C  
HETATM    4  H1  UNL     1      -9.392   6.783  65.666  1.00  0.00     0.000 HD 
HETATM    5  N   UNL     1     -11.026   8.222  67.914  1.00  0.00    -0.476 NA 
HETATM    6  N   UNL     1      -9.973   9.125  66.008  1.00  0.00    -0.366 NA 
HETATM    7  H1  UNL     1     -11.300   9.187  68.099  1.00  0.00     0.000 HD 
HETATM    8  H2  UNL     1     -11.266   7.429  68.509  1.00  0.00     0.000 HD 
HETATM    9  H   UNL     1      -9.471   9.028  65.126  1.00  0.00     0.000 HD 
ENDROOT
BRANCH   6  10
HETATM   10  N   UNL     1     -10.393  10.347  66.543  1.00  0.00    -0.237 NA 
HETATM   11  H   UNL     1     -11.168  10.458  67.197  1.00  0.00     0.000 HD 
BRANCH  10  12
HETATM   12  C   UNL     1      -9.664  11.321  66.097  1.00  0.00    -0.220 C  
BRANCH  12  13
HETATM   13  C   UNL     1      -9.421  12.558  66.869  1.00  0.00    -0.219 A  
HETATM   14  C   UNL     1     -10.441  13.486  67.144  1.00  0.00    -0.256 A  
HETATM   15  C   UNL     1     -10.176  14.611  67.939  1.00  0.00    -0.226 A  
HETATM   16 CL   UNL     1     -12.079  13.316  66.611  1.00  0.00    -0.441 Cl 
HETATM   17  C   UNL     1      -8.907  14.821  68.469  1.00  0.00    -0.176 A  
HETATM   18  C   UNL     1      -7.888  13.913  68.196  1.00  0.00    -0.147 A  
HETATM   19  C   UNL     1      -8.140  12.786  67.401  1.00  0.00    -0.185 A  
HETATM   20 CL   UNL     1      -6.794  11.740  67.099  1.00  0.00    -0.139 Cl 
ENDBRANCH  12  13
ENDBRANCH  10  12
ENDBRANCH   6  10
TORSDOF 3
ENDMDL
MODEL      186
REMARK 921   NORMALIZED FREE ENERGY PREDICTED BY IDOCK:   -3.13 KCAL/MOL
REMARK 922        TOTAL FREE ENERGY PREDICTED BY IDOCK:   -3.97 KCAL/MOL
REMARK 923 INTER-LIGAND FREE ENERGY PREDICTED BY IDOCK:   -3.67 KCAL/MOL
REMARK 924 INTRA-LIGAND FREE ENERGY PREDICTED BY IDOCK:   -0.30 KCAL/MOL
REMARK 927      BINDING AFFINITY PREDICTED BY RF-SCORE:    0.00 PKD
ROOT
HETATM    1  N   UNL     1      -9.599   6.510  66.034  1.00  0.00    -0.390 NA 
HETATM    2  H2  UNL     1      -9.889   5.623  65.624  1.00  0.00     0.000 HD 
HETATM    3  C   UNL     1     -10.345   7.235  66.895  1.00  0.00    -0.288 C  
HETATM    4  H1  UNL     1      -8.705   6.966  65.846  1.00  0.00     0.000 HD 
HETATM    5  N   UNL     1     -11.532   6.629  67.144  1.00  0.00    -0.746 NA 
HETATM    6  N   UNL     1      -9.950   8.354  67.414  1.00  0.00    -0.193 NA 
HETATM    7  H1  UNL     1     -12.096   7.176  67.794  1.00  0.00     0.000 HD 
HETATM    8  H2  UNL     1     -11.823   5.742  66.734  1.00  0.00     0.000 HD 
HETATM    9  H   UNL     1      -9.075   8.820  67.174  1.00  0.00     0.000 HD 
ENDROOT
BRANCH   6  10
HETATM   10  N   UNL     1     -10.871   8.846  68.346  1.00  0.00    -0.451 NA 
HETATM   11  H   UNL     1     -11.854   9.028  68.147  1.00  0.00     0.000 HD 
BRANCH  10  12
HETATM   12  C   UNL     1     -10.307   9.039  69.495  1.00  0.00    -0.209 C  
BRANCH  12  13
HETATM   13  C   UNL     1      -9.653   7.955  70.259  1.00  0.00    -0.171 A  
HETATM   14  C   UNL     1     -10.370   6.858  70.771  1.00  0.00    -0.203 A  
HETATM   15  C   UNL     1      -9.694   5.820  71.429  1.00  0.00    -0.203 A  
HETATM   16 CL   UNL     1     -12.078   6.646  70.594  1.00  0.00    -0.421 Cl 
HETATM   17  C   UNL     1      -8.311   5.858  71.581  1.00  0.00    -0.127 A  
HETATM   18  C   UNL     1      -7.594   6.943  71.086  1.00  0.00    -0.087 A  
HETATM   19  C   UNL     1      -8.257   7.987  70.427  1.00  0.00    -0.118 A  
HETATM   20 CL   UNL     1      -7.273   9.301  69.878  1.00  0.00    -0.063 Cl 
ENDBRANCH  12  13
ENDBRANCH  10  12
ENDBRANCH   6  10
TORSDOF 3
ENDMDL
MODEL      187
REMARK 921   NORMALIZED FREE ENERGY PREDICTED BY IDOCK:   -3.13 KCAL/MOL
REMARK 922        TOTAL FREE ENERGY PREDICTED BY IDOCK:   -3.97 KCAL/MOL
REMARK 923 INTER-LIGAND FREE ENERGY PREDICTED BY IDOCK:   -3.67 KCAL/MOL
REMARK 924 INTRA-LIGAND FREE ENERGY PREDICTED BY IDOCK:   -0.29 KCAL/MOL
REMARK 927      BINDING AFFINITY PREDICTED BY RF-SCORE:    0.00 PKD
ROOT
HETATM    1  N   UNL     1     -11.299   2.465  63.584  1.00  0.00    -0.572 NA 
HETATM    2  H2  UNL     1     -11.395   2.215  62.600  1.00  0.00     0.000 HD 
HETATM    3  C   UNL     1     -10.755   3.619  64.030  1.00  0.00    -0.239 C  
HETATM    4  H1  UNL     1     -11.602   1.876  64.361  1.00  0.00     0.000 HD 
HETATM    5  N   UNL     1     -10.352   4.401  62.998  1.00  0.00    -0.406 NA 
HETATM    6  N   UNL     1     -10.655   3.922  65.285  1.00  0.00    -0.477 NA 
HETATM    7  H1  UNL     1      -9.941   5.271  63.334  1.00  0.00     0.000 HD 
HETATM    8  H2  UNL     1     -10.448   4.151  62.014  1.00  0.00     0.000 HD 
HETATM    9  H   UNL     1     -10.916   3.298  66.048  1.00  0.00     0.000 HD 
ENDROOT
BRANCH   6  10
HETATM   10  N   UNL     1     -10.145   5.212  65.467  1.00  0.00    -0.397 NA 
HETATM   11  H   UNL     1      -9.475   5.662  64.843  1.00  0.00     0.000 HD 
BRANCH  10  12
HETATM   12  C   UNL     1     -10.636   5.757  66.534  1.00  0.00    -0.229 C  
BRANCH  12  13
HETATM   13  C   UNL     1      -9.790   6.315  67.611  1.00  0.00    -0.135 A  
HETATM   14  C   UNL     1      -9.286   5.521  68.657  1.00  0.00    -0.122 A  
HETATM   15  C   UNL     1      -8.430   6.082  69.617  1.00  0.00    -0.126 A  
HETATM   16 CL   UNL     1      -9.596   3.827  68.829  1.00  0.00    -0.213 Cl 
HETATM   17  C   UNL     1      -8.067   7.423  69.547  1.00  0.00    -0.129 A  
HETATM   18  C   UNL     1      -8.568   8.218  68.521  1.00  0.00    -0.133 A  
HETATM   19  C   UNL     1      -9.424   7.671  67.555  1.00  0.00    -0.140 A  
HETATM   20 CL   UNL     1     -10.013   8.756  66.342  1.00  0.00    -0.354 Cl 
ENDBRANCH  12  13
ENDBRANCH  10  12
ENDBRANCH   6  10
TORSDOF 3
ENDMDL
MODEL      188
REMARK 921   NORMALIZED FREE ENERGY PREDICTED BY IDOCK:   -3.10 KCAL/MOL
REMARK 922        TOTAL FREE ENERGY PREDICTED BY IDOCK:   -3.93 KCAL/MOL
REMARK 923 INTER-LIGAND FREE ENERGY PREDICTED BY IDOCK:   -3.77 KCAL/MOL
REMARK 924 INTRA-LIGAND FREE ENERGY PREDICTED BY IDOCK:   -0.15 KCAL/MOL
REMARK 927      BINDING AFFINITY PREDICTED BY RF-SCORE:    0.00 PKD
ROOT
HETATM    1  N   UNL     1     -11.092   2.972  63.449  1.00  0.00    -0.328 NA 
HETATM    2  H2  UNL     1     -10.680   2.731  62.548  1.00  0.00     0.000 HD 
HETATM    3  C   UNL     1     -10.751   4.056  64.180  1.00  0.00    -0.163 C  
HETATM    4  H1  UNL     1     -11.816   2.425  63.916  1.00  0.00     0.000 HD 
HETATM    5  N   UNL     1      -9.790   4.782  63.558  1.00  0.00    -0.313 NA 
HETATM    6  N   UNL     1     -11.298   4.350  65.316  1.00  0.00    -1.019 NA 
HETATM    7  H1  UNL     1      -9.532   5.600  64.110  1.00  0.00     0.000 HD 
HETATM    8  H2  UNL     1      -9.377   4.541  62.657  1.00  0.00     0.000 HD 
HETATM    9  H   UNL     1     -11.983   3.763  65.792  1.00  0.00     0.000 HD 
ENDROOT
BRANCH   6  10
HETATM   10  N   UNL     1     -10.833   5.573  65.813  1.00  0.00    -0.524 NA 
HETATM   11  H   UNL     1     -10.958   6.472  65.347  1.00  0.00     0.000 HD 
BRANCH  10  12
HETATM   12  C   UNL     1     -10.223   5.411  66.943  1.00  0.00    -0.240 C  
BRANCH  12  13
HETATM   13  C   UNL     1      -9.650   6.536  67.713  1.00  0.00    -0.125 A  
HETATM   14  C   UNL     1      -8.616   7.344  67.205  1.00  0.00    -0.118 A  
HETATM   15  C   UNL     1      -8.153   8.442  67.944  1.00  0.00    -0.123 A  
HETATM   16 CL   UNL     1      -7.882   7.123  65.653  1.00  0.00    -0.105 Cl 
HETATM   17  C   UNL     1      -8.709   8.749  69.183  1.00  0.00    -0.136 A  
HETATM   18  C   UNL     1      -9.725   7.951  69.697  1.00  0.00    -0.173 A  
HETATM   19  C   UNL     1     -10.197   6.849  68.969  1.00  0.00    -0.181 A  
HETATM   20 CL   UNL     1     -11.442   5.906  69.716  1.00  0.00    -0.224 Cl 
ENDBRANCH  12  13
ENDBRANCH  10  12
ENDBRANCH   6  10
TORSDOF 3
ENDMDL
MODEL      189
REMARK 921   NORMALIZED FREE ENERGY PREDICTED BY IDOCK:   -3.10 KCAL/MOL
REMARK 922        TOTAL FREE ENERGY PREDICTED BY IDOCK:   -3.92 KCAL/MOL
REMARK 923 INTER-LIGAND FREE ENERGY PREDICTED BY IDOCK:   -3.68 KCAL/MOL
REMARK 924 INTRA-LIGAND FREE ENERGY PREDICTED BY IDOCK:   -0.24 KCAL/MOL
REMARK 927      BINDING AFFINITY PREDICTED BY RF-SCORE:    0.00 PKD
ROOT
HETATM    1  N   UNL     1      -7.492  15.845  66.650  1.00  0.00    -0.159 NA 
HETATM    2  H2  UNL     1      -6.795  16.382  67.166  1.00  0.00     0.000 HD 
HETATM    3  C   UNL     1      -8.272  14.884  67.193  1.00  0.00    -0.215 C  
HETATM    4  H1  UNL     1      -7.690  15.963  65.656  1.00  0.00     0.000 HD 
HETATM    5  N   UNL     1      -8.008  14.728  68.514  1.00  0.00    -0.130 NA 
HETATM    6  N   UNL     1      -9.160  14.223  66.522  1.00  0.00    -0.425 NA 
HETATM    7  H1  UNL     1      -8.596  14.002  68.923  1.00  0.00     0.000 HD 
HETATM    8  H2  UNL     1      -7.311  15.265  69.030  1.00  0.00     0.000 HD 
HETATM    9  H   UNL     1      -9.308  14.320  65.517  1.00  0.00     0.000 HD 
ENDROOT
BRANCH   6  10
HETATM   10  N   UNL     1      -9.894  13.361  67.344  1.00  0.00    -0.223 NA 
HETATM   11  H   UNL     1      -9.835  13.343  68.362  1.00  0.00     0.000 HD 
BRANCH  10  12
HETATM   12  C   UNL     1     -10.656  12.587  66.638  1.00  0.00    -0.237 C  
BRANCH  12  13
HETATM   13  C   UNL     1     -10.170  11.852  65.450  1.00  0.00    -0.300 A  
HETATM   14  C   UNL     1      -9.351  10.713  65.555  1.00  0.00    -0.205 A  
HETATM   15  C   UNL     1      -8.973  10.009  64.402  1.00  0.00    -0.265 A  
HETATM   16 CL   UNL     1      -8.800  10.046  67.053  1.00  0.00    -0.144 Cl 
HETATM   17  C   UNL     1      -9.403  10.423  63.145  1.00  0.00    -0.340 A  
HETATM   18  C   UNL     1     -10.207  11.553  63.031  1.00  0.00    -0.312 A  
HETATM   19  C   UNL     1     -10.591  12.267  64.175  1.00  0.00    -0.376 A  
HETATM   20 CL   UNL     1     -11.565  13.674  63.916  1.00  0.00    -0.350 Cl 
ENDBRANCH  12  13
ENDBRANCH  10  12
ENDBRANCH   6  10
TORSDOF 3
ENDMDL
MODEL      190
REMARK 921   NORMALIZED FREE ENERGY PREDICTED BY IDOCK:   -3.09 KCAL/MOL
REMARK 922        TOTAL FREE ENERGY PREDICTED BY IDOCK:   -3.92 KCAL/MOL
REMARK 923 INTER-LIGAND FREE ENERGY PREDICTED BY IDOCK:   -3.61 KCAL/MOL
REMARK 924 INTRA-LIGAND FREE ENERGY PREDICTED BY IDOCK:   -0.31 KCAL/MOL
REMARK 927      BINDING AFFINITY PREDICTED BY RF-SCORE:    0.00 PKD
ROOT
HETATM    1  N   UNL     1     -10.169   6.612  66.165  1.00  0.00    -0.391 NA 
HETATM    2  H2  UNL     1      -9.617   6.049  65.519  1.00  0.00     0.000 HD 
HETATM    3  C   UNL     1     -10.665   6.163  67.339  1.00  0.00    -0.322 C  
HETATM    4  H1  UNL     1     -10.420   7.589  66.009  1.00  0.00     0.000 HD 
HETATM    5  N   UNL     1     -10.332   4.865  67.547  1.00  0.00    -0.098 NA 
HETATM    6  N   UNL     1     -11.354   6.901  68.151  1.00  0.00    -0.536 NA 
HETATM    7  H1  UNL     1     -10.707   4.526  68.432  1.00  0.00     0.000 HD 
HETATM    8  H2  UNL     1      -9.780   4.302  66.901  1.00  0.00     0.000 HD 
HETATM    9  H   UNL     1     -11.638   7.860  67.953  1.00  0.00     0.000 HD 
ENDROOT
BRANCH   6  10
HETATM   10  N   UNL     1     -11.660   6.220  69.335  1.00  0.00    -0.540 NA 
HETATM   11  H   UNL     1     -12.089   5.295  69.376  1.00  0.00     0.000 HD 
BRANCH  10  12
HETATM   12  C   UNL     1     -11.327   6.922  70.371  1.00  0.00    -0.328 C  
BRANCH  12  13
HETATM   13  C   UNL     1      -9.950   7.413  70.596  1.00  0.00    -0.186 A  
HETATM   14  C   UNL     1      -8.879   6.545  70.876  1.00  0.00    -0.147 A  
HETATM   15  C   UNL     1      -7.579   7.052  71.014  1.00  0.00    -0.086 A  
HETATM   16 CL   UNL     1      -9.030   4.826  71.008  1.00  0.00    -0.153 Cl 
HETATM   17  C   UNL     1      -7.330   8.414  70.873  1.00  0.00    -0.064 A  
HETATM   18  C   UNL     1      -8.384   9.281  70.605  1.00  0.00    -0.245 A  
HETATM   19  C   UNL     1      -9.689   8.788  70.466  1.00  0.00    -0.190 A  
HETATM   20 CL   UNL     1     -10.929   9.958  70.164  1.00  0.00    -0.324 Cl 
ENDBRANCH  12  13
ENDBRANCH  10  12
ENDBRANCH   6  10
TORSDOF 3
ENDMDL
MODEL      191
REMARK 921   NORMALIZED FREE ENERGY PREDICTED BY IDOCK:   -3.07 KCAL/MOL
REMARK 922        TOTAL FREE ENERGY PREDICTED BY IDOCK:   -3.90 KCAL/MOL
REMARK 923 INTER-LIGAND FREE ENERGY PREDICTED BY IDOCK:   -4.06 KCAL/MOL
REMARK 924 INTRA-LIGAND FREE ENERGY PREDICTED BY IDOCK:    0.16 KCAL/MOL
REMARK 927      BINDING AFFINITY PREDICTED BY RF-SCORE:    0.00 PKD
ROOT
HETATM    1  N   UNL     1      -5.523  15.995  67.100  1.00  0.00    -0.340 NA 
HETATM    2  H2  UNL     1      -4.810  16.662  66.806  1.00  0.00     0.000 HD 
HETATM    3  C   UNL     1      -6.854  16.208  67.007  1.00  0.00    -0.181 C  
HETATM    4  H1  UNL     1      -5.324  15.079  67.504  1.00  0.00     0.000 HD 
HETATM    5  N   UNL     1      -7.118  17.425  66.471  1.00  0.00    -0.236 NA 
HETATM    6  N   UNL     1      -7.743  15.340  67.374  1.00  0.00    -0.181 NA 
HETATM    7  H1  UNL     1      -8.123  17.586  66.401  1.00  0.00     0.000 HD 
HETATM    8  H2  UNL     1      -6.405  18.092  66.177  1.00  0.00     0.000 HD 
HETATM    9  H   UNL     1      -7.524  14.451  67.823  1.00  0.00     0.000 HD 
ENDROOT
BRANCH   6  10
HETATM   10  N   UNL     1      -9.040  15.772  67.079  1.00  0.00    -0.209 NA 
HETATM   11  H   UNL     1      -9.276  16.701  66.732  1.00  0.00     0.000 HD 
BRANCH  10  12
HETATM   12  C   UNL     1      -9.903  14.833  67.308  1.00  0.00    -0.230 C  
BRANCH  12  13
HETATM   13  C   UNL     1     -10.702  14.766  68.550  1.00  0.00    -0.247 A  
HETATM   14  C   UNL     1     -10.932  15.894  69.358  1.00  0.00    -0.309 A  
HETATM   15  C   UNL     1     -11.754  15.793  70.490  1.00  0.00    -0.400 A  
HETATM   16 CL   UNL     1     -10.309  17.473  69.023  1.00  0.00    -0.351 Cl 
HETATM   17  C   UNL     1     -12.355  14.584  70.826  1.00  0.00    -0.410 A  
HETATM   18  C   UNL     1     -12.126  13.461  70.037  1.00  0.00    -0.404 A  
HETATM   19  C   UNL     1     -11.306  13.546  68.904  1.00  0.00    -0.289 A  
HETATM   20 CL   UNL     1     -11.064  12.082  68.014  1.00  0.00    -0.269 Cl 
ENDBRANCH  12  13
ENDBRANCH  10  12
ENDBRANCH   6  10
TORSDOF 3
ENDMDL
MODEL      192
REMARK 921   NORMALIZED FREE ENERGY PREDICTED BY IDOCK:   -3.04 KCAL/MOL
REMARK 922        TOTAL FREE ENERGY PREDICTED BY IDOCK:   -3.85 KCAL/MOL
REMARK 923 INTER-LIGAND FREE ENERGY PREDICTED BY IDOCK:   -3.96 KCAL/MOL
REMARK 924 INTRA-LIGAND FREE ENERGY PREDICTED BY IDOCK:    0.10 KCAL/MOL
REMARK 927      BINDING AFFINITY PREDICTED BY RF-SCORE:    0.00 PKD
ROOT
HETATM    1  N   UNL     1      -8.875   9.552  69.222  1.00  0.00    -0.144 NA 
HETATM    2  H2  UNL     1      -8.294   8.916  69.767  1.00  0.00     0.000 HD 
HETATM    3  C   UNL     1      -8.551  10.833  68.940  1.00  0.00    -0.153 C  
HETATM    4  H1  UNL     1      -9.779   9.304  68.819  1.00  0.00     0.000 HD 
HETATM    5  N   UNL     1      -7.350  11.163  69.476  1.00  0.00    -0.322 NA 
HETATM    6  N   UNL     1      -9.300  11.619  68.234  1.00  0.00    -0.187 NA 
HETATM    7  H1  UNL     1      -7.106  12.130  69.264  1.00  0.00     0.000 HD 
HETATM    8  H2  UNL     1      -6.768  10.528  70.021  1.00  0.00     0.000 HD 
HETATM    9  H   UNL     1     -10.223  11.368  67.883  1.00  0.00     0.000 HD 
ENDROOT
BRANCH   6  10
HETATM   10  N   UNL     1      -8.685  12.856  68.010  1.00  0.00    -0.183 NA 
HETATM   11  H   UNL     1      -7.695  12.980  67.798  1.00  0.00     0.000 HD 
BRANCH  10  12
HETATM   12  C   UNL     1      -9.541  13.822  68.111  1.00  0.00    -0.216 C  
BRANCH  12  13
HETATM   13  C   UNL     1     -10.364  14.284  66.972  1.00  0.00    -0.267 A  
HETATM   14  C   UNL     1      -9.973  15.354  66.147  1.00  0.00    -0.307 A  
HETATM   15  C   UNL     1     -10.754  15.711  65.038  1.00  0.00    -0.458 A  
HETATM   16 CL   UNL     1      -8.516  16.264  66.360  1.00  0.00    -0.340 Cl 
HETATM   17  C   UNL     1     -11.919  15.013  64.737  1.00  0.00    -0.313 A  
HETATM   18  C   UNL     1     -12.319  13.959  65.552  1.00  0.00    -0.506 A  
HETATM   19  C   UNL     1     -11.549  13.593  66.665  1.00  0.00    -0.364 A  
HETATM   20 CL   UNL     1     -12.155  12.288  67.628  1.00  0.00    -0.199 Cl 
ENDBRANCH  12  13
ENDBRANCH  10  12
ENDBRANCH   6  10
TORSDOF 3
ENDMDL
MODEL      193
REMARK 921   NORMALIZED FREE ENERGY PREDICTED BY IDOCK:   -3.02 KCAL/MOL
REMARK 922        TOTAL FREE ENERGY PREDICTED BY IDOCK:   -3.84 KCAL/MOL
REMARK 923 INTER-LIGAND FREE ENERGY PREDICTED BY IDOCK:   -3.48 KCAL/MOL
REMARK 924 INTRA-LIGAND FREE ENERGY PREDICTED BY IDOCK:   -0.36 KCAL/MOL
REMARK 927      BINDING AFFINITY PREDICTED BY RF-SCORE:    0.00 PKD
ROOT
HETATM    1  N   UNL     1      -6.216  14.988  69.020  1.00  0.00    -0.096 NA 
HETATM    2  H2  UNL     1      -6.119  15.328  69.976  1.00  0.00     0.000 HD 
HETATM    3  C   UNL     1      -7.393  14.664  68.439  1.00  0.00    -0.115 C  
HETATM    4  H1  UNL     1      -5.437  14.845  68.377  1.00  0.00     0.000 HD 
HETATM    5  N   UNL     1      -8.429  14.853  69.295  1.00  0.00    -0.355 NA 
HETATM    6  N   UNL     1      -7.495  14.246  67.218  1.00  0.00    -0.312 NA 
HETATM    7  H1  UNL     1      -9.317  14.608  68.857  1.00  0.00     0.000 HD 
HETATM    8  H2  UNL     1      -8.331  15.194  70.251  1.00  0.00     0.000 HD 
HETATM    9  H   UNL     1      -6.699  14.061  66.608  1.00  0.00     0.000 HD 
ENDROOT
BRANCH   6  10
HETATM   10  N   UNL     1      -8.831  14.078  66.838  1.00  0.00    -0.330 NA 
HETATM   11  H   UNL     1      -9.500  14.839  66.726  1.00  0.00     0.000 HD 
BRANCH  10  12
HETATM   12  C   UNL     1      -9.103  12.826  66.648  1.00  0.00    -0.187 C  
BRANCH  12  13
HETATM   13  C   UNL     1      -9.867  12.016  67.622  1.00  0.00    -0.191 A  
HETATM   14  C   UNL     1      -9.239  11.162  68.545  1.00  0.00    -0.183 A  
HETATM   15  C   UNL     1     -10.003  10.466  69.494  1.00  0.00    -0.229 A  
HETATM   16 CL   UNL     1      -7.526  10.936  68.653  1.00  0.00    -0.098 Cl 
HETATM   17  C   UNL     1     -11.386  10.614  69.538  1.00  0.00    -0.342 A  
HETATM   18  C   UNL     1     -12.017  11.450  68.622  1.00  0.00    -0.317 A  
HETATM   19  C   UNL     1     -11.266  12.150  67.668  1.00  0.00    -0.286 A  
HETATM   20 CL   UNL     1     -12.155  13.138  66.558  1.00  0.00    -0.444 Cl 
ENDBRANCH  12  13
ENDBRANCH  10  12
ENDBRANCH   6  10
TORSDOF 3
ENDMDL
MODEL      194
REMARK 921   NORMALIZED FREE ENERGY PREDICTED BY IDOCK:   -3.02 KCAL/MOL
REMARK 922        TOTAL FREE ENERGY PREDICTED BY IDOCK:   -3.83 KCAL/MOL
REMARK 923 INTER-LIGAND FREE ENERGY PREDICTED BY IDOCK:   -3.70 KCAL/MOL
REMARK 924 INTRA-LIGAND FREE ENERGY PREDICTED BY IDOCK:   -0.13 KCAL/MOL
REMARK 927      BINDING AFFINITY PREDICTED BY RF-SCORE:    0.00 PKD
ROOT
HETATM    1  N   UNL     1     -10.282  10.188  66.867  1.00  0.00    -0.225 NA 
HETATM    2  H2  UNL     1     -10.136  11.000  66.268  1.00  0.00     0.000 HD 
HETATM    3  C   UNL     1     -10.877  10.228  68.079  1.00  0.00    -0.275 C  
HETATM    4  H1  UNL     1      -9.996   9.238  66.628  1.00  0.00     0.000 HD 
HETATM    5  N   UNL     1     -11.256  11.491  68.396  1.00  0.00    -0.231 NA 
HETATM    6  N   UNL     1     -11.063   9.180  68.817  1.00  0.00    -0.447 NA 
HETATM    7  H1  UNL     1     -11.704  11.521  69.312  1.00  0.00     0.000 HD 
HETATM    8  H2  UNL     1     -11.110  12.303  67.798  1.00  0.00     0.000 HD 
HETATM    9  H   UNL     1     -10.725   8.247  68.583  1.00  0.00     0.000 HD 
ENDROOT
BRANCH   6  10
HETATM   10  N   UNL     1     -11.788   9.485  69.975  1.00  0.00    -0.457 NA 
HETATM   11  H   UNL     1     -12.725   9.887  69.982  1.00  0.00     0.000 HD 
BRANCH  10  12
HETATM   12  C   UNL     1     -11.108   9.189  71.036  1.00  0.00    -0.305 C  
BRANCH  12  13
HETATM   13  C   UNL     1     -10.536   7.845  71.272  1.00  0.00    -0.233 A  
HETATM   14  C   UNL     1      -9.151   7.629  71.395  1.00  0.00    -0.133 A  
HETATM   15  C   UNL     1      -8.662   6.347  71.687  1.00  0.00    -0.133 A  
HETATM   16 CL   UNL     1      -7.958   8.876  71.275  1.00  0.00    -0.180 Cl 
HETATM   17  C   UNL     1      -9.534   5.277  71.861  1.00  0.00    -0.178 A  
HETATM   18  C   UNL     1     -10.905   5.480  71.731  1.00  0.00    -0.277 A  
HETATM   19  C   UNL     1     -11.407   6.755  71.439  1.00  0.00    -0.279 A  
HETATM   20 CL   UNL     1     -13.125   6.888  71.269  1.00  0.00    -0.348 Cl 
ENDBRANCH  12  13
ENDBRANCH  10  12
ENDBRANCH   6  10
TORSDOF 3
ENDMDL
MODEL      195
REMARK 921   NORMALIZED FREE ENERGY PREDICTED BY IDOCK:   -3.02 KCAL/MOL
REMARK 922        TOTAL FREE ENERGY PREDICTED BY IDOCK:   -3.83 KCAL/MOL
REMARK 923 INTER-LIGAND FREE ENERGY PREDICTED BY IDOCK:   -3.64 KCAL/MOL
REMARK 924 INTRA-LIGAND FREE ENERGY PREDICTED BY IDOCK:   -0.20 KCAL/MOL
REMARK 927      BINDING AFFINITY PREDICTED BY RF-SCORE:    0.00 PKD
ROOT
HETATM    1  N   UNL     1      -6.560   7.120  73.949  1.00  0.00    -0.069 NA 
HETATM    2  H2  UNL     1      -6.460   7.314  74.945  1.00  0.00     0.000 HD 
HETATM    3  C   UNL     1      -7.260   7.891  73.087  1.00  0.00    -0.099 C  
HETATM    4  H1  UNL     1      -6.146   6.318  73.473  1.00  0.00     0.000 HD 
HETATM    5  N   UNL     1      -7.811   8.956  73.720  1.00  0.00    -0.286 NA 
HETATM    6  N   UNL     1      -7.363   7.633  71.822  1.00  0.00    -0.063 NA 
HETATM    7  H1  UNL     1      -8.339   9.537  73.069  1.00  0.00     0.000 HD 
HETATM    8  H2  UNL     1      -7.710   9.150  74.716  1.00  0.00     0.000 HD 
HETATM    9  H   UNL     1      -6.985   6.798  71.375  1.00  0.00     0.000 HD 
ENDROOT
BRANCH   6  10
HETATM   10  N   UNL     1      -8.059   8.640  71.144  1.00  0.00    -0.132 NA 
HETATM   11  H   UNL     1      -7.681   9.564  70.936  1.00  0.00     0.000 HD 
BRANCH  10  12
HETATM   12  C   UNL     1      -9.246   8.241  70.816  1.00  0.00    -0.153 C  
BRANCH  12  13
HETATM   13  C   UNL     1     -10.448   9.088  70.975  1.00  0.00    -0.339 A  
HETATM   14  C   UNL     1     -11.392   8.870  71.995  1.00  0.00    -0.357 A  
HETATM   15  C   UNL     1     -12.479   9.742  72.147  1.00  0.00    -0.303 A  
HETATM   16 CL   UNL     1     -11.284   7.597  73.163  1.00  0.00    -0.403 Cl 
HETATM   17  C   UNL     1     -12.637  10.834  71.298  1.00  0.00    -0.532 A  
HETATM   18  C   UNL     1     -11.713  11.053  70.282  1.00  0.00    -0.445 A  
HETATM   19  C   UNL     1     -10.623  10.188  70.117  1.00  0.00    -0.281 A  
HETATM   20 CL   UNL     1      -9.553  10.536  68.802  1.00  0.00    -0.171 Cl 
ENDBRANCH  12  13
ENDBRANCH  10  12
ENDBRANCH   6  10
TORSDOF 3
ENDMDL
MODEL      196
REMARK 921   NORMALIZED FREE ENERGY PREDICTED BY IDOCK:   -3.00 KCAL/MOL
REMARK 922        TOTAL FREE ENERGY PREDICTED BY IDOCK:   -3.81 KCAL/MOL
REMARK 923 INTER-LIGAND FREE ENERGY PREDICTED BY IDOCK:   -3.59 KCAL/MOL
REMARK 924 INTRA-LIGAND FREE ENERGY PREDICTED BY IDOCK:   -0.22 KCAL/MOL
REMARK 927      BINDING AFFINITY PREDICTED BY RF-SCORE:    0.00 PKD
ROOT
HETATM    1  N   UNL     1     -11.046   5.080  65.646  1.00  0.00    -0.822 NA 
HETATM    2  H2  UNL     1     -11.858   4.499  65.856  1.00  0.00     0.000 HD 
HETATM    3  C   UNL     1     -10.672   6.159  66.368  1.00  0.00    -0.011 C  
HETATM    4  H1  UNL     1     -10.412   4.922  64.863  1.00  0.00     0.000 HD 
HETATM    5  N   UNL     1     -11.516   6.369  67.408  1.00  0.00    -0.697 NA 
HETATM    6  N   UNL     1      -9.629   6.876  66.091  1.00  0.00    -0.396 NA 
HETATM    7  H1  UNL     1     -11.233   7.184  67.953  1.00  0.00     0.000 HD 
HETATM    8  H2  UNL     1     -12.327   5.788  67.618  1.00  0.00     0.000 HD 
HETATM    9  H   UNL     1      -9.036   6.732  65.273  1.00  0.00     0.000 HD 
ENDROOT
BRANCH   6  10
HETATM   10  N   UNL     1      -9.415   7.870  67.051  1.00  0.00    -0.163 NA 
HETATM   11  H   UNL     1      -9.889   8.773  67.064  1.00  0.00     0.000 HD 
BRANCH  10  12
HETATM   12  C   UNL     1      -8.533   7.491  67.920  1.00  0.00    -0.122 C  
BRANCH  12  13
HETATM   13  C   UNL     1      -8.761   7.572  69.379  1.00  0.00    -0.137 A  
HETATM   14  C   UNL     1      -8.814   8.799  70.064  1.00  0.00    -0.146 A  
HETATM   15  C   UNL     1      -9.101   8.828  71.437  1.00  0.00    -0.313 A  
HETATM   16 CL   UNL     1      -8.608  10.343  69.310  1.00  0.00    -0.167 Cl 
HETATM   17  C   UNL     1      -9.339   7.649  72.137  1.00  0.00    -0.188 A  
HETATM   18  C   UNL     1      -9.280   6.429  71.469  1.00  0.00    -0.145 A  
HETATM   19  C   UNL     1      -8.993   6.386  70.098  1.00  0.00    -0.154 A  
HETATM   20 CL   UNL     1      -8.913   4.815  69.375  1.00  0.00    -0.124 Cl 
ENDBRANCH  12  13
ENDBRANCH  10  12
ENDBRANCH   6  10
TORSDOF 3
ENDMDL
MODEL      197
REMARK 921   NORMALIZED FREE ENERGY PREDICTED BY IDOCK:   -2.99 KCAL/MOL
REMARK 922        TOTAL FREE ENERGY PREDICTED BY IDOCK:   -3.80 KCAL/MOL
REMARK 923 INTER-LIGAND FREE ENERGY PREDICTED BY IDOCK:   -3.56 KCAL/MOL
REMARK 924 INTRA-LIGAND FREE ENERGY PREDICTED BY IDOCK:   -0.24 KCAL/MOL
REMARK 927      BINDING AFFINITY PREDICTED BY RF-SCORE:    0.00 PKD
ROOT
HETATM    1  N   UNL     1      -7.928   8.973  65.785  1.00  0.00    -0.101 NA 
HETATM    2  H2  UNL     1      -7.258   8.390  65.285  1.00  0.00     0.000 HD 
HETATM    3  C   UNL     1      -7.862  10.321  65.861  1.00  0.00    -0.139 C  
HETATM    4  H1  UNL     1      -8.737   8.615  66.295  1.00  0.00     0.000 HD 
HETATM    5  N   UNL     1      -6.788  10.797  65.184  1.00  0.00    -0.356 NA 
HETATM    6  N   UNL     1      -8.733  11.043  66.491  1.00  0.00    -0.163 NA 
HETATM    7  H1  UNL     1      -6.738  11.814  65.242  1.00  0.00     0.000 HD 
HETATM    8  H2  UNL     1      -6.118  10.214  64.684  1.00  0.00     0.000 HD 
HETATM    9  H   UNL     1      -9.505  10.663  67.038  1.00  0.00     0.000 HD 
ENDROOT
BRANCH   6  10
HETATM   10  N   UNL     1      -8.485  12.411  66.330  1.00  0.00    -0.407 NA 
HETATM   11  H   UNL     1      -7.556  12.824  66.248  1.00  0.00     0.000 HD 
BRANCH  10  12
HETATM   12  C   UNL     1      -9.592  13.081  66.301  1.00  0.00    -0.238 C  
BRANCH  12  13
HETATM   13  C   UNL     1     -10.033  13.949  67.414  1.00  0.00    -0.240 A  
HETATM   14  C   UNL     1     -11.074  13.584  68.286  1.00  0.00    -0.261 A  
HETATM   15  C   UNL     1     -11.409  14.410  69.368  1.00  0.00    -0.319 A  
HETATM   16 CL   UNL     1     -11.971  12.108  68.164  1.00  0.00    -0.344 Cl 
HETATM   17  C   UNL     1     -10.718  15.596  69.597  1.00  0.00    -0.278 A  
HETATM   18  C   UNL     1      -9.692  15.970  68.735  1.00  0.00    -0.226 A  
HETATM   19  C   UNL     1      -9.348  15.154  67.648  1.00  0.00    -0.189 A  
HETATM   20 CL   UNL     1      -8.078  15.731  66.622  1.00  0.00    -0.300 Cl 
ENDBRANCH  12  13
ENDBRANCH  10  12
ENDBRANCH   6  10
TORSDOF 3
ENDMDL
MODEL      198
REMARK 921   NORMALIZED FREE ENERGY PREDICTED BY IDOCK:   -2.98 KCAL/MOL
REMARK 922        TOTAL FREE ENERGY PREDICTED BY IDOCK:   -3.79 KCAL/MOL
REMARK 923 INTER-LIGAND FREE ENERGY PREDICTED BY IDOCK:   -3.51 KCAL/MOL
REMARK 924 INTRA-LIGAND FREE ENERGY PREDICTED BY IDOCK:   -0.28 KCAL/MOL
REMARK 927      BINDING AFFINITY PREDICTED BY RF-SCORE:    0.00 PKD
ROOT
HETATM    1  N   UNL     1     -11.640   7.121  72.867  1.00  0.00    -0.545 NA 
HETATM    2  H2  UNL     1     -11.772   6.323  73.488  1.00  0.00     0.000 HD 
HETATM    3  C   UNL     1     -10.875   7.104  71.753  1.00  0.00    -0.225 C  
HETATM    4  H1  UNL     1     -12.066   8.037  73.007  1.00  0.00     0.000 HD 
HETATM    5  N   UNL     1     -10.307   5.886  71.568  1.00  0.00    -0.215 NA 
HETATM    6  N   UNL     1     -10.731   8.126  70.971  1.00  0.00    -0.214 NA 
HETATM    7  H1  UNL     1      -9.730   5.874  70.727  1.00  0.00     0.000 HD 
HETATM    8  H2  UNL     1     -10.440   5.088  72.189  1.00  0.00     0.000 HD 
HETATM    9  H   UNL     1     -11.125   9.048  71.156  1.00  0.00     0.000 HD 
ENDROOT
BRANCH   6  10
HETATM   10  N   UNL     1      -9.969   7.810  69.842  1.00  0.00    -0.188 NA 
HETATM   11  H   UNL     1      -9.862   6.870  69.460  1.00  0.00     0.000 HD 
BRANCH  10  12
HETATM   12  C   UNL     1      -9.417   8.871  69.345  1.00  0.00    -0.161 C  
BRANCH  12  13
HETATM   13  C   UNL     1      -9.837   9.465  68.058  1.00  0.00    -0.191 A  
HETATM   14  C   UNL     1     -10.707  10.569  67.988  1.00  0.00    -0.245 A  
HETATM   15  C   UNL     1     -11.022  11.140  66.746  1.00  0.00    -0.309 A  
HETATM   16 CL   UNL     1     -11.398  11.351  69.369  1.00  0.00    -0.333 Cl 
HETATM   17  C   UNL     1     -10.480  10.627  65.572  1.00  0.00    -0.246 A  
HETATM   18  C   UNL     1      -9.626   9.531  65.630  1.00  0.00    -0.346 A  
HETATM   19  C   UNL     1      -9.303   8.950  66.864  1.00  0.00    -0.168 A  
HETATM   20 CL   UNL     1      -8.257   7.571  66.818  1.00  0.00    -0.121 Cl 
ENDBRANCH  12  13
ENDBRANCH  10  12
ENDBRANCH   6  10
TORSDOF 3
ENDMDL
MODEL      199
REMARK 921   NORMALIZED FREE ENERGY PREDICTED BY IDOCK:   -2.98 KCAL/MOL
REMARK 922        TOTAL FREE ENERGY PREDICTED BY IDOCK:   -3.79 KCAL/MOL
REMARK 923 INTER-LIGAND FREE ENERGY PREDICTED BY IDOCK:   -3.55 KCAL/MOL
REMARK 924 INTRA-LIGAND FREE ENERGY PREDICTED BY IDOCK:   -0.24 KCAL/MOL
REMARK 927      BINDING AFFINITY PREDICTED BY RF-SCORE:    0.00 PKD
ROOT
HETATM    1  N   UNL     1     -11.372   6.928  67.154  1.00  0.00    -0.690 NA 
HETATM    2  H2  UNL     1     -12.021   7.712  67.093  1.00  0.00     0.000 HD 
HETATM    3  C   UNL     1     -11.048   6.291  68.301  1.00  0.00    -0.269 C  
HETATM    4  H1  UNL     1     -10.881   6.522  66.356  1.00  0.00     0.000 HD 
HETATM    5  N   UNL     1     -11.700   6.830  69.360  1.00  0.00    -0.631 NA 
HETATM    6  N   UNL     1     -10.230   5.288  68.353  1.00  0.00    -0.160 NA 
HETATM    7  H1  UNL     1     -11.455   6.350  70.226  1.00  0.00     0.000 HD 
HETATM    8  H2  UNL     1     -12.349   7.614  69.299  1.00  0.00     0.000 HD 
HETATM    9  H   UNL     1      -9.711   4.930  67.552  1.00  0.00     0.000 HD 
ENDROOT
BRANCH   6  10
HETATM   10  N   UNL     1     -10.148   4.755  69.644  1.00  0.00    -0.232 NA 
HETATM   11  H   UNL     1     -10.865   4.173  70.077  1.00  0.00     0.000 HD 
BRANCH  10  12
HETATM   12  C   UNL     1      -9.039   5.099  70.216  1.00  0.00    -0.126 C  
BRANCH  12  13
HETATM   13  C   UNL     1      -8.987   6.012  71.379  1.00  0.00    -0.145 A  
HETATM   14  C   UNL     1      -8.631   7.367  71.256  1.00  0.00    -0.118 A  
HETATM   15  C   UNL     1      -8.663   8.209  72.377  1.00  0.00    -0.251 A  
HETATM   16 CL   UNL     1      -8.199   8.127  69.762  1.00  0.00    -0.120 Cl 
HETATM   17  C   UNL     1      -9.050   7.719  73.621  1.00  0.00    -0.345 A  
HETATM   18  C   UNL     1      -9.395   6.378  73.754  1.00  0.00    -0.153 A  
HETATM   19  C   UNL     1      -9.366   5.525  72.642  1.00  0.00    -0.140 A  
HETATM   20 CL   UNL     1      -9.784   3.870  72.927  1.00  0.00    -0.167 Cl 
ENDBRANCH  12  13
ENDBRANCH  10  12
ENDBRANCH   6  10
TORSDOF 3
ENDMDL
MODEL      200
REMARK 921   NORMALIZED FREE ENERGY PREDICTED BY IDOCK:   -2.97 KCAL/MOL
REMARK 922        TOTAL FREE ENERGY PREDICTED BY IDOCK:   -3.77 KCAL/MOL
REMARK 923 INTER-LIGAND FREE ENERGY PREDICTED BY IDOCK:   -3.54 KCAL/MOL
REMARK 924 INTRA-LIGAND FREE ENERGY PREDICTED BY IDOCK:   -0.24 KCAL/MOL
REMARK 927      BINDING AFFINITY PREDICTED BY RF-SCORE:    0.00 PKD
ROOT
HETATM    1  N   UNL     1      -9.405  13.184  68.270  1.00  0.00    -0.237 NA 
HETATM    2  H2  UNL     1      -8.641  13.773  67.941  1.00  0.00     0.000 HD 
HETATM    3  C   UNL     1      -9.259  11.909  68.694  1.00  0.00    -0.061 C  
HETATM    4  H1  UNL     1     -10.380  13.480  68.322  1.00  0.00     0.000 HD 
HETATM    5  N   UNL     1      -7.963  11.516  68.624  1.00  0.00    -0.165 NA 
HETATM    6  N   UNL     1     -10.242  11.182  69.121  1.00  0.00    -0.367 NA 
HETATM    7  H1  UNL     1      -7.853  10.553  68.944  1.00  0.00     0.000 HD 
HETATM    8  H2  UNL     1      -7.199  12.105  68.295  1.00  0.00     0.000 HD 
HETATM    9  H   UNL     1     -11.218  11.479  69.117  1.00  0.00     0.000 HD 
ENDROOT
BRANCH   6  10
HETATM   10  N   UNL     1      -9.802   9.939  69.589  1.00  0.00    -0.219 NA 
HETATM   11  H   UNL     1      -8.838   9.726  69.844  1.00  0.00     0.000 HD 
BRANCH  10  12
HETATM   12  C   UNL     1     -10.783   9.097  69.656  1.00  0.00    -0.225 C  
BRANCH  12  13
HETATM   13  C   UNL     1     -10.595   7.676  70.020  1.00  0.00    -0.240 A  
HETATM   14  C   UNL     1     -10.459   7.253  71.355  1.00  0.00    -0.203 A  
HETATM   15  C   UNL     1     -10.351   5.887  71.654  1.00  0.00    -0.268 A  
HETATM   16 CL   UNL     1     -10.478   8.319  72.718  1.00  0.00    -0.385 Cl 
HETATM   17  C   UNL     1     -10.381   4.935  70.639  1.00  0.00    -0.233 A  
HETATM   18  C   UNL     1     -10.505   5.344  69.316  1.00  0.00    -0.309 A  
HETATM   19  C   UNL     1     -10.613   6.706  69.003  1.00  0.00    -0.239 A  
HETATM   20 CL   UNL     1     -10.732   7.105  67.322  1.00  0.00    -0.387 Cl 
ENDBRANCH  12  13
ENDBRANCH  10  12
ENDBRANCH   6  10
TORSDOF 3
ENDMDL
MODEL      201
REMARK 921   NORMALIZED FREE ENERGY PREDICTED BY IDOCK:   -2.97 KCAL/MOL
REMARK 922        TOTAL FREE ENERGY PREDICTED BY IDOCK:   -3.77 KCAL/MOL
REMARK 923 INTER-LIGAND FREE ENERGY PREDICTED BY IDOCK:   -3.44 KCAL/MOL
REMARK 924 INTRA-LIGAND FREE ENERGY PREDICTED BY IDOCK:   -0.33 KCAL/MOL
REMARK 927      BINDING AFFINITY PREDICTED BY RF-SCORE:    0.00 PKD
ROOT
HETATM    1  N   UNL     1      -9.268  12.131  66.052  1.00  0.00    -0.392 NA 
HETATM    2  H2  UNL     1      -9.893  12.894  65.793  1.00  0.00     0.000 HD 
HETATM    3  C   UNL     1      -9.678  10.937  66.534  1.00  0.00    -0.198 C  
HETATM    4  H1  UNL     1      -8.251  12.170  65.982  1.00  0.00     0.000 HD 
HETATM    5  N   UNL     1     -11.030  10.886  66.628  1.00  0.00    -0.199 NA 
HETATM    6  N   UNL     1      -8.867   9.976  66.844  1.00  0.00    -0.131 NA 
HETATM    7  H1  UNL     1     -11.340   9.985  66.992  1.00  0.00     0.000 HD 
HETATM    8  H2  UNL     1     -11.655  11.649  66.369  1.00  0.00     0.000 HD 
HETATM    9  H   UNL     1      -7.851  10.052  66.815  1.00  0.00     0.000 HD 
ENDROOT
BRANCH   6  10
HETATM   10  N   UNL     1      -9.557   8.819  67.223  1.00  0.00    -0.157 NA 
HETATM   11  H   UNL     1     -10.156   8.274  66.604  1.00  0.00     0.000 HD 
BRANCH  10  12
HETATM   12  C   UNL     1      -9.332   8.535  68.467  1.00  0.00    -0.138 C  
BRANCH  12  13
HETATM   13  C   UNL     1     -10.398   8.095  69.393  1.00  0.00    -0.219 A  
HETATM   14  C   UNL     1     -10.741   6.741  69.556  1.00  0.00    -0.257 A  
HETATM   15  C   UNL     1     -11.712   6.368  70.497  1.00  0.00    -0.385 A  
HETATM   16 CL   UNL     1      -9.989   5.438  68.700  1.00  0.00    -0.213 Cl 
HETATM   17  C   UNL     1     -12.345   7.328  71.281  1.00  0.00    -0.401 A  
HETATM   18  C   UNL     1     -12.018   8.671  71.121  1.00  0.00    -0.320 A  
HETATM   19  C   UNL     1     -11.051   9.057  70.183  1.00  0.00    -0.207 A  
HETATM   20 CL   UNL     1     -10.745  10.755  70.045  1.00  0.00    -0.222 Cl 
ENDBRANCH  12  13
ENDBRANCH  10  12
ENDBRANCH   6  10
TORSDOF 3
ENDMDL
MODEL      202
REMARK 921   NORMALIZED FREE ENERGY PREDICTED BY IDOCK:   -2.95 KCAL/MOL
REMARK 922        TOTAL FREE ENERGY PREDICTED BY IDOCK:   -3.75 KCAL/MOL
REMARK 923 INTER-LIGAND FREE ENERGY PREDICTED BY IDOCK:   -3.50 KCAL/MOL
REMARK 924 INTRA-LIGAND FREE ENERGY PREDICTED BY IDOCK:   -0.25 KCAL/MOL
REMARK 927      BINDING AFFINITY PREDICTED BY RF-SCORE:    0.00 PKD
ROOT
HETATM    1  N   UNL     1      -6.520   8.892  68.974  1.00  0.00    -0.047 NA 
HETATM    2  H2  UNL     1      -5.761   8.273  69.259  1.00  0.00     0.000 HD 
HETATM    3  C   UNL     1      -7.531   8.533  68.152  1.00  0.00    -0.097 C  
HETATM    4  H1  UNL     1      -6.613   9.864  69.271  1.00  0.00     0.000 HD 
HETATM    5  N   UNL     1      -7.406   7.242  67.757  1.00  0.00    -0.091 NA 
HETATM    6  N   UNL     1      -8.492   9.333  67.813  1.00  0.00    -0.116 NA 
HETATM    7  H1  UNL     1      -8.169   6.972  67.136  1.00  0.00     0.000 HD 
HETATM    8  H2  UNL     1      -6.647   6.623  68.042  1.00  0.00     0.000 HD 
HETATM    9  H   UNL     1      -8.541  10.316  68.080  1.00  0.00     0.000 HD 
ENDROOT
BRANCH   6  10
HETATM   10  N   UNL     1      -9.457   8.682  67.037  1.00  0.00    -0.160 NA 
HETATM   11  H   UNL     1      -9.249   7.990  66.316  1.00  0.00     0.000 HD 
BRANCH  10  12
HETATM   12  C   UNL     1     -10.649   9.075  67.355  1.00  0.00    -0.239 C  
BRANCH  12  13
HETATM   13  C   UNL     1     -10.991  10.498  67.569  1.00  0.00    -0.365 A  
HETATM   14  C   UNL     1     -11.036  11.428  66.514  1.00  0.00    -0.272 A  
HETATM   15  C   UNL     1     -11.433  12.751  66.757  1.00  0.00    -0.399 A  
HETATM   16 CL   UNL     1     -10.686  11.042  64.863  1.00  0.00    -0.325 Cl 
HETATM   17  C   UNL     1     -11.790  13.160  68.038  1.00  0.00    -0.398 A  
HETATM   18  C   UNL     1     -11.741  12.250  69.089  1.00  0.00    -0.377 A  
HETATM   19  C   UNL     1     -11.345  10.925  68.861  1.00  0.00    -0.288 A  
HETATM   20 CL   UNL     1     -11.290   9.887  70.245  1.00  0.00    -0.330 Cl 
ENDBRANCH  12  13
ENDBRANCH  10  12
ENDBRANCH   6  10
TORSDOF 3
ENDMDL
MODEL      203
REMARK 921   NORMALIZED FREE ENERGY PREDICTED BY IDOCK:   -2.92 KCAL/MOL
REMARK 922        TOTAL FREE ENERGY PREDICTED BY IDOCK:   -3.72 KCAL/MOL
REMARK 923 INTER-LIGAND FREE ENERGY PREDICTED BY IDOCK:   -3.46 KCAL/MOL
REMARK 924 INTRA-LIGAND FREE ENERGY PREDICTED BY IDOCK:   -0.26 KCAL/MOL
REMARK 927      BINDING AFFINITY PREDICTED BY RF-SCORE:    0.00 PKD
ROOT
HETATM    1  N   UNL     1      -7.296   6.778  72.128  1.00  0.00    -0.087 NA 
HETATM    2  H2  UNL     1      -6.792   6.622  73.000  1.00  0.00     0.000 HD 
HETATM    3  C   UNL     1      -7.989   7.901  71.834  1.00  0.00    -0.106 C  
HETATM    4  H1  UNL     1      -7.344   6.105  71.362  1.00  0.00     0.000 HD 
HETATM    5  N   UNL     1      -7.926   8.794  72.852  1.00  0.00    -0.385 NA 
HETATM    6  N   UNL     1      -8.611   8.082  70.713  1.00  0.00    -0.126 NA 
HETATM    7  H1  UNL     1      -8.449   9.641  72.632  1.00  0.00     0.000 HD 
HETATM    8  H2  UNL     1      -7.421   8.639  73.725  1.00  0.00     0.000 HD 
HETATM    9  H   UNL     1      -8.690   7.377  69.981  1.00  0.00     0.000 HD 
ENDROOT
BRANCH   6  10
HETATM   10  N   UNL     1      -9.163   9.365  70.630  1.00  0.00    -0.254 NA 
HETATM   11  H   UNL     1      -8.802  10.183  71.122  1.00  0.00     0.000 HD 
BRANCH  10  12
HETATM   12  C   UNL     1     -10.192   9.376  69.844  1.00  0.00    -0.222 C  
BRANCH  12  13
HETATM   13  C   UNL     1     -10.608  10.574  69.085  1.00  0.00    -0.258 A  
HETATM   14  C   UNL     1     -11.582  11.468  69.565  1.00  0.00    -0.333 A  
HETATM   15  C   UNL     1     -11.893  12.628  68.840  1.00  0.00    -0.345 A  
HETATM   16 CL   UNL     1     -12.418  11.278  71.069  1.00  0.00    -0.501 Cl 
HETATM   17  C   UNL     1     -11.243  12.912  67.643  1.00  0.00    -0.317 A  
HETATM   18  C   UNL     1     -10.284  12.030  67.156  1.00  0.00    -0.221 A  
HETATM   19  C   UNL     1      -9.965  10.866  67.869  1.00  0.00    -0.176 A  
HETATM   20 CL   UNL     1      -8.781   9.824  67.156  1.00  0.00    -0.133 Cl 
ENDBRANCH  12  13
ENDBRANCH  10  12
ENDBRANCH   6  10
TORSDOF 3
ENDMDL
MODEL      204
REMARK 921   NORMALIZED FREE ENERGY PREDICTED BY IDOCK:   -2.92 KCAL/MOL
REMARK 922        TOTAL FREE ENERGY PREDICTED BY IDOCK:   -3.72 KCAL/MOL
REMARK 923 INTER-LIGAND FREE ENERGY PREDICTED BY IDOCK:   -3.49 KCAL/MOL
REMARK 924 INTRA-LIGAND FREE ENERGY PREDICTED BY IDOCK:   -0.23 KCAL/MOL
REMARK 927      BINDING AFFINITY PREDICTED BY RF-SCORE:    0.00 PKD
ROOT
HETATM    1  N   UNL     1     -11.478  11.405  63.408  1.00  0.00    -0.797 NA 
HETATM    2  H2  UNL     1     -12.053  12.216  63.182  1.00  0.00     0.000 HD 
HETATM    3  C   UNL     1     -10.208  11.471  63.866  1.00  0.00    -0.362 C  
HETATM    4  H1  UNL     1     -11.787  10.436  63.318  1.00  0.00     0.000 HD 
HETATM    5  N   UNL     1      -9.798  12.758  63.985  1.00  0.00    -0.680 NA 
HETATM    6  N   UNL     1      -9.501  10.427  64.160  1.00  0.00    -0.276 NA 
HETATM    7  H1  UNL     1      -8.839  12.808  64.330  1.00  0.00     0.000 HD 
HETATM    8  H2  UNL     1     -10.373  13.569  63.758  1.00  0.00     0.000 HD 
HETATM    9  H   UNL     1      -9.810   9.466  64.015  1.00  0.00     0.000 HD 
ENDROOT
BRANCH   6  10
HETATM   10  N   UNL     1      -8.260  10.779  64.703  1.00  0.00    -0.364 NA 
HETATM   11  H   UNL     1      -7.546  11.317  64.213  1.00  0.00     0.000 HD 
BRANCH  10  12
HETATM   12  C   UNL     1      -8.141  10.330  65.912  1.00  0.00    -0.143 C  
BRANCH  12  13
HETATM   13  C   UNL     1      -7.806   8.921  66.213  1.00  0.00    -0.102 A  
HETATM   14  C   UNL     1      -6.588   8.337  65.818  1.00  0.00    -0.052 A  
HETATM   15  C   UNL     1      -6.287   7.018  66.187  1.00  0.00    -0.050 A  
HETATM   16 CL   UNL     1      -5.354   9.167  64.933  1.00  0.00    -0.045 Cl 
HETATM   17  C   UNL     1      -7.183   6.272  66.948  1.00  0.00    -0.074 A  
HETATM   18  C   UNL     1      -8.393   6.838  67.335  1.00  0.00    -0.122 A  
HETATM   19  C   UNL     1      -8.707   8.155  66.972  1.00  0.00    -0.131 A  
HETATM   20 CL   UNL     1     -10.252   8.748  67.481  1.00  0.00    -0.287 Cl 
ENDBRANCH  12  13
ENDBRANCH  10  12
ENDBRANCH   6  10
TORSDOF 3
ENDMDL
MODEL      205
REMARK 921   NORMALIZED FREE ENERGY PREDICTED BY IDOCK:   -2.90 KCAL/MOL
REMARK 922        TOTAL FREE ENERGY PREDICTED BY IDOCK:   -3.70 KCAL/MOL
REMARK 923 INTER-LIGAND FREE ENERGY PREDICTED BY IDOCK:   -4.56 KCAL/MOL
REMARK 924 INTRA-LIGAND FREE ENERGY PREDICTED BY IDOCK:    0.86 KCAL/MOL
REMARK 927      BINDING AFFINITY PREDICTED BY RF-SCORE:    0.00 PKD
ROOT
HETATM    1  N   UNL     1     -10.329  12.148  63.177  1.00  0.00    -0.539 NA 
HETATM    2  H2  UNL     1     -10.518  11.452  62.457  1.00  0.00     0.000 HD 
HETATM    3  C   UNL     1     -10.048  11.858  64.467  1.00  0.00    -0.271 C  
HETATM    4  H1  UNL     1     -10.328  13.156  63.018  1.00  0.00     0.000 HD 
HETATM    5  N   UNL     1     -10.050  10.518  64.678  1.00  0.00    -0.346 NA 
HETATM    6  N   UNL     1      -9.797  12.759  65.362  1.00  0.00    -0.443 NA 
HETATM    7  H1  UNL     1      -9.839  10.299  65.651  1.00  0.00     0.000 HD 
HETATM    8  H2  UNL     1     -10.240   9.822  63.958  1.00  0.00     0.000 HD 
HETATM    9  H   UNL     1      -9.851  13.763  65.195  1.00  0.00     0.000 HD 
ENDROOT
BRANCH   6  10
HETATM   10  N   UNL     1      -9.443  12.185  66.588  1.00  0.00    -0.218 NA 
HETATM   11  H   UNL     1      -8.547  12.325  67.054  1.00  0.00     0.000 HD 
BRANCH  10  12
HETATM   12  C   UNL     1     -10.406  11.453  67.051  1.00  0.00    -0.223 C  
BRANCH  12  13
HETATM   13  C   UNL     1     -10.984  11.649  68.398  1.00  0.00    -0.265 A  
HETATM   14  C   UNL     1     -11.582  12.861  68.790  1.00  0.00    -0.311 A  
HETATM   15  C   UNL     1     -12.178  12.975  70.055  1.00  0.00    -0.306 A  
HETATM   16 CL   UNL     1     -11.703  14.258  67.776  1.00  0.00    -0.386 Cl 
HETATM   17  C   UNL     1     -12.189  11.897  70.934  1.00  0.00    -0.351 A  
HETATM   18  C   UNL     1     -11.592  10.697  70.558  1.00  0.00    -0.444 A  
HETATM   19  C   UNL     1     -10.992  10.570  69.298  1.00  0.00    -0.244 A  
HETATM   20 CL   UNL     1     -10.252   9.044  68.947  1.00  0.00    -0.214 Cl 
ENDBRANCH  12  13
ENDBRANCH  10  12
ENDBRANCH   6  10
TORSDOF 3
ENDMDL
MODEL      206
REMARK 921   NORMALIZED FREE ENERGY PREDICTED BY IDOCK:   -2.88 KCAL/MOL
REMARK 922        TOTAL FREE ENERGY PREDICTED BY IDOCK:   -3.67 KCAL/MOL
REMARK 923 INTER-LIGAND FREE ENERGY PREDICTED BY IDOCK:   -3.82 KCAL/MOL
REMARK 924 INTRA-LIGAND FREE ENERGY PREDICTED BY IDOCK:    0.15 KCAL/MOL
REMARK 927      BINDING AFFINITY PREDICTED BY RF-SCORE:    0.00 PKD
ROOT
HETATM    1  N   UNL     1     -13.107  12.501  64.513  1.00  0.00    -0.839 NA 
HETATM    2  H2  UNL     1     -13.137  12.081  63.584  1.00  0.00     0.000 HD 
HETATM    3  C   UNL     1     -12.065  12.397  65.367  1.00  0.00    -0.365 C  
HETATM    4  H1  UNL     1     -13.862  13.055  64.919  1.00  0.00     0.000 HD 
HETATM    5  N   UNL     1     -11.063  11.660  64.828  1.00  0.00    -0.291 NA 
HETATM    6  N   UNL     1     -12.044  12.950  66.538  1.00  0.00    -0.460 NA 
HETATM    7  H1  UNL     1     -10.277  11.580  65.472  1.00  0.00     0.000 HD 
HETATM    8  H2  UNL     1     -11.092  11.239  63.899  1.00  0.00     0.000 HD 
HETATM    9  H   UNL     1     -12.829  13.457  66.946  1.00  0.00     0.000 HD 
ENDROOT
BRANCH   6  10
HETATM   10  N   UNL     1     -10.811  12.768  67.174  1.00  0.00    -0.252 NA 
HETATM   11  H   UNL     1     -10.457  11.870  67.502  1.00  0.00     0.000 HD 
BRANCH  10  12
HETATM   12  C   UNL     1     -10.181  13.893  67.291  1.00  0.00    -0.249 C  
BRANCH  12  13
HETATM   13  C   UNL     1      -8.910  14.025  68.035  1.00  0.00    -0.181 A  
HETATM   14  C   UNL     1      -8.683  15.064  68.956  1.00  0.00    -0.203 A  
HETATM   15  C   UNL     1      -7.488  15.107  69.689  1.00  0.00    -0.181 A  
HETATM   16 CL   UNL     1      -9.830  16.308  69.321  1.00  0.00    -0.259 Cl 
HETATM   17  C   UNL     1      -6.515  14.126  69.518  1.00  0.00    -0.127 A  
HETATM   18  C   UNL     1      -6.727  13.100  68.603  1.00  0.00    -0.096 A  
HETATM   19  C   UNL     1      -7.917  13.046  67.864  1.00  0.00    -0.157 A  
HETATM   20 CL   UNL     1      -8.063  11.744  66.731  1.00  0.00    -0.159 Cl 
ENDBRANCH  12  13
ENDBRANCH  10  12
ENDBRANCH   6  10
TORSDOF 3
ENDMDL
MODEL      207
REMARK 921   NORMALIZED FREE ENERGY PREDICTED BY IDOCK:   -2.87 KCAL/MOL
REMARK 922        TOTAL FREE ENERGY PREDICTED BY IDOCK:   -3.65 KCAL/MOL
REMARK 923 INTER-LIGAND FREE ENERGY PREDICTED BY IDOCK:   -3.67 KCAL/MOL
REMARK 924 INTRA-LIGAND FREE ENERGY PREDICTED BY IDOCK:    0.01 KCAL/MOL
REMARK 927      BINDING AFFINITY PREDICTED BY RF-SCORE:    0.00 PKD
ROOT
HETATM    1  N   UNL     1     -10.010   9.228  65.798  1.00  0.00    -0.414 NA 
HETATM    2  H2  UNL     1     -10.003   8.518  65.066  1.00  0.00     0.000 HD 
HETATM    3  C   UNL     1      -9.639   9.010  67.079  1.00  0.00    -0.176 C  
HETATM    4  H1  UNL     1     -10.298  10.197  65.658  1.00  0.00     0.000 HD 
HETATM    5  N   UNL     1      -9.257   7.722  67.264  1.00  0.00    -0.136 NA 
HETATM    6  N   UNL     1      -9.643   9.931  67.989  1.00  0.00    -0.138 NA 
HETATM    7  H1  UNL     1      -8.977   7.557  68.231  1.00  0.00     0.000 HD 
HETATM    8  H2  UNL     1      -9.250   7.012  66.532  1.00  0.00     0.000 HD 
HETATM    9  H   UNL     1      -9.983  10.880  67.842  1.00  0.00     0.000 HD 
ENDROOT
BRANCH   6  10
HETATM   10  N   UNL     1      -9.122   9.463  69.200  1.00  0.00    -0.143 NA 
HETATM   11  H   UNL     1      -8.223   8.990  69.299  1.00  0.00     0.000 HD 
BRANCH  10  12
HETATM   12  C   UNL     1      -9.934   9.710  70.179  1.00  0.00    -0.261 C  
BRANCH  12  13
HETATM   13  C   UNL     1     -10.789   8.670  70.791  1.00  0.00    -0.272 A  
HETATM   14  C   UNL     1     -12.145   8.895  71.092  1.00  0.00    -0.277 A  
HETATM   15  C   UNL     1     -12.933   7.856  71.609  1.00  0.00    -0.359 A  
HETATM   16 CL   UNL     1     -12.969  10.390  70.809  1.00  0.00    -0.450 Cl 
HETATM   17  C   UNL     1     -12.389   6.593  71.825  1.00  0.00    -0.385 A  
HETATM   18  C   UNL     1     -11.047   6.364  71.538  1.00  0.00    -0.322 A  
HETATM   19  C   UNL     1     -10.248   7.394  71.023  1.00  0.00    -0.191 A  
HETATM   20 CL   UNL     1      -8.586   7.008  70.731  1.00  0.00    -0.142 Cl 
ENDBRANCH  12  13
ENDBRANCH  10  12
ENDBRANCH   6  10
TORSDOF 3
ENDMDL
MODEL      208
REMARK 921   NORMALIZED FREE ENERGY PREDICTED BY IDOCK:   -2.83 KCAL/MOL
REMARK 922        TOTAL FREE ENERGY PREDICTED BY IDOCK:   -3.61 KCAL/MOL
REMARK 923 INTER-LIGAND FREE ENERGY PREDICTED BY IDOCK:   -3.43 KCAL/MOL
REMARK 924 INTRA-LIGAND FREE ENERGY PREDICTED BY IDOCK:   -0.18 KCAL/MOL
REMARK 927      BINDING AFFINITY PREDICTED BY RF-SCORE:    0.00 PKD
ROOT
HETATM    1  N   UNL     1      -6.839   4.603  65.478  1.00  0.00    -0.059 NA 
HETATM    2  H2  UNL     1      -6.241   4.065  66.105  1.00  0.00     0.000 HD 
HETATM    3  C   UNL     1      -7.656   5.604  65.873  1.00  0.00    -0.086 C  
HETATM    4  H1  UNL     1      -6.899   4.454  64.470  1.00  0.00     0.000 HD 
HETATM    5  N   UNL     1      -7.577   5.801  67.213  1.00  0.00    -0.095 NA 
HETATM    6  N   UNL     1      -8.398   6.283  65.057  1.00  0.00    -0.234 NA 
HETATM    7  H1  UNL     1      -8.194   6.556  67.511  1.00  0.00     0.000 HD 
HETATM    8  H2  UNL     1      -6.979   5.263  67.839  1.00  0.00     0.000 HD 
HETATM    9  H   UNL     1      -8.483   6.085  64.061  1.00  0.00     0.000 HD 
ENDROOT
BRANCH   6  10
HETATM   10  N   UNL     1      -9.070   7.322  65.711  1.00  0.00    -0.380 NA 
HETATM   11  H   UNL     1      -9.866   7.193  66.336  1.00  0.00     0.000 HD 
BRANCH  10  12
HETATM   12  C   UNL     1      -8.545   8.468  65.416  1.00  0.00    -0.176 C  
BRANCH  12  13
HETATM   13  C   UNL     1      -9.349   9.626  64.969  1.00  0.00    -0.319 A  
HETATM   14  C   UNL     1     -10.074  10.429  65.868  1.00  0.00    -0.261 A  
HETATM   15  C   UNL     1     -10.767  11.557  65.403  1.00  0.00    -0.335 A  
HETATM   16 CL   UNL     1     -10.134  10.166  67.577  1.00  0.00    -0.230 Cl 
HETATM   17  C   UNL     1     -10.744  11.898  64.054  1.00  0.00    -0.428 A  
HETATM   18  C   UNL     1     -10.036  11.104  63.156  1.00  0.00    -0.373 A  
HETATM   19  C   UNL     1      -9.341   9.973  63.607  1.00  0.00    -0.253 A  
HETATM   20 CL   UNL     1      -8.521   9.040  62.401  1.00  0.00    -0.198 Cl 
ENDBRANCH  12  13
ENDBRANCH  10  12
ENDBRANCH   6  10
TORSDOF 3
ENDMDL
MODEL      209
REMARK 921   NORMALIZED FREE ENERGY PREDICTED BY IDOCK:   -2.82 KCAL/MOL
REMARK 922        TOTAL FREE ENERGY PREDICTED BY IDOCK:   -3.60 KCAL/MOL
REMARK 923 INTER-LIGAND FREE ENERGY PREDICTED BY IDOCK:   -3.38 KCAL/MOL
REMARK 924 INTRA-LIGAND FREE ENERGY PREDICTED BY IDOCK:   -0.22 KCAL/MOL
REMARK 927      BINDING AFFINITY PREDICTED BY RF-SCORE:    0.00 PKD
ROOT
HETATM    1  N   UNL     1     -11.354   2.309  63.640  1.00  0.00    -0.592 NA 
HETATM    2  H2  UNL     1     -11.517   2.108  62.654  1.00  0.00     0.000 HD 
HETATM    3  C   UNL     1     -10.836   3.466  64.109  1.00  0.00    -0.040 C  
HETATM    4  H1  UNL     1     -11.561   1.662  64.402  1.00  0.00     0.000 HD 
HETATM    5  N   UNL     1     -10.561   4.325  63.097  1.00  0.00    -0.428 NA 
HETATM    6  N   UNL     1     -10.650   3.705  65.368  1.00  0.00    -0.241 NA 
HETATM    7  H1  UNL     1     -10.170   5.197  63.451  1.00  0.00     0.000 HD 
HETATM    8  H2  UNL     1     -10.724   4.124  62.110  1.00  0.00     0.000 HD 
HETATM    9  H   UNL     1     -10.815   3.026  66.111  1.00  0.00     0.000 HD 
ENDROOT
BRANCH   6  10
HETATM   10  N   UNL     1     -10.195   5.010  65.585  1.00  0.00    -0.417 NA 
HETATM   11  H   UNL     1     -10.551   5.834  65.101  1.00  0.00     0.000 HD 
BRANCH  10  12
HETATM   12  C   UNL     1      -9.262   5.031  66.483  1.00  0.00    -0.135 C  
BRANCH  12  13
HETATM   13  C   UNL     1      -9.547   5.014  67.934  1.00  0.00    -0.176 A  
HETATM   14  C   UNL     1      -9.960   6.164  68.632  1.00  0.00    -0.148 A  
HETATM   15  C   UNL     1     -10.285   6.082  69.994  1.00  0.00    -0.264 A  
HETATM   16 CL   UNL     1     -10.170   7.720  67.905  1.00  0.00    -0.242 Cl 
HETATM   17  C   UNL     1     -10.206   4.869  70.671  1.00  0.00    -0.282 A  
HETATM   18  C   UNL     1      -9.790   3.728  69.991  1.00  0.00    -0.096 A  
HETATM   19  C   UNL     1      -9.461   3.796  68.630  1.00  0.00    -0.147 A  
HETATM   20 CL   UNL     1      -8.926   2.325  67.891  1.00  0.00    -0.171 Cl 
ENDBRANCH  12  13
ENDBRANCH  10  12
ENDBRANCH   6  10
TORSDOF 3
ENDMDL
MODEL      210
REMARK 921   NORMALIZED FREE ENERGY PREDICTED BY IDOCK:   -2.82 KCAL/MOL
REMARK 922        TOTAL FREE ENERGY PREDICTED BY IDOCK:   -3.60 KCAL/MOL
REMARK 923 INTER-LIGAND FREE ENERGY PREDICTED BY IDOCK:   -3.39 KCAL/MOL
REMARK 924 INTRA-LIGAND FREE ENERGY PREDICTED BY IDOCK:   -0.21 KCAL/MOL
REMARK 927      BINDING AFFINITY PREDICTED BY RF-SCORE:    0.00 PKD
ROOT
HETATM    1  N   UNL     1     -12.491   8.616  72.677  1.00  0.00    -0.496 NA 
HETATM    2  H2  UNL     1     -12.469   9.226  73.493  1.00  0.00     0.000 HD 
HETATM    3  C   UNL     1     -11.735   7.505  72.531  1.00  0.00    -0.263 C  
HETATM    4  H1  UNL     1     -13.087   8.764  71.862  1.00  0.00     0.000 HD 
HETATM    5  N   UNL     1     -10.942   7.308  73.614  1.00  0.00    -0.558 NA 
HETATM    6  N   UNL     1     -11.789   6.736  71.490  1.00  0.00    -0.314 NA 
HETATM    7  H1  UNL     1     -10.370   6.471  73.504  1.00  0.00     0.000 HD 
HETATM    8  H2  UNL     1     -10.920   7.919  74.430  1.00  0.00     0.000 HD 
HETATM    9  H   UNL     1     -12.354   6.930  70.664  1.00  0.00     0.000 HD 
ENDROOT
BRANCH   6  10
HETATM   10  N   UNL     1     -10.977   5.607  71.639  1.00  0.00    -0.240 NA 
HETATM   11  H   UNL     1     -10.997   4.982  72.445  1.00  0.00     0.000 HD 
BRANCH  10  12
HETATM   12  C   UNL     1     -10.196   5.462  70.616  1.00  0.00    -0.253 C  
BRANCH  12  13
HETATM   13  C   UNL     1      -9.440   6.584  70.020  1.00  0.00    -0.163 A  
HETATM   14  C   UNL     1      -9.774   7.136  68.771  1.00  0.00    -0.145 A  
HETATM   15  C   UNL     1      -9.070   8.245  68.279  1.00  0.00    -0.135 A  
HETATM   16 CL   UNL     1     -11.077   6.577  67.778  1.00  0.00    -0.395 Cl 
HETATM   17  C   UNL     1      -8.038   8.815  69.019  1.00  0.00    -0.116 A  
HETATM   18  C   UNL     1      -7.694   8.270  70.252  1.00  0.00    -0.084 A  
HETATM   19  C   UNL     1      -8.389   7.161  70.754  1.00  0.00    -0.128 A  
HETATM   20 CL   UNL     1      -7.858   6.546  72.283  1.00  0.00    -0.101 Cl 
ENDBRANCH  12  13
ENDBRANCH  10  12
ENDBRANCH   6  10
TORSDOF 3
ENDMDL
MODEL      211
REMARK 921   NORMALIZED FREE ENERGY PREDICTED BY IDOCK:   -2.81 KCAL/MOL
REMARK 922        TOTAL FREE ENERGY PREDICTED BY IDOCK:   -3.58 KCAL/MOL
REMARK 923 INTER-LIGAND FREE ENERGY PREDICTED BY IDOCK:   -3.32 KCAL/MOL
REMARK 924 INTRA-LIGAND FREE ENERGY PREDICTED BY IDOCK:   -0.26 KCAL/MOL
REMARK 927      BINDING AFFINITY PREDICTED BY RF-SCORE:    0.00 PKD
ROOT
HETATM    1  N   UNL     1      -6.865  12.405  67.030  1.00  0.00    -0.357 NA 
HETATM    2  H2  UNL     1      -6.599  12.446  66.046  1.00  0.00     0.000 HD 
HETATM    3  C   UNL     1      -8.032  11.899  67.486  1.00  0.00    -0.155 C  
HETATM    4  H1  UNL     1      -6.284  12.742  67.798  1.00  0.00     0.000 HD 
HETATM    5  N   UNL     1      -8.804  11.451  66.465  1.00  0.00    -0.183 NA 
HETATM    6  N   UNL     1      -8.343  11.845  68.742  1.00  0.00    -0.346 NA 
HETATM    7  H1  UNL     1      -9.685  11.070  66.810  1.00  0.00     0.000 HD 
HETATM    8  H2  UNL     1      -8.538  11.492  65.481  1.00  0.00     0.000 HD 
HETATM    9  H   UNL     1      -7.771  12.234  69.491  1.00  0.00     0.000 HD 
ENDROOT
BRANCH   6  10
HETATM   10  N   UNL     1      -9.561  11.187  68.946  1.00  0.00    -0.335 NA 
HETATM   11  H   UNL     1     -10.375  11.276  68.338  1.00  0.00     0.000 HD 
BRANCH  10  12
HETATM   12  C   UNL     1      -9.515  10.449  70.009  1.00  0.00     0.230 C  
BRANCH  12  13
HETATM   13  C   UNL     1     -10.339   9.232  70.175  1.00  0.00    -0.258 A  
HETATM   14  C   UNL     1      -9.929   7.976  69.694  1.00  0.00    -0.188 A  
HETATM   15  C   UNL     1     -10.714   6.839  69.937  1.00  0.00    -0.290 A  
HETATM   16 CL   UNL     1      -8.446   7.695  68.848  1.00  0.00    -0.129 Cl 
HETATM   17  C   UNL     1     -11.901   6.936  70.656  1.00  0.00    -0.418 A  
HETATM   18  C   UNL     1     -12.319   8.176  71.128  1.00  0.00    -0.229 A  
HETATM   19  C   UNL     1     -11.545   9.321  70.892  1.00  0.00    -0.301 A  
HETATM   20 CL   UNL     1     -12.175  10.816  71.497  1.00  0.00    -0.367 Cl 
ENDBRANCH  12  13
ENDBRANCH  10  12
ENDBRANCH   6  10
TORSDOF 3
ENDMDL
MODEL      212
REMARK 921   NORMALIZED FREE ENERGY PREDICTED BY IDOCK:   -2.80 KCAL/MOL
REMARK 922        TOTAL FREE ENERGY PREDICTED BY IDOCK:   -3.57 KCAL/MOL
REMARK 923 INTER-LIGAND FREE ENERGY PREDICTED BY IDOCK:   -3.22 KCAL/MOL
REMARK 924 INTRA-LIGAND FREE ENERGY PREDICTED BY IDOCK:   -0.35 KCAL/MOL
REMARK 927      BINDING AFFINITY PREDICTED BY RF-SCORE:    0.00 PKD
ROOT
HETATM    1  N   UNL     1      -6.724   5.878  67.312  1.00  0.00    -0.059 NA 
HETATM    2  H2  UNL     1      -6.007   6.536  67.005  1.00  0.00     0.000 HD 
HETATM    3  C   UNL     1      -7.408   5.980  68.473  1.00  0.00    -0.085 C  
HETATM    4  H1  UNL     1      -7.017   5.057  66.782  1.00  0.00     0.000 HD 
HETATM    5  N   UNL     1      -7.017   7.070  69.177  1.00  0.00    -0.075 NA 
HETATM    6  N   UNL     1      -8.325   5.140  68.836  1.00  0.00    -0.088 NA 
HETATM    7  H1  UNL     1      -7.533   7.147  70.054  1.00  0.00     0.000 HD 
HETATM    8  H2  UNL     1      -6.301   7.728  68.871  1.00  0.00     0.000 HD 
HETATM    9  H   UNL     1      -8.568   4.297  68.316  1.00  0.00     0.000 HD 
ENDROOT
BRANCH   6  10
HETATM   10  N   UNL     1      -8.941   5.531  70.029  1.00  0.00    -0.130 NA 
HETATM   11  H   UNL     1      -8.486   5.533  70.942  1.00  0.00     0.000 HD 
BRANCH  10  12
HETATM   12  C   UNL     1     -10.167   5.890  69.820  1.00  0.00    -0.218 C  
BRANCH  12  13
HETATM   13  C   UNL     1     -10.791   7.046  70.500  1.00  0.00    -0.279 A  
HETATM   14  C   UNL     1     -11.321   6.956  71.800  1.00  0.00    -0.261 A  
HETATM   15  C   UNL     1     -11.840   8.097  72.430  1.00  0.00    -0.448 A  
HETATM   16 CL   UNL     1     -11.329   5.508  72.749  1.00  0.00    -0.354 Cl 
HETATM   17  C   UNL     1     -11.834   9.329  71.782  1.00  0.00    -0.454 A  
HETATM   18  C   UNL     1     -11.320   9.426  70.493  1.00  0.00    -0.328 A  
HETATM   19  C   UNL     1     -10.800   8.293  69.852  1.00  0.00    -0.213 A  
HETATM   20 CL   UNL     1     -10.215   8.521  68.238  1.00  0.00    -0.232 Cl 
ENDBRANCH  12  13
ENDBRANCH  10  12
ENDBRANCH   6  10
TORSDOF 3
ENDMDL
MODEL      213
REMARK 921   NORMALIZED FREE ENERGY PREDICTED BY IDOCK:   -2.79 KCAL/MOL
REMARK 922        TOTAL FREE ENERGY PREDICTED BY IDOCK:   -3.56 KCAL/MOL
REMARK 923 INTER-LIGAND FREE ENERGY PREDICTED BY IDOCK:   -3.50 KCAL/MOL
REMARK 924 INTRA-LIGAND FREE ENERGY PREDICTED BY IDOCK:   -0.07 KCAL/MOL
REMARK 927      BINDING AFFINITY PREDICTED BY RF-SCORE:    0.00 PKD
ROOT
HETATM    1  N   UNL     1     -10.339   6.382  66.584  1.00  0.00    -0.382 NA 
HETATM    2  H2  UNL     1     -10.429   5.370  66.501  1.00  0.00     0.000 HD 
HETATM    3  C   UNL     1     -10.804   7.108  67.625  1.00  0.00    -0.209 C  
HETATM    4  H1  UNL     1      -9.886   6.979  65.892  1.00  0.00     0.000 HD 
HETATM    5  N   UNL     1     -11.406   6.314  68.545  1.00  0.00    -0.478 NA 
HETATM    6  N   UNL     1     -10.667   8.393  67.716  1.00  0.00    -0.465 NA 
HETATM    7  H1  UNL     1     -11.757   6.862  69.330  1.00  0.00     0.000 HD 
HETATM    8  H2  UNL     1     -11.496   5.302  68.462  1.00  0.00     0.000 HD 
HETATM    9  H   UNL     1     -10.256   8.978  66.989  1.00  0.00     0.000 HD 
ENDROOT
BRANCH   6  10
HETATM   10  N   UNL     1     -11.150   8.879  68.935  1.00  0.00    -0.433 NA 
HETATM   11  H   UNL     1     -11.980   8.525  69.412  1.00  0.00     0.000 HD 
BRANCH  10  12
HETATM   12  C   UNL     1     -10.403   9.839  69.378  1.00  0.00    -0.217 C  
BRANCH  12  13
HETATM   13  C   UNL     1      -9.525  10.642  68.499  1.00  0.00    -0.176 A  
HETATM   14  C   UNL     1     -10.037  11.534  67.539  1.00  0.00    -0.183 A  
HETATM   15  C   UNL     1      -9.164  12.323  66.775  1.00  0.00    -0.210 A  
HETATM   16 CL   UNL     1     -11.724  11.792  67.253  1.00  0.00    -0.344 Cl 
HETATM   17  C   UNL     1      -7.788  12.239  66.959  1.00  0.00    -0.108 A  
HETATM   18  C   UNL     1      -7.272  11.354  67.900  1.00  0.00    -0.084 A  
HETATM   19  C   UNL     1      -8.133  10.558  68.669  1.00  0.00    -0.127 A  
HETATM   20 CL   UNL     1      -7.383   9.469  69.787  1.00  0.00    -0.080 Cl 
ENDBRANCH  12  13
ENDBRANCH  10  12
ENDBRANCH   6  10
TORSDOF 3
ENDMDL
MODEL      214
REMARK 921   NORMALIZED FREE ENERGY PREDICTED BY IDOCK:   -2.78 KCAL/MOL
REMARK 922        TOTAL FREE ENERGY PREDICTED BY IDOCK:   -3.55 KCAL/MOL
REMARK 923 INTER-LIGAND FREE ENERGY PREDICTED BY IDOCK:   -3.16 KCAL/MOL
REMARK 924 INTRA-LIGAND FREE ENERGY PREDICTED BY IDOCK:   -0.39 KCAL/MOL
REMARK 927      BINDING AFFINITY PREDICTED BY RF-SCORE:    0.00 PKD
ROOT
HETATM    1  N   UNL     1      -7.586  10.655  67.614  1.00  0.00    -0.092 NA 
HETATM    2  H2  UNL     1      -7.574   9.991  68.387  1.00  0.00     0.000 HD 
HETATM    3  C   UNL     1      -7.536  11.998  67.759  1.00  0.00    -0.130 C  
HETATM    4  H1  UNL     1      -7.637  10.393  66.629  1.00  0.00     0.000 HD 
HETATM    5  N   UNL     1      -7.469  12.346  69.068  1.00  0.00    -0.312 NA 
HETATM    6  N   UNL     1      -7.539  12.824  66.761  1.00  0.00    -0.359 NA 
HETATM    7  H1  UNL     1      -7.433  13.359  69.178  1.00  0.00     0.000 HD 
HETATM    8  H2  UNL     1      -7.458  11.681  69.841  1.00  0.00     0.000 HD 
HETATM    9  H   UNL     1      -7.642  12.544  65.787  1.00  0.00     0.000 HD 
ENDROOT
BRANCH   6  10
HETATM   10  N   UNL     1      -7.382  14.148  67.186  1.00  0.00    -0.333 NA 
HETATM   11  H   UNL     1      -6.642  14.472  67.809  1.00  0.00     0.000 HD 
BRANCH  10  12
HETATM   12  C   UNL     1      -8.302  14.906  66.681  1.00  0.00    -0.024 C  
BRANCH  12  13
HETATM   13  C   UNL     1      -9.094  15.854  67.495  1.00  0.00    -0.204 A  
HETATM   14  C   UNL     1     -10.144  15.431  68.331  1.00  0.00    -0.215 A  
HETATM   15  C   UNL     1     -10.821  16.359  69.136  1.00  0.00    -0.329 A  
HETATM   16 CL   UNL     1     -10.648  13.784  68.501  1.00  0.00    -0.253 Cl 
HETATM   17  C   UNL     1     -10.463  17.704  69.122  1.00  0.00    -0.128 A  
HETATM   18  C   UNL     1      -9.432  18.133  68.292  1.00  0.00    -0.315 A  
HETATM   19  C   UNL     1      -8.748  17.216  67.482  1.00  0.00    -0.207 A  
HETATM   20 CL   UNL     1      -7.504  17.863  66.466  1.00  0.00    -0.261 Cl 
ENDBRANCH  12  13
ENDBRANCH  10  12
ENDBRANCH   6  10
TORSDOF 3
ENDMDL
MODEL      215
REMARK 921   NORMALIZED FREE ENERGY PREDICTED BY IDOCK:   -2.72 KCAL/MOL
REMARK 922        TOTAL FREE ENERGY PREDICTED BY IDOCK:   -3.48 KCAL/MOL
REMARK 923 INTER-LIGAND FREE ENERGY PREDICTED BY IDOCK:   -3.76 KCAL/MOL
REMARK 924 INTRA-LIGAND FREE ENERGY PREDICTED BY IDOCK:    0.28 KCAL/MOL
REMARK 927      BINDING AFFINITY PREDICTED BY RF-SCORE:    0.00 PKD
ROOT
HETATM    1  N   UNL     1     -11.286  15.285  70.056  1.00  0.00    -0.266 NA 
HETATM    2  H2  UNL     1     -11.655  16.030  70.646  1.00  0.00     0.000 HD 
HETATM    3  C   UNL     1     -11.768  14.023  70.028  1.00  0.00    -0.280 C  
HETATM    4  H1  UNL     1     -10.503  15.395  69.410  1.00  0.00     0.000 HD 
HETATM    5  N   UNL     1     -12.807  13.877  70.887  1.00  0.00    -0.321 NA 
HETATM    6  N   UNL     1     -11.292  13.094  69.261  1.00  0.00    -0.354 NA 
HETATM    7  H1  UNL     1     -13.170  12.924  70.866  1.00  0.00     0.000 HD 
HETATM    8  H2  UNL     1     -13.176  14.622  71.477  1.00  0.00     0.000 HD 
HETATM    9  H   UNL     1     -10.476  13.210  68.660  1.00  0.00     0.000 HD 
ENDROOT
BRANCH   6  10
HETATM   10  N   UNL     1     -12.034  11.912  69.357  1.00  0.00    -0.306 NA 
HETATM   11  H   UNL     1     -12.685  11.698  70.113  1.00  0.00     0.000 HD 
BRANCH  10  12
HETATM   12  C   UNL     1     -11.784  11.127  68.359  1.00  0.00    -0.279 C  
BRANCH  12  13
HETATM   13  C   UNL     1     -10.870   9.968  68.462  1.00  0.00    -0.270 A  
HETATM   14  C   UNL     1     -10.095   9.523  67.375  1.00  0.00    -0.208 A  
HETATM   15  C   UNL     1      -9.192   8.463  67.541  1.00  0.00    -0.158 A  
HETATM   16 CL   UNL     1     -10.120  10.246  65.803  1.00  0.00    -0.329 Cl 
HETATM   17  C   UNL     1      -9.048   7.841  68.777  1.00  0.00    -0.140 A  
HETATM   18  C   UNL     1      -9.816   8.268  69.856  1.00  0.00    -0.186 A  
HETATM   19  C   UNL     1     -10.723   9.326  69.703  1.00  0.00    -0.230 A  
HETATM   20 CL   UNL     1     -11.650   9.755  71.101  1.00  0.00    -0.436 Cl 
ENDBRANCH  12  13
ENDBRANCH  10  12
ENDBRANCH   6  10
TORSDOF 3
ENDMDL
MODEL      216
REMARK 921   NORMALIZED FREE ENERGY PREDICTED BY IDOCK:   -2.72 KCAL/MOL
REMARK 922        TOTAL FREE ENERGY PREDICTED BY IDOCK:   -3.48 KCAL/MOL
REMARK 923 INTER-LIGAND FREE ENERGY PREDICTED BY IDOCK:   -3.24 KCAL/MOL
REMARK 924 INTRA-LIGAND FREE ENERGY PREDICTED BY IDOCK:   -0.24 KCAL/MOL
REMARK 927      BINDING AFFINITY PREDICTED BY RF-SCORE:    0.00 PKD
ROOT
HETATM    1  N   UNL     1     -10.402  13.288  63.977  1.00  0.00    -0.690 NA 
HETATM    2  H2  UNL     1     -11.265  13.510  63.482  1.00  0.00     0.000 HD 
HETATM    3  C   UNL     1     -10.346  12.658  65.171  1.00  0.00    -0.292 C  
HETATM    4  H1  UNL     1      -9.467  13.514  63.635  1.00  0.00     0.000 HD 
HETATM    5  N   UNL     1     -11.588  12.358  65.624  1.00  0.00    -0.375 NA 
HETATM    6  N   UNL     1      -9.236  12.373  65.776  1.00  0.00    -0.441 NA 
HETATM    7  H1  UNL     1     -11.546  11.882  66.526  1.00  0.00     0.000 HD 
HETATM    8  H2  UNL     1     -12.451  12.580  65.129  1.00  0.00     0.000 HD 
HETATM    9  H   UNL     1      -8.314  12.653  65.443  1.00  0.00     0.000 HD 
ENDROOT
BRANCH   6  10
HETATM   10  N   UNL     1      -9.458  11.635  66.943  1.00  0.00    -0.182 NA 
HETATM   11  H   UNL     1     -10.190  11.835  67.624  1.00  0.00     0.000 HD 
BRANCH  10  12
HETATM   12  C   UNL     1      -8.609  10.662  67.042  1.00  0.00    -0.128 C  
BRANCH  12  13
HETATM   13  C   UNL     1      -8.632   9.690  68.157  1.00  0.00    -0.119 A  
HETATM   14  C   UNL     1      -9.537   8.615  68.198  1.00  0.00    -0.147 A  
HETATM   15  C   UNL     1      -9.474   7.680  69.243  1.00  0.00    -0.158 A  
HETATM   16 CL   UNL     1     -10.731   8.302  66.985  1.00  0.00    -0.324 Cl 
HETATM   17  C   UNL     1      -8.517   7.801  70.245  1.00  0.00    -0.133 A  
HETATM   18  C   UNL     1      -7.623   8.866  70.218  1.00  0.00    -0.077 A  
HETATM   19  C   UNL     1      -7.676   9.808  69.181  1.00  0.00    -0.092 A  
HETATM   20 CL   UNL     1      -6.537  11.110  69.262  1.00  0.00    -0.084 Cl 
ENDBRANCH  12  13
ENDBRANCH  10  12
ENDBRANCH   6  10
TORSDOF 3
ENDMDL
MODEL      217
REMARK 921   NORMALIZED FREE ENERGY PREDICTED BY IDOCK:   -2.72 KCAL/MOL
REMARK 922        TOTAL FREE ENERGY PREDICTED BY IDOCK:   -3.48 KCAL/MOL
REMARK 923 INTER-LIGAND FREE ENERGY PREDICTED BY IDOCK:   -3.27 KCAL/MOL
REMARK 924 INTRA-LIGAND FREE ENERGY PREDICTED BY IDOCK:   -0.21 KCAL/MOL
REMARK 927      BINDING AFFINITY PREDICTED BY RF-SCORE:    0.00 PKD
ROOT
HETATM    1  N   UNL     1      -6.730   6.562  69.670  1.00  0.00    -0.048 NA 
HETATM    2  H2  UNL     1      -5.919   6.982  70.123  1.00  0.00     0.000 HD 
HETATM    3  C   UNL     1      -7.896   6.285  70.294  1.00  0.00    -0.103 C  
HETATM    4  H1  UNL     1      -6.766   6.294  68.686  1.00  0.00     0.000 HD 
HETATM    5  N   UNL     1      -7.847   6.641  71.602  1.00  0.00    -0.101 NA 
HETATM    6  N   UNL     1      -8.919   5.763  69.696  1.00  0.00    -0.127 NA 
HETATM    7  H1  UNL     1      -8.727   6.432  72.073  1.00  0.00     0.000 HD 
HETATM    8  H2  UNL     1      -7.036   7.061  72.055  1.00  0.00     0.000 HD 
HETATM    9  H   UNL     1      -8.918   5.455  68.724  1.00  0.00     0.000 HD 
ENDROOT
BRANCH   6  10
HETATM   10  N   UNL     1     -10.026   5.673  70.547  1.00  0.00    -0.193 NA 
HETATM   11  H   UNL     1     -10.047   5.137  71.414  1.00  0.00     0.000 HD 
BRANCH  10  12
HETATM   12  C   UNL     1     -11.021   6.362  70.085  1.00  0.00    -0.334 C  
BRANCH  12  13
HETATM   13  C   UNL     1     -10.976   7.833  69.936  1.00  0.00    -0.194 A  
HETATM   14  C   UNL     1     -10.745   8.456  68.697  1.00  0.00    -0.034 A  
HETATM   15  C   UNL     1     -10.779   9.854  68.594  1.00  0.00    -0.256 A  
HETATM   16 CL   UNL     1     -10.472   7.603  67.216  1.00  0.00    -0.372 Cl 
HETATM   17  C   UNL     1     -11.045  10.641  69.710  1.00  0.00    -0.358 A  
HETATM   18  C   UNL     1     -11.266  10.034  70.942  1.00  0.00    -0.415 A  
HETATM   19  C   UNL     1     -11.233   8.638  71.060  1.00  0.00    -0.271 A  
HETATM   20 CL   UNL     1     -11.490   7.990  72.644  1.00  0.00    -0.464 Cl 
ENDBRANCH  12  13
ENDBRANCH  10  12
ENDBRANCH   6  10
TORSDOF 3
ENDMDL
MODEL      218
REMARK 921   NORMALIZED FREE ENERGY PREDICTED BY IDOCK:   -2.71 KCAL/MOL
REMARK 922        TOTAL FREE ENERGY PREDICTED BY IDOCK:   -3.47 KCAL/MOL
REMARK 923 INTER-LIGAND FREE ENERGY PREDICTED BY IDOCK:   -3.26 KCAL/MOL
REMARK 924 INTRA-LIGAND FREE ENERGY PREDICTED BY IDOCK:   -0.21 KCAL/MOL
REMARK 927      BINDING AFFINITY PREDICTED BY RF-SCORE:    0.00 PKD
ROOT
HETATM    1  N   UNL     1      -9.800   6.766  67.052  1.00  0.00    -0.157 NA 
HETATM    2  H2  UNL     1      -9.743   5.749  67.104  1.00  0.00     0.000 HD 
HETATM    3  C   UNL     1     -10.504   7.537  67.911  1.00  0.00    -0.204 C  
HETATM    4  H1  UNL     1      -9.333   7.334  66.344  1.00  0.00     0.000 HD 
HETATM    5  N   UNL     1     -11.124   6.781  68.851  1.00  0.00    -0.480 NA 
HETATM    6  N   UNL     1     -10.551   8.829  67.834  1.00  0.00    -0.400 NA 
HETATM    7  H1  UNL     1     -11.655   7.363  69.498  1.00  0.00     0.000 HD 
HETATM    8  H2  UNL     1     -11.067   5.764  68.902  1.00  0.00     0.000 HD 
HETATM    9  H   UNL     1     -10.120   9.375  67.089  1.00  0.00     0.000 HD 
ENDROOT
BRANCH   6  10
HETATM   10  N   UNL     1     -11.267   9.384  68.900  1.00  0.00    -0.451 NA 
HETATM   11  H   UNL     1     -12.219   9.123  69.156  1.00  0.00     0.000 HD 
BRANCH  10  12
HETATM   12  C   UNL     1     -10.559  10.274  69.519  1.00  0.00    -0.245 C  
BRANCH  12  13
HETATM   13  C   UNL     1      -9.802  11.329  68.810  1.00  0.00    -0.194 A  
HETATM   14  C   UNL     1      -8.409  11.262  68.629  1.00  0.00    -0.146 A  
HETATM   15  C   UNL     1      -7.746  12.253  67.890  1.00  0.00    -0.133 A  
HETATM   16 CL   UNL     1      -7.414   9.973  69.213  1.00  0.00    -0.092 Cl 
HETATM   17  C   UNL     1      -8.454  13.310  67.325  1.00  0.00    -0.203 A  
HETATM   18  C   UNL     1      -9.832  13.389  67.507  1.00  0.00    -0.227 A  
HETATM   19  C   UNL     1     -10.506  12.406  68.244  1.00  0.00    -0.225 A  
HETATM   20 CL   UNL     1     -12.214  12.620  68.433  1.00  0.00    -0.106 Cl 
ENDBRANCH  12  13
ENDBRANCH  10  12
ENDBRANCH   6  10
TORSDOF 3
ENDMDL
MODEL      219
REMARK 921   NORMALIZED FREE ENERGY PREDICTED BY IDOCK:   -2.70 KCAL/MOL
REMARK 922        TOTAL FREE ENERGY PREDICTED BY IDOCK:   -3.46 KCAL/MOL
REMARK 923 INTER-LIGAND FREE ENERGY PREDICTED BY IDOCK:   -3.25 KCAL/MOL
REMARK 924 INTRA-LIGAND FREE ENERGY PREDICTED BY IDOCK:   -0.21 KCAL/MOL
REMARK 927      BINDING AFFINITY PREDICTED BY RF-SCORE:    0.00 PKD
ROOT
HETATM    1  N   UNL     1      -8.345  15.359  66.720  1.00  0.00    -0.253 NA 
HETATM    2  H2  UNL     1      -8.224  16.354  66.533  1.00  0.00     0.000 HD 
HETATM    3  C   UNL     1      -9.364  14.610  66.246  1.00  0.00    -0.262 C  
HETATM    4  H1  UNL     1      -7.711  14.799  67.292  1.00  0.00     0.000 HD 
HETATM    5  N   UNL     1     -10.206  15.354  65.487  1.00  0.00    -0.361 NA 
HETATM    6  N   UNL     1      -9.490  13.343  66.486  1.00  0.00    -0.309 NA 
HETATM    7  H1  UNL     1     -10.976  14.788  65.130  1.00  0.00     0.000 HD 
HETATM    8  H2  UNL     1     -10.086  16.349  65.300  1.00  0.00     0.000 HD 
HETATM    9  H   UNL     1      -8.874  12.813  67.102  1.00  0.00     0.000 HD 
ENDROOT
BRANCH   6  10
HETATM   10  N   UNL     1     -10.575  12.792  65.796  1.00  0.00    -0.269 NA 
HETATM   11  H   UNL     1     -11.216  13.322  65.206  1.00  0.00     0.000 HD 
BRANCH  10  12
HETATM   12  C   UNL     1     -10.658  11.517  66.009  1.00  0.00    -0.261 C  
BRANCH  12  13
HETATM   13  C   UNL     1      -9.625  10.561  65.555  1.00  0.00    -0.282 A  
HETATM   14  C   UNL     1      -9.228  10.467  64.208  1.00  0.00    -0.255 A  
HETATM   15  C   UNL     1      -8.196   9.593  63.837  1.00  0.00    -0.159 A  
HETATM   16 CL   UNL     1      -9.893  11.425  62.930  1.00  0.00    -0.347 Cl 
HETATM   17  C   UNL     1      -7.550   8.812  64.792  1.00  0.00    -0.107 A  
HETATM   18  C   UNL     1      -7.942   8.892  66.124  1.00  0.00    -0.106 A  
HETATM   19  C   UNL     1      -8.973   9.760  66.508  1.00  0.00    -0.150 A  
HETATM   20 CL   UNL     1      -9.400   9.756  68.186  1.00  0.00    -0.133 Cl 
ENDBRANCH  12  13
ENDBRANCH  10  12
ENDBRANCH   6  10
TORSDOF 3
ENDMDL
MODEL      220
REMARK 921   NORMALIZED FREE ENERGY PREDICTED BY IDOCK:   -2.68 KCAL/MOL
REMARK 922        TOTAL FREE ENERGY PREDICTED BY IDOCK:   -3.44 KCAL/MOL
REMARK 923 INTER-LIGAND FREE ENERGY PREDICTED BY IDOCK:   -3.19 KCAL/MOL
REMARK 924 INTRA-LIGAND FREE ENERGY PREDICTED BY IDOCK:   -0.25 KCAL/MOL
REMARK 927      BINDING AFFINITY PREDICTED BY RF-SCORE:    0.00 PKD
ROOT
HETATM    1  N   UNL     1      -6.662   9.905  67.223  1.00  0.00    -0.073 NA 
HETATM    2  H2  UNL     1      -6.918   9.071  66.695  1.00  0.00     0.000 HD 
HETATM    3  C   UNL     1      -6.858  11.172  66.795  1.00  0.00    -0.134 C  
HETATM    4  H1  UNL     1      -6.224   9.892  68.144  1.00  0.00     0.000 HD 
HETATM    5  N   UNL     1      -7.440  11.189  65.570  1.00  0.00    -0.350 NA 
HETATM    6  N   UNL     1      -6.538  12.217  67.489  1.00  0.00    -0.126 NA 
HETATM    7  H1  UNL     1      -7.588  12.145  65.246  1.00  0.00     0.000 HD 
HETATM    8  H2  UNL     1      -7.696  10.355  65.041  1.00  0.00     0.000 HD 
HETATM    9  H   UNL     1      -6.054  12.183  68.385  1.00  0.00     0.000 HD 
ENDROOT
BRANCH   6  10
HETATM   10  N   UNL     1      -6.938  13.400  66.857  1.00  0.00    -0.303 NA 
HETATM   11  H   UNL     1      -6.634  13.691  65.928  1.00  0.00     0.000 HD 
BRANCH  10  12
HETATM   12  C   UNL     1      -7.746  14.075  67.611  1.00  0.00    -0.177 C  
BRANCH  12  13
HETATM   13  C   UNL     1      -8.724  15.044  67.070  1.00  0.00    -0.262 A  
HETATM   14  C   UNL     1      -8.512  16.434  67.120  1.00  0.00    -0.183 A  
HETATM   15  C   UNL     1      -9.436  17.309  66.532  1.00  0.00    -0.286 A  
HETATM   16 CL   UNL     1      -7.116  17.179  67.821  1.00  0.00    -0.159 Cl 
HETATM   17  C   UNL     1     -10.569  16.818  65.890  1.00  0.00    -0.255 A  
HETATM   18  C   UNL     1     -10.792  15.446  65.843  1.00  0.00    -0.328 A  
HETATM   19  C   UNL     1      -9.877  14.559  66.428  1.00  0.00    -0.290 A  
HETATM   20 CL   UNL     1     -10.269  12.876  66.339  1.00  0.00    -0.264 Cl 
ENDBRANCH  12  13
ENDBRANCH  10  12
ENDBRANCH   6  10
TORSDOF 3
ENDMDL
MODEL      221
REMARK 921   NORMALIZED FREE ENERGY PREDICTED BY IDOCK:   -2.68 KCAL/MOL
REMARK 922        TOTAL FREE ENERGY PREDICTED BY IDOCK:   -3.44 KCAL/MOL
REMARK 923 INTER-LIGAND FREE ENERGY PREDICTED BY IDOCK:   -3.51 KCAL/MOL
REMARK 924 INTRA-LIGAND FREE ENERGY PREDICTED BY IDOCK:    0.07 KCAL/MOL
REMARK 927      BINDING AFFINITY PREDICTED BY RF-SCORE:    0.00 PKD
ROOT
HETATM    1  N   UNL     1      -9.521   7.736  67.199  1.00  0.00    -0.147 NA 
HETATM    2  H2  UNL     1      -9.597   7.713  66.183  1.00  0.00     0.000 HD 
HETATM    3  C   UNL     1     -10.380   7.124  68.044  1.00  0.00    -0.194 C  
HETATM    4  H1  UNL     1      -8.786   8.225  67.712  1.00  0.00     0.000 HD 
HETATM    5  N   UNL     1     -11.357   6.475  67.363  1.00  0.00    -0.758 NA 
HETATM    6  N   UNL     1     -10.257   7.155  69.333  1.00  0.00    -0.184 NA 
HETATM    7  H1  UNL     1     -12.006   6.013  68.001  1.00  0.00     0.000 HD 
HETATM    8  H2  UNL     1     -11.433   6.452  66.346  1.00  0.00     0.000 HD 
HETATM    9  H   UNL     1      -9.545   7.692  69.828  1.00  0.00     0.000 HD 
ENDROOT
BRANCH   6  10
HETATM   10  N   UNL     1     -11.221   6.361  69.964  1.00  0.00    -0.379 NA 
HETATM   11  H   UNL     1     -12.207   6.332  69.705  1.00  0.00     0.000 HD 
BRANCH  10  12
HETATM   12  C   UNL     1     -10.693   5.667  70.922  1.00  0.00    -0.243 C  
BRANCH  12  13
HETATM   13  C   UNL     1      -9.792   6.258  71.935  1.00  0.00    -0.172 A  
HETATM   14  C   UNL     1      -8.510   5.740  72.194  1.00  0.00    -0.122 A  
HETATM   15  C   UNL     1      -7.666   6.377  73.116  1.00  0.00    -0.098 A  
HETATM   16 CL   UNL     1      -7.837   4.362  71.391  1.00  0.00    -0.079 Cl 
HETATM   17  C   UNL     1      -8.080   7.526  73.781  1.00  0.00    -0.184 A  
HETATM   18  C   UNL     1      -9.350   8.041  73.538  1.00  0.00    -0.285 A  
HETATM   19  C   UNL     1     -10.204   7.414  72.621  1.00  0.00    -0.227 A  
HETATM   20 CL   UNL     1     -11.772   8.120  72.418  1.00  0.00    -0.437 Cl 
ENDBRANCH  12  13
ENDBRANCH  10  12
ENDBRANCH   6  10
TORSDOF 3
ENDMDL
MODEL      222
REMARK 921   NORMALIZED FREE ENERGY PREDICTED BY IDOCK:   -2.65 KCAL/MOL
REMARK 922        TOTAL FREE ENERGY PREDICTED BY IDOCK:   -3.40 KCAL/MOL
REMARK 923 INTER-LIGAND FREE ENERGY PREDICTED BY IDOCK:   -3.30 KCAL/MOL
REMARK 924 INTRA-LIGAND FREE ENERGY PREDICTED BY IDOCK:   -0.10 KCAL/MOL
REMARK 927      BINDING AFFINITY PREDICTED BY RF-SCORE:    0.00 PKD
ROOT
HETATM    1  N   UNL     1      -6.053   9.561  67.977  1.00  0.00    -0.051 NA 
HETATM    2  H2  UNL     1      -5.156   9.080  67.918  1.00  0.00     0.000 HD 
HETATM    3  C   UNL     1      -6.660  10.176  66.938  1.00  0.00    -0.075 C  
HETATM    4  H1  UNL     1      -6.609   9.641  68.829  1.00  0.00     0.000 HD 
HETATM    5  N   UNL     1      -5.921  10.070  65.807  1.00  0.00    -0.070 NA 
HETATM    6  N   UNL     1      -7.807  10.770  67.033  1.00  0.00    -0.116 NA 
HETATM    7  H1  UNL     1      -6.379  10.534  65.023  1.00  0.00     0.000 HD 
HETATM    8  H2  UNL     1      -5.024   9.588  65.748  1.00  0.00     0.000 HD 
HETATM    9  H   UNL     1      -8.323  10.884  67.905  1.00  0.00     0.000 HD 
ENDROOT
BRANCH   6  10
HETATM   10  N   UNL     1      -8.252  11.237  65.791  1.00  0.00    -0.366 NA 
HETATM   11  H   UNL     1      -7.640  11.507  65.022  1.00  0.00     0.000 HD 
BRANCH  10  12
HETATM   12  C   UNL     1      -9.546  11.280  65.751  1.00  0.00    -0.227 C  
BRANCH  12  13
HETATM   13  C   UNL     1     -10.378  11.486  66.956  1.00  0.00    -0.254 A  
HETATM   14  C   UNL     1     -10.932  10.413  67.679  1.00  0.00    -0.312 A  
HETATM   15  C   UNL     1     -11.657  10.656  68.854  1.00  0.00    -0.320 A  
HETATM   16 CL   UNL     1     -10.731   8.748  67.253  1.00  0.00    -0.299 Cl 
HETATM   17  C   UNL     1     -11.835  11.955  69.322  1.00  0.00    -0.379 A  
HETATM   18  C   UNL     1     -11.299  13.022  68.609  1.00  0.00    -0.329 A  
HETATM   19  C   UNL     1     -10.573  12.794  67.432  1.00  0.00    -0.229 A  
HETATM   20 CL   UNL     1      -9.977  14.195  66.609  1.00  0.00    -0.269 Cl 
ENDBRANCH  12  13
ENDBRANCH  10  12
ENDBRANCH   6  10
TORSDOF 3
ENDMDL
MODEL      223
REMARK 921   NORMALIZED FREE ENERGY PREDICTED BY IDOCK:   -2.62 KCAL/MOL
REMARK 922        TOTAL FREE ENERGY PREDICTED BY IDOCK:   -3.36 KCAL/MOL
REMARK 923 INTER-LIGAND FREE ENERGY PREDICTED BY IDOCK:   -3.39 KCAL/MOL
REMARK 924 INTRA-LIGAND FREE ENERGY PREDICTED BY IDOCK:    0.03 KCAL/MOL
REMARK 927      BINDING AFFINITY PREDICTED BY RF-SCORE:    0.00 PKD
ROOT
HETATM    1  N   UNL     1      -9.907   3.168  66.299  1.00  0.00    -0.379 NA 
HETATM    2  H2  UNL     1     -10.709   2.539  66.324  1.00  0.00     0.000 HD 
HETATM    3  C   UNL     1      -9.957   4.453  65.884  1.00  0.00    -0.240 C  
HETATM    4  H1  UNL     1      -8.962   2.909  66.584  1.00  0.00     0.000 HD 
HETATM    5  N   UNL     1     -11.212   4.797  65.505  1.00  0.00    -0.968 NA 
HETATM    6  N   UNL     1      -8.927   5.239  65.874  1.00  0.00    -0.144 NA 
HETATM    7  H1  UNL     1     -11.250   5.766  65.191  1.00  0.00     0.000 HD 
HETATM    8  H2  UNL     1     -12.014   4.167  65.530  1.00  0.00     0.000 HD 
HETATM    9  H   UNL     1      -7.981   4.947  66.114  1.00  0.00     0.000 HD 
ENDROOT
BRANCH   6  10
HETATM   10  N   UNL     1      -9.274   6.540  65.492  1.00  0.00    -0.367 NA 
HETATM   11  H   UNL     1     -10.156   6.797  65.049  1.00  0.00     0.000 HD 
BRANCH  10  12
HETATM   12  C   UNL     1      -8.325   7.374  65.778  1.00  0.00    -0.139 C  
BRANCH  12  13
HETATM   13  C   UNL     1      -8.578   8.792  66.109  1.00  0.00    -0.162 A  
HETATM   14  C   UNL     1      -9.692   9.200  66.866  1.00  0.00    -0.194 A  
HETATM   15  C   UNL     1      -9.852  10.550  67.213  1.00  0.00    -0.209 A  
HETATM   16 CL   UNL     1     -10.895   8.121  67.484  1.00  0.00    -0.204 Cl 
HETATM   17  C   UNL     1      -8.915  11.500  66.817  1.00  0.00    -0.181 A  
HETATM   18  C   UNL     1      -7.815  11.107  66.060  1.00  0.00    -0.020 A  
HETATM   19  C   UNL     1      -7.644   9.762  65.706  1.00  0.00    -0.108 A  
HETATM   20 CL   UNL     1      -6.258   9.390  64.737  1.00  0.00    -0.074 Cl 
ENDBRANCH  12  13
ENDBRANCH  10  12
ENDBRANCH   6  10
TORSDOF 3
ENDMDL
MODEL      224
REMARK 921   NORMALIZED FREE ENERGY PREDICTED BY IDOCK:   -2.62 KCAL/MOL
REMARK 922        TOTAL FREE ENERGY PREDICTED BY IDOCK:   -3.36 KCAL/MOL
REMARK 923 INTER-LIGAND FREE ENERGY PREDICTED BY IDOCK:   -3.39 KCAL/MOL
REMARK 924 INTRA-LIGAND FREE ENERGY PREDICTED BY IDOCK:    0.03 KCAL/MOL
REMARK 927      BINDING AFFINITY PREDICTED BY RF-SCORE:    0.00 PKD
ROOT
HETATM    1  N   UNL     1     -10.338   3.796  65.669  1.00  0.00    -0.408 NA 
HETATM    2  H2  UNL     1     -10.064   3.409  64.766  1.00  0.00     0.000 HD 
HETATM    3  C   UNL     1      -9.987   5.023  66.114  1.00  0.00    -0.218 C  
HETATM    4  H1  UNL     1     -10.914   3.306  66.355  1.00  0.00     0.000 HD 
HETATM    5  N   UNL     1      -9.222   5.673  65.203  1.00  0.00    -0.362 NA 
HETATM    6  N   UNL     1     -10.358   5.499  67.260  1.00  0.00    -0.221 NA 
HETATM    7  H1  UNL     1      -8.956   6.599  65.539  1.00  0.00     0.000 HD 
HETATM    8  H2  UNL     1      -8.948   5.286  64.300  1.00  0.00     0.000 HD 
HETATM    9  H   UNL     1     -10.891   4.974  67.953  1.00  0.00     0.000 HD 
ENDROOT
BRANCH   6  10
HETATM   10  N   UNL     1      -9.939   6.823  67.430  1.00  0.00    -0.137 NA 
HETATM   11  H   UNL     1      -9.126   7.235  66.973  1.00  0.00     0.000 HD 
BRANCH  10  12
HETATM   12  C   UNL     1     -10.724   7.454  68.244  1.00  0.00    -0.099 C  
BRANCH  12  13
HETATM   13  C   UNL     1     -10.274   7.955  69.561  1.00  0.00    -0.208 A  
HETATM   14  C   UNL     1     -10.953   7.646  70.754  1.00  0.00    -0.252 A  
HETATM   15  C   UNL     1     -10.448   8.087  71.986  1.00  0.00    -0.308 A  
HETATM   16 CL   UNL     1     -12.382   6.673  70.836  1.00  0.00    -0.358 Cl 
HETATM   17  C   UNL     1      -9.274   8.831  72.046  1.00  0.00    -0.294 A  
HETATM   18  C   UNL     1      -8.601   9.149  70.871  1.00  0.00    -0.259 A  
HETATM   19  C   UNL     1      -9.094   8.716  69.633  1.00  0.00    -0.149 A  
HETATM   20 CL   UNL     1      -8.195   9.195  68.233  1.00  0.00    -0.115 Cl 
ENDBRANCH  12  13
ENDBRANCH  10  12
ENDBRANCH   6  10
TORSDOF 3
ENDMDL
MODEL      225
REMARK 921   NORMALIZED FREE ENERGY PREDICTED BY IDOCK:   -2.61 KCAL/MOL
REMARK 922        TOTAL FREE ENERGY PREDICTED BY IDOCK:   -3.36 KCAL/MOL
REMARK 923 INTER-LIGAND FREE ENERGY PREDICTED BY IDOCK:   -3.59 KCAL/MOL
REMARK 924 INTRA-LIGAND FREE ENERGY PREDICTED BY IDOCK:    0.24 KCAL/MOL
REMARK 927      BINDING AFFINITY PREDICTED BY RF-SCORE:    0.00 PKD
ROOT
HETATM    1  N   UNL     1     -10.456   4.767  65.130  1.00  0.00    -0.464 NA 
HETATM    2  H2  UNL     1      -9.907   4.009  64.725  1.00  0.00     0.000 HD 
HETATM    3  C   UNL     1     -10.107   5.456  66.239  1.00  0.00    -0.174 C  
HETATM    4  H1  UNL     1     -11.342   5.103  64.751  1.00  0.00     0.000 HD 
HETATM    5  N   UNL     1      -8.930   5.009  66.743  1.00  0.00    -0.113 NA 
HETATM    6  N   UNL     1     -10.814   6.425  66.728  1.00  0.00    -0.542 NA 
HETATM    7  H1  UNL     1      -8.667   5.529  67.580  1.00  0.00     0.000 HD 
HETATM    8  H2  UNL     1      -8.381   4.251  66.338  1.00  0.00     0.000 HD 
HETATM    9  H   UNL     1     -11.722   6.712  66.365  1.00  0.00     0.000 HD 
ENDROOT
BRANCH   6  10
HETATM   10  N   UNL     1     -10.178   7.029  67.818  1.00  0.00    -0.167 NA 
HETATM   11  H   UNL     1      -9.278   7.508  67.771  1.00  0.00     0.000 HD 
BRANCH  10  12
HETATM   12  C   UNL     1     -10.884   6.899  68.896  1.00  0.00    -0.207 C  
BRANCH  12  13
HETATM   13  C   UNL     1     -10.387   7.293  70.232  1.00  0.00    -0.219 A  
HETATM   14  C   UNL     1      -9.016   7.419  70.516  1.00  0.00    -0.156 A  
HETATM   15  C   UNL     1      -8.596   7.863  71.779  1.00  0.00    -0.151 A  
HETATM   16 CL   UNL     1      -7.754   7.120  69.370  1.00  0.00    -0.105 Cl 
HETATM   17  C   UNL     1      -9.526   8.186  72.762  1.00  0.00    -0.349 A  
HETATM   18  C   UNL     1     -10.884   8.056  72.493  1.00  0.00    -0.415 A  
HETATM   19  C   UNL     1     -11.318   7.613  71.236  1.00  0.00    -0.264 A  
HETATM   20 CL   UNL     1     -13.028   7.458  71.020  1.00  0.00    -0.267 Cl 
ENDBRANCH  12  13
ENDBRANCH  10  12
ENDBRANCH   6  10
TORSDOF 3
ENDMDL
MODEL      226
REMARK 921   NORMALIZED FREE ENERGY PREDICTED BY IDOCK:   -2.60 KCAL/MOL
REMARK 922        TOTAL FREE ENERGY PREDICTED BY IDOCK:   -3.34 KCAL/MOL
REMARK 923 INTER-LIGAND FREE ENERGY PREDICTED BY IDOCK:   -3.13 KCAL/MOL
REMARK 924 INTRA-LIGAND FREE ENERGY PREDICTED BY IDOCK:   -0.21 KCAL/MOL
REMARK 927      BINDING AFFINITY PREDICTED BY RF-SCORE:    0.00 PKD
ROOT
HETATM    1  N   UNL     1      -5.849   8.453  69.802  1.00  0.00    -0.026 NA 
HETATM    2  H2  UNL     1      -5.295   7.665  69.469  1.00  0.00     0.000 HD 
HETATM    3  C   UNL     1      -7.198   8.517  69.748  1.00  0.00    -0.052 C  
HETATM    4  H1  UNL     1      -5.457   9.298  70.218  1.00  0.00     0.000 HD 
HETATM    5  N   UNL     1      -7.719   7.395  69.193  1.00  0.00    -0.108 NA 
HETATM    6  N   UNL     1      -7.882   9.525  70.188  1.00  0.00    -0.142 NA 
HETATM    7  H1  UNL     1      -8.737   7.443  69.152  1.00  0.00     0.000 HD 
HETATM    8  H2  UNL     1      -7.165   6.606  68.861  1.00  0.00     0.000 HD 
HETATM    9  H   UNL     1      -7.469  10.382  70.554  1.00  0.00     0.000 HD 
ENDROOT
BRANCH   6  10
HETATM   10  N   UNL     1      -9.259   9.292  70.101  1.00  0.00    -0.206 NA 
HETATM   11  H   UNL     1      -9.737   8.953  69.266  1.00  0.00     0.000 HD 
BRANCH  10  12
HETATM   12  C   UNL     1      -9.846   9.566  71.223  1.00  0.00    -0.025 C  
BRANCH  12  13
HETATM   13  C   UNL     1     -11.263   9.234  71.487  1.00  0.00    -0.457 A  
HETATM   14  C   UNL     1     -11.643   8.115  72.250  1.00  0.00    -0.374 A  
HETATM   15  C   UNL     1     -12.997   7.881  72.531  1.00  0.00     0.080 A  
HETATM   16 CL   UNL     1     -10.528   6.992  72.951  1.00  0.00    -0.254 Cl 
HETATM   17  C   UNL     1     -13.979   8.749  72.064  1.00  0.00    -0.511 A  
HETATM   18  C   UNL     1     -13.613   9.854  71.302  1.00  0.00    -0.265 A  
HETATM   19  C   UNL     1     -12.264  10.099  71.012  1.00  0.00    -0.374 A  
HETATM   20 CL   UNL     1     -11.924  11.484  70.030  1.00  0.00    -0.414 Cl 
ENDBRANCH  12  13
ENDBRANCH  10  12
ENDBRANCH   6  10
TORSDOF 3
ENDMDL
MODEL      227
REMARK 921   NORMALIZED FREE ENERGY PREDICTED BY IDOCK:   -2.59 KCAL/MOL
REMARK 922        TOTAL FREE ENERGY PREDICTED BY IDOCK:   -3.33 KCAL/MOL
REMARK 923 INTER-LIGAND FREE ENERGY PREDICTED BY IDOCK:   -2.93 KCAL/MOL
REMARK 924 INTRA-LIGAND FREE ENERGY PREDICTED BY IDOCK:   -0.40 KCAL/MOL
REMARK 927      BINDING AFFINITY PREDICTED BY RF-SCORE:    0.00 PKD
ROOT
HETATM    1  N   UNL     1     -10.776   4.520  66.751  1.00  0.00    -0.166 NA 
HETATM    2  H2  UNL     1     -11.454   4.134  67.408  1.00  0.00     0.000 HD 
HETATM    3  C   UNL     1     -10.585   5.841  66.538  1.00  0.00    -0.229 C  
HETATM    4  H1  UNL     1     -10.153   3.960  66.169  1.00  0.00     0.000 HD 
HETATM    5  N   UNL     1     -11.413   6.586  67.311  1.00  0.00    -0.743 NA 
HETATM    6  N   UNL     1      -9.708   6.310  65.709  1.00  0.00    -0.364 NA 
HETATM    7  H1  UNL     1     -11.270   7.583  67.150  1.00  0.00     0.000 HD 
HETATM    8  H2  UNL     1     -12.091   6.200  67.968  1.00  0.00     0.000 HD 
HETATM    9  H   UNL     1      -9.130   5.733  65.098  1.00  0.00     0.000 HD 
ENDROOT
BRANCH   6  10
HETATM   10  N   UNL     1      -9.650   7.708  65.753  1.00  0.00    -0.371 NA 
HETATM   11  H   UNL     1     -10.443   8.325  65.585  1.00  0.00     0.000 HD 
BRANCH  10  12
HETATM   12  C   UNL     1      -8.452   8.111  66.036  1.00  0.00    -0.141 C  
BRANCH  12  13
HETATM   13  C   UNL     1      -8.160   9.022  67.164  1.00  0.00    -0.106 A  
HETATM   14  C   UNL     1      -8.271  10.420  67.049  1.00  0.00    -0.123 A  
HETATM   15  C   UNL     1      -8.050  11.239  68.166  1.00  0.00    -0.134 A  
HETATM   16 CL   UNL     1      -8.737  11.242  65.599  1.00  0.00    -0.131 Cl 
HETATM   17  C   UNL     1      -7.723  10.683  69.399  1.00  0.00    -0.132 A  
HETATM   18  C   UNL     1      -7.603   9.302  69.521  1.00  0.00    -0.081 A  
HETATM   19  C   UNL     1      -7.819   8.472  68.412  1.00  0.00    -0.106 A  
HETATM   20 CL   UNL     1      -7.613   6.773  68.668  1.00  0.00    -0.102 Cl 
ENDBRANCH  12  13
ENDBRANCH  10  12
ENDBRANCH   6  10
TORSDOF 3
ENDMDL
MODEL      228
REMARK 921   NORMALIZED FREE ENERGY PREDICTED BY IDOCK:   -2.57 KCAL/MOL
REMARK 922        TOTAL FREE ENERGY PREDICTED BY IDOCK:   -3.30 KCAL/MOL
REMARK 923 INTER-LIGAND FREE ENERGY PREDICTED BY IDOCK:   -3.03 KCAL/MOL
REMARK 924 INTRA-LIGAND FREE ENERGY PREDICTED BY IDOCK:   -0.27 KCAL/MOL
REMARK 927      BINDING AFFINITY PREDICTED BY RF-SCORE:    0.00 PKD
ROOT
HETATM    1  N   UNL     1      -8.079  11.509  65.948  1.00  0.00    -0.366 NA 
HETATM    2  H2  UNL     1      -8.482  12.444  65.886  1.00  0.00     0.000 HD 
HETATM    3  C   UNL     1      -8.740  10.420  66.396  1.00  0.00    -0.141 C  
HETATM    4  H1  UNL     1      -7.123  11.275  65.679  1.00  0.00     0.000 HD 
HETATM    5  N   UNL     1     -10.011  10.731  66.754  1.00  0.00    -0.199 NA 
HETATM    6  N   UNL     1      -8.212   9.238  66.454  1.00  0.00    -0.110 NA 
HETATM    7  H1  UNL     1     -10.510   9.909  67.093  1.00  0.00     0.000 HD 
HETATM    8  H2  UNL     1     -10.414  11.666  66.692  1.00  0.00     0.000 HD 
HETATM    9  H   UNL     1      -7.239   9.035  66.229  1.00  0.00     0.000 HD 
ENDROOT
BRANCH   6  10
HETATM   10  N   UNL     1      -9.142   8.276  66.862  1.00  0.00    -0.143 NA 
HETATM   11  H   UNL     1     -10.012   8.068  66.372  1.00  0.00     0.000 HD 
BRANCH  10  12
HETATM   12  C   UNL     1      -8.749   7.684  67.945  1.00  0.00    -0.124 C  
BRANCH  12  13
HETATM   13  C   UNL     1      -9.652   7.422  69.086  1.00  0.00    -0.156 A  
HETATM   14  C   UNL     1      -9.671   8.236  70.233  1.00  0.00    -0.175 A  
HETATM   15  C   UNL     1     -10.594   7.987  71.259  1.00  0.00    -0.245 A  
HETATM   16 CL   UNL     1      -8.650   9.615  70.463  1.00  0.00    -0.217 Cl 
HETATM   17  C   UNL     1     -11.502   6.938  71.157  1.00  0.00    -0.347 A  
HETATM   18  C   UNL     1     -11.485   6.121  70.031  1.00  0.00    -0.369 A  
HETATM   19  C   UNL     1     -10.567   6.358  68.998  1.00  0.00    -0.257 A  
HETATM   20 CL   UNL     1     -10.613   5.263  67.659  1.00  0.00    -0.180 Cl 
ENDBRANCH  12  13
ENDBRANCH  10  12
ENDBRANCH   6  10
TORSDOF 3
ENDMDL
MODEL      229
REMARK 921   NORMALIZED FREE ENERGY PREDICTED BY IDOCK:   -2.55 KCAL/MOL
REMARK 922        TOTAL FREE ENERGY PREDICTED BY IDOCK:   -3.29 KCAL/MOL
REMARK 923 INTER-LIGAND FREE ENERGY PREDICTED BY IDOCK:   -3.01 KCAL/MOL
REMARK 924 INTRA-LIGAND FREE ENERGY PREDICTED BY IDOCK:   -0.28 KCAL/MOL
REMARK 927      BINDING AFFINITY PREDICTED BY RF-SCORE:    0.00 PKD
ROOT
HETATM    1  N   UNL     1      -5.659  11.794  67.270  1.00  0.00    -0.099 NA 
HETATM    2  H2  UNL     1      -5.295  12.347  66.495  1.00  0.00     0.000 HD 
HETATM    3  C   UNL     1      -6.829  11.119  67.245  1.00  0.00    -0.095 C  
HETATM    4  H1  UNL     1      -5.187  11.679  68.167  1.00  0.00     0.000 HD 
HETATM    5  N   UNL     1      -7.457  11.272  66.053  1.00  0.00    -0.365 NA 
HETATM    6  N   UNL     1      -7.266  10.411  68.238  1.00  0.00    -0.082 NA 
HETATM    7  H1  UNL     1      -8.341  10.763  66.034  1.00  0.00     0.000 HD 
HETATM    8  H2  UNL     1      -7.093  11.826  65.277  1.00  0.00     0.000 HD 
HETATM    9  H   UNL     1      -6.804  10.350  69.145  1.00  0.00     0.000 HD 
ENDROOT
BRANCH   6  10
HETATM   10  N   UNL     1      -8.450   9.740  67.914  1.00  0.00    -0.124 NA 
HETATM   11  H   UNL     1      -9.260  10.176  67.475  1.00  0.00     0.000 HD 
BRANCH  10  12
HETATM   12  C   UNL     1      -8.377   8.490  68.245  1.00  0.00    -0.124 C  
BRANCH  12  13
HETATM   13  C   UNL     1      -9.397   7.824  69.084  1.00  0.00    -0.151 A  
HETATM   14  C   UNL     1     -10.443   7.062  68.533  1.00  0.00    -0.200 A  
HETATM   15  C   UNL     1     -11.346   6.393  69.373  1.00  0.00    -0.443 A  
HETATM   16 CL   UNL     1     -10.680   6.821  66.836  1.00  0.00    -0.400 Cl 
HETATM   17  C   UNL     1     -11.218   6.470  70.756  1.00  0.00    -0.377 A  
HETATM   18  C   UNL     1     -10.192   7.229  71.311  1.00  0.00    -0.198 A  
HETATM   19  C   UNL     1      -9.284   7.903  70.483  1.00  0.00    -0.158 A  
HETATM   20 CL   UNL     1      -8.066   8.843  71.278  1.00  0.00    -0.193 Cl 
ENDBRANCH  12  13
ENDBRANCH  10  12
ENDBRANCH   6  10
TORSDOF 3
ENDMDL
MODEL      230
REMARK 921   NORMALIZED FREE ENERGY PREDICTED BY IDOCK:   -2.55 KCAL/MOL
REMARK 922        TOTAL FREE ENERGY PREDICTED BY IDOCK:   -3.28 KCAL/MOL
REMARK 923 INTER-LIGAND FREE ENERGY PREDICTED BY IDOCK:   -2.88 KCAL/MOL
REMARK 924 INTRA-LIGAND FREE ENERGY PREDICTED BY IDOCK:   -0.40 KCAL/MOL
REMARK 927      BINDING AFFINITY PREDICTED BY RF-SCORE:    0.00 PKD
ROOT
HETATM    1  N   UNL     1     -11.472   6.085  66.246  1.00  0.00    -0.405 NA 
HETATM    2  H2  UNL     1     -12.476   5.912  66.213  1.00  0.00     0.000 HD 
HETATM    3  C   UNL     1     -10.790   6.417  67.364  1.00  0.00    -0.375 C  
HETATM    4  H1  UNL     1     -10.851   6.031  65.438  1.00  0.00     0.000 HD 
HETATM    5  N   UNL     1     -11.615   6.490  68.437  1.00  0.00    -0.484 NA 
HETATM    6  N   UNL     1      -9.511   6.619  67.386  1.00  0.00    -0.127 NA 
HETATM    7  H1  UNL     1     -11.101   6.741  69.281  1.00  0.00     0.000 HD 
HETATM    8  H2  UNL     1     -12.620   6.317  68.404  1.00  0.00     0.000 HD 
HETATM    9  H   UNL     1      -8.915   6.610  66.558  1.00  0.00     0.000 HD 
ENDROOT
BRANCH   6  10
HETATM   10  N   UNL     1      -9.045   6.851  68.685  1.00  0.00    -0.132 NA 
HETATM   11  H   UNL     1      -9.247   7.689  69.231  1.00  0.00     0.000 HD 
BRANCH  10  12
HETATM   12  C   UNL     1      -8.324   5.860  69.101  1.00  0.00    -0.106 C  
BRANCH  12  13
HETATM   13  C   UNL     1      -8.709   5.018  70.254  1.00  0.00    -0.127 A  
HETATM   14  C   UNL     1      -8.522   5.435  71.585  1.00  0.00    -0.127 A  
HETATM   15  C   UNL     1      -8.967   4.631  72.644  1.00  0.00    -0.133 A  
HETATM   16 CL   UNL     1      -7.817   6.949  72.039  1.00  0.00    -0.095 Cl 
HETATM   17  C   UNL     1      -9.599   3.416  72.396  1.00  0.00    -0.196 A  
HETATM   18  C   UNL     1      -9.780   2.991  71.084  1.00  0.00    -0.192 A  
HETATM   19  C   UNL     1      -9.339   3.784  70.015  1.00  0.00    -0.180 A  
HETATM   20 CL   UNL     1      -9.587   3.145  68.426  1.00  0.00    -0.197 Cl 
ENDBRANCH  12  13
ENDBRANCH  10  12
ENDBRANCH   6  10
TORSDOF 3
ENDMDL
MODEL      231
REMARK 921   NORMALIZED FREE ENERGY PREDICTED BY IDOCK:   -2.54 KCAL/MOL
REMARK 922        TOTAL FREE ENERGY PREDICTED BY IDOCK:   -3.27 KCAL/MOL
REMARK 923 INTER-LIGAND FREE ENERGY PREDICTED BY IDOCK:   -3.01 KCAL/MOL
REMARK 924 INTRA-LIGAND FREE ENERGY PREDICTED BY IDOCK:   -0.26 KCAL/MOL
REMARK 927      BINDING AFFINITY PREDICTED BY RF-SCORE:    0.00 PKD
ROOT
HETATM    1  N   UNL     1     -11.527   6.490  67.847  1.00  0.00    -0.641 NA 
HETATM    2  H2  UNL     1     -12.281   7.109  67.551  1.00  0.00     0.000 HD 
HETATM    3  C   UNL     1     -11.269   6.160  69.131  1.00  0.00    -0.339 C  
HETATM    4  H1  UNL     1     -10.867   6.041  67.211  1.00  0.00     0.000 HD 
HETATM    5  N   UNL     1     -12.145   6.758  69.976  1.00  0.00    -0.638 NA 
HETATM    6  N   UNL     1     -10.312   5.361  69.484  1.00  0.00    -0.268 NA 
HETATM    7  H1  UNL     1     -11.950   6.509  70.945  1.00  0.00     0.000 HD 
HETATM    8  H2  UNL     1     -12.900   7.377  69.680  1.00  0.00     0.000 HD 
HETATM    9  H   UNL     1      -9.631   4.962  68.838  1.00  0.00     0.000 HD 
ENDROOT
BRANCH   6  10
HETATM   10  N   UNL     1     -10.327   5.112  70.861  1.00  0.00    -0.228 NA 
HETATM   11  H   UNL     1     -10.685   5.761  71.562  1.00  0.00     0.000 HD 
BRANCH  10  12
HETATM   12  C   UNL     1      -9.826   3.948  71.125  1.00  0.00    -0.153 C  
BRANCH  12  13
HETATM   13  C   UNL     1      -8.898   3.713  72.252  1.00  0.00    -0.117 A  
HETATM   14  C   UNL     1      -9.323   3.156  73.472  1.00  0.00    -0.091 A  
HETATM   15  C   UNL     1      -8.392   2.888  74.487  1.00  0.00    -0.068 A  
HETATM   16 CL   UNL     1     -10.956   2.697  73.815  1.00  0.00    -0.288 Cl 
HETATM   17  C   UNL     1      -7.041   3.165  74.301  1.00  0.00    -0.046 A  
HETATM   18  C   UNL     1      -6.613   3.724  73.101  1.00  0.00    -0.033 A  
HETATM   19  C   UNL     1      -7.532   3.998  72.079  1.00  0.00    -0.065 A  
HETATM   20 CL   UNL     1      -6.896   4.722  70.642  1.00  0.00    -0.036 Cl 
ENDBRANCH  12  13
ENDBRANCH  10  12
ENDBRANCH   6  10
TORSDOF 3
ENDMDL
MODEL      232
REMARK 921   NORMALIZED FREE ENERGY PREDICTED BY IDOCK:   -2.52 KCAL/MOL
REMARK 922        TOTAL FREE ENERGY PREDICTED BY IDOCK:   -3.25 KCAL/MOL
REMARK 923 INTER-LIGAND FREE ENERGY PREDICTED BY IDOCK:   -2.93 KCAL/MOL
REMARK 924 INTRA-LIGAND FREE ENERGY PREDICTED BY IDOCK:   -0.32 KCAL/MOL
REMARK 927      BINDING AFFINITY PREDICTED BY RF-SCORE:    0.00 PKD
ROOT
HETATM    1  N   UNL     1     -12.005  12.766  64.040  1.00  0.00    -0.410 NA 
HETATM    2  H2  UNL     1     -11.869  13.410  63.261  1.00  0.00     0.000 HD 
HETATM    3  C   UNL     1     -11.082  12.514  64.994  1.00  0.00    -0.299 C  
HETATM    4  H1  UNL     1     -12.857  12.228  64.201  1.00  0.00     0.000 HD 
HETATM    5  N   UNL     1      -9.949  13.229  64.780  1.00  0.00    -0.594 NA 
HETATM    6  N   UNL     1     -11.281  11.702  65.983  1.00  0.00    -0.279 NA 
HETATM    7  H1  UNL     1      -9.252  13.038  65.499  1.00  0.00     0.000 HD 
HETATM    8  H2  UNL     1      -9.813  13.872  64.001  1.00  0.00     0.000 HD 
HETATM    9  H   UNL     1     -12.121  11.134  66.098  1.00  0.00     0.000 HD 
ENDROOT
BRANCH   6  10
HETATM   10  N   UNL     1     -10.204  11.699  66.876  1.00  0.00    -0.211 NA 
HETATM   11  H   UNL     1      -9.958  12.477  67.488  1.00  0.00     0.000 HD 
BRANCH  10  12
HETATM   12  C   UNL     1      -9.561  10.577  66.820  1.00  0.00    -0.170 C  
BRANCH  12  13
HETATM   13  C   UNL     1      -8.138  10.488  66.425  1.00  0.00    -0.135 A  
HETATM   14  C   UNL     1      -7.090  10.651  67.348  1.00  0.00    -0.090 A  
HETATM   15  C   UNL     1      -5.758  10.489  66.938  1.00  0.00    -0.049 A  
HETATM   16 CL   UNL     1      -7.320  10.987  69.030  1.00  0.00    -0.114 Cl 
HETATM   17  C   UNL     1      -5.457  10.163  65.620  1.00  0.00    -0.066 A  
HETATM   18  C   UNL     1      -6.486  10.008  64.697  1.00  0.00    -0.125 A  
HETATM   19  C   UNL     1      -7.822  10.168  65.093  1.00  0.00    -0.140 A  
HETATM   20 CL   UNL     1      -9.020   9.984  63.857  1.00  0.00    -0.244 Cl 
ENDBRANCH  12  13
ENDBRANCH  10  12
ENDBRANCH   6  10
TORSDOF 3
ENDMDL
MODEL      233
REMARK 921   NORMALIZED FREE ENERGY PREDICTED BY IDOCK:   -2.50 KCAL/MOL
REMARK 922        TOTAL FREE ENERGY PREDICTED BY IDOCK:   -3.22 KCAL/MOL
REMARK 923 INTER-LIGAND FREE ENERGY PREDICTED BY IDOCK:   -2.89 KCAL/MOL
REMARK 924 INTRA-LIGAND FREE ENERGY PREDICTED BY IDOCK:   -0.33 KCAL/MOL
REMARK 927      BINDING AFFINITY PREDICTED BY RF-SCORE:    0.00 PKD
ROOT
HETATM    1  N   UNL     1      -8.186  12.394  68.315  1.00  0.00    -0.168 NA 
HETATM    2  H2  UNL     1      -8.410  13.010  67.533  1.00  0.00     0.000 HD 
HETATM    3  C   UNL     1      -9.009  11.434  68.792  1.00  0.00    -0.080 C  
HETATM    4  H1  UNL     1      -7.311  12.423  68.839  1.00  0.00     0.000 HD 
HETATM    5  N   UNL     1     -10.172  11.396  68.096  1.00  0.00    -0.181 NA 
HETATM    6  N   UNL     1      -8.698  10.653  69.778  1.00  0.00    -0.346 NA 
HETATM    7  H1  UNL     1     -10.793  10.671  68.456  1.00  0.00     0.000 HD 
HETATM    8  H2  UNL     1     -10.396  12.011  67.314  1.00  0.00     0.000 HD 
HETATM    9  H   UNL     1      -7.839  10.732  70.322  1.00  0.00     0.000 HD 
ENDROOT
BRANCH   6  10
HETATM   10  N   UNL     1      -9.685   9.688  70.004  1.00  0.00    -0.228 NA 
HETATM   11  H   UNL     1     -10.663   9.897  70.204  1.00  0.00     0.000 HD 
BRANCH  10  12
HETATM   12  C   UNL     1      -9.189   8.494  69.927  1.00  0.00    -0.154 C  
BRANCH  12  13
HETATM   13  C   UNL     1      -9.442   7.596  68.779  1.00  0.00    -0.152 A  
HETATM   14  C   UNL     1     -10.537   6.715  68.741  1.00  0.00    -0.236 A  
HETATM   15  C   UNL     1     -10.773   5.932  67.601  1.00  0.00    -0.352 A  
HETATM   16 CL   UNL     1     -11.702   6.556  70.011  1.00  0.00    -0.459 Cl 
HETATM   17  C   UNL     1      -9.932   6.018  66.495  1.00  0.00    -0.189 A  
HETATM   18  C   UNL     1      -8.841   6.881  66.527  1.00  0.00    -0.148 A  
HETATM   19  C   UNL     1      -8.593   7.667  67.661  1.00  0.00    -0.116 A  
HETATM   20 CL   UNL     1      -7.191   8.681  67.605  1.00  0.00    -0.083 Cl 
ENDBRANCH  12  13
ENDBRANCH  10  12
ENDBRANCH   6  10
TORSDOF 3
ENDMDL
MODEL      234
REMARK 921   NORMALIZED FREE ENERGY PREDICTED BY IDOCK:   -2.50 KCAL/MOL
REMARK 922        TOTAL FREE ENERGY PREDICTED BY IDOCK:   -3.22 KCAL/MOL
REMARK 923 INTER-LIGAND FREE ENERGY PREDICTED BY IDOCK:   -2.99 KCAL/MOL
REMARK 924 INTRA-LIGAND FREE ENERGY PREDICTED BY IDOCK:   -0.23 KCAL/MOL
REMARK 927      BINDING AFFINITY PREDICTED BY RF-SCORE:    0.00 PKD
ROOT
HETATM    1  N   UNL     1      -9.680   2.003  72.703  1.00  0.00    -0.090 NA 
HETATM    2  H2  UNL     1      -9.079   1.381  73.243  1.00  0.00     0.000 HD 
HETATM    3  C   UNL     1      -9.478   3.332  72.566  1.00  0.00    -0.117 C  
HETATM    4  H1  UNL     1     -10.513   1.703  72.196  1.00  0.00     0.000 HD 
HETATM    5  N   UNL     1      -8.371   3.731  73.240  1.00  0.00    -0.087 NA 
HETATM    6  N   UNL     1     -10.247   4.102  71.864  1.00  0.00    -0.152 NA 
HETATM    7  H1  UNL     1      -8.219   4.734  73.137  1.00  0.00     0.000 HD 
HETATM    8  H2  UNL     1      -7.770   3.108  73.780  1.00  0.00     0.000 HD 
HETATM    9  H   UNL     1     -11.104   3.792  71.407  1.00  0.00     0.000 HD 
ENDROOT
BRANCH   6  10
HETATM   10  N   UNL     1      -9.758   5.411  71.809  1.00  0.00    -0.159 NA 
HETATM   11  H   UNL     1      -9.170   5.840  72.524  1.00  0.00     0.000 HD 
BRANCH  10  12
HETATM   12  C   UNL     1     -10.151   6.007  70.729  1.00  0.00    -0.197 C  
BRANCH  12  13
HETATM   13  C   UNL     1     -10.552   7.430  70.699  1.00  0.00    -0.234 A  
HETATM   14  C   UNL     1      -9.726   8.433  70.159  1.00  0.00    -0.173 A  
HETATM   15  C   UNL     1     -10.179   9.758  70.092  1.00  0.00    -0.328 A  
HETATM   16 CL   UNL     1      -8.158   8.142  69.487  1.00  0.00    -0.117 Cl 
HETATM   17  C   UNL     1     -11.447  10.099  70.553  1.00  0.00    -0.417 A  
HETATM   18  C   UNL     1     -12.268   9.116  71.097  1.00  0.00    -0.350 A  
HETATM   19  C   UNL     1     -11.827   7.787  71.171  1.00  0.00    -0.291 A  
HETATM   20 CL   UNL     1     -12.916   6.653  71.894  1.00  0.00    -0.275 Cl 
ENDBRANCH  12  13
ENDBRANCH  10  12
ENDBRANCH   6  10
TORSDOF 3
ENDMDL
MODEL      235
REMARK 921   NORMALIZED FREE ENERGY PREDICTED BY IDOCK:   -2.44 KCAL/MOL
REMARK 922        TOTAL FREE ENERGY PREDICTED BY IDOCK:   -3.16 KCAL/MOL
REMARK 923 INTER-LIGAND FREE ENERGY PREDICTED BY IDOCK:   -2.86 KCAL/MOL
REMARK 924 INTRA-LIGAND FREE ENERGY PREDICTED BY IDOCK:   -0.30 KCAL/MOL
REMARK 927      BINDING AFFINITY PREDICTED BY RF-SCORE:    0.00 PKD
ROOT
HETATM    1  N   UNL     1      -8.169  12.191  68.255  1.00  0.00    -0.164 NA 
HETATM    2  H2  UNL     1      -8.394  12.897  67.554  1.00  0.00     0.000 HD 
HETATM    3  C   UNL     1      -9.027  11.238  68.684  1.00  0.00    -0.147 C  
HETATM    4  H1  UNL     1      -7.267  12.112  68.725  1.00  0.00     0.000 HD 
HETATM    5  N   UNL     1     -10.226  11.343  68.060  1.00  0.00    -0.180 NA 
HETATM    6  N   UNL     1      -8.715  10.343  69.566  1.00  0.00    -0.332 NA 
HETATM    7  H1  UNL     1     -10.873  10.625  68.384  1.00  0.00     0.000 HD 
HETATM    8  H2  UNL     1     -10.451  12.049  67.359  1.00  0.00     0.000 HD 
HETATM    9  H   UNL     1      -7.824  10.313  70.061  1.00  0.00     0.000 HD 
ENDROOT
BRANCH   6  10
HETATM   10  N   UNL     1      -9.750   9.421  69.756  1.00  0.00    -0.186 NA 
HETATM   11  H   UNL     1     -10.311   9.018  69.005  1.00  0.00     0.000 HD 
BRANCH  10  12
HETATM   12  C   UNL     1      -9.901   9.149  71.013  1.00  0.00    -0.296 C  
BRANCH  12  13
HETATM   13  C   UNL     1      -9.766   7.780  71.557  1.00  0.00    -0.195 A  
HETATM   14  C   UNL     1     -10.826   6.856  71.539  1.00  0.00    -0.230 A  
HETATM   15  C   UNL     1     -10.628   5.548  72.005  1.00  0.00    -0.284 A  
HETATM   16 CL   UNL     1     -12.401   7.195  70.907  1.00  0.00    -0.367 Cl 
HETATM   17  C   UNL     1      -9.385   5.147  72.486  1.00  0.00    -0.152 A  
HETATM   18  C   UNL     1      -8.333   6.056  72.516  1.00  0.00    -0.116 A  
HETATM   19  C   UNL     1      -8.518   7.367  72.055  1.00  0.00    -0.106 A  
HETATM   20 CL   UNL     1      -7.151   8.424  72.166  1.00  0.00    -0.102 Cl 
ENDBRANCH  12  13
ENDBRANCH  10  12
ENDBRANCH   6  10
TORSDOF 3
ENDMDL
MODEL      236
REMARK 921   NORMALIZED FREE ENERGY PREDICTED BY IDOCK:   -2.43 KCAL/MOL
REMARK 922        TOTAL FREE ENERGY PREDICTED BY IDOCK:   -3.14 KCAL/MOL
REMARK 923 INTER-LIGAND FREE ENERGY PREDICTED BY IDOCK:   -3.07 KCAL/MOL
REMARK 924 INTRA-LIGAND FREE ENERGY PREDICTED BY IDOCK:   -0.06 KCAL/MOL
REMARK 927      BINDING AFFINITY PREDICTED BY RF-SCORE:    0.00 PKD
ROOT
HETATM    1  N   UNL     1     -10.712   4.512  66.538  1.00  0.00    -0.316 NA 
HETATM    2  H2  UNL     1     -11.447   4.049  67.071  1.00  0.00     0.000 HD 
HETATM    3  C   UNL     1     -10.571   5.852  66.435  1.00  0.00    -0.115 C  
HETATM    4  H1  UNL     1      -9.987   4.024  66.012  1.00  0.00     0.000 HD 
HETATM    5  N   UNL     1     -11.535   6.501  67.134  1.00  0.00    -0.745 NA 
HETATM    6  N   UNL     1      -9.621   6.420  65.763  1.00  0.00    -0.373 NA 
HETATM    7  H1  UNL     1     -11.429   7.512  67.056  1.00  0.00     0.000 HD 
HETATM    8  H2  UNL     1     -12.270   6.037  67.668  1.00  0.00     0.000 HD 
HETATM    9  H   UNL     1      -8.936   5.915  65.201  1.00  0.00     0.000 HD 
ENDROOT
BRANCH   6  10
HETATM   10  N   UNL     1      -9.649   7.812  65.902  1.00  0.00    -0.424 NA 
HETATM   11  H   UNL     1     -10.482   8.388  65.782  1.00  0.00     0.000 HD 
BRANCH  10  12
HETATM   12  C   UNL     1      -8.475   8.270  66.202  1.00  0.00    -0.134 C  
BRANCH  12  13
HETATM   13  C   UNL     1      -8.153   8.839  67.528  1.00  0.00    -0.106 A  
HETATM   14  C   UNL     1      -7.089   8.361  68.313  1.00  0.00    -0.085 A  
HETATM   15  C   UNL     1      -6.780   8.979  69.534  1.00  0.00    -0.047 A  
HETATM   16 CL   UNL     1      -6.047   7.059  67.849  1.00  0.00    -0.032 Cl 
HETATM   17  C   UNL     1      -7.517  10.071  69.982  1.00  0.00    -0.181 A  
HETATM   18  C   UNL     1      -8.577  10.546  69.217  1.00  0.00    -0.136 A  
HETATM   19  C   UNL     1      -8.897   9.937  67.996  1.00  0.00    -0.125 A  
HETATM   20 CL   UNL     1     -10.254  10.588  67.141  1.00  0.00    -0.255 Cl 
ENDBRANCH  12  13
ENDBRANCH  10  12
ENDBRANCH   6  10
TORSDOF 3
ENDMDL
MODEL      237
REMARK 921   NORMALIZED FREE ENERGY PREDICTED BY IDOCK:   -2.43 KCAL/MOL
REMARK 922        TOTAL FREE ENERGY PREDICTED BY IDOCK:   -3.14 KCAL/MOL
REMARK 923 INTER-LIGAND FREE ENERGY PREDICTED BY IDOCK:   -2.86 KCAL/MOL
REMARK 924 INTRA-LIGAND FREE ENERGY PREDICTED BY IDOCK:   -0.28 KCAL/MOL
REMARK 927      BINDING AFFINITY PREDICTED BY RF-SCORE:    0.00 PKD
ROOT
HETATM    1  N   UNL     1      -6.252   8.590  64.367  1.00  0.00    -0.066 NA 
HETATM    2  H2  UNL     1      -5.408   8.493  63.803  1.00  0.00     0.000 HD 
HETATM    3  C   UNL     1      -6.916   9.752  64.555  1.00  0.00    -0.125 C  
HETATM    4  H1  UNL     1      -6.706   7.822  64.862  1.00  0.00     0.000 HD 
HETATM    5  N   UNL     1      -6.312  10.772  63.896  1.00  0.00    -0.355 NA 
HETATM    6  N   UNL     1      -7.995   9.850  65.265  1.00  0.00    -0.130 NA 
HETATM    7  H1  UNL     1      -6.812  11.649  64.039  1.00  0.00     0.000 HD 
HETATM    8  H2  UNL     1      -5.468  10.675  63.333  1.00  0.00     0.000 HD 
HETATM    9  H   UNL     1      -8.404   9.081  65.794  1.00  0.00     0.000 HD 
ENDROOT
BRANCH   6  10
HETATM   10  N   UNL     1      -8.531  11.142  65.215  1.00  0.00    -0.382 NA 
HETATM   11  H   UNL     1      -8.449  11.771  64.417  1.00  0.00     0.000 HD 
BRANCH  10  12
HETATM   12  C   UNL     1      -9.144  11.430  66.318  1.00  0.00    -0.202 C  
BRANCH  12  13
HETATM   13  C   UNL     1      -9.059  12.762  66.957  1.00  0.00    -0.220 A  
HETATM   14  C   UNL     1      -9.883  13.834  66.570  1.00  0.00    -0.290 A  
HETATM   15  C   UNL     1      -9.813  15.058  67.252  1.00  0.00    -0.228 A  
HETATM   16 CL   UNL     1     -11.068  13.745  65.312  1.00  0.00    -0.304 Cl 
HETATM   17  C   UNL     1      -8.934  15.226  68.318  1.00  0.00    -0.176 A  
HETATM   18  C   UNL     1      -8.109  14.174  68.702  1.00  0.00    -0.126 A  
HETATM   19  C   UNL     1      -8.168  12.946  68.028  1.00  0.00    -0.168 A  
HETATM   20 CL   UNL     1      -7.075  11.717  68.568  1.00  0.00    -0.083 Cl 
ENDBRANCH  12  13
ENDBRANCH  10  12
ENDBRANCH   6  10
TORSDOF 3
ENDMDL
MODEL      238
REMARK 921   NORMALIZED FREE ENERGY PREDICTED BY IDOCK:   -2.42 KCAL/MOL
REMARK 922        TOTAL FREE ENERGY PREDICTED BY IDOCK:   -3.12 KCAL/MOL
REMARK 923 INTER-LIGAND FREE ENERGY PREDICTED BY IDOCK:   -2.81 KCAL/MOL
REMARK 924 INTRA-LIGAND FREE ENERGY PREDICTED BY IDOCK:   -0.32 KCAL/MOL
REMARK 927      BINDING AFFINITY PREDICTED BY RF-SCORE:    0.00 PKD
ROOT
HETATM    1  N   UNL     1     -11.999   6.551  71.445  1.00  0.00    -0.336 NA 
HETATM    2  H2  UNL     1     -12.018   5.545  71.280  1.00  0.00     0.000 HD 
HETATM    3  C   UNL     1     -11.779   7.479  70.487  1.00  0.00    -0.158 C  
HETATM    4  H1  UNL     1     -12.142   6.989  72.356  1.00  0.00     0.000 HD 
HETATM    5  N   UNL     1     -11.588   6.897  69.277  1.00  0.00    -0.581 NA 
HETATM    6  N   UNL     1     -11.772   8.753  70.717  1.00  0.00    -0.389 NA 
HETATM    7  H1  UNL     1     -11.421   7.597  68.555  1.00  0.00     0.000 HD 
HETATM    8  H2  UNL     1     -11.607   5.891  69.112  1.00  0.00     0.000 HD 
HETATM    9  H   UNL     1     -11.866   9.169  71.643  1.00  0.00     0.000 HD 
ENDROOT
BRANCH   6  10
HETATM   10  N   UNL     1     -11.619   9.491  69.538  1.00  0.00    -0.433 NA 
HETATM   11  H   UNL     1     -12.057   9.255  68.648  1.00  0.00     0.000 HD 
BRANCH  10  12
HETATM   12  C   UNL     1     -10.847  10.513  69.729  1.00  0.00    -0.281 C  
BRANCH  12  13
HETATM   13  C   UNL     1      -9.620  10.747  68.938  1.00  0.00    -0.204 A  
HETATM   14  C   UNL     1      -9.654  11.285  67.639  1.00  0.00    -0.171 A  
HETATM   15  C   UNL     1      -8.459  11.554  66.955  1.00  0.00    -0.164 A  
HETATM   16 CL   UNL     1     -11.107  11.719  66.805  1.00  0.00    -0.339 Cl 
HETATM   17  C   UNL     1      -7.228  11.296  67.551  1.00  0.00    -0.100 A  
HETATM   18  C   UNL     1      -7.184  10.756  68.832  1.00  0.00    -0.088 A  
HETATM   19  C   UNL     1      -8.371  10.482  69.526  1.00  0.00    -0.061 A  
HETATM   20 CL   UNL     1      -8.200   9.782  71.100  1.00  0.00     0.496 Cl 
ENDBRANCH  12  13
ENDBRANCH  10  12
ENDBRANCH   6  10
TORSDOF 3
ENDMDL
MODEL      239
REMARK 921   NORMALIZED FREE ENERGY PREDICTED BY IDOCK:   -2.40 KCAL/MOL
REMARK 922        TOTAL FREE ENERGY PREDICTED BY IDOCK:   -3.10 KCAL/MOL
REMARK 923 INTER-LIGAND FREE ENERGY PREDICTED BY IDOCK:   -2.85 KCAL/MOL
REMARK 924 INTRA-LIGAND FREE ENERGY PREDICTED BY IDOCK:   -0.25 KCAL/MOL
REMARK 927      BINDING AFFINITY PREDICTED BY RF-SCORE:    0.00 PKD
ROOT
HETATM    1  N   UNL     1      -8.865   8.362  73.238  1.00  0.00    -0.310 NA 
HETATM    2  H2  UNL     1      -8.244   7.854  73.868  1.00  0.00     0.000 HD 
HETATM    3  C   UNL     1      -8.524   8.774  71.997  1.00  0.00    -0.039 C  
HETATM    4  H1  UNL     1      -9.824   8.626  73.464  1.00  0.00     0.000 HD 
HETATM    5  N   UNL     1      -7.249   8.423  71.697  1.00  0.00    -0.084 NA 
HETATM    6  N   UNL     1      -9.334   9.407  71.208  1.00  0.00    -0.300 NA 
HETATM    7  H1  UNL     1      -6.992   8.734  70.761  1.00  0.00     0.000 HD 
HETATM    8  H2  UNL     1      -6.629   7.915  72.327  1.00  0.00     0.000 HD 
HETATM    9  H   UNL     1     -10.272   9.707  71.472  1.00  0.00     0.000 HD 
ENDROOT
BRANCH   6  10
HETATM   10  N   UNL     1      -8.763   9.628  69.950  1.00  0.00    -0.203 NA 
HETATM   11  H   UNL     1      -7.883  10.117  69.792  1.00  0.00     0.000 HD 
BRANCH  10  12
HETATM   12  C   UNL     1      -9.504   9.128  69.013  1.00  0.00    -0.152 C  
BRANCH  12  13
HETATM   13  C   UNL     1      -9.541   9.680  67.641  1.00  0.00    -0.167 A  
HETATM   14  C   UNL     1      -8.606   9.310  66.657  1.00  0.00    -0.127 A  
HETATM   15  C   UNL     1      -8.723   9.809  65.351  1.00  0.00    -0.176 A  
HETATM   16 CL   UNL     1      -7.307   8.197  66.920  1.00  0.00    -0.086 Cl 
HETATM   17  C   UNL     1      -9.763  10.669  65.011  1.00  0.00    -0.336 A  
HETATM   18  C   UNL     1     -10.687  11.047  65.980  1.00  0.00    -0.242 A  
HETATM   19  C   UNL     1     -10.581  10.557  67.289  1.00  0.00    -0.264 A  
HETATM   20 CL   UNL     1     -11.766  11.117  68.420  1.00  0.00    -0.369 Cl 
ENDBRANCH  12  13
ENDBRANCH  10  12
ENDBRANCH   6  10
TORSDOF 3
ENDMDL
MODEL      240
REMARK 921   NORMALIZED FREE ENERGY PREDICTED BY IDOCK:   -2.39 KCAL/MOL
REMARK 922        TOTAL FREE ENERGY PREDICTED BY IDOCK:   -3.10 KCAL/MOL
REMARK 923 INTER-LIGAND FREE ENERGY PREDICTED BY IDOCK:   -2.78 KCAL/MOL
REMARK 924 INTRA-LIGAND FREE ENERGY PREDICTED BY IDOCK:   -0.32 KCAL/MOL
REMARK 927      BINDING AFFINITY PREDICTED BY RF-SCORE:    0.00 PKD
ROOT
HETATM    1  N   UNL     1      -9.054  12.389  65.965  1.00  0.00    -0.429 NA 
HETATM    2  H2  UNL     1      -9.592  13.187  66.303  1.00  0.00     0.000 HD 
HETATM    3  C   UNL     1      -9.508  11.117  65.940  1.00  0.00    -0.215 C  
HETATM    4  H1  UNL     1      -8.102  12.448  65.601  1.00  0.00     0.000 HD 
HETATM    5  N   UNL     1     -10.773  11.039  66.423  1.00  0.00    -0.252 NA 
HETATM    6  N   UNL     1      -8.813  10.120  65.493  1.00  0.00    -0.160 NA 
HETATM    7  H1  UNL     1     -11.115  10.079  66.405  1.00  0.00     0.000 HD 
HETATM    8  H2  UNL     1     -11.310  11.837  66.762  1.00  0.00     0.000 HD 
HETATM    9  H   UNL     1      -7.844  10.191  65.182  1.00  0.00     0.000 HD 
ENDROOT
BRANCH   6  10
HETATM   10  N   UNL     1      -9.553   8.933  65.490  1.00  0.00    -0.459 NA 
HETATM   11  H   UNL     1     -10.558   8.878  65.323  1.00  0.00     0.000 HD 
BRANCH  10  12
HETATM   12  C   UNL     1      -8.791   7.913  65.727  1.00  0.00    -0.119 C  
BRANCH  12  13
HETATM   13  C   UNL     1      -8.498   7.433  67.095  1.00  0.00    -0.118 A  
HETATM   14  C   UNL     1      -9.458   6.769  67.880  1.00  0.00    -0.118 A  
HETATM   15  C   UNL     1      -9.111   6.272  69.145  1.00  0.00    -0.130 A  
HETATM   16 CL   UNL     1     -11.079   6.446  67.367  1.00  0.00    -0.454 Cl 
HETATM   17  C   UNL     1      -7.819   6.425  69.638  1.00  0.00    -0.108 A  
HETATM   18  C   UNL     1      -6.866   7.089  68.873  1.00  0.00    -0.072 A  
HETATM   19  C   UNL     1      -7.199   7.591  67.607  1.00  0.00    -0.090 A  
HETATM   20 CL   UNL     1      -5.945   8.427  66.754  1.00  0.00    -0.051 Cl 
ENDBRANCH  12  13
ENDBRANCH  10  12
ENDBRANCH   6  10
TORSDOF 3
ENDMDL
MODEL      241
REMARK 921   NORMALIZED FREE ENERGY PREDICTED BY IDOCK:   -2.39 KCAL/MOL
REMARK 922        TOTAL FREE ENERGY PREDICTED BY IDOCK:   -3.09 KCAL/MOL
REMARK 923 INTER-LIGAND FREE ENERGY PREDICTED BY IDOCK:   -2.81 KCAL/MOL
REMARK 924 INTRA-LIGAND FREE ENERGY PREDICTED BY IDOCK:   -0.28 KCAL/MOL
REMARK 927      BINDING AFFINITY PREDICTED BY RF-SCORE:    0.00 PKD
ROOT
HETATM    1  N   UNL     1     -11.245   2.501  63.601  1.00  0.00    -0.591 NA 
HETATM    2  H2  UNL     1     -11.271   2.217  62.622  1.00  0.00     0.000 HD 
HETATM    3  C   UNL     1     -10.728   3.667  64.046  1.00  0.00    -0.239 C  
HETATM    4  H1  UNL     1     -11.608   1.940  64.373  1.00  0.00     0.000 HD 
HETATM    5  N   UNL     1     -10.246   4.411  63.019  1.00  0.00    -0.394 NA 
HETATM    6  N   UNL     1     -10.718   4.014  65.294  1.00  0.00    -0.503 NA 
HETATM    7  H1  UNL     1      -9.855   5.291  63.355  1.00  0.00     0.000 HD 
HETATM    8  H2  UNL     1     -10.271   4.127  62.040  1.00  0.00     0.000 HD 
HETATM    9  H   UNL     1     -11.039   3.417  66.056  1.00  0.00     0.000 HD 
ENDROOT
BRANCH   6  10
HETATM   10  N   UNL     1     -10.215   5.307  65.467  1.00  0.00    -0.405 NA 
HETATM   11  H   UNL     1     -10.445   6.103  64.872  1.00  0.00     0.000 HD 
BRANCH  10  12
HETATM   12  C   UNL     1      -9.417   5.360  66.486  1.00  0.00    -0.149 C  
BRANCH  12  13
HETATM   13  C   UNL     1      -8.045   4.809  66.457  1.00  0.00    -0.107 A  
HETATM   14  C   UNL     1      -7.670   3.684  67.214  1.00  0.00    -0.079 A  
HETATM   15  C   UNL     1      -6.375   3.158  67.100  1.00  0.00    -0.036 A  
HETATM   16 CL   UNL     1      -8.737   2.825  68.271  1.00  0.00    -0.118 Cl 
HETATM   17  C   UNL     1      -5.448   3.735  66.238  1.00  0.00    -0.013 A  
HETATM   18  C   UNL     1      -5.806   4.853  65.491  1.00  0.00    -0.018 A  
HETATM   19  C   UNL     1      -7.097   5.390  65.596  1.00  0.00    -0.067 A  
HETATM   20 CL   UNL     1      -7.426   6.799  64.646  1.00  0.00    -0.090 Cl 
ENDBRANCH  12  13
ENDBRANCH  10  12
ENDBRANCH   6  10
TORSDOF 3
ENDMDL
MODEL      242
REMARK 921   NORMALIZED FREE ENERGY PREDICTED BY IDOCK:   -2.32 KCAL/MOL
REMARK 922        TOTAL FREE ENERGY PREDICTED BY IDOCK:   -3.01 KCAL/MOL
REMARK 923 INTER-LIGAND FREE ENERGY PREDICTED BY IDOCK:   -2.75 KCAL/MOL
REMARK 924 INTRA-LIGAND FREE ENERGY PREDICTED BY IDOCK:   -0.26 KCAL/MOL
REMARK 927      BINDING AFFINITY PREDICTED BY RF-SCORE:    0.00 PKD
ROOT
HETATM    1  N   UNL     1      -9.875  13.830  65.069  1.00  0.00    -0.604 NA 
HETATM    2  H2  UNL     1      -9.799  14.766  64.672  1.00  0.00     0.000 HD 
HETATM    3  C   UNL     1      -9.757  13.545  66.385  1.00  0.00    -0.289 C  
HETATM    4  H1  UNL     1     -10.049  12.985  64.523  1.00  0.00     0.000 HD 
HETATM    5  N   UNL     1      -9.525  14.668  67.109  1.00  0.00    -0.221 NA 
HETATM    6  N   UNL     1      -9.870  12.349  66.868  1.00  0.00    -0.211 NA 
HETATM    7  H1  UNL     1      -9.435  14.453  68.102  1.00  0.00     0.000 HD 
HETATM    8  H2  UNL     1      -9.449  15.604  66.712  1.00  0.00     0.000 HD 
HETATM    9  H   UNL     1      -9.993  11.511  66.301  1.00  0.00     0.000 HD 
ENDROOT
BRANCH   6  10
HETATM   10  N   UNL     1      -9.803  12.348  68.266  1.00  0.00    -0.223 NA 
HETATM   11  H   UNL     1      -9.835  13.185  68.847  1.00  0.00     0.000 HD 
BRANCH  10  12
HETATM   12  C   UNL     1      -9.694  11.141  68.722  1.00  0.00    -0.185 C  
BRANCH  12  13
HETATM   13  C   UNL     1      -8.634  10.210  68.277  1.00  0.00    -0.116 A  
HETATM   14  C   UNL     1      -7.270  10.449  68.526  1.00  0.00    -0.084 A  
HETATM   15  C   UNL     1      -6.308   9.503  68.145  1.00  0.00    -0.057 A  
HETATM   16 CL   UNL     1      -6.663  11.843  69.353  1.00  0.00    -0.104 Cl 
HETATM   17  C   UNL     1      -6.687   8.318  67.521  1.00  0.00    -0.063 A  
HETATM   18  C   UNL     1      -8.032   8.076  67.263  1.00  0.00    -0.121 A  
HETATM   19  C   UNL     1      -9.004   9.014  67.638  1.00  0.00    -0.123 A  
HETATM   20 CL   UNL     1     -10.644   8.626  67.241  1.00  0.00    -0.352 Cl 
ENDBRANCH  12  13
ENDBRANCH  10  12
ENDBRANCH   6  10
TORSDOF 3
ENDMDL
MODEL      243
REMARK 921   NORMALIZED FREE ENERGY PREDICTED BY IDOCK:   -2.30 KCAL/MOL
REMARK 922        TOTAL FREE ENERGY PREDICTED BY IDOCK:   -2.99 KCAL/MOL
REMARK 923 INTER-LIGAND FREE ENERGY PREDICTED BY IDOCK:   -3.04 KCAL/MOL
REMARK 924 INTRA-LIGAND FREE ENERGY PREDICTED BY IDOCK:    0.05 KCAL/MOL
REMARK 927      BINDING AFFINITY PREDICTED BY RF-SCORE:    0.00 PKD
ROOT
HETATM    1  N   UNL     1     -11.294   6.835  67.658  1.00  0.00    -0.667 NA 
HETATM    2  H2  UNL     1     -12.137   7.330  67.367  1.00  0.00     0.000 HD 
HETATM    3  C   UNL     1     -10.980   6.547  68.940  1.00  0.00    -0.314 C  
HETATM    4  H1  UNL     1     -10.577   6.492  67.017  1.00  0.00     0.000 HD 
HETATM    5  N   UNL     1     -11.933   7.002  69.791  1.00  0.00    -0.516 NA 
HETATM    6  N   UNL     1      -9.910   5.905  69.286  1.00  0.00    -0.152 NA 
HETATM    7  H1  UNL     1     -11.696   6.785  70.759  1.00  0.00     0.000 HD 
HETATM    8  H2  UNL     1     -12.776   7.497  69.501  1.00  0.00     0.000 HD 
HETATM    9  H   UNL     1      -9.180   5.616  68.635  1.00  0.00     0.000 HD 
ENDROOT
BRANCH   6  10
HETATM   10  N   UNL     1      -9.878   5.655  70.662  1.00  0.00    -0.179 NA 
HETATM   11  H   UNL     1     -10.561   5.086  71.163  1.00  0.00     0.000 HD 
BRANCH  10  12
HETATM   12  C   UNL     1      -8.865   6.243  71.215  1.00  0.00    -0.139 C  
BRANCH  12  13
HETATM   13  C   UNL     1      -8.153   7.374  70.582  1.00  0.00    -0.110 A  
HETATM   14  C   UNL     1      -7.062   7.184  69.715  1.00  0.00    -0.073 A  
HETATM   15  C   UNL     1      -6.462   8.284  69.085  1.00  0.00    -0.040 A  
HETATM   16 CL   UNL     1      -6.411   5.636  69.296  1.00  0.00    -0.043 Cl 
HETATM   17  C   UNL     1      -6.938   9.573  69.304  1.00  0.00    -0.050 A  
HETATM   18  C   UNL     1      -8.011   9.772  70.167  1.00  0.00    -0.201 A  
HETATM   19  C   UNL     1      -8.619   8.681  70.804  1.00  0.00    -0.171 A  
HETATM   20 CL   UNL     1      -9.925   9.046  71.881  1.00  0.00    -0.380 Cl 
ENDBRANCH  12  13
ENDBRANCH  10  12
ENDBRANCH   6  10
TORSDOF 3
ENDMDL
MODEL      244
REMARK 921   NORMALIZED FREE ENERGY PREDICTED BY IDOCK:   -2.27 KCAL/MOL
REMARK 922        TOTAL FREE ENERGY PREDICTED BY IDOCK:   -2.95 KCAL/MOL
REMARK 923 INTER-LIGAND FREE ENERGY PREDICTED BY IDOCK:   -2.65 KCAL/MOL
REMARK 924 INTRA-LIGAND FREE ENERGY PREDICTED BY IDOCK:   -0.30 KCAL/MOL
REMARK 927      BINDING AFFINITY PREDICTED BY RF-SCORE:    0.00 PKD
ROOT
HETATM    1  N   UNL     1      -8.633   5.719  63.002  1.00  0.00    -0.326 NA 
HETATM    2  H2  UNL     1      -8.329   5.854  62.038  1.00  0.00     0.000 HD 
HETATM    3  C   UNL     1      -8.395   6.589  64.008  1.00  0.00     0.145 C  
HETATM    4  H1  UNL     1      -9.156   4.907  63.332  1.00  0.00     0.000 HD 
HETATM    5  N   UNL     1      -7.700   7.667  63.568  1.00  0.00    -0.125 NA 
HETATM    6  N   UNL     1      -8.803   6.403  65.223  1.00  0.00    -0.364 NA 
HETATM    7  H1  UNL     1      -7.520   8.324  64.327  1.00  0.00     0.000 HD 
HETATM    8  H2  UNL     1      -7.396   7.802  62.604  1.00  0.00     0.000 HD 
HETATM    9  H   UNL     1      -9.280   5.561  65.545  1.00  0.00     0.000 HD 
ENDROOT
BRANCH   6  10
HETATM   10  N   UNL     1      -8.509   7.500  66.041  1.00  0.00    -0.141 NA 
HETATM   11  H   UNL     1      -8.490   8.469  65.724  1.00  0.00     0.000 HD 
BRANCH  10  12
HETATM   12  C   UNL     1      -8.264   7.119  67.254  1.00  0.00    -0.119 C  
BRANCH  12  13
HETATM   13  C   UNL     1      -9.261   7.220  68.341  1.00  0.00    -0.137 A  
HETATM   14  C   UNL     1      -9.607   8.449  68.932  1.00  0.00    -0.153 A  
HETATM   15  C   UNL     1     -10.609   8.502  69.913  1.00  0.00    -0.228 A  
HETATM   16 CL   UNL     1      -8.915   9.971  68.485  1.00  0.00    -0.121 Cl 
HETATM   17  C   UNL     1     -11.273   7.346  70.311  1.00  0.00    -0.268 A  
HETATM   18  C   UNL     1     -10.931   6.124  69.739  1.00  0.00    -0.459 A  
HETATM   19  C   UNL     1      -9.932   6.057  68.759  1.00  0.00    -0.150 A  
HETATM   20 CL   UNL     1      -9.565   4.483  68.138  1.00  0.00    -0.203 Cl 
ENDBRANCH  12  13
ENDBRANCH  10  12
ENDBRANCH   6  10
TORSDOF 3
ENDMDL
MODEL      245
REMARK 921   NORMALIZED FREE ENERGY PREDICTED BY IDOCK:   -2.26 KCAL/MOL
REMARK 922        TOTAL FREE ENERGY PREDICTED BY IDOCK:   -2.94 KCAL/MOL
REMARK 923 INTER-LIGAND FREE ENERGY PREDICTED BY IDOCK:   -3.01 KCAL/MOL
REMARK 924 INTRA-LIGAND FREE ENERGY PREDICTED BY IDOCK:    0.07 KCAL/MOL
REMARK 927      BINDING AFFINITY PREDICTED BY RF-SCORE:    0.00 PKD
ROOT
HETATM    1  N   UNL     1      -6.550   9.935  68.162  1.00  0.00    -0.056 NA 
HETATM    2  H2  UNL     1      -5.860   9.727  68.883  1.00  0.00     0.000 HD 
HETATM    3  C   UNL     1      -7.803  10.378  68.408  1.00  0.00    -0.104 C  
HETATM    4  H1  UNL     1      -6.385   9.835  67.160  1.00  0.00     0.000 HD 
HETATM    5  N   UNL     1      -8.022  10.510  69.740  1.00  0.00    -0.363 NA 
HETATM    6  N   UNL     1      -8.660  10.648  67.475  1.00  0.00    -0.122 NA 
HETATM    7  H1  UNL     1      -8.968  10.844  69.925  1.00  0.00     0.000 HD 
HETATM    8  H2  UNL     1      -7.332  10.302  70.461  1.00  0.00     0.000 HD 
HETATM    9  H   UNL     1      -8.493  10.493  66.482  1.00  0.00     0.000 HD 
ENDROOT
BRANCH   6  10
HETATM   10  N   UNL     1      -9.843  11.181  67.999  1.00  0.00    -0.170 NA 
HETATM   11  H   UNL     1      -9.940  12.129  68.361  1.00  0.00     0.000 HD 
BRANCH  10  12
HETATM   12  C   UNL     1     -10.798  10.307  67.961  1.00  0.00    -0.275 C  
BRANCH  12  13
HETATM   13  C   UNL     1     -10.979   9.274  69.004  1.00  0.00    -0.060 A  
HETATM   14  C   UNL     1     -11.633   9.539  70.220  1.00  0.00    -0.169 A  
HETATM   15  C   UNL     1     -11.841   8.508  71.148  1.00  0.00    -0.322 A  
HETATM   16 CL   UNL     1     -12.285  11.082  70.657  1.00  0.00    -0.448 Cl 
HETATM   17  C   UNL     1     -11.408   7.214  70.879  1.00  0.00    -0.319 A  
HETATM   18  C   UNL     1     -10.752   6.943  69.682  1.00  0.00    -0.276 A  
HETATM   19  C   UNL     1     -10.537   7.964  68.746  1.00  0.00    -0.127 A  
HETATM   20 CL   UNL     1      -9.684   7.524  67.306  1.00  0.00    -0.198 Cl 
ENDBRANCH  12  13
ENDBRANCH  10  12
ENDBRANCH   6  10
TORSDOF 3
ENDMDL
MODEL      246
REMARK 921   NORMALIZED FREE ENERGY PREDICTED BY IDOCK:   -2.24 KCAL/MOL
REMARK 922        TOTAL FREE ENERGY PREDICTED BY IDOCK:   -2.92 KCAL/MOL
REMARK 923 INTER-LIGAND FREE ENERGY PREDICTED BY IDOCK:   -2.71 KCAL/MOL
REMARK 924 INTRA-LIGAND FREE ENERGY PREDICTED BY IDOCK:   -0.21 KCAL/MOL
REMARK 927      BINDING AFFINITY PREDICTED BY RF-SCORE:    0.00 PKD
ROOT
HETATM    1  N   UNL     1     -11.378   2.572  63.694  1.00  0.00    -0.552 NA 
HETATM    2  H2  UNL     1     -11.753   2.381  62.765  1.00  0.00     0.000 HD 
HETATM    3  C   UNL     1     -10.652   3.666  64.015  1.00  0.00    -0.263 C  
HETATM    4  H1  UNL     1     -11.502   1.962  64.502  1.00  0.00     0.000 HD 
HETATM    5  N   UNL     1     -10.487   4.477  62.941  1.00  0.00    -0.394 NA 
HETATM    6  N   UNL     1     -10.197   3.895  65.206  1.00  0.00    -0.411 NA 
HETATM    7  H1  UNL     1      -9.939   5.302  63.183  1.00  0.00     0.000 HD 
HETATM    8  H2  UNL     1     -10.862   4.286  62.012  1.00  0.00     0.000 HD 
HETATM    9  H   UNL     1     -10.287   3.248  65.988  1.00  0.00     0.000 HD 
ENDROOT
BRANCH   6  10
HETATM   10  N   UNL     1      -9.565   5.141  65.287  1.00  0.00    -0.356 NA 
HETATM   11  H   UNL     1      -9.959   6.013  64.936  1.00  0.00     0.000 HD 
BRANCH  10  12
HETATM   12  C   UNL     1      -8.412   5.037  65.868  1.00  0.00    -0.121 C  
BRANCH  12  13
HETATM   13  C   UNL     1      -7.668   6.206  66.385  1.00  0.00    -0.102 A  
HETATM   14  C   UNL     1      -6.589   6.779  65.687  1.00  0.00    -0.051 A  
HETATM   15  C   UNL     1      -5.959   7.929  66.185  1.00  0.00    -0.038 A  
HETATM   16 CL   UNL     1      -5.991   6.193  64.172  1.00  0.00    -0.022 Cl 
HETATM   17  C   UNL     1      -6.392   8.519  67.368  1.00  0.00    -0.057 A  
HETATM   18  C   UNL     1      -7.453   7.956  68.069  1.00  0.00    -0.108 A  
HETATM   19  C   UNL     1      -8.091   6.805  67.584  1.00  0.00    -0.116 A  
HETATM   20 CL   UNL     1      -9.378   6.170  68.552  1.00  0.00    -0.118 Cl 
ENDBRANCH  12  13
ENDBRANCH  10  12
ENDBRANCH   6  10
TORSDOF 3
ENDMDL
MODEL      247
REMARK 921   NORMALIZED FREE ENERGY PREDICTED BY IDOCK:   -2.24 KCAL/MOL
REMARK 922        TOTAL FREE ENERGY PREDICTED BY IDOCK:   -2.92 KCAL/MOL
REMARK 923 INTER-LIGAND FREE ENERGY PREDICTED BY IDOCK:   -2.72 KCAL/MOL
REMARK 924 INTRA-LIGAND FREE ENERGY PREDICTED BY IDOCK:   -0.20 KCAL/MOL
REMARK 927      BINDING AFFINITY PREDICTED BY RF-SCORE:    0.00 PKD
ROOT
HETATM    1  N   UNL     1      -8.695   5.284  62.404  1.00  0.00    -0.194 NA 
HETATM    2  H2  UNL     1      -8.462   5.552  61.448  1.00  0.00     0.000 HD 
HETATM    3  C   UNL     1      -8.724   6.138  63.451  1.00  0.00     0.444 C  
HETATM    4  H1  UNL     1      -8.934   4.336  62.695  1.00  0.00     0.000 HD 
HETATM    5  N   UNL     1      -8.405   7.398  63.065  1.00  0.00    -0.364 NA 
HETATM    6  N   UNL     1      -9.036   5.779  64.656  1.00  0.00    -0.353 NA 
HETATM    7  H1  UNL     1      -8.427   8.042  63.855  1.00  0.00     0.000 HD 
HETATM    8  H2  UNL     1      -8.173   7.666  62.108  1.00  0.00     0.000 HD 
HETATM    9  H   UNL     1      -9.222   4.816  64.937  1.00  0.00     0.000 HD 
ENDROOT
BRANCH   6  10
HETATM   10  N   UNL     1      -9.085   6.874  65.526  1.00  0.00    -0.368 NA 
HETATM   11  H   UNL     1      -9.447   7.794  65.278  1.00  0.00     0.000 HD 
BRANCH  10  12
HETATM   12  C   UNL     1      -8.608   6.561  66.689  1.00  0.00    -0.118 C  
BRANCH  12  13
HETATM   13  C   UNL     1      -9.438   6.526  67.912  1.00  0.00    -0.120 A  
HETATM   14  C   UNL     1      -9.776   5.322  68.557  1.00  0.00    -0.143 A  
HETATM   15  C   UNL     1     -10.508   5.345  69.753  1.00  0.00    -0.378 A  
HETATM   16 CL   UNL     1      -9.288   3.755  68.007  1.00  0.00    -0.221 Cl 
HETATM   17  C   UNL     1     -10.907   6.552  70.317  1.00  0.00    -0.333 A  
HETATM   18  C   UNL     1     -10.586   7.748  69.682  1.00  0.00    -0.242 A  
HETATM   19  C   UNL     1      -9.855   7.739  68.486  1.00  0.00    -0.172 A  
HETATM   20 CL   UNL     1      -9.538   9.281  67.765  1.00  0.00    -0.160 Cl 
ENDBRANCH  12  13
ENDBRANCH  10  12
ENDBRANCH   6  10
TORSDOF 3
ENDMDL
MODEL      248
REMARK 921   NORMALIZED FREE ENERGY PREDICTED BY IDOCK:   -2.24 KCAL/MOL
REMARK 922        TOTAL FREE ENERGY PREDICTED BY IDOCK:   -2.92 KCAL/MOL
REMARK 923 INTER-LIGAND FREE ENERGY PREDICTED BY IDOCK:   -2.67 KCAL/MOL
REMARK 924 INTRA-LIGAND FREE ENERGY PREDICTED BY IDOCK:   -0.25 KCAL/MOL
REMARK 927      BINDING AFFINITY PREDICTED BY RF-SCORE:    0.00 PKD
ROOT
HETATM    1  N   UNL     1      -7.526   6.578  73.043  1.00  0.00    -0.089 NA 
HETATM    2  H2  UNL     1      -7.473   6.682  74.056  1.00  0.00     0.000 HD 
HETATM    3  C   UNL     1      -7.956   7.541  72.198  1.00  0.00    -0.098 C  
HETATM    4  H1  UNL     1      -7.262   5.733  72.536  1.00  0.00     0.000 HD 
HETATM    5  N   UNL     1      -8.307   8.663  72.873  1.00  0.00    -0.415 NA 
HETATM    6  N   UNL     1      -8.002   7.392  70.912  1.00  0.00    -0.096 NA 
HETATM    7  H1  UNL     1      -8.632   9.389  72.235  1.00  0.00     0.000 HD 
HETATM    8  H2  UNL     1      -8.254   8.767  73.886  1.00  0.00     0.000 HD 
HETATM    9  H   UNL     1      -7.783   6.522  70.428  1.00  0.00     0.000 HD 
ENDROOT
BRANCH   6  10
HETATM   10  N   UNL     1      -8.391   8.572  70.269  1.00  0.00    -0.119 NA 
HETATM   11  H   UNL     1      -7.912   9.467  70.363  1.00  0.00     0.000 HD 
BRANCH  10  12
HETATM   12  C   UNL     1      -9.441   8.374  69.536  1.00  0.00    -0.166 C  
BRANCH  12  13
HETATM   13  C   UNL     1      -9.648   9.047  68.236  1.00  0.00    -0.158 A  
HETATM   14  C   UNL     1     -10.181  10.344  68.137  1.00  0.00    -0.161 A  
HETATM   15  C   UNL     1     -10.294  10.966  66.885  1.00  0.00    -0.285 A  
HETATM   16 CL   UNL     1     -10.672  11.300  69.494  1.00  0.00    -0.199 Cl 
HETATM   17  C   UNL     1      -9.879  10.313  65.728  1.00  0.00    -0.320 A  
HETATM   18  C   UNL     1      -9.358   9.026  65.815  1.00  0.00    -0.302 A  
HETATM   19  C   UNL     1      -9.241   8.392  67.060  1.00  0.00    -0.151 A  
HETATM   20 CL   UNL     1      -8.609   6.781  67.049  1.00  0.00    -0.113 Cl 
ENDBRANCH  12  13
ENDBRANCH  10  12
ENDBRANCH   6  10
TORSDOF 3
ENDMDL
MODEL      249
REMARK 921   NORMALIZED FREE ENERGY PREDICTED BY IDOCK:   -2.13 KCAL/MOL
REMARK 922        TOTAL FREE ENERGY PREDICTED BY IDOCK:   -2.79 KCAL/MOL
REMARK 923 INTER-LIGAND FREE ENERGY PREDICTED BY IDOCK:   -2.55 KCAL/MOL
REMARK 924 INTRA-LIGAND FREE ENERGY PREDICTED BY IDOCK:   -0.24 KCAL/MOL
REMARK 927      BINDING AFFINITY PREDICTED BY RF-SCORE:    0.00 PKD
ROOT
HETATM    1  N   UNL     1      -8.543   8.089  66.313  1.00  0.00    -0.135 NA 
HETATM    2  H2  UNL     1      -8.246   8.498  65.427  1.00  0.00     0.000 HD 
HETATM    3  C   UNL     1      -7.885   8.241  67.484  1.00  0.00    -0.106 C  
HETATM    4  H1  UNL     1      -9.375   7.511  66.430  1.00  0.00     0.000 HD 
HETATM    5  N   UNL     1      -6.779   9.009  67.327  1.00  0.00    -0.069 NA 
HETATM    6  N   UNL     1      -8.288   7.724  68.600  1.00  0.00    -0.128 NA 
HETATM    7  H1  UNL     1      -6.282   9.124  68.210  1.00  0.00     0.000 HD 
HETATM    8  H2  UNL     1      -6.482   9.418  66.441  1.00  0.00     0.000 HD 
HETATM    9  H   UNL     1      -9.095   7.106  68.687  1.00  0.00     0.000 HD 
ENDROOT
BRANCH   6  10
HETATM   10  N   UNL     1      -7.481   8.116  69.673  1.00  0.00    -0.084 NA 
HETATM   11  H   UNL     1      -6.466   8.013  69.702  1.00  0.00     0.000 HD 
BRANCH  10  12
HETATM   12  C   UNL     1      -8.194   8.627  70.626  1.00  0.00    -0.137 C  
BRANCH  12  13
HETATM   13  C   UNL     1      -9.509   8.080  71.023  1.00  0.00    -0.179 A  
HETATM   14  C   UNL     1      -9.635   6.904  71.785  1.00  0.00    -0.159 A  
HETATM   15  C   UNL     1     -10.902   6.463  72.195  1.00  0.00    -0.272 A  
HETATM   16 CL   UNL     1      -8.297   5.954  72.335  1.00  0.00    -0.117 Cl 
HETATM   17  C   UNL     1     -12.046   7.179  71.858  1.00  0.00    -0.357 A  
HETATM   18  C   UNL     1     -11.933   8.338  71.097  1.00  0.00    -0.290 A  
HETATM   19  C   UNL     1     -10.673   8.790  70.679  1.00  0.00    -0.225 A  
HETATM   20 CL   UNL     1     -10.650  10.224  69.710  1.00  0.00    -0.291 Cl 
ENDBRANCH  12  13
ENDBRANCH  10  12
ENDBRANCH   6  10
TORSDOF 3
ENDMDL
MODEL      250
REMARK 921   NORMALIZED FREE ENERGY PREDICTED BY IDOCK:   -2.06 KCAL/MOL
REMARK 922        TOTAL FREE ENERGY PREDICTED BY IDOCK:   -2.70 KCAL/MOL
REMARK 923 INTER-LIGAND FREE ENERGY PREDICTED BY IDOCK:   -2.49 KCAL/MOL
REMARK 924 INTRA-LIGAND FREE ENERGY PREDICTED BY IDOCK:   -0.21 KCAL/MOL
REMARK 927      BINDING AFFINITY PREDICTED BY RF-SCORE:    0.00 PKD
ROOT
HETATM    1  N   UNL     1     -11.510   6.503  67.376  1.00  0.00    -0.731 NA 
HETATM    2  H2  UNL     1     -12.504   6.603  67.584  1.00  0.00     0.000 HD 
HETATM    3  C   UNL     1     -10.521   7.132  68.048  1.00  0.00    -0.201 C  
HETATM    4  H1  UNL     1     -11.134   5.915  66.632  1.00  0.00     0.000 HD 
HETATM    5  N   UNL     1     -11.022   7.914  69.037  1.00  0.00    -0.428 NA 
HETATM    6  N   UNL     1      -9.264   6.979  67.775  1.00  0.00    -0.125 NA 
HETATM    7  H1  UNL     1     -10.275   8.389  69.544  1.00  0.00     0.000 HD 
HETATM    8  H2  UNL     1     -12.015   8.014  69.245  1.00  0.00     0.000 HD 
HETATM    9  H   UNL     1      -8.911   6.426  66.995  1.00  0.00     0.000 HD 
ENDROOT
BRANCH   6  10
HETATM   10  N   UNL     1      -8.451   7.665  68.684  1.00  0.00    -0.129 NA 
HETATM   11  H   UNL     1      -8.664   7.787  69.674  1.00  0.00     0.000 HD 
BRANCH  10  12
HETATM   12  C   UNL     1      -7.391   8.125  68.098  1.00  0.00    -0.096 C  
BRANCH  12  13
HETATM   13  C   UNL     1      -7.428   8.772  66.769  1.00  0.00    -0.086 A  
HETATM   14  C   UNL     1      -6.871   8.171  65.625  1.00  0.00    -0.066 A  
HETATM   15  C   UNL     1      -6.991   8.793  64.374  1.00  0.00    -0.085 A  
HETATM   16 CL   UNL     1      -6.070   6.637  65.625  1.00  0.00    -0.036 Cl 
HETATM   17  C   UNL     1      -7.664  10.004  64.245  1.00  0.00    -0.141 A  
HETATM   18  C   UNL     1      -8.210  10.610  65.372  1.00  0.00    -0.125 A  
HETATM   19  C   UNL     1      -8.096  10.001  66.629  1.00  0.00    -0.118 A  
HETATM   20 CL   UNL     1      -8.785  10.856  67.967  1.00  0.00    -0.128 Cl 
ENDBRANCH  12  13
ENDBRANCH  10  12
ENDBRANCH   6  10
TORSDOF 3
ENDMDL
MODEL      251
REMARK 921   NORMALIZED FREE ENERGY PREDICTED BY IDOCK:   -2.05 KCAL/MOL
REMARK 922        TOTAL FREE ENERGY PREDICTED BY IDOCK:   -2.69 KCAL/MOL
REMARK 923 INTER-LIGAND FREE ENERGY PREDICTED BY IDOCK:   -2.46 KCAL/MOL
REMARK 924 INTRA-LIGAND FREE ENERGY PREDICTED BY IDOCK:   -0.24 KCAL/MOL
REMARK 927      BINDING AFFINITY PREDICTED BY RF-SCORE:    0.00 PKD
ROOT
HETATM    1  N   UNL     1     -10.419   8.434  68.503  1.00  0.00    -0.311 NA 
HETATM    2  H2  UNL     1     -11.243   8.667  69.057  1.00  0.00     0.000 HD 
HETATM    3  C   UNL     1     -10.358   7.417  67.616  1.00  0.00    -0.231 C  
HETATM    4  H1  UNL     1      -9.533   8.939  68.546  1.00  0.00     0.000 HD 
HETATM    5  N   UNL     1     -11.534   6.745  67.559  1.00  0.00    -0.688 NA 
HETATM    6  N   UNL     1      -9.304   7.147  66.912  1.00  0.00    -0.148 NA 
HETATM    7  H1  UNL     1     -11.488   5.977  66.890  1.00  0.00     0.000 HD 
HETATM    8  H2  UNL     1     -12.358   6.978  68.114  1.00  0.00     0.000 HD 
HETATM    9  H   UNL     1      -8.412   7.631  67.007  1.00  0.00     0.000 HD 
ENDROOT
BRANCH   6  10
HETATM   10  N   UNL     1      -9.541   6.108  66.004  1.00  0.00    -0.363 NA 
HETATM   11  H   UNL     1     -10.467   5.793  65.714  1.00  0.00     0.000 HD 
BRANCH  10  12
HETATM   12  C   UNL     1      -8.427   5.601  65.582  1.00  0.00    -0.147 C  
BRANCH  12  13
HETATM   13  C   UNL     1      -8.364   4.352  64.793  1.00  0.00    -0.109 A  
HETATM   14  C   UNL     1      -8.195   3.091  65.394  1.00  0.00    -0.091 A  
HETATM   15  C   UNL     1      -8.211   1.929  64.609  1.00  0.00    -0.078 A  
HETATM   16 CL   UNL     1      -8.026   2.841  67.098  1.00  0.00    -0.074 Cl 
HETATM   17  C   UNL     1      -8.396   2.005  63.232  1.00  0.00    -0.073 A  
HETATM   18  C   UNL     1      -8.555   3.248  62.628  1.00  0.00    -0.078 A  
HETATM   19  C   UNL     1      -8.540   4.418  63.400  1.00  0.00    -0.114 A  
HETATM   20 CL   UNL     1      -8.715   5.912  62.542  1.00  0.00     0.047 Cl 
ENDBRANCH  12  13
ENDBRANCH  10  12
ENDBRANCH   6  10
TORSDOF 3
ENDMDL
MODEL      252
REMARK 921   NORMALIZED FREE ENERGY PREDICTED BY IDOCK:   -2.03 KCAL/MOL
REMARK 922        TOTAL FREE ENERGY PREDICTED BY IDOCK:   -2.67 KCAL/MOL
REMARK 923 INTER-LIGAND FREE ENERGY PREDICTED BY IDOCK:   -2.46 KCAL/MOL
REMARK 924 INTRA-LIGAND FREE ENERGY PREDICTED BY IDOCK:   -0.21 KCAL/MOL
REMARK 927      BINDING AFFINITY PREDICTED BY RF-SCORE:    0.00 PKD
ROOT
HETATM    1  N   UNL     1      -8.627   1.860  73.493  1.00  0.00    -0.058 NA 
HETATM    2  H2  UNL     1      -7.882   1.503  74.091  1.00  0.00     0.000 HD 
HETATM    3  C   UNL     1      -8.730   3.144  73.083  1.00  0.00    -0.080 C  
HETATM    4  H1  UNL     1      -9.393   1.294  73.126  1.00  0.00     0.000 HD 
HETATM    5  N   UNL     1      -7.713   3.896  73.571  1.00  0.00    -0.078 NA 
HETATM    6  N   UNL     1      -9.678   3.573  72.312  1.00  0.00    -0.146 NA 
HETATM    7  H1  UNL     1      -7.791   4.865  73.262  1.00  0.00     0.000 HD 
HETATM    8  H2  UNL     1      -6.968   3.539  74.169  1.00  0.00     0.000 HD 
HETATM    9  H   UNL     1     -10.463   3.003  71.998  1.00  0.00     0.000 HD 
ENDROOT
BRANCH   6  10
HETATM   10  N   UNL     1      -9.493   4.915  71.962  1.00  0.00    -0.140 NA 
HETATM   11  H   UNL     1      -8.677   5.471  72.215  1.00  0.00     0.000 HD 
BRANCH  10  12
HETATM   12  C   UNL     1     -10.498   5.355  71.274  1.00  0.00    -0.226 C  
BRANCH  12  13
HETATM   13  C   UNL     1     -10.335   6.170  70.051  1.00  0.00    -0.267 A  
HETATM   14  C   UNL     1     -10.612   7.549  70.024  1.00  0.00    -0.237 A  
HETATM   15  C   UNL     1     -10.376   8.292  68.858  1.00  0.00    -0.230 A  
HETATM   16 CL   UNL     1     -11.185   8.452  71.384  1.00  0.00    -0.298 Cl 
HETATM   17  C   UNL     1      -9.864   7.680  67.718  1.00  0.00    -0.196 A  
HETATM   18  C   UNL     1      -9.595   6.315  67.732  1.00  0.00    -0.118 A  
HETATM   19  C   UNL     1      -9.827   5.560  68.890  1.00  0.00    -0.157 A  
HETATM   20 CL   UNL     1      -9.487   3.866  68.788  1.00  0.00    -0.230 Cl 
ENDBRANCH  12  13
ENDBRANCH  10  12
ENDBRANCH   6  10
TORSDOF 3
ENDMDL
MODEL      253
REMARK 921   NORMALIZED FREE ENERGY PREDICTED BY IDOCK:   -2.01 KCAL/MOL
REMARK 922        TOTAL FREE ENERGY PREDICTED BY IDOCK:   -2.64 KCAL/MOL
REMARK 923 INTER-LIGAND FREE ENERGY PREDICTED BY IDOCK:   -2.38 KCAL/MOL
REMARK 924 INTRA-LIGAND FREE ENERGY PREDICTED BY IDOCK:   -0.27 KCAL/MOL
REMARK 927      BINDING AFFINITY PREDICTED BY RF-SCORE:    0.00 PKD
ROOT
HETATM    1  N   UNL     1      -5.604   6.325  69.363  1.00  0.00    -0.012 NA 
HETATM    2  H2  UNL     1      -5.262   7.179  69.802  1.00  0.00     0.000 HD 
HETATM    3  C   UNL     1      -6.331   5.378  69.996  1.00  0.00    -0.030 C  
HETATM    4  H1  UNL     1      -5.440   6.073  68.388  1.00  0.00     0.000 HD 
HETATM    5  N   UNL     1      -6.547   5.713  71.293  1.00  0.00    -0.043 NA 
HETATM    6  N   UNL     1      -6.766   4.305  69.415  1.00  0.00    -0.043 NA 
HETATM    7  H1  UNL     1      -7.095   4.998  71.771  1.00  0.00     0.000 HD 
HETATM    8  H2  UNL     1      -6.206   6.567  71.732  1.00  0.00     0.000 HD 
HETATM    9  H   UNL     1      -6.549   4.047  68.453  1.00  0.00     0.000 HD 
ENDROOT
BRANCH   6  10
HETATM   10  N   UNL     1      -7.572   3.545  70.269  1.00  0.00    -0.044 NA 
HETATM   11  H   UNL     1      -7.300   3.244  71.205  1.00  0.00     0.000 HD 
BRANCH  10  12
HETATM   12  C   UNL     1      -8.709   3.274  69.712  1.00  0.00    -0.072 C  
BRANCH  12  13
HETATM   13  C   UNL     1      -9.634   4.323  69.230  1.00  0.00    -0.261 A  
HETATM   14  C   UNL     1     -10.389   5.121  70.108  1.00  0.00    -0.270 A  
HETATM   15  C   UNL     1     -11.200   6.149  69.605  1.00  0.00    -0.488 A  
HETATM   16 CL   UNL     1     -10.349   4.974  71.832  1.00  0.00    -0.269 Cl 
HETATM   17  C   UNL     1     -11.267   6.395  68.237  1.00  0.00    -0.276 A  
HETATM   18  C   UNL     1     -10.531   5.605  67.360  1.00  0.00    -0.306 A  
HETATM   19  C   UNL     1      -9.717   4.574  67.849  1.00  0.00    -0.139 A  
HETATM   20 CL   UNL     1      -8.869   3.634  66.668  1.00  0.00    -0.122 Cl 
ENDBRANCH  12  13
ENDBRANCH  10  12
ENDBRANCH   6  10
TORSDOF 3
ENDMDL
MODEL      254
REMARK 921   NORMALIZED FREE ENERGY PREDICTED BY IDOCK:   -1.96 KCAL/MOL
REMARK 922        TOTAL FREE ENERGY PREDICTED BY IDOCK:   -2.58 KCAL/MOL
REMARK 923 INTER-LIGAND FREE ENERGY PREDICTED BY IDOCK:   -2.41 KCAL/MOL
REMARK 924 INTRA-LIGAND FREE ENERGY PREDICTED BY IDOCK:   -0.17 KCAL/MOL
REMARK 927      BINDING AFFINITY PREDICTED BY RF-SCORE:    0.00 PKD
ROOT
HETATM    1  N   UNL     1      -8.424   8.027  66.260  1.00  0.00    -0.126 NA 
HETATM    2  H2  UNL     1      -8.258   8.824  65.645  1.00  0.00     0.000 HD 
HETATM    3  C   UNL     1      -7.645   7.700  67.314  1.00  0.00    -0.108 C  
HETATM    4  H1  UNL     1      -9.201   7.373  66.158  1.00  0.00     0.000 HD 
HETATM    5  N   UNL     1      -6.613   8.569  67.448  1.00  0.00    -0.058 NA 
HETATM    6  N   UNL     1      -7.882   6.690  68.090  1.00  0.00    -0.108 NA 
HETATM    7  H1  UNL     1      -6.024   8.321  68.243  1.00  0.00     0.000 HD 
HETATM    8  H2  UNL     1      -6.447   9.365  66.834  1.00  0.00     0.000 HD 
HETATM    9  H   UNL     1      -8.634   6.018  67.941  1.00  0.00     0.000 HD 
ENDROOT
BRANCH   6  10
HETATM   10  N   UNL     1      -6.980   6.635  69.158  1.00  0.00    -0.075 NA 
HETATM   11  H   UNL     1      -5.984   6.840  69.085  1.00  0.00     0.000 HD 
BRANCH  10  12
HETATM   12  C   UNL     1      -7.580   6.289  70.252  1.00  0.00    -0.096 C  
BRANCH  12  13
HETATM   13  C   UNL     1      -8.820   6.942  70.726  1.00  0.00    -0.150 A  
HETATM   14  C   UNL     1     -10.094   6.389  70.500  1.00  0.00    -0.186 A  
HETATM   15  C   UNL     1     -11.235   7.010  71.029  1.00  0.00    -0.309 A  
HETATM   16 CL   UNL     1     -10.375   4.913  69.641  1.00  0.00    -0.272 Cl 
HETATM   17  C   UNL     1     -11.124   8.173  71.784  1.00  0.00    -0.329 A  
HETATM   18  C   UNL     1      -9.869   8.732  72.005  1.00  0.00    -0.376 A  
HETATM   19  C   UNL     1      -8.721   8.123  71.482  1.00  0.00    -0.146 A  
HETATM   20 CL   UNL     1      -7.215   8.919  71.791  1.00  0.00    -0.070 Cl 
ENDBRANCH  12  13
ENDBRANCH  10  12
ENDBRANCH   6  10
TORSDOF 3
ENDMDL
MODEL      255
REMARK 921   NORMALIZED FREE ENERGY PREDICTED BY IDOCK:   -1.94 KCAL/MOL
REMARK 922        TOTAL FREE ENERGY PREDICTED BY IDOCK:   -2.56 KCAL/MOL
REMARK 923 INTER-LIGAND FREE ENERGY PREDICTED BY IDOCK:   -2.26 KCAL/MOL
REMARK 924 INTRA-LIGAND FREE ENERGY PREDICTED BY IDOCK:   -0.30 KCAL/MOL
REMARK 927      BINDING AFFINITY PREDICTED BY RF-SCORE:    0.00 PKD
ROOT
HETATM    1  N   UNL     1      -9.520   1.818  72.732  1.00  0.00    -0.077 NA 
HETATM    2  H2  UNL     1      -9.177   1.060  73.321  1.00  0.00     0.000 HD 
HETATM    3  C   UNL     1      -8.960   3.046  72.663  1.00  0.00    -0.087 C  
HETATM    4  H1  UNL     1     -10.331   1.749  72.117  1.00  0.00     0.000 HD 
HETATM    5  N   UNL     1      -7.881   3.139  73.480  1.00  0.00    -0.067 NA 
HETATM    6  N   UNL     1      -9.404   3.991  71.897  1.00  0.00    -0.126 NA 
HETATM    7  H1  UNL     1      -7.459   4.066  73.429  1.00  0.00     0.000 HD 
HETATM    8  H2  UNL     1      -7.538   2.381  74.070  1.00  0.00     0.000 HD 
HETATM    9  H   UNL     1     -10.248   3.919  71.329  1.00  0.00     0.000 HD 
ENDROOT
BRANCH   6  10
HETATM   10  N   UNL     1      -8.585   5.124  71.945  1.00  0.00    -0.128 NA 
HETATM   11  H   UNL     1      -8.076   5.436  72.772  1.00  0.00     0.000 HD 
BRANCH  10  12
HETATM   12  C   UNL     1      -8.560   5.725  70.797  1.00  0.00    -0.129 C  
BRANCH  12  13
HETATM   13  C   UNL     1      -9.081   7.094  70.599  1.00  0.00    -0.158 A  
HETATM   14  C   UNL     1     -10.428   7.348  70.280  1.00  0.00    -0.221 A  
HETATM   15  C   UNL     1     -10.889   8.667  70.170  1.00  0.00    -0.242 A  
HETATM   16 CL   UNL     1     -11.624   6.116  70.067  1.00  0.00    -0.391 Cl 
HETATM   17  C   UNL     1     -10.027   9.740  70.375  1.00  0.00    -0.294 A  
HETATM   18  C   UNL     1      -8.691   9.500  70.682  1.00  0.00    -0.189 A  
HETATM   19  C   UNL     1      -8.217   8.185  70.794  1.00  0.00    -0.111 A  
HETATM   20 CL   UNL     1      -6.532   8.001  71.148  1.00  0.00    -0.037 Cl 
ENDBRANCH  12  13
ENDBRANCH  10  12
ENDBRANCH   6  10
TORSDOF 3
ENDMDL
MODEL      256
REMARK 921   NORMALIZED FREE ENERGY PREDICTED BY IDOCK:   -1.90 KCAL/MOL
REMARK 922        TOTAL FREE ENERGY PREDICTED BY IDOCK:   -2.52 KCAL/MOL
REMARK 923 INTER-LIGAND FREE ENERGY PREDICTED BY IDOCK:   -2.27 KCAL/MOL
REMARK 924 INTRA-LIGAND FREE ENERGY PREDICTED BY IDOCK:   -0.25 KCAL/MOL
REMARK 927      BINDING AFFINITY PREDICTED BY RF-SCORE:    0.00 PKD
ROOT
HETATM    1  N   UNL     1      -5.822  10.049  65.670  1.00  0.00    -0.067 NA 
HETATM    2  H2  UNL     1      -6.156  10.257  64.729  1.00  0.00     0.000 HD 
HETATM    3  C   UNL     1      -6.540   9.393  66.608  1.00  0.00    -0.068 C  
HETATM    4  H1  UNL     1      -4.902  10.309  66.025  1.00  0.00     0.000 HD 
HETATM    5  N   UNL     1      -7.763   9.047  66.136  1.00  0.00    -0.098 NA 
HETATM    6  N   UNL     1      -6.089   9.127  67.793  1.00  0.00    -0.050 NA 
HETATM    7  H1  UNL     1      -8.305   8.553  66.845  1.00  0.00     0.000 HD 
HETATM    8  H2  UNL     1      -8.097   9.256  65.196  1.00  0.00     0.000 HD 
HETATM    9  H   UNL     1      -5.186   9.441  68.147  1.00  0.00     0.000 HD 
ENDROOT
BRANCH   6  10
HETATM   10  N   UNL     1      -6.995   8.356  68.530  1.00  0.00    -0.067 NA 
HETATM   11  H   UNL     1      -7.422   7.490  68.198  1.00  0.00     0.000 HD 
BRANCH  10  12
HETATM   12  C   UNL     1      -7.220   8.888  69.688  1.00  0.00    -0.055 C  
BRANCH  12  13
HETATM   13  C   UNL     1      -8.574   8.987  70.275  1.00  0.00    -0.193 A  
HETATM   14  C   UNL     1      -9.565   9.831  69.742  1.00  0.00    -0.230 A  
HETATM   15  C   UNL     1     -10.855   9.838  70.293  1.00  0.00    -0.356 A  
HETATM   16 CL   UNL     1      -9.331  10.858  68.369  1.00  0.00    -0.165 Cl 
HETATM   17  C   UNL     1     -11.173   9.012  71.366  1.00  0.00    -0.394 A  
HETATM   18  C   UNL     1     -10.197   8.179  71.905  1.00  0.00    -0.289 A  
HETATM   19  C   UNL     1      -8.904   8.163  71.366  1.00  0.00    -0.149 A  
HETATM   20 CL   UNL     1      -7.761   7.114  72.134  1.00  0.00    -0.090 Cl 
ENDBRANCH  12  13
ENDBRANCH  10  12
ENDBRANCH   6  10
TORSDOF 3
ENDMDL
MODEL      257
REMARK 921   NORMALIZED FREE ENERGY PREDICTED BY IDOCK:   -1.84 KCAL/MOL
REMARK 922        TOTAL FREE ENERGY PREDICTED BY IDOCK:   -2.45 KCAL/MOL
REMARK 923 INTER-LIGAND FREE ENERGY PREDICTED BY IDOCK:   -2.14 KCAL/MOL
REMARK 924 INTRA-LIGAND FREE ENERGY PREDICTED BY IDOCK:   -0.31 KCAL/MOL
REMARK 927      BINDING AFFINITY PREDICTED BY RF-SCORE:    0.00 PKD
ROOT
HETATM    1  N   UNL     1     -10.315   8.988  68.974  1.00  0.00    -0.215 NA 
HETATM    2  H2  UNL     1     -11.240   9.360  69.186  1.00  0.00     0.000 HD 
HETATM    3  C   UNL     1     -10.077   7.974  68.113  1.00  0.00    -0.197 C  
HETATM    4  H1  UNL     1      -9.447   9.334  69.385  1.00  0.00     0.000 HD 
HETATM    5  N   UNL     1     -11.230   7.515  67.567  1.00  0.00    -0.458 NA 
HETATM    6  N   UNL     1      -8.891   7.527  67.848  1.00  0.00    -0.126 NA 
HETATM    7  H1  UNL     1     -11.051   6.750  66.918  1.00  0.00     0.000 HD 
HETATM    8  H2  UNL     1     -12.156   7.886  67.780  1.00  0.00     0.000 HD 
HETATM    9  H   UNL     1      -8.040   7.852  68.307  1.00  0.00     0.000 HD 
ENDROOT
BRANCH   6  10
HETATM   10  N   UNL     1      -8.919   6.544  66.852  1.00  0.00    -0.122 NA 
HETATM   11  H   UNL     1      -9.605   6.504  66.099  1.00  0.00     0.000 HD 
BRANCH  10  12
HETATM   12  C   UNL     1      -7.957   5.693  67.016  1.00  0.00    -0.102 C  
BRANCH  12  13
HETATM   13  C   UNL     1      -8.158   4.231  66.926  1.00  0.00    -0.101 A  
HETATM   14  C   UNL     1      -8.739   3.486  67.969  1.00  0.00    -0.107 A  
HETATM   15  C   UNL     1      -8.971   2.112  67.808  1.00  0.00    -0.190 A  
HETATM   16 CL   UNL     1      -9.269   4.165  69.470  1.00  0.00    -0.194 Cl 
HETATM   17  C   UNL     1      -8.636   1.470  66.621  1.00  0.00    -0.104 A  
HETATM   18  C   UNL     1      -8.053   2.196  65.587  1.00  0.00    -0.084 A  
HETATM   19  C   UNL     1      -7.813   3.570  65.734  1.00  0.00    -0.089 A  
HETATM   20 CL   UNL     1      -7.056   4.369  64.399  1.00  0.00    -0.050 Cl 
ENDBRANCH  12  13
ENDBRANCH  10  12
ENDBRANCH   6  10
TORSDOF 3
ENDMDL
MODEL      258
REMARK 921   NORMALIZED FREE ENERGY PREDICTED BY IDOCK:   -1.84 KCAL/MOL
REMARK 922        TOTAL FREE ENERGY PREDICTED BY IDOCK:   -2.44 KCAL/MOL
REMARK 923 INTER-LIGAND FREE ENERGY PREDICTED BY IDOCK:   -2.18 KCAL/MOL
REMARK 924 INTRA-LIGAND FREE ENERGY PREDICTED BY IDOCK:   -0.26 KCAL/MOL
REMARK 927      BINDING AFFINITY PREDICTED BY RF-SCORE:    0.00 PKD
ROOT
HETATM    1  N   UNL     1     -11.255   6.576  72.081  1.00  0.00    -0.258 NA 
HETATM    2  H2  UNL     1     -11.355   6.663  73.092  1.00  0.00     0.000 HD 
HETATM    3  C   UNL     1     -10.659   5.535  71.459  1.00  0.00    -0.237 C  
HETATM    4  H1  UNL     1     -11.591   7.264  71.407  1.00  0.00     0.000 HD 
HETATM    5  N   UNL     1     -10.211   4.621  72.355  1.00  0.00    -0.185 NA 
HETATM    6  N   UNL     1     -10.555   5.438  70.171  1.00  0.00    -0.296 NA 
HETATM    7  H1  UNL     1      -9.760   3.836  71.885  1.00  0.00     0.000 HD 
HETATM    8  H2  UNL     1     -10.311   4.708  73.366  1.00  0.00     0.000 HD 
HETATM    9  H   UNL     1     -10.852   6.161  69.517  1.00  0.00     0.000 HD 
ENDROOT
BRANCH   6  10
HETATM   10  N   UNL     1      -9.984   4.219  69.789  1.00  0.00    -0.186 NA 
HETATM   11  H   UNL     1      -9.960   3.383  70.373  1.00  0.00     0.000 HD 
BRANCH  10  12
HETATM   12  C   UNL     1      -9.490   4.295  68.594  1.00  0.00    -0.157 C  
BRANCH  12  13
HETATM   13  C   UNL     1      -8.582   5.383  68.171  1.00  0.00    -0.096 A  
HETATM   14  C   UNL     1      -7.248   5.461  68.608  1.00  0.00    -0.066 A  
HETATM   15  C   UNL     1      -6.406   6.473  68.124  1.00  0.00    -0.040 A  
HETATM   16 CL   UNL     1      -6.511   4.328  69.689  1.00  0.00    -0.032 Cl 
HETATM   17  C   UNL     1      -6.875   7.408  67.207  1.00  0.00    -0.078 A  
HETATM   18  C   UNL     1      -8.197   7.344  66.775  1.00  0.00    -0.121 A  
HETATM   19  C   UNL     1      -9.049   6.338  67.251  1.00  0.00    -0.116 A  
HETATM   20 CL   UNL     1     -10.680   6.372  66.673  1.00  0.00    -0.312 Cl 
ENDBRANCH  12  13
ENDBRANCH  10  12
ENDBRANCH   6  10
TORSDOF 3
ENDMDL
MODEL      259
REMARK 921   NORMALIZED FREE ENERGY PREDICTED BY IDOCK:   -1.80 KCAL/MOL
REMARK 922        TOTAL FREE ENERGY PREDICTED BY IDOCK:   -2.40 KCAL/MOL
REMARK 923 INTER-LIGAND FREE ENERGY PREDICTED BY IDOCK:   -2.13 KCAL/MOL
REMARK 924 INTRA-LIGAND FREE ENERGY PREDICTED BY IDOCK:   -0.27 KCAL/MOL
REMARK 927      BINDING AFFINITY PREDICTED BY RF-SCORE:    0.00 PKD
ROOT
HETATM    1  N   UNL     1      -9.330   9.716  66.232  1.00  0.00    -0.172 NA 
HETATM    2  H2  UNL     1      -9.361   8.767  66.604  1.00  0.00     0.000 HD 
HETATM    3  C   UNL     1      -9.279  10.833  66.992  1.00  0.00    -0.152 C  
HETATM    4  H1  UNL     1      -9.335   9.947  65.238  1.00  0.00     0.000 HD 
HETATM    5  N   UNL     1      -9.274  10.526  68.313  1.00  0.00    -0.147 NA 
HETATM    6  N   UNL     1      -9.228  12.029  66.499  1.00  0.00    -0.214 NA 
HETATM    7  H1  UNL     1      -9.236  11.369  68.886  1.00  0.00     0.000 HD 
HETATM    8  H2  UNL     1      -9.304   9.577  68.684  1.00  0.00     0.000 HD 
HETATM    9  H   UNL     1      -9.285  12.241  65.503  1.00  0.00     0.000 HD 
ENDROOT
BRANCH   6  10
HETATM   10  N   UNL     1      -9.083  12.996  67.500  1.00  0.00    -0.181 NA 
HETATM   11  H   UNL     1      -9.621  13.016  68.366  1.00  0.00     0.000 HD 
BRANCH  10  12
HETATM   12  C   UNL     1      -8.175  13.861  67.179  1.00  0.00    -0.109 C  
BRANCH  12  13
HETATM   13  C   UNL     1      -7.469  14.690  68.180  1.00  0.00    -0.125 A  
HETATM   14  C   UNL     1      -6.488  14.160  69.038  1.00  0.00    -0.099 A  
HETATM   15  C   UNL     1      -5.798  15.001  69.923  1.00  0.00    -0.128 A  
HETATM   16 CL   UNL     1      -6.000  12.500  69.047  1.00  0.00    -0.070 Cl 
HETATM   17  C   UNL     1      -6.070  16.365  69.963  1.00  0.00    -0.151 A  
HETATM   18  C   UNL     1      -7.044  16.897  69.124  1.00  0.00    -0.224 A  
HETATM   19  C   UNL     1      -7.742  16.068  68.236  1.00  0.00    -0.142 A  
HETATM   20 CL   UNL     1      -8.954  16.829  67.261  1.00  0.00    -0.216 Cl 
ENDBRANCH  12  13
ENDBRANCH  10  12
ENDBRANCH   6  10
TORSDOF 3
ENDMDL
MODEL      260
REMARK 921   NORMALIZED FREE ENERGY PREDICTED BY IDOCK:   -1.73 KCAL/MOL
REMARK 922        TOTAL FREE ENERGY PREDICTED BY IDOCK:   -2.32 KCAL/MOL
REMARK 923 INTER-LIGAND FREE ENERGY PREDICTED BY IDOCK:   -2.64 KCAL/MOL
REMARK 924 INTRA-LIGAND FREE ENERGY PREDICTED BY IDOCK:    0.32 KCAL/MOL
REMARK 927      BINDING AFFINITY PREDICTED BY RF-SCORE:    0.00 PKD
ROOT
HETATM    1  N   UNL     1      -6.551   8.871  69.483  1.00  0.00    -0.043 NA 
HETATM    2  H2  UNL     1      -5.629   8.989  69.903  1.00  0.00     0.000 HD 
HETATM    3  C   UNL     1      -7.273   7.730  69.533  1.00  0.00    -0.079 C  
HETATM    4  H1  UNL     1      -7.047   9.599  68.968  1.00  0.00     0.000 HD 
HETATM    5  N   UNL     1      -6.613   6.762  70.216  1.00  0.00    -0.043 NA 
HETATM    6  N   UNL     1      -8.448   7.606  69.002  1.00  0.00    -0.132 NA 
HETATM    7  H1  UNL     1      -7.158   5.901  70.254  1.00  0.00     0.000 HD 
HETATM    8  H2  UNL     1      -5.692   6.881  70.637  1.00  0.00     0.000 HD 
HETATM    9  H   UNL     1      -8.905   8.329  68.448  1.00  0.00     0.000 HD 
ENDROOT
BRANCH   6  10
HETATM   10  N   UNL     1      -9.014   6.358  69.284  1.00  0.00    -0.133 NA 
HETATM   11  H   UNL     1      -8.739   5.484  68.835  1.00  0.00     0.000 HD 
BRANCH  10  12
HETATM   12  C   UNL     1      -9.933   6.461  70.190  1.00  0.00    -0.171 C  
BRANCH  12  13
HETATM   13  C   UNL     1     -10.201   5.398  71.183  1.00  0.00    -0.287 A  
HETATM   14  C   UNL     1      -9.644   4.111  71.075  1.00  0.00    -0.183 A  
HETATM   15  C   UNL     1      -9.873   3.158  72.079  1.00  0.00    -0.241 A  
HETATM   16 CL   UNL     1      -8.606   3.606  69.786  1.00  0.00    -0.102 Cl 
HETATM   17  C   UNL     1     -10.648   3.472  73.191  1.00  0.00    -0.269 A  
HETATM   18  C   UNL     1     -11.210   4.740  73.302  1.00  0.00    -0.421 A  
HETATM   19  C   UNL     1     -10.991   5.701  72.306  1.00  0.00    -0.258 A  
HETATM   20 CL   UNL     1     -11.763   7.234  72.529  1.00  0.00    -0.276 Cl 
ENDBRANCH  12  13
ENDBRANCH  10  12
ENDBRANCH   6  10
TORSDOF 3
ENDMDL
MODEL      261
REMARK 921   NORMALIZED FREE ENERGY PREDICTED BY IDOCK:   -1.72 KCAL/MOL
REMARK 922        TOTAL FREE ENERGY PREDICTED BY IDOCK:   -2.31 KCAL/MOL
REMARK 923 INTER-LIGAND FREE ENERGY PREDICTED BY IDOCK:   -2.14 KCAL/MOL
REMARK 924 INTRA-LIGAND FREE ENERGY PREDICTED BY IDOCK:   -0.18 KCAL/MOL
REMARK 927      BINDING AFFINITY PREDICTED BY RF-SCORE:    0.00 PKD
ROOT
HETATM    1  N   UNL     1      -6.744   6.769  74.538  1.00  0.00    -0.091 NA 
HETATM    2  H2  UNL     1      -6.988   6.883  75.522  1.00  0.00     0.000 HD 
HETATM    3  C   UNL     1      -7.526   7.158  73.507  1.00  0.00    -0.078 C  
HETATM    4  H1  UNL     1      -5.878   6.346  74.204  1.00  0.00     0.000 HD 
HETATM    5  N   UNL     1      -8.678   7.720  73.951  1.00  0.00    -0.248 NA 
HETATM    6  N   UNL     1      -7.191   7.016  72.264  1.00  0.00    -0.073 NA 
HETATM    7  H1  UNL     1      -9.268   8.014  73.173  1.00  0.00     0.000 HD 
HETATM    8  H2  UNL     1      -8.921   7.834  74.935  1.00  0.00     0.000 HD 
HETATM    9  H   UNL     1      -6.343   6.544  71.950  1.00  0.00     0.000 HD 
ENDROOT
BRANCH   6  10
HETATM   10  N   UNL     1      -8.134   7.591  71.405  1.00  0.00    -0.095 NA 
HETATM   11  H   UNL     1      -9.048   7.936  71.697  1.00  0.00     0.000 HD 
BRANCH  10  12
HETATM   12  C   UNL     1      -7.690   7.625  70.189  1.00  0.00    -0.091 C  
BRANCH  12  13
HETATM   13  C   UNL     1      -8.557   7.394  69.013  1.00  0.00    -0.133 A  
HETATM   14  C   UNL     1      -8.503   6.206  68.261  1.00  0.00    -0.113 A  
HETATM   15  C   UNL     1      -9.393   6.005  67.196  1.00  0.00    -0.121 A  
HETATM   16 CL   UNL     1      -7.425   4.893  68.593  1.00  0.00    -0.069 Cl 
HETATM   17  C   UNL     1     -10.342   6.971  66.873  1.00  0.00    -0.338 A  
HETATM   18  C   UNL     1     -10.398   8.152  67.606  1.00  0.00    -0.313 A  
HETATM   19  C   UNL     1      -9.512   8.367  68.672  1.00  0.00    -0.147 A  
HETATM   20 CL   UNL     1      -9.649   9.883  69.495  1.00  0.00    -0.226 Cl 
ENDBRANCH  12  13
ENDBRANCH  10  12
ENDBRANCH   6  10
TORSDOF 3
ENDMDL
MODEL      262
REMARK 921   NORMALIZED FREE ENERGY PREDICTED BY IDOCK:   -1.70 KCAL/MOL
REMARK 922        TOTAL FREE ENERGY PREDICTED BY IDOCK:   -2.28 KCAL/MOL
REMARK 923 INTER-LIGAND FREE ENERGY PREDICTED BY IDOCK:   -2.09 KCAL/MOL
REMARK 924 INTRA-LIGAND FREE ENERGY PREDICTED BY IDOCK:   -0.19 KCAL/MOL
REMARK 927      BINDING AFFINITY PREDICTED BY RF-SCORE:    0.00 PKD
ROOT
HETATM    1  N   UNL     1      -5.758   6.942  71.792  1.00  0.00    -0.036 NA 
HETATM    2  H2  UNL     1      -4.919   7.111  72.346  1.00  0.00     0.000 HD 
HETATM    3  C   UNL     1      -6.147   7.698  70.742  1.00  0.00    -0.034 C  
HETATM    4  H1  UNL     1      -6.415   6.179  71.959  1.00  0.00     0.000 HD 
HETATM    5  N   UNL     1      -5.274   8.712  70.521  1.00  0.00    -0.021 NA 
HETATM    6  N   UNL     1      -7.210   7.457  70.044  1.00  0.00    -0.072 NA 
HETATM    7  H1  UNL     1      -5.568   9.284  69.728  1.00  0.00     0.000 HD 
HETATM    8  H2  UNL     1      -4.435   8.882  71.074  1.00  0.00     0.000 HD 
HETATM    9  H   UNL     1      -7.882   6.720  70.258  1.00  0.00     0.000 HD 
ENDROOT
BRANCH   6  10
HETATM   10  N   UNL     1      -7.326   8.332  68.958  1.00  0.00    -0.086 NA 
HETATM   11  H   UNL     1      -6.552   8.611  68.355  1.00  0.00     0.000 HD 
BRANCH  10  12
HETATM   12  C   UNL     1      -8.547   8.739  68.820  1.00  0.00    -0.137 C  
BRANCH  12  13
HETATM   13  C   UNL     1      -8.961   9.690  67.766  1.00  0.00    -0.122 A  
HETATM   14  C   UNL     1      -8.474  11.008  67.711  1.00  0.00    -0.122 A  
HETATM   15  C   UNL     1      -8.842  11.851  66.652  1.00  0.00    -0.191 A  
HETATM   16 CL   UNL     1      -7.363  11.684  68.854  1.00  0.00    -0.117 Cl 
HETATM   17  C   UNL     1      -9.687  11.397  65.644  1.00  0.00    -0.263 A  
HETATM   18  C   UNL     1     -10.181  10.097  65.695  1.00  0.00    -0.288 A  
HETATM   19  C   UNL     1      -9.822   9.244  66.748  1.00  0.00    -0.225 A  
HETATM   20 CL   UNL     1     -10.518   7.660  66.729  1.00  0.00    -0.373 Cl 
ENDBRANCH  12  13
ENDBRANCH  10  12
ENDBRANCH   6  10
TORSDOF 3
ENDMDL
MODEL      263
REMARK 921   NORMALIZED FREE ENERGY PREDICTED BY IDOCK:   -1.16 KCAL/MOL
REMARK 922        TOTAL FREE ENERGY PREDICTED BY IDOCK:   -1.65 KCAL/MOL
REMARK 923 INTER-LIGAND FREE ENERGY PREDICTED BY IDOCK:   -1.46 KCAL/MOL
REMARK 924 INTRA-LIGAND FREE ENERGY PREDICTED BY IDOCK:   -0.19 KCAL/MOL
REMARK 927      BINDING AFFINITY PREDICTED BY RF-SCORE:    0.00 PKD
ROOT
HETATM    1  N   UNL     1      -6.642   8.409  67.518  1.00  0.00    -0.058 NA 
HETATM    2  H2  UNL     1      -6.545   8.154  66.536  1.00  0.00     0.000 HD 
HETATM    3  C   UNL     1      -6.652   7.524  68.540  1.00  0.00    -0.049 C  
HETATM    4  H1  UNL     1      -6.745   9.365  67.858  1.00  0.00     0.000 HD 
HETATM    5  N   UNL     1      -6.515   6.253  68.088  1.00  0.00    -0.047 NA 
HETATM    6  N   UNL     1      -6.763   7.871  69.783  1.00  0.00    -0.037 NA 
HETATM    7  H1  UNL     1      -6.524   5.585  68.859  1.00  0.00     0.000 HD 
HETATM    8  H2  UNL     1      -6.418   5.999  67.105  1.00  0.00     0.000 HD 
HETATM    9  H   UNL     1      -6.917   8.828  70.099  1.00  0.00     0.000 HD 
ENDROOT
BRANCH   6  10
HETATM   10  N   UNL     1      -6.646   6.771  70.639  1.00  0.00    -0.051 NA 
HETATM   11  H   UNL     1      -6.360   5.837  70.346  1.00  0.00     0.000 HD 
BRANCH  10  12
HETATM   12  C   UNL     1      -6.951   7.098  71.855  1.00  0.00    -0.060 C  
BRANCH  12  13
HETATM   13  C   UNL     1      -7.844   6.280  72.704  1.00  0.00    -0.105 A  
HETATM   14  C   UNL     1      -7.501   4.980  73.121  1.00  0.00    -0.088 A  
HETATM   15  C   UNL     1      -8.351   4.270  73.982  1.00  0.00    -0.095 A  
HETATM   16 CL   UNL     1      -6.030   4.178  72.691  1.00  0.00    -0.014 Cl 
HETATM   17  C   UNL     1      -9.536   4.839  74.438  1.00  0.00    -0.139 A  
HETATM   18  C   UNL     1      -9.887   6.120  74.024  1.00  0.00    -0.231 A  
HETATM   19  C   UNL     1      -9.048   6.840  73.162  1.00  0.00    -0.127 A  
HETATM   20 CL   UNL     1      -9.597   8.412  72.686  1.00  0.00    -0.353 Cl 
ENDBRANCH  12  13
ENDBRANCH  10  12
ENDBRANCH   6  10
TORSDOF 3
ENDMDL
MODEL      264
REMARK 921   NORMALIZED FREE ENERGY PREDICTED BY IDOCK:   -1.12 KCAL/MOL
REMARK 922        TOTAL FREE ENERGY PREDICTED BY IDOCK:   -1.60 KCAL/MOL
REMARK 923 INTER-LIGAND FREE ENERGY PREDICTED BY IDOCK:   -1.49 KCAL/MOL
REMARK 924 INTRA-LIGAND FREE ENERGY PREDICTED BY IDOCK:   -0.11 KCAL/MOL
REMARK 927      BINDING AFFINITY PREDICTED BY RF-SCORE:    0.00 PKD
ROOT
HETATM    1  N   UNL     1      -8.055   9.382  66.682  1.00  0.00    -0.108 NA 
HETATM    2  H2  UNL     1      -8.770   9.793  67.281  1.00  0.00     0.000 HD 
HETATM    3  C   UNL     1      -8.221   8.255  65.956  1.00  0.00    -0.119 C  
HETATM    4  H1  UNL     1      -7.119   9.769  66.554  1.00  0.00     0.000 HD 
HETATM    5  N   UNL     1      -9.465   7.742  66.127  1.00  0.00    -0.388 NA 
HETATM    6  N   UNL     1      -7.302   7.758  65.190  1.00  0.00    -0.068 NA 
HETATM    7  H1  UNL     1      -9.590   6.891  65.579  1.00  0.00     0.000 HD 
HETATM    8  H2  UNL     1     -10.180   8.153  66.726  1.00  0.00     0.000 HD 
HETATM    9  H   UNL     1      -6.356   8.131  65.115  1.00  0.00     0.000 HD 
ENDROOT
BRANCH   6  10
HETATM   10  N   UNL     1      -7.767   6.647  64.478  1.00  0.00    -0.106 NA 
HETATM   11  H   UNL     1      -8.436   6.691  63.709  1.00  0.00     0.000 HD 
BRANCH  10  12
HETATM   12  C   UNL     1      -7.236   5.555  64.927  1.00  0.00    -0.062 C  
BRANCH  12  13
HETATM   13  C   UNL     1      -8.009   4.310  65.124  1.00  0.00    -0.097 A  
HETATM   14  C   UNL     1      -8.672   3.662  64.067  1.00  0.00    -0.095 A  
HETATM   15  C   UNL     1      -9.335   2.446  64.290  1.00  0.00    -0.130 A  
HETATM   16 CL   UNL     1      -8.684   4.231  62.432  1.00  0.00    -0.092 Cl 
HETATM   17  C   UNL     1      -9.344   1.865  65.555  1.00  0.00     0.060 A  
HETATM   18  C   UNL     1      -8.699   2.503  66.609  1.00  0.00    -0.130 A  
HETATM   19  C   UNL     1      -8.033   3.719  66.400  1.00  0.00    -0.089 A  
HETATM   20 CL   UNL     1      -7.291   4.442  67.787  1.00  0.00    -0.068 Cl 
ENDBRANCH  12  13
ENDBRANCH  10  12
ENDBRANCH   6  10
TORSDOF 3
ENDMDL
MODEL      265
REMARK 921   NORMALIZED FREE ENERGY PREDICTED BY IDOCK:   -0.74 KCAL/MOL
REMARK 922        TOTAL FREE ENERGY PREDICTED BY IDOCK:   -1.16 KCAL/MOL
REMARK 923 INTER-LIGAND FREE ENERGY PREDICTED BY IDOCK:   -2.01 KCAL/MOL
REMARK 924 INTRA-LIGAND FREE ENERGY PREDICTED BY IDOCK:    0.85 KCAL/MOL
REMARK 927      BINDING AFFINITY PREDICTED BY RF-SCORE:    0.00 PKD
ROOT
HETATM    1  N   UNL     1      -9.521  10.005  66.489  1.00  0.00    -0.168 NA 
HETATM    2  H2  UNL     1     -10.330   9.917  65.875  1.00  0.00     0.000 HD 
HETATM    3  C   UNL     1      -9.588  10.067  67.837  1.00  0.00    -0.145 C  
HETATM    4  H1  UNL     1      -8.554  10.058  66.165  1.00  0.00     0.000 HD 
HETATM    5  N   UNL     1     -10.872   9.997  68.267  1.00  0.00    -0.288 NA 
HETATM    6  N   UNL     1      -8.545  10.165  68.599  1.00  0.00    -0.118 NA 
HETATM    7  H1  UNL     1     -10.923  10.044  69.285  1.00  0.00     0.000 HD 
HETATM    8  H2  UNL     1     -11.681   9.909  67.653  1.00  0.00     0.000 HD 
HETATM    9  H   UNL     1      -7.591  10.269  68.255  1.00  0.00     0.000 HD 
ENDROOT
BRANCH   6  10
HETATM   10  N   UNL     1      -8.888  10.112  69.955  1.00  0.00    -0.373 NA 
HETATM   11  H   UNL     1      -9.004  10.928  70.555  1.00  0.00     0.000 HD 
BRANCH  10  12
HETATM   12  C   UNL     1      -9.038   8.886  70.345  1.00  0.00    -0.190 C  
BRANCH  12  13
HETATM   13  C   UNL     1      -8.356   8.336  71.536  1.00  0.00    -0.174 A  
HETATM   14  C   UNL     1      -8.883   7.261  72.275  1.00  0.00    -0.127 A  
HETATM   15  C   UNL     1      -8.165   6.730  73.356  1.00  0.00    -0.124 A  
HETATM   16 CL   UNL     1     -10.377   6.468  71.907  1.00  0.00    -0.219 Cl 
HETATM   17  C   UNL     1      -6.924   7.253  73.709  1.00  0.00    -0.085 A  
HETATM   18  C   UNL     1      -6.399   8.321  72.990  1.00  0.00    -0.096 A  
HETATM   19  C   UNL     1      -7.107   8.863  71.908  1.00  0.00     0.035 A  
HETATM   20 CL   UNL     1      -6.375  10.209  71.103  1.00  0.00     0.065 Cl 
ENDBRANCH  12  13
ENDBRANCH  10  12
ENDBRANCH   6  10
TORSDOF 3
ENDMDL
MODEL      266
REMARK 921   NORMALIZED FREE ENERGY PREDICTED BY IDOCK:   -0.37 KCAL/MOL
REMARK 922        TOTAL FREE ENERGY PREDICTED BY IDOCK:   -0.72 KCAL/MOL
REMARK 923 INTER-LIGAND FREE ENERGY PREDICTED BY IDOCK:   -3.29 KCAL/MOL
REMARK 924 INTRA-LIGAND FREE ENERGY PREDICTED BY IDOCK:    2.57 KCAL/MOL
REMARK 927      BINDING AFFINITY PREDICTED BY RF-SCORE:    0.00 PKD
ROOT
HETATM    1  N   UNL     1     -11.524  12.745  64.806  1.00  0.00    -0.305 NA 
HETATM    2  H2  UNL     1     -12.538  12.779  64.707  1.00  0.00     0.000 HD 
HETATM    3  C   UNL     1     -10.850  13.145  65.908  1.00  0.00    -0.273 C  
HETATM    4  H1  UNL     1     -10.885  12.406  64.087  1.00  0.00     0.000 HD 
HETATM    5  N   UNL     1     -11.699  13.596  66.864  1.00  0.00    -0.366 NA 
HETATM    6  N   UNL     1      -9.561  13.081  66.018  1.00  0.00    -0.426 NA 
HETATM    7  H1  UNL     1     -11.191  13.898  67.694  1.00  0.00     0.000 HD 
HETATM    8  H2  UNL     1     -12.713  13.630  66.764  1.00  0.00     0.000 HD 
HETATM    9  H   UNL     1      -8.936  12.787  65.268  1.00  0.00     0.000 HD 
ENDROOT
BRANCH   6  10
HETATM   10  N   UNL     1      -9.131  13.465  67.292  1.00  0.00    -0.212 NA 
HETATM   11  H   UNL     1      -8.505  14.247  67.480  1.00  0.00     0.000 HD 
BRANCH  10  12
HETATM   12  C   UNL     1      -9.635  12.693  68.202  1.00  0.00    -0.219 C  
BRANCH  12  13
HETATM   13  C   UNL     1      -9.598  11.217  68.110  1.00  0.00    -0.186 A  
HETATM   14  C   UNL     1      -8.682  10.538  67.286  1.00  0.00    -0.126 A  
HETATM   15  C   UNL     1      -8.639   9.136  67.285  1.00  0.00    -0.118 A  
HETATM   16 CL   UNL     1      -7.513  11.323  66.279  1.00  0.00    -0.068 Cl 
HETATM   17  C   UNL     1      -9.496   8.401  68.098  1.00  0.00    -0.148 A  
HETATM   18  C   UNL     1     -10.412   9.063  68.910  1.00  0.00    -0.231 A  
HETATM   19  C   UNL     1     -10.466  10.463  68.919  1.00  0.00    -0.212 A  
HETATM   20 CL   UNL     1     -11.663  11.183  69.942  1.00  0.00    -0.397 Cl 
ENDBRANCH  12  13
ENDBRANCH  10  12
ENDBRANCH   6  10
TORSDOF 3
ENDMDL
MODEL      267
REMARK 921   NORMALIZED FREE ENERGY PREDICTED BY IDOCK:    1.89 KCAL/MOL
REMARK 922        TOTAL FREE ENERGY PREDICTED BY IDOCK:    1.94 KCAL/MOL
REMARK 923 INTER-LIGAND FREE ENERGY PREDICTED BY IDOCK:   -1.11 KCAL/MOL
REMARK 924 INTRA-LIGAND FREE ENERGY PREDICTED BY IDOCK:    3.05 KCAL/MOL
REMARK 927      BINDING AFFINITY PREDICTED BY RF-SCORE:    0.00 PKD
ROOT
HETATM    1  N   UNL     1     -10.843   9.468  65.757  1.00  0.00     0.581 NA 
HETATM    2  H2  UNL     1     -11.842   9.318  65.898  1.00  0.00     0.000 HD 
HETATM    3  C   UNL     1      -9.891   9.185  66.673  1.00  0.00    -0.240 C  
HETATM    4  H1  UNL     1     -10.432   9.853  64.906  1.00  0.00     0.000 HD 
HETATM    5  N   UNL     1     -10.437   8.674  67.805  1.00  0.00    -0.327 NA 
HETATM    6  N   UNL     1      -8.626   9.371  66.468  1.00  0.00    -0.132 NA 
HETATM    7  H1  UNL     1      -9.719   8.460  68.496  1.00  0.00     0.000 HD 
HETATM    8  H2  UNL     1     -11.436   8.524  67.945  1.00  0.00     0.000 HD 
HETATM    9  H   UNL     1      -8.239   9.805  65.630  1.00  0.00     0.000 HD 
ENDROOT
BRANCH   6  10
HETATM   10  N   UNL     1      -7.854   8.904  67.538  1.00  0.00    -0.101 NA 
HETATM   11  H   UNL     1      -6.862   9.102  67.665  1.00  0.00     0.000 HD 
BRANCH  10  12
HETATM   12  C   UNL     1      -8.569   8.187  68.344  1.00  0.00    -0.130 C  
BRANCH  12  13
HETATM   13  C   UNL     1      -8.130   6.865  68.844  1.00  0.00    -0.120 A  
HETATM   14  C   UNL     1      -8.653   6.294  70.018  1.00  0.00    -0.134 A  
HETATM   15  C   UNL     1      -8.256   5.008  70.413  1.00  0.00    -0.096 A  
HETATM   16 CL   UNL     1      -9.842   7.052  71.022  1.00  0.00    -0.182 Cl 
HETATM   17  C   UNL     1      -7.345   4.282  69.652  1.00  0.00    -0.050 A  
HETATM   18  C   UNL     1      -6.816   4.842  68.494  1.00  0.00    -0.052 A  
HETATM   19  C   UNL     1      -7.204   6.127  68.088  1.00  0.00    -0.084 A  
HETATM   20 CL   UNL     1      -6.460   6.739  66.649  1.00  0.00    -0.042 Cl 
ENDBRANCH  12  13
ENDBRANCH  10  12
ENDBRANCH   6  10
TORSDOF 3
ENDMDL
MODEL      268
REMARK 921   NORMALIZED FREE ENERGY PREDICTED BY IDOCK:   26.34 KCAL/MOL
REMARK 922        TOTAL FREE ENERGY PREDICTED BY IDOCK:   30.67 KCAL/MOL
REMARK 923 INTER-LIGAND FREE ENERGY PREDICTED BY IDOCK:   28.94 KCAL/MOL
REMARK 924 INTRA-LIGAND FREE ENERGY PREDICTED BY IDOCK:    1.74 KCAL/MOL
REMARK 927      BINDING AFFINITY PREDICTED BY RF-SCORE:    0.00 PKD
ROOT
HETATM    1  N   UNL     1      -9.703   9.193  68.592  1.00  0.00    -0.152 NA 
HETATM    2  H2  UNL     1     -10.574   9.699  68.435  1.00  0.00     0.000 HD 
HETATM    3  C   UNL     1      -9.541   7.868  68.383  1.00  0.00    -0.150 C  
HETATM    4  H1  UNL     1      -8.840   9.622  68.927  1.00  0.00     0.000 HD 
HETATM    5  N   UNL     1     -10.688   7.298  67.938  1.00  0.00    -0.393 NA 
HETATM    6  N   UNL     1      -8.420   7.247  68.576  1.00  0.00    -0.125 NA 
HETATM    7  H1  UNL     1     -10.566   6.298  67.781  1.00  0.00     0.000 HD 
HETATM    8  H2  UNL     1     -11.559   7.804  67.781  1.00  0.00     0.000 HD 
HETATM    9  H   UNL     1      -7.583   7.684  68.961  1.00  0.00     0.000 HD 
ENDROOT
BRANCH   6  10
HETATM   10  N   UNL     1      -8.499   5.905  68.192  1.00  0.00    -0.114 NA 
HETATM   11  H   UNL     1      -8.431   5.573  67.230  1.00  0.00     0.000 HD 
BRANCH  10  12
HETATM   12  C   UNL     1      -8.672   5.139  69.222  1.00  0.00    -0.096 C  
BRANCH  12  13
HETATM   13  C   UNL     1      -9.684   4.061  69.258  1.00  0.00    -0.191 A  
HETATM   14  C   UNL     1     -11.064   4.328  69.326  1.00  0.00     3.697 A  
HETATM   15  C   UNL     1     -11.988   3.274  69.288  1.00  0.00    15.948 A  
HETATM   16 CL   UNL     1     -11.744   5.918  69.391  1.00  0.00     0.370 Cl 
HETATM   17  C   UNL     1     -11.556   1.955  69.181  1.00  0.00     9.531 A  
HETATM   18  C   UNL     1     -10.193   1.681  69.122  1.00  0.00     0.800 A  
HETATM   19  C   UNL     1      -9.259   2.725  69.160  1.00  0.00    -0.148 A  
HETATM   20 CL   UNL     1      -7.589   2.269  69.112  1.00  0.00    -0.043 Cl 
ENDBRANCH  12  13
ENDBRANCH  10  12
ENDBRANCH   6  10
TORSDOF 3
ENDMDL
