MODEL        1
REMARK 921   NORMALIZED FREE ENERGY PREDICTED BY IDOCK:   -6.30 KCAL/MOL
REMARK 922        TOTAL FREE ENERGY PREDICTED BY IDOCK:   -7.17 KCAL/MOL
REMARK 923 INTER-LIGAND FREE ENERGY PREDICTED BY IDOCK:   -7.03 KCAL/MOL
REMARK 924 INTRA-LIGAND FREE ENERGY PREDICTED BY IDOCK:   -0.14 KCAL/MOL
REMARK 927      BINDING AFFINITY PREDICTED BY RF-SCORE:    0.00 PKD
ROOT
HETATM    1  N   UNL     1     -11.591  16.248  63.890  1.00  0.00    -1.573 NA 
HETATM    2  C   UNL     1     -11.899  15.176  64.652  1.00  0.00    -0.332 C  
HETATM    3  H2  UNL     1     -11.652  16.262  62.873  1.00  0.00     0.000 HD 
HETATM    4  H1  UNL     1     -11.290  17.041  64.457  1.00  0.00     0.000 HD 
HETATM    5  N   UNL     1     -12.296  14.126  63.903  1.00  0.00    -0.932 NA 
HETATM    6  N   UNL     1     -11.766  15.255  65.925  1.00  0.00    -0.007 NA 
HETATM    7  H1  UNL     1     -12.528  13.317  64.478  1.00  0.00     0.000 HD 
HETATM    8  H2  UNL     1     -12.357  14.141  62.885  1.00  0.00     0.000 HD 
HETATM    9  H   UNL     1     -11.512  16.136  66.373  1.00  0.00     0.000 HD 
ENDROOT
BRANCH   6  10
HETATM   10  C   UNL     1     -11.989  14.042  66.718  1.00  0.00    -0.444 C  
BRANCH  10  11
HETATM   11  C   UNL     1     -11.436  14.166  68.139  1.00  0.00    -0.310 C  
HETATM   12  C   UNL     1     -11.905  13.007  68.992  1.00  0.00    -0.316 C  
HETATM   13  O   UNL     1     -11.900  13.520  70.318  1.00  0.00    -0.309 OA 
HETATM   14  C   UNL     1     -12.166  14.921  70.178  1.00  0.00    -0.336 C  
HETATM   15  O   UNL     1     -11.947  15.325  68.820  1.00  0.00    -0.321 OA 
HETATM   16  C   UNL     1     -11.248  15.677  71.143  1.00  0.00    -0.409 C  
HETATM   17  C   UNL     1     -11.593  15.359  72.602  1.00  0.00    -0.504 C  
HETATM   18  C   UNL     1     -13.065  15.630  72.909  1.00  0.00    -0.621 C  
HETATM   19  C   UNL     1     -13.998  14.917  71.934  1.00  0.00    -0.585 C  
HETATM   20  C   UNL     1     -13.636  15.225  70.488  1.00  0.00    -0.035 C  
ENDBRANCH  10  11
ENDBRANCH   6  10
TORSDOF 2
ENDMDL
MODEL        2
REMARK 921   NORMALIZED FREE ENERGY PREDICTED BY IDOCK:   -6.25 KCAL/MOL
REMARK 922        TOTAL FREE ENERGY PREDICTED BY IDOCK:   -7.12 KCAL/MOL
REMARK 923 INTER-LIGAND FREE ENERGY PREDICTED BY IDOCK:   -6.88 KCAL/MOL
REMARK 924 INTRA-LIGAND FREE ENERGY PREDICTED BY IDOCK:   -0.24 KCAL/MOL
REMARK 927      BINDING AFFINITY PREDICTED BY RF-SCORE:    0.00 PKD
ROOT
HETATM    1  N   UNL     1     -12.365  14.408  63.954  1.00  0.00    -1.023 NA 
HETATM    2  C   UNL     1     -11.593  15.328  64.573  1.00  0.00    -0.312 C  
HETATM    3  H2  UNL     1     -12.819  14.555  63.053  1.00  0.00     0.000 HD 
HETATM    4  H1  UNL     1     -12.439  13.548  64.498  1.00  0.00     0.000 HD 
HETATM    5  N   UNL     1     -11.496  16.466  63.854  1.00  0.00    -1.618 NA 
HETATM    6  N   UNL     1     -11.087  15.050  65.718  1.00  0.00    -0.346 NA 
HETATM    7  H1  UNL     1     -10.914  17.160  64.322  1.00  0.00     0.000 HD 
HETATM    8  H2  UNL     1     -11.950  16.613  62.953  1.00  0.00     0.000 HD 
HETATM    9  H   UNL     1     -11.190  14.121  66.126  1.00  0.00     0.000 HD 
ENDROOT
BRANCH   6  10
HETATM   10  C   UNL     1     -10.356  16.108  66.422  1.00  0.00    -0.315 C  
BRANCH  10  11
HETATM   11  C   UNL     1     -10.721  16.177  67.907  1.00  0.00    -0.321 C  
HETATM   12  C   UNL     1      -9.718  15.402  68.735  1.00  0.00    -0.210 C  
HETATM   13  O   UNL     1     -10.447  15.003  69.888  1.00  0.00    -0.225 OA 
HETATM   14  C   UNL     1     -11.803  14.865  69.445  1.00  0.00    -0.324 C  
HETATM   15  O   UNL     1     -11.974  15.531  68.187  1.00  0.00    -0.233 OA 
HETATM   16  C   UNL     1     -12.717  15.456  70.522  1.00  0.00    -0.455 C  
HETATM   17  C   UNL     1     -12.646  14.643  71.819  1.00  0.00    -0.407 C  
HETATM   18  C   UNL     1     -12.954  13.166  71.581  1.00  0.00    -0.429 C  
HETATM   19  C   UNL     1     -12.081  12.566  70.483  1.00  0.00    -0.361 C  
HETATM   20  C   UNL     1     -12.144  13.390  69.205  1.00  0.00    -0.306 C  
ENDBRANCH  10  11
ENDBRANCH   6  10
TORSDOF 2
ENDMDL
MODEL        3
REMARK 921   NORMALIZED FREE ENERGY PREDICTED BY IDOCK:   -6.20 KCAL/MOL
REMARK 922        TOTAL FREE ENERGY PREDICTED BY IDOCK:   -7.07 KCAL/MOL
REMARK 923 INTER-LIGAND FREE ENERGY PREDICTED BY IDOCK:   -6.90 KCAL/MOL
REMARK 924 INTRA-LIGAND FREE ENERGY PREDICTED BY IDOCK:   -0.17 KCAL/MOL
REMARK 927      BINDING AFFINITY PREDICTED BY RF-SCORE:    0.00 PKD
ROOT
HETATM    1  N   UNL     1     -12.305  11.821  63.060  1.00  0.00    -0.923 NA 
HETATM    2  C   UNL     1     -12.452  12.905  63.852  1.00  0.00    -0.333 C  
HETATM    3  H2  UNL     1     -12.574  10.875  63.330  1.00  0.00     0.000 HD 
HETATM    4  H1  UNL     1     -11.894  12.064  62.159  1.00  0.00     0.000 HD 
HETATM    5  N   UNL     1     -12.997  12.584  65.045  1.00  0.00    -0.730 NA 
HETATM    6  N   UNL     1     -12.061  14.049  63.425  1.00  0.00    -1.000 NA 
HETATM    7  H1  UNL     1     -13.107  13.402  65.643  1.00  0.00     0.000 HD 
HETATM    8  H2  UNL     1     -13.265  11.638  65.315  1.00  0.00     0.000 HD 
HETATM    9  H   UNL     1     -11.719  14.164  62.471  1.00  0.00     0.000 HD 
ENDROOT
BRANCH   6  10
HETATM   10  C   UNL     1     -12.119  15.186  64.349  1.00  0.00    -0.300 C  
BRANCH  10  11
HETATM   11  C   UNL     1     -10.804  15.389  65.105  1.00  0.00    -0.431 C  
HETATM   12  C   UNL     1     -10.972  15.030  66.565  1.00  0.00    -0.327 C  
HETATM   13  O   UNL     1      -9.996  15.816  67.236  1.00  0.00    -0.233 OA 
HETATM   14  C   UNL     1      -9.849  16.995  66.435  1.00  0.00    -0.299 C  
HETATM   15  O   UNL     1     -10.403  16.770  65.132  1.00  0.00    -0.639 OA 
HETATM   16  C   UNL     1      -8.358  17.335  66.360  1.00  0.00    -0.315 C  
HETATM   17  C   UNL     1      -7.807  17.727  67.735  1.00  0.00    -0.216 C  
HETATM   18  C   UNL     1      -8.605  18.869  68.362  1.00  0.00    -0.381 C  
HETATM   19  C   UNL     1     -10.100  18.567  68.411  1.00  0.00    -0.423 C  
HETATM   20  C   UNL     1     -10.634  18.162  67.044  1.00  0.00    -0.346 C  
ENDBRANCH  10  11
ENDBRANCH   6  10
TORSDOF 2
ENDMDL
MODEL        4
REMARK 921   NORMALIZED FREE ENERGY PREDICTED BY IDOCK:   -6.15 KCAL/MOL
REMARK 922        TOTAL FREE ENERGY PREDICTED BY IDOCK:   -7.01 KCAL/MOL
REMARK 923 INTER-LIGAND FREE ENERGY PREDICTED BY IDOCK:   -6.67 KCAL/MOL
REMARK 924 INTRA-LIGAND FREE ENERGY PREDICTED BY IDOCK:   -0.33 KCAL/MOL
REMARK 927      BINDING AFFINITY PREDICTED BY RF-SCORE:    0.00 PKD
ROOT
HETATM    1  N   UNL     1     -12.313  11.604  63.062  1.00  0.00    -0.956 NA 
HETATM    2  C   UNL     1     -12.359  12.698  63.854  1.00  0.00    -0.459 C  
HETATM    3  H2  UNL     1     -12.236  11.637  62.046  1.00  0.00     0.000 HD 
HETATM    4  H1  UNL     1     -12.363  10.742  63.604  1.00  0.00     0.000 HD 
HETATM    5  N   UNL     1     -12.292  13.839  63.136  1.00  0.00    -1.106 NA 
HETATM    6  N   UNL     1     -12.479  12.546  65.121  1.00  0.00    -0.628 NA 
HETATM    7  H1  UNL     1     -12.327  14.664  63.734  1.00  0.00     0.000 HD 
HETATM    8  H2  UNL     1     -12.216  13.872  62.120  1.00  0.00     0.000 HD 
HETATM    9  H   UNL     1     -12.456  11.618  65.544  1.00  0.00     0.000 HD 
ENDROOT
BRANCH   6  10
HETATM   10  C   UNL     1     -12.649  13.747  65.946  1.00  0.00    -0.447 C  
BRANCH  10  11
HETATM   11  C   UNL     1     -11.317  14.281  66.477  1.00  0.00    -0.346 C  
HETATM   12  C   UNL     1     -11.543  15.146  67.698  1.00  0.00    -0.277 C  
HETATM   13  O   UNL     1     -10.441  16.044  67.703  1.00  0.00    -0.278 OA 
HETATM   14  C   UNL     1     -10.086  16.210  66.325  1.00  0.00    -0.321 C  
HETATM   15  O   UNL     1     -10.675  15.164  65.541  1.00  0.00    -0.318 OA 
HETATM   16  C   UNL     1      -8.559  16.197  66.222  1.00  0.00    -0.373 C  
HETATM   17  C   UNL     1      -7.943  17.408  66.932  1.00  0.00    -0.257 C  
HETATM   18  C   UNL     1      -8.522  18.724  66.415  1.00  0.00    -0.296 C  
HETATM   19  C   UNL     1     -10.047  18.744  66.471  1.00  0.00    -0.437 C  
HETATM   20  C   UNL     1     -10.648  17.528  65.779  1.00  0.00    -0.176 C  
ENDBRANCH  10  11
ENDBRANCH   6  10
TORSDOF 2
ENDMDL
MODEL        5
REMARK 921   NORMALIZED FREE ENERGY PREDICTED BY IDOCK:   -6.14 KCAL/MOL
REMARK 922        TOTAL FREE ENERGY PREDICTED BY IDOCK:   -6.99 KCAL/MOL
REMARK 923 INTER-LIGAND FREE ENERGY PREDICTED BY IDOCK:   -6.86 KCAL/MOL
REMARK 924 INTRA-LIGAND FREE ENERGY PREDICTED BY IDOCK:   -0.13 KCAL/MOL
REMARK 927      BINDING AFFINITY PREDICTED BY RF-SCORE:    0.00 PKD
ROOT
HETATM    1  N   UNL     1     -11.749  16.247  63.839  1.00  0.00    -1.518 NA 
HETATM    2  C   UNL     1     -11.925  14.961  64.214  1.00  0.00    -0.338 C  
HETATM    3  H2  UNL     1     -12.011  16.617  62.926  1.00  0.00     0.000 HD 
HETATM    4  H1  UNL     1     -11.323  16.802  64.581  1.00  0.00     0.000 HD 
HETATM    5  N   UNL     1     -12.488  14.226  63.232  1.00  0.00    -1.068 NA 
HETATM    6  N   UNL     1     -11.539  14.591  65.379  1.00  0.00    -0.349 NA 
HETATM    7  H1  UNL     1     -12.620  13.255  63.515  1.00  0.00     0.000 HD 
HETATM    8  H2  UNL     1     -12.750  14.596  62.319  1.00  0.00     0.000 HD 
HETATM    9  H   UNL     1     -11.180  15.268  66.053  1.00  0.00     0.000 HD 
ENDROOT
BRANCH   6  10
HETATM   10  C   UNL     1     -11.629  13.167  65.715  1.00  0.00    -0.347 C  
BRANCH  10  11
HETATM   11  C   UNL     1     -11.895  12.936  67.205  1.00  0.00    -0.362 C  
HETATM   12  C   UNL     1     -10.663  13.269  68.019  1.00  0.00    -0.240 C  
HETATM   13  O   UNL     1     -10.781  12.461  69.182  1.00  0.00    -0.160 OA 
HETATM   14  C   UNL     1     -11.501  11.296  68.759  1.00  0.00    -0.293 C  
HETATM   15  O   UNL     1     -12.143  11.552  67.503  1.00  0.00    -0.614 OA 
HETATM   16  C   UNL     1     -12.518  10.944  69.848  1.00  0.00    -0.292 C  
HETATM   17  C   UNL     1     -11.820  10.520  71.144  1.00  0.00    -0.391 C  
HETATM   18  C   UNL     1     -10.838   9.373  70.911  1.00  0.00    -0.392 C  
HETATM   19  C   UNL     1      -9.838   9.687  69.802  1.00  0.00    -0.253 C  
HETATM   20  C   UNL     1     -10.541  10.125  68.524  1.00  0.00    -0.245 C  
ENDBRANCH  10  11
ENDBRANCH   6  10
TORSDOF 2
ENDMDL
MODEL        6
REMARK 921   NORMALIZED FREE ENERGY PREDICTED BY IDOCK:   -6.10 KCAL/MOL
REMARK 922        TOTAL FREE ENERGY PREDICTED BY IDOCK:   -6.95 KCAL/MOL
REMARK 923 INTER-LIGAND FREE ENERGY PREDICTED BY IDOCK:   -6.74 KCAL/MOL
REMARK 924 INTRA-LIGAND FREE ENERGY PREDICTED BY IDOCK:   -0.21 KCAL/MOL
REMARK 927      BINDING AFFINITY PREDICTED BY RF-SCORE:    0.00 PKD
ROOT
HETATM    1  N   UNL     1     -12.290  14.203  63.207  1.00  0.00    -1.133 NA 
HETATM    2  C   UNL     1     -11.790  14.044  64.453  1.00  0.00    -0.431 C  
HETATM    3  H2  UNL     1     -13.219  13.894  62.921  1.00  0.00     0.000 HD 
HETATM    4  H1  UNL     1     -11.625  14.668  62.589  1.00  0.00     0.000 HD 
HETATM    5  N   UNL     1     -12.669  13.429  65.271  1.00  0.00    -0.645 NA 
HETATM    6  N   UNL     1     -10.599  14.448  64.703  1.00  0.00    -0.588 NA 
HETATM    7  H1  UNL     1     -12.291  13.309  66.210  1.00  0.00     0.000 HD 
HETATM    8  H2  UNL     1     -13.598  13.120  64.984  1.00  0.00     0.000 HD 
HETATM    9  H   UNL     1     -10.059  14.957  64.004  1.00  0.00     0.000 HD 
ENDROOT
BRANCH   6  10
HETATM   10  C   UNL     1     -10.037  14.155  66.026  1.00  0.00    -0.316 C  
BRANCH  10  11
HETATM   11  C   UNL     1      -9.168  15.299  66.554  1.00  0.00    -0.290 C  
HETATM   12  C   UNL     1      -9.676  15.770  67.900  1.00  0.00    -0.216 C  
HETATM   13  O   UNL     1      -9.266  17.129  67.975  1.00  0.00    -0.239 OA 
HETATM   14  C   UNL     1      -9.245  17.590  66.618  1.00  0.00    -0.262 C  
HETATM   15  O   UNL     1      -9.251  16.470  65.724  1.00  0.00    -0.486 OA 
HETATM   16  C   UNL     1      -7.994  18.453  66.429  1.00  0.00    -0.288 C  
HETATM   17  C   UNL     1      -8.068  19.730  67.273  1.00  0.00    -0.327 C  
HETATM   18  C   UNL     1      -9.339  20.526  66.988  1.00  0.00    -0.482 C  
HETATM   19  C   UNL     1     -10.597  19.675  67.133  1.00  0.00    -0.611 C  
HETATM   20  C   UNL     1     -10.508  18.401  66.305  1.00  0.00    -0.421 C  
ENDBRANCH  10  11
ENDBRANCH   6  10
TORSDOF 2
ENDMDL
MODEL        7
REMARK 921   NORMALIZED FREE ENERGY PREDICTED BY IDOCK:   -5.93 KCAL/MOL
REMARK 922        TOTAL FREE ENERGY PREDICTED BY IDOCK:   -6.77 KCAL/MOL
REMARK 923 INTER-LIGAND FREE ENERGY PREDICTED BY IDOCK:   -6.54 KCAL/MOL
REMARK 924 INTRA-LIGAND FREE ENERGY PREDICTED BY IDOCK:   -0.22 KCAL/MOL
REMARK 927      BINDING AFFINITY PREDICTED BY RF-SCORE:    0.00 PKD
ROOT
HETATM    1  N   UNL     1     -12.532  11.604  62.957  1.00  0.00    -0.937 NA 
HETATM    2  C   UNL     1     -12.342  12.601  63.849  1.00  0.00    -0.459 C  
HETATM    3  H2  UNL     1     -12.649  11.748  61.955  1.00  0.00     0.000 HD 
HETATM    4  H1  UNL     1     -12.546  10.690  63.410  1.00  0.00     0.000 HD 
HETATM    5  N   UNL     1     -12.324  13.810  63.250  1.00  0.00    -1.124 NA 
HETATM    6  N   UNL     1     -12.229  12.314  65.093  1.00  0.00    -0.500 NA 
HETATM    7  H1  UNL     1     -12.181  14.563  63.923  1.00  0.00     0.000 HD 
HETATM    8  H2  UNL     1     -12.441  13.955  62.248  1.00  0.00     0.000 HD 
HETATM    9  H   UNL     1     -12.199  11.344  65.408  1.00  0.00     0.000 HD 
ENDROOT
BRANCH   6  10
HETATM   10  C   UNL     1     -12.145  13.421  66.051  1.00  0.00    -0.438 C  
BRANCH  10  11
HETATM   11  C   UNL     1     -11.725  12.953  67.446  1.00  0.00    -0.372 C  
HETATM   12  C   UNL     1     -10.217  12.879  67.547  1.00  0.00    -0.213 C  
HETATM   13  O   UNL     1      -9.977  11.893  68.541  1.00  0.00    -0.207 OA 
HETATM   14  C   UNL     1     -11.088  10.992  68.450  1.00  0.00    -0.251 C  
HETATM   15  O   UNL     1     -12.155  11.608  67.718  1.00  0.00    -0.613 OA 
HETATM   16  C   UNL     1     -11.521  10.627  69.873  1.00  0.00    -0.393 C  
HETATM   17  C   UNL     1     -10.432   9.830  70.599  1.00  0.00    -0.358 C  
HETATM   18  C   UNL     1     -10.016   8.589  69.810  1.00  0.00    -0.191 C  
HETATM   19  C   UNL     1      -9.617   8.925  68.376  1.00  0.00    -0.157 C  
HETATM   20  C   UNL     1     -10.698   9.732  67.670  1.00  0.00    -0.334 C  
ENDBRANCH  10  11
ENDBRANCH   6  10
TORSDOF 2
ENDMDL
MODEL        8
REMARK 921   NORMALIZED FREE ENERGY PREDICTED BY IDOCK:   -5.93 KCAL/MOL
REMARK 922        TOTAL FREE ENERGY PREDICTED BY IDOCK:   -6.75 KCAL/MOL
REMARK 923 INTER-LIGAND FREE ENERGY PREDICTED BY IDOCK:   -6.46 KCAL/MOL
REMARK 924 INTRA-LIGAND FREE ENERGY PREDICTED BY IDOCK:   -0.30 KCAL/MOL
REMARK 927      BINDING AFFINITY PREDICTED BY RF-SCORE:    0.00 PKD
ROOT
HETATM    1  N   UNL     1     -11.421  11.518  63.322  1.00  0.00    -0.852 NA 
HETATM    2  C   UNL     1     -11.393  12.823  63.671  1.00  0.00    -0.453 C  
HETATM    3  H2  UNL     1     -12.122  11.106  62.707  1.00  0.00     0.000 HD 
HETATM    4  H1  UNL     1     -10.656  10.996  63.750  1.00  0.00     0.000 HD 
HETATM    5  N   UNL     1     -12.406  13.514  63.107  1.00  0.00    -1.024 NA 
HETATM    6  N   UNL     1     -10.481  13.236  64.472  1.00  0.00    -0.440 NA 
HETATM    7  H1  UNL     1     -12.385  14.499  63.371  1.00  0.00     0.000 HD 
HETATM    8  H2  UNL     1     -13.106  13.102  62.491  1.00  0.00     0.000 HD 
HETATM    9  H   UNL     1      -9.732  12.616  64.780  1.00  0.00     0.000 HD 
ENDROOT
BRANCH   6  10
HETATM   10  C   UNL     1     -10.545  14.628  64.930  1.00  0.00    -0.422 C  
BRANCH  10  11
HETATM   11  C   UNL     1     -10.703  14.733  66.448  1.00  0.00    -0.313 C  
HETATM   12  C   UNL     1      -9.556  14.038  67.149  1.00  0.00    -0.245 C  
HETATM   13  O   UNL     1     -10.095  13.646  68.404  1.00  0.00    -0.234 OA 
HETATM   14  C   UNL     1     -11.491  13.428  68.161  1.00  0.00    -0.304 C  
HETATM   15  O   UNL     1     -11.870  14.038  66.921  1.00  0.00    -0.385 OA 
HETATM   16  C   UNL     1     -12.275  14.013  69.339  1.00  0.00    -0.336 C  
HETATM   17  C   UNL     1     -11.982  13.252  70.636  1.00  0.00    -0.268 C  
HETATM   18  C   UNL     1     -12.243  11.754  70.486  1.00  0.00    -0.438 C  
HETATM   19  C   UNL     1     -11.501  11.157  69.294  1.00  0.00    -0.363 C  
HETATM   20  C   UNL     1     -11.785  11.930  68.014  1.00  0.00    -0.382 C  
ENDBRANCH  10  11
ENDBRANCH   6  10
TORSDOF 2
ENDMDL
MODEL        9
REMARK 921   NORMALIZED FREE ENERGY PREDICTED BY IDOCK:   -5.85 KCAL/MOL
REMARK 922        TOTAL FREE ENERGY PREDICTED BY IDOCK:   -6.67 KCAL/MOL
REMARK 923 INTER-LIGAND FREE ENERGY PREDICTED BY IDOCK:   -6.38 KCAL/MOL
REMARK 924 INTRA-LIGAND FREE ENERGY PREDICTED BY IDOCK:   -0.29 KCAL/MOL
REMARK 927      BINDING AFFINITY PREDICTED BY RF-SCORE:    0.00 PKD
ROOT
HETATM    1  N   UNL     1     -10.646  17.544  65.581  1.00  0.00    -0.556 NA 
HETATM    2  C   UNL     1     -10.786  16.333  65.000  1.00  0.00    -0.320 C  
HETATM    3  H2  UNL     1     -11.090  18.397  65.240  1.00  0.00     0.000 HD 
HETATM    4  H1  UNL     1     -10.043  17.502  66.403  1.00  0.00     0.000 HD 
HETATM    5  N   UNL     1     -11.584  16.388  63.913  1.00  0.00    -1.602 NA 
HETATM    6  N   UNL     1     -10.165  15.327  65.495  1.00  0.00    -0.364 NA 
HETATM    7  H1  UNL     1     -11.689  15.474  63.474  1.00  0.00     0.000 HD 
HETATM    8  H2  UNL     1     -12.028  17.241  63.572  1.00  0.00     0.000 HD 
HETATM    9  H   UNL     1      -9.638  15.411  66.365  1.00  0.00     0.000 HD 
ENDROOT
BRANCH   6  10
HETATM   10  C   UNL     1     -10.236  14.051  64.776  1.00  0.00    -0.301 C  
BRANCH  10  11
HETATM   11  C   UNL     1     -10.694  12.901  65.675  1.00  0.00    -0.274 C  
HETATM   12  C   UNL     1     -12.188  12.973  65.905  1.00  0.00    -0.432 C  
HETATM   13  O   UNL     1     -12.382  12.337  67.161  1.00  0.00    -0.379 OA 
HETATM   14  C   UNL     1     -11.175  12.577  67.894  1.00  0.00    -0.264 C  
HETATM   15  O   UNL     1     -10.136  12.991  66.997  1.00  0.00    -0.237 OA 
HETATM   16  C   UNL     1     -10.800  11.288  68.630  1.00  0.00    -0.246 C  
HETATM   17  C   UNL     1     -11.840  10.935  69.698  1.00  0.00    -0.416 C  
HETATM   18  C   UNL     1     -12.061  12.088  70.677  1.00  0.00    -0.369 C  
HETATM   19  C   UNL     1     -12.398  13.393  69.963  1.00  0.00    -0.294 C  
HETATM   20  C   UNL     1     -11.368  13.725  68.891  1.00  0.00    -0.328 C  
ENDBRANCH  10  11
ENDBRANCH   6  10
TORSDOF 2
ENDMDL
MODEL       10
REMARK 921   NORMALIZED FREE ENERGY PREDICTED BY IDOCK:   -5.84 KCAL/MOL
REMARK 922        TOTAL FREE ENERGY PREDICTED BY IDOCK:   -6.66 KCAL/MOL
REMARK 923 INTER-LIGAND FREE ENERGY PREDICTED BY IDOCK:   -6.63 KCAL/MOL
REMARK 924 INTRA-LIGAND FREE ENERGY PREDICTED BY IDOCK:   -0.03 KCAL/MOL
REMARK 927      BINDING AFFINITY PREDICTED BY RF-SCORE:    0.00 PKD
ROOT
HETATM    1  N   UNL     1     -13.443  14.208  72.705  1.00  0.00    -0.640 NA 
HETATM    2  C   UNL     1     -13.002  14.534  71.471  1.00  0.00    -0.336 C  
HETATM    3  H2  UNL     1     -14.286  14.593  73.131  1.00  0.00     0.000 HD 
HETATM    4  H1  UNL     1     -12.830  13.531  73.159  1.00  0.00     0.000 HD 
HETATM    5  N   UNL     1     -13.812  15.431  70.870  1.00  0.00    -0.844 NA 
HETATM    6  N   UNL     1     -11.915  14.010  71.037  1.00  0.00    -0.483 NA 
HETATM    7  H1  UNL     1     -13.479  15.677  69.939  1.00  0.00     0.000 HD 
HETATM    8  H2  UNL     1     -14.655  15.815  71.296  1.00  0.00     0.000 HD 
HETATM    9  H   UNL     1     -11.427  13.293  71.574  1.00  0.00     0.000 HD 
ENDROOT
BRANCH   6  10
HETATM   10  C   UNL     1     -11.395  14.473  69.747  1.00  0.00    -0.260 C  
BRANCH  10  11
HETATM   11  C   UNL     1     -12.120  13.829  68.563  1.00  0.00    -0.292 C  
HETATM   12  C   UNL     1     -11.761  12.364  68.455  1.00  0.00    -0.326 C  
HETATM   13  O   UNL     1     -11.930  12.059  67.077  1.00  0.00    -0.609 OA 
HETATM   14  C   UNL     1     -11.651  13.283  66.386  1.00  0.00    -0.347 C  
HETATM   15  O   UNL     1     -11.699  14.383  67.304  1.00  0.00    -0.370 OA 
HETATM   16  C   UNL     1     -12.682  13.442  65.265  1.00  0.00    -0.481 C  
HETATM   17  C   UNL     1     -12.521  12.349  64.203  1.00  0.00    -0.534 C  
HETATM   18  C   UNL     1     -11.099  12.304  63.646  1.00  0.00    -0.537 C  
HETATM   19  C   UNL     1     -10.052  12.185  64.749  1.00  0.00    -0.276 C  
HETATM   20  C   UNL     1     -10.231  13.264  65.808  1.00  0.00    -0.296 C  
ENDBRANCH  10  11
ENDBRANCH   6  10
TORSDOF 2
ENDMDL
MODEL       11
REMARK 921   NORMALIZED FREE ENERGY PREDICTED BY IDOCK:   -5.83 KCAL/MOL
REMARK 922        TOTAL FREE ENERGY PREDICTED BY IDOCK:   -6.65 KCAL/MOL
REMARK 923 INTER-LIGAND FREE ENERGY PREDICTED BY IDOCK:   -6.52 KCAL/MOL
REMARK 924 INTRA-LIGAND FREE ENERGY PREDICTED BY IDOCK:   -0.14 KCAL/MOL
REMARK 927      BINDING AFFINITY PREDICTED BY RF-SCORE:    0.00 PKD
ROOT
HETATM    1  N   UNL     1     -11.853  16.375  71.551  1.00  0.00    -0.663 NA 
HETATM    2  C   UNL     1     -12.340  15.263  70.960  1.00  0.00    -0.367 C  
HETATM    3  H2  UNL     1     -12.418  17.190  71.789  1.00  0.00     0.000 HD 
HETATM    4  H1  UNL     1     -10.852  16.301  71.731  1.00  0.00     0.000 HD 
HETATM    5  N   UNL     1     -13.665  15.361  70.721  1.00  0.00    -0.845 NA 
HETATM    6  N   UNL     1     -11.538  14.302  70.681  1.00  0.00    -0.491 NA 
HETATM    7  H1  UNL     1     -14.032  14.522  70.274  1.00  0.00     0.000 HD 
HETATM    8  H2  UNL     1     -14.230  16.176  70.959  1.00  0.00     0.000 HD 
HETATM    9  H   UNL     1     -10.562  14.331  70.973  1.00  0.00     0.000 HD 
ENDROOT
BRANCH   6  10
HETATM   10  C   UNL     1     -12.068  13.158  69.931  1.00  0.00    -0.287 C  
BRANCH  10  11
HETATM   11  C   UNL     1     -11.218  12.825  68.703  1.00  0.00    -0.282 C  
HETATM   12  C   UNL     1     -10.654  14.088  68.090  1.00  0.00    -0.248 C  
HETATM   13  O   UNL     1     -10.468  13.763  66.719  1.00  0.00    -0.267 OA 
HETATM   14  C   UNL     1     -11.478  12.790  66.425  1.00  0.00    -0.357 C  
HETATM   15  O   UNL     1     -11.999  12.246  67.644  1.00  0.00    -0.494 OA 
HETATM   16  C   UNL     1     -10.848  11.703  65.549  1.00  0.00    -0.334 C  
HETATM   17  C   UNL     1     -10.434  12.260  64.183  1.00  0.00    -0.402 C  
HETATM   18  C   UNL     1     -11.602  12.940  63.470  1.00  0.00    -0.528 C  
HETATM   19  C   UNL     1     -12.269  14.001  64.339  1.00  0.00    -0.457 C  
HETATM   20  C   UNL     1     -12.661  13.442  65.701  1.00  0.00    -0.496 C  
ENDBRANCH  10  11
ENDBRANCH   6  10
TORSDOF 2
ENDMDL
MODEL       12
REMARK 921   NORMALIZED FREE ENERGY PREDICTED BY IDOCK:   -5.78 KCAL/MOL
REMARK 922        TOTAL FREE ENERGY PREDICTED BY IDOCK:   -6.60 KCAL/MOL
REMARK 923 INTER-LIGAND FREE ENERGY PREDICTED BY IDOCK:   -6.43 KCAL/MOL
REMARK 924 INTRA-LIGAND FREE ENERGY PREDICTED BY IDOCK:   -0.16 KCAL/MOL
REMARK 927      BINDING AFFINITY PREDICTED BY RF-SCORE:    0.00 PKD
ROOT
HETATM    1  N   UNL     1     -14.170  15.027  71.898  1.00  0.00    -0.501 NA 
HETATM    2  C   UNL     1     -13.101  15.506  71.225  1.00  0.00    -0.511 C  
HETATM    3  H2  UNL     1     -14.346  15.198  72.888  1.00  0.00     0.000 HD 
HETATM    4  H1  UNL     1     -14.779  14.473  71.296  1.00  0.00     0.000 HD 
HETATM    5  N   UNL     1     -12.294  16.238  72.021  1.00  0.00    -0.570 NA 
HETATM    6  N   UNL     1     -12.961  15.212  69.985  1.00  0.00    -0.632 NA 
HETATM    7  H1  UNL     1     -11.487  16.598  71.513  1.00  0.00     0.000 HD 
HETATM    8  H2  UNL     1     -12.470  16.409  73.011  1.00  0.00     0.000 HD 
HETATM    9  H   UNL     1     -13.683  14.695  69.482  1.00  0.00     0.000 HD 
ENDROOT
BRANCH   6  10
HETATM   10  C   UNL     1     -11.732  15.642  69.309  1.00  0.00    -0.375 C  
BRANCH  10  11
HETATM   11  C   UNL     1     -11.123  14.532  68.450  1.00  0.00    -0.256 C  
HETATM   12  C   UNL     1     -10.290  15.125  67.334  1.00  0.00    -0.244 C  
HETATM   13  O   UNL     1     -10.327  14.143  66.306  1.00  0.00    -0.279 OA 
HETATM   14  C   UNL     1     -11.589  13.482  66.465  1.00  0.00    -0.359 C  
HETATM   15  O   UNL     1     -12.127  13.766  67.763  1.00  0.00    -0.362 OA 
HETATM   16  C   UNL     1     -11.367  11.980  66.265  1.00  0.00    -0.415 C  
HETATM   17  C   UNL     1     -10.941  11.668  64.826  1.00  0.00    -0.351 C  
HETATM   18  C   UNL     1     -11.935  12.222  63.808  1.00  0.00    -0.609 C  
HETATM   19  C   UNL     1     -12.202  13.710  64.012  1.00  0.00    -0.443 C  
HETATM   20  C   UNL     1     -12.606  14.013  65.449  1.00  0.00    -0.529 C  
ENDBRANCH  10  11
ENDBRANCH   6  10
TORSDOF 2
ENDMDL
MODEL       13
REMARK 921   NORMALIZED FREE ENERGY PREDICTED BY IDOCK:   -5.76 KCAL/MOL
REMARK 922        TOTAL FREE ENERGY PREDICTED BY IDOCK:   -6.56 KCAL/MOL
REMARK 923 INTER-LIGAND FREE ENERGY PREDICTED BY IDOCK:   -6.24 KCAL/MOL
REMARK 924 INTRA-LIGAND FREE ENERGY PREDICTED BY IDOCK:   -0.32 KCAL/MOL
REMARK 927      BINDING AFFINITY PREDICTED BY RF-SCORE:    0.00 PKD
ROOT
HETATM    1  N   UNL     1     -12.102  14.239  63.633  1.00  0.00    -0.973 NA 
HETATM    2  C   UNL     1     -11.654  15.174  64.499  1.00  0.00    -0.329 C  
HETATM    3  H2  UNL     1     -12.406  14.440  62.681  1.00  0.00     0.000 HD 
HETATM    4  H1  UNL     1     -12.097  13.307  64.047  1.00  0.00     0.000 HD 
HETATM    5  N   UNL     1     -11.660  16.407  63.951  1.00  0.00    -1.602 NA 
HETATM    6  N   UNL     1     -11.317  14.818  65.684  1.00  0.00    -0.345 NA 
HETATM    7  H1  UNL     1     -11.323  17.113  64.605  1.00  0.00     0.000 HD 
HETATM    8  H2  UNL     1     -11.964  16.609  62.999  1.00  0.00     0.000 HD 
HETATM    9  H   UNL     1     -11.302  13.834  65.952  1.00  0.00     0.000 HD 
ENDROOT
BRANCH   6  10
HETATM   10  C   UNL     1     -10.951  15.867  66.641  1.00  0.00    -0.136 C  
BRANCH  10  11
HETATM   11  C   UNL     1      -9.460  16.204  66.593  1.00  0.00    -0.247 C  
HETATM   12  C   UNL     1      -8.966  16.616  67.962  1.00  0.00    -0.211 C  
HETATM   13  O   UNL     1      -7.860  17.468  67.697  1.00  0.00    -0.196 OA 
HETATM   14  C   UNL     1      -8.154  18.084  66.437  1.00  0.00    -0.260 C  
HETATM   15  O   UNL     1      -9.190  17.351  65.769  1.00  0.00    -0.517 OA 
HETATM   16  C   UNL     1      -6.865  18.115  65.611  1.00  0.00    -0.241 C  
HETATM   17  C   UNL     1      -5.815  19.028  66.254  1.00  0.00    -0.183 C  
HETATM   18  C   UNL     1      -6.357  20.436  66.491  1.00  0.00    -0.251 C  
HETATM   19  C   UNL     1      -7.663  20.427  67.280  1.00  0.00    -0.372 C  
HETATM   20  C   UNL     1      -8.693  19.504  66.643  1.00  0.00    -0.377 C  
ENDBRANCH  10  11
ENDBRANCH   6  10
TORSDOF 2
ENDMDL
MODEL       14
REMARK 921   NORMALIZED FREE ENERGY PREDICTED BY IDOCK:   -5.71 KCAL/MOL
REMARK 922        TOTAL FREE ENERGY PREDICTED BY IDOCK:   -6.51 KCAL/MOL
REMARK 923 INTER-LIGAND FREE ENERGY PREDICTED BY IDOCK:   -6.29 KCAL/MOL
REMARK 924 INTRA-LIGAND FREE ENERGY PREDICTED BY IDOCK:   -0.22 KCAL/MOL
REMARK 927      BINDING AFFINITY PREDICTED BY RF-SCORE:    0.00 PKD
ROOT
HETATM    1  N   UNL     1      -9.041  11.788  62.832  1.00  0.00    -0.634 NA 
HETATM    2  C   UNL     1     -10.179  12.070  63.505  1.00  0.00    -0.450 C  
HETATM    3  H2  UNL     1      -8.968  11.074  62.107  1.00  0.00     0.000 HD 
HETATM    4  H1  UNL     1      -8.266  12.376  63.136  1.00  0.00     0.000 HD 
HETATM    5  N   UNL     1     -11.205  11.291  63.102  1.00  0.00    -0.845 NA 
HETATM    6  N   UNL     1     -10.158  12.972  64.415  1.00  0.00    -0.610 NA 
HETATM    7  H1  UNL     1     -12.063  11.504  63.611  1.00  0.00     0.000 HD 
HETATM    8  H2  UNL     1     -11.131  10.577  62.378  1.00  0.00     0.000 HD 
HETATM    9  H   UNL     1      -9.323  13.534  64.579  1.00  0.00     0.000 HD 
ENDROOT
BRANCH   6  10
HETATM   10  C   UNL     1     -11.372  13.173  65.213  1.00  0.00    -0.296 C  
BRANCH  10  11
HETATM   11  C   UNL     1     -11.512  14.616  65.705  1.00  0.00    -0.340 C  
HETATM   12  C   UNL     1     -11.045  15.585  64.640  1.00  0.00    -0.359 C  
HETATM   13  O   UNL     1     -10.622  16.730  65.368  1.00  0.00    -0.563 OA 
HETATM   14  C   UNL     1     -10.165  16.225  66.629  1.00  0.00    -0.284 C  
HETATM   15  O   UNL     1     -10.653  14.892  66.825  1.00  0.00    -0.293 OA 
HETATM   16  C   UNL     1     -10.661  17.171  67.727  1.00  0.00    -0.360 C  
HETATM   17  C   UNL     1     -10.012  18.554  67.603  1.00  0.00    -0.362 C  
HETATM   18  C   UNL     1      -8.487  18.467  67.593  1.00  0.00    -0.276 C  
HETATM   19  C   UNL     1      -7.973  17.499  66.532  1.00  0.00    -0.309 C  
HETATM   20  C   UNL     1      -8.635  16.134  66.652  1.00  0.00    -0.311 C  
ENDBRANCH  10  11
ENDBRANCH   6  10
TORSDOF 2
ENDMDL
MODEL       15
REMARK 921   NORMALIZED FREE ENERGY PREDICTED BY IDOCK:   -5.71 KCAL/MOL
REMARK 922        TOTAL FREE ENERGY PREDICTED BY IDOCK:   -6.51 KCAL/MOL
REMARK 923 INTER-LIGAND FREE ENERGY PREDICTED BY IDOCK:   -6.37 KCAL/MOL
REMARK 924 INTRA-LIGAND FREE ENERGY PREDICTED BY IDOCK:   -0.14 KCAL/MOL
REMARK 927      BINDING AFFINITY PREDICTED BY RF-SCORE:    0.00 PKD
ROOT
HETATM    1  N   UNL     1     -11.508  16.422  63.860  1.00  0.00    -1.618 NA 
HETATM    2  C   UNL     1     -10.837  16.101  64.988  1.00  0.00    -0.363 C  
HETATM    3  H2  UNL     1     -11.553  17.364  63.471  1.00  0.00     0.000 HD 
HETATM    4  H1  UNL     1     -11.963  15.609  63.446  1.00  0.00     0.000 HD 
HETATM    5  N   UNL     1     -10.235  17.177  65.537  1.00  0.00    -0.615 NA 
HETATM    6  N   UNL     1     -10.863  14.889  65.406  1.00  0.00    -0.344 NA 
HETATM    7  H1  UNL     1      -9.729  16.934  66.388  1.00  0.00     0.000 HD 
HETATM    8  H2  UNL     1     -10.280  18.118  65.147  1.00  0.00     0.000 HD 
HETATM    9  H   UNL     1     -11.310  14.154  64.858  1.00  0.00     0.000 HD 
ENDROOT
BRANCH   6  10
HETATM   10  C   UNL     1     -10.230  14.591  66.695  1.00  0.00    -0.275 C  
BRANCH  10  11
HETATM   11  C   UNL     1     -10.422  13.132  67.114  1.00  0.00    -0.247 C  
HETATM   12  C   UNL     1     -11.878  12.735  66.995  1.00  0.00    -0.361 C  
HETATM   13  O   UNL     1     -12.039  11.694  67.949  1.00  0.00    -0.613 OA 
HETATM   14  C   UNL     1     -11.090  11.984  68.983  1.00  0.00    -0.239 C  
HETATM   15  O   UNL     1     -10.120  12.924  68.504  1.00  0.00    -0.233 OA 
HETATM   16  C   UNL     1     -10.435  10.667  69.409  1.00  0.00    -0.252 C  
HETATM   17  C   UNL     1     -11.451   9.726  70.065  1.00  0.00    -0.232 C  
HETATM   18  C   UNL     1     -12.167  10.393  71.237  1.00  0.00    -0.491 C  
HETATM   19  C   UNL     1     -12.796  11.727  70.845  1.00  0.00    -0.243 C  
HETATM   20  C   UNL     1     -11.783  12.648  70.179  1.00  0.00    -0.247 C  
ENDBRANCH  10  11
ENDBRANCH   6  10
TORSDOF 2
ENDMDL
MODEL       16
REMARK 921   NORMALIZED FREE ENERGY PREDICTED BY IDOCK:   -5.66 KCAL/MOL
REMARK 922        TOTAL FREE ENERGY PREDICTED BY IDOCK:   -6.46 KCAL/MOL
REMARK 923 INTER-LIGAND FREE ENERGY PREDICTED BY IDOCK:   -6.06 KCAL/MOL
REMARK 924 INTRA-LIGAND FREE ENERGY PREDICTED BY IDOCK:   -0.40 KCAL/MOL
REMARK 927      BINDING AFFINITY PREDICTED BY RF-SCORE:    0.00 PKD
ROOT
HETATM    1  N   UNL     1      -9.257  11.633  63.013  1.00  0.00    -0.599 NA 
HETATM    2  C   UNL     1     -10.337  12.267  63.520  1.00  0.00    -0.410 C  
HETATM    3  H2  UNL     1      -9.299  10.750  62.504  1.00  0.00     0.000 HD 
HETATM    4  H1  UNL     1      -8.395  12.144  63.202  1.00  0.00     0.000 HD 
HETATM    5  N   UNL     1     -11.478  11.590  63.271  1.00  0.00    -0.852 NA 
HETATM    6  N   UNL     1     -10.172  13.362  64.165  1.00  0.00    -0.757 NA 
HETATM    7  H1  UNL     1     -12.293  12.069  63.654  1.00  0.00     0.000 HD 
HETATM    8  H2  UNL     1     -11.520  10.708  62.762  1.00  0.00     0.000 HD 
HETATM    9  H   UNL     1      -9.254  13.801  64.229  1.00  0.00     0.000 HD 
ENDROOT
BRANCH   6  10
HETATM   10  C   UNL     1     -11.344  13.966  64.809  1.00  0.00    -0.363 C  
BRANCH  10  11
HETATM   11  C   UNL     1     -11.414  13.649  66.304  1.00  0.00    -0.333 C  
HETATM   12  C   UNL     1     -10.024  13.596  66.899  1.00  0.00    -0.260 C  
HETATM   13  O   UNL     1     -10.149  12.721  68.012  1.00  0.00    -0.217 OA 
HETATM   14  C   UNL     1     -11.195  11.808  67.654  1.00  0.00    -0.281 C  
HETATM   15  O   UNL     1     -11.948  12.337  66.555  1.00  0.00    -0.596 OA 
HETATM   16  C   UNL     1     -12.078  11.591  68.887  1.00  0.00    -0.270 C  
HETATM   17  C   UNL     1     -11.306  10.882  70.005  1.00  0.00    -0.386 C  
HETATM   18  C   UNL     1     -10.692   9.568  69.525  1.00  0.00    -0.246 C  
HETATM   19  C   UNL     1      -9.839   9.754  68.274  1.00  0.00    -0.167 C  
HETATM   20  C   UNL     1     -10.608  10.476  67.175  1.00  0.00    -0.319 C  
ENDBRANCH  10  11
ENDBRANCH   6  10
TORSDOF 2
ENDMDL
MODEL       17
REMARK 921   NORMALIZED FREE ENERGY PREDICTED BY IDOCK:   -5.62 KCAL/MOL
REMARK 922        TOTAL FREE ENERGY PREDICTED BY IDOCK:   -6.41 KCAL/MOL
REMARK 923 INTER-LIGAND FREE ENERGY PREDICTED BY IDOCK:   -6.10 KCAL/MOL
REMARK 924 INTRA-LIGAND FREE ENERGY PREDICTED BY IDOCK:   -0.32 KCAL/MOL
REMARK 927      BINDING AFFINITY PREDICTED BY RF-SCORE:    0.00 PKD
ROOT
HETATM    1  N   UNL     1     -12.473  14.201  63.211  1.00  0.00    -1.098 NA 
HETATM    2  C   UNL     1     -12.038  14.450  64.466  1.00  0.00    -0.481 C  
HETATM    3  H2  UNL     1     -12.130  14.683  62.381  1.00  0.00     0.000 HD 
HETATM    4  H1  UNL     1     -13.186  13.472  63.197  1.00  0.00     0.000 HD 
HETATM    5  N   UNL     1     -11.095  15.415  64.486  1.00  0.00    -0.687 NA 
HETATM    6  N   UNL     1     -12.552  13.803  65.446  1.00  0.00    -0.552 NA 
HETATM    7  H1  UNL     1     -10.767  15.604  65.433  1.00  0.00     0.000 HD 
HETATM    8  H2  UNL     1     -10.752  15.898  63.656  1.00  0.00     0.000 HD 
HETATM    9  H   UNL     1     -13.221  13.049  65.284  1.00  0.00     0.000 HD 
ENDROOT
BRANCH   6  10
HETATM   10  C   UNL     1     -12.151  14.178  66.806  1.00  0.00    -0.442 C  
BRANCH  10  11
HETATM   11  C   UNL     1     -11.481  13.023  67.553  1.00  0.00    -0.328 C  
HETATM   12  C   UNL     1      -9.983  13.052  67.337  1.00  0.00    -0.228 C  
HETATM   13  O   UNL     1      -9.579  11.698  67.492  1.00  0.00    -0.168 OA 
HETATM   14  C   UNL     1     -10.705  10.919  67.070  1.00  0.00    -0.271 C  
HETATM   15  O   UNL     1     -11.880  11.741  67.039  1.00  0.00    -0.599 OA 
HETATM   16  C   UNL     1     -10.865   9.748  68.043  1.00  0.00    -0.276 C  
HETATM   17  C   UNL     1      -9.673   8.788  67.957  1.00  0.00    -0.183 C  
HETATM   18  C   UNL     1      -9.444   8.295  66.530  1.00  0.00    -0.284 C  
HETATM   19  C   UNL     1      -9.321   9.446  65.536  1.00  0.00    -0.315 C  
HETATM   20  C   UNL     1     -10.500  10.404  65.641  1.00  0.00    -0.185 C  
ENDBRANCH  10  11
ENDBRANCH   6  10
TORSDOF 2
ENDMDL
MODEL       18
REMARK 921   NORMALIZED FREE ENERGY PREDICTED BY IDOCK:   -5.58 KCAL/MOL
REMARK 922        TOTAL FREE ENERGY PREDICTED BY IDOCK:   -6.37 KCAL/MOL
REMARK 923 INTER-LIGAND FREE ENERGY PREDICTED BY IDOCK:   -6.05 KCAL/MOL
REMARK 924 INTRA-LIGAND FREE ENERGY PREDICTED BY IDOCK:   -0.32 KCAL/MOL
REMARK 927      BINDING AFFINITY PREDICTED BY RF-SCORE:    0.00 PKD
ROOT
HETATM    1  N   UNL     1     -13.887  15.431  71.780  1.00  0.00    -0.499 NA 
HETATM    2  C   UNL     1     -12.808  15.521  70.972  1.00  0.00    -0.482 C  
HETATM    3  H2  UNL     1     -13.964  15.897  72.684  1.00  0.00     0.000 HD 
HETATM    4  H1  UNL     1     -14.614  14.840  71.377  1.00  0.00     0.000 HD 
HETATM    5  N   UNL     1     -11.846  16.302  71.505  1.00  0.00    -0.649 NA 
HETATM    6  N   UNL     1     -12.803  14.876  69.864  1.00  0.00    -0.606 NA 
HETATM    7  H1  UNL     1     -11.032  16.370  70.895  1.00  0.00     0.000 HD 
HETATM    8  H2  UNL     1     -11.924  16.768  72.409  1.00  0.00     0.000 HD 
HETATM    9  H   UNL     1     -13.628  14.366  69.549  1.00  0.00     0.000 HD 
ENDROOT
BRANCH   6  10
HETATM   10  C   UNL     1     -11.574  14.892  69.063  1.00  0.00    -0.305 C  
BRANCH  10  11
HETATM   11  C   UNL     1     -11.536  16.066  68.082  1.00  0.00    -0.250 C  
HETATM   12  C   UNL     1     -10.634  15.746  66.910  1.00  0.00    -0.317 C  
HETATM   13  O   UNL     1     -10.180  17.015  66.457  1.00  0.00    -0.302 OA 
HETATM   14  C   UNL     1     -10.161  17.844  67.626  1.00  0.00    -0.348 C  
HETATM   15  O   UNL     1     -10.942  17.239  68.664  1.00  0.00    -0.260 OA 
HETATM   16  C   UNL     1     -10.709  19.221  67.240  1.00  0.00    -0.594 C  
HETATM   17  C   UNL     1      -9.784  19.929  66.244  1.00  0.00    -0.551 C  
HETATM   18  C   UNL     1      -8.354  20.030  66.772  1.00  0.00    -0.372 C  
HETATM   19  C   UNL     1      -7.800  18.674  67.199  1.00  0.00    -0.241 C  
HETATM   20  C   UNL     1      -8.735  17.970  68.174  1.00  0.00    -0.277 C  
ENDBRANCH  10  11
ENDBRANCH   6  10
TORSDOF 2
ENDMDL
MODEL       19
REMARK 921   NORMALIZED FREE ENERGY PREDICTED BY IDOCK:   -5.57 KCAL/MOL
REMARK 922        TOTAL FREE ENERGY PREDICTED BY IDOCK:   -6.36 KCAL/MOL
REMARK 923 INTER-LIGAND FREE ENERGY PREDICTED BY IDOCK:   -6.21 KCAL/MOL
REMARK 924 INTRA-LIGAND FREE ENERGY PREDICTED BY IDOCK:   -0.15 KCAL/MOL
REMARK 927      BINDING AFFINITY PREDICTED BY RF-SCORE:    0.00 PKD
ROOT
HETATM    1  N   UNL     1     -11.424  11.696  63.189  1.00  0.00    -0.841 NA 
HETATM    2  C   UNL     1     -11.487  12.581  64.207  1.00  0.00    -0.362 C  
HETATM    3  H2  UNL     1     -12.213  11.133  62.871  1.00  0.00     0.000 HD 
HETATM    4  H1  UNL     1     -10.492  11.659  62.776  1.00  0.00     0.000 HD 
HETATM    5  N   UNL     1     -12.720  12.630  64.753  1.00  0.00    -0.748 NA 
HETATM    6  N   UNL     1     -10.429  13.223  64.542  1.00  0.00    -0.440 NA 
HETATM    7  H1  UNL     1     -12.766  13.298  65.522  1.00  0.00     0.000 HD 
HETATM    8  H2  UNL     1     -13.509  12.067  64.436  1.00  0.00     0.000 HD 
HETATM    9  H   UNL     1      -9.568  13.137  64.002  1.00  0.00     0.000 HD 
ENDROOT
BRANCH   6  10
HETATM   10  C   UNL     1     -10.493  14.086  65.726  1.00  0.00    -0.309 C  
BRANCH  10  11
HETATM   11  C   UNL     1     -10.138  15.540  65.406  1.00  0.00    -0.352 C  
HETATM   12  C   UNL     1      -8.817  15.914  66.043  1.00  0.00    -0.263 C  
HETATM   13  O   UNL     1      -8.905  17.320  66.236  1.00  0.00    -0.343 OA 
HETATM   14  C   UNL     1     -10.300  17.585  66.431  1.00  0.00    -0.334 C  
HETATM   15  O   UNL     1     -11.075  16.465  65.983  1.00  0.00    -0.049 OA 
HETATM   16  C   UNL     1     -10.654  18.859  65.659  1.00  0.00    -0.236 C  
HETATM   17  C   UNL     1      -9.939  20.081  66.244  1.00  0.00    -0.597 C  
HETATM   18  C   UNL     1     -10.221  20.242  67.737  1.00  0.00    -0.464 C  
HETATM   19  C   UNL     1      -9.912  18.970  68.522  1.00  0.00    -0.486 C  
HETATM   20  C   UNL     1     -10.612  17.759  67.922  1.00  0.00    -0.389 C  
ENDBRANCH  10  11
ENDBRANCH   6  10
TORSDOF 2
ENDMDL
MODEL       20
REMARK 921   NORMALIZED FREE ENERGY PREDICTED BY IDOCK:   -5.47 KCAL/MOL
REMARK 922        TOTAL FREE ENERGY PREDICTED BY IDOCK:   -6.25 KCAL/MOL
REMARK 923 INTER-LIGAND FREE ENERGY PREDICTED BY IDOCK:   -6.04 KCAL/MOL
REMARK 924 INTRA-LIGAND FREE ENERGY PREDICTED BY IDOCK:   -0.22 KCAL/MOL
REMARK 927      BINDING AFFINITY PREDICTED BY RF-SCORE:    0.00 PKD
ROOT
HETATM    1  N   UNL     1     -10.199  13.205  64.488  1.00  0.00    -0.572 NA 
HETATM    2  C   UNL     1      -9.992  13.769  65.698  1.00  0.00    -0.255 C  
HETATM    3  H2  UNL     1     -10.053  13.685  63.600  1.00  0.00     0.000 HD 
HETATM    4  H1  UNL     1     -10.521  12.240  64.570  1.00  0.00     0.000 HD 
HETATM    5  N   UNL     1      -9.566  15.045  65.589  1.00  0.00    -0.448 NA 
HETATM    6  N   UNL     1     -10.229  13.084  66.755  1.00  0.00    -0.243 NA 
HETATM    7  H1  UNL     1      -9.410  15.470  66.502  1.00  0.00     0.000 HD 
HETATM    8  H2  UNL     1      -9.420  15.525  64.701  1.00  0.00     0.000 HD 
HETATM    9  H   UNL     1     -10.491  12.100  66.696  1.00  0.00     0.000 HD 
ENDROOT
BRANCH   6  10
HETATM   10  C   UNL     1     -10.113  13.757  68.053  1.00  0.00    -0.245 C  
BRANCH  10  11
HETATM   11  C   UNL     1     -11.477  14.104  68.653  1.00  0.00    -0.299 C  
HETATM   12  C   UNL     1     -11.672  15.604  68.693  1.00  0.00    -0.352 C  
HETATM   13  O   UNL     1     -12.574  15.814  69.771  1.00  0.00    -0.203 OA 
HETATM   14  C   UNL     1     -12.316  14.744  70.689  1.00  0.00    -0.337 C  
HETATM   15  O   UNL     1     -11.580  13.704  70.030  1.00  0.00    -0.254 OA 
HETATM   16  C   UNL     1     -13.661  14.233  71.214  1.00  0.00    -0.355 C  
HETATM   17  C   UNL     1     -14.372  15.301  72.051  1.00  0.00    -0.689 C  
HETATM   18  C   UNL     1     -13.490  15.811  73.189  1.00  0.00    -0.652 C  
HETATM   19  C   UNL     1     -12.128  16.289  72.694  1.00  0.00    -0.628 C  
HETATM   20  C   UNL     1     -11.437  15.228  71.848  1.00  0.00    -0.504 C  
ENDBRANCH  10  11
ENDBRANCH   6  10
TORSDOF 2
ENDMDL
MODEL       21
REMARK 921   NORMALIZED FREE ENERGY PREDICTED BY IDOCK:   -5.44 KCAL/MOL
REMARK 922        TOTAL FREE ENERGY PREDICTED BY IDOCK:   -6.21 KCAL/MOL
REMARK 923 INTER-LIGAND FREE ENERGY PREDICTED BY IDOCK:   -6.04 KCAL/MOL
REMARK 924 INTRA-LIGAND FREE ENERGY PREDICTED BY IDOCK:   -0.17 KCAL/MOL
REMARK 927      BINDING AFFINITY PREDICTED BY RF-SCORE:    0.00 PKD
ROOT
HETATM    1  N   UNL     1     -12.633  11.388  62.712  1.00  0.00    -0.763 NA 
HETATM    2  C   UNL     1     -11.999  12.262  63.525  1.00  0.00    -0.533 C  
HETATM    3  H2  UNL     1     -13.281  11.661  61.974  1.00  0.00     0.000 HD 
HETATM    4  H1  UNL     1     -12.383  10.423  62.927  1.00  0.00     0.000 HD 
HETATM    5  N   UNL     1     -12.330  13.540  63.241  1.00  0.00    -1.017 NA 
HETATM    6  N   UNL     1     -11.220  11.814  64.438  1.00  0.00    -0.326 NA 
HETATM    7  H1  UNL     1     -11.853  14.199  63.855  1.00  0.00     0.000 HD 
HETATM    8  H2  UNL     1     -12.979  13.812  62.504  1.00  0.00     0.000 HD 
HETATM    9  H   UNL     1     -11.008  10.818  64.505  1.00  0.00     0.000 HD 
ENDROOT
BRANCH   6  10
HETATM   10  C   UNL     1     -10.641  12.774  65.383  1.00  0.00    -0.287 C  
BRANCH  10  11
HETATM   11  C   UNL     1     -11.459  12.888  66.671  1.00  0.00    -0.343 C  
HETATM   12  C   UNL     1     -12.234  14.187  66.693  1.00  0.00    -0.418 C  
HETATM   13  O   UNL     1     -12.402  14.475  68.075  1.00  0.00    -0.172 OA 
HETATM   14  C   UNL     1     -11.257  13.901  68.719  1.00  0.00    -0.272 C  
HETATM   15  O   UNL     1     -10.623  12.964  67.839  1.00  0.00    -0.214 OA 
HETATM   16  C   UNL     1     -11.728  13.228  70.011  1.00  0.00    -0.295 C  
HETATM   17  C   UNL     1     -12.262  14.258  71.012  1.00  0.00    -0.428 C  
HETATM   18  C   UNL     1     -11.238  15.355  71.299  1.00  0.00    -0.407 C  
HETATM   19  C   UNL     1     -10.726  16.013  70.021  1.00  0.00    -0.328 C  
HETATM   20  C   UNL     1     -10.214  14.981  69.026  1.00  0.00    -0.242 C  
ENDBRANCH  10  11
ENDBRANCH   6  10
TORSDOF 2
ENDMDL
MODEL       22
REMARK 921   NORMALIZED FREE ENERGY PREDICTED BY IDOCK:   -5.38 KCAL/MOL
REMARK 922        TOTAL FREE ENERGY PREDICTED BY IDOCK:   -6.14 KCAL/MOL
REMARK 923 INTER-LIGAND FREE ENERGY PREDICTED BY IDOCK:   -6.02 KCAL/MOL
REMARK 924 INTRA-LIGAND FREE ENERGY PREDICTED BY IDOCK:   -0.13 KCAL/MOL
REMARK 927      BINDING AFFINITY PREDICTED BY RF-SCORE:    0.00 PKD
ROOT
HETATM    1  N   UNL     1     -10.334  10.957  62.808  1.00  0.00    -0.783 NA 
HETATM    2  C   UNL     1     -11.202  11.553  63.655  1.00  0.00    -0.362 C  
HETATM    3  H2  UNL     1     -10.586  10.606  61.885  1.00  0.00     0.000 HD 
HETATM    4  H1  UNL     1      -9.396  10.901  63.206  1.00  0.00     0.000 HD 
HETATM    5  N   UNL     1     -12.443  11.626  63.129  1.00  0.00    -0.949 NA 
HETATM    6  N   UNL     1     -10.788  11.939  64.805  1.00  0.00    -0.296 NA 
HETATM    7  H1  UNL     1     -13.098  12.076  63.769  1.00  0.00     0.000 HD 
HETATM    8  H2  UNL     1     -12.695  11.275  62.206  1.00  0.00     0.000 HD 
HETATM    9  H   UNL     1      -9.801  11.878  65.055  1.00  0.00     0.000 HD 
ENDROOT
BRANCH   6  10
HETATM   10  C   UNL     1     -11.775  12.471  65.750  1.00  0.00    -0.426 C  
BRANCH  10  11
HETATM   11  C   UNL     1     -11.205  13.599  66.613  1.00  0.00    -0.313 C  
HETATM   12  C   UNL     1     -10.257  13.042  67.652  1.00  0.00    -0.216 C  
HETATM   13  O   UNL     1     -10.308  13.983  68.716  1.00  0.00    -0.240 OA 
HETATM   14  C   UNL     1     -11.627  14.540  68.661  1.00  0.00    -0.315 C  
HETATM   15  O   UNL     1     -12.223  14.255  67.388  1.00  0.00    -0.378 OA 
HETATM   16  C   UNL     1     -11.517  16.048  68.904  1.00  0.00    -0.362 C  
HETATM   17  C   UNL     1     -11.027  16.348  70.324  1.00  0.00    -0.262 C  
HETATM   18  C   UNL     1     -11.905  15.679  71.380  1.00  0.00    -0.482 C  
HETATM   19  C   UNL     1     -12.061  14.181  71.135  1.00  0.00    -0.392 C  
HETATM   20  C   UNL     1     -12.531  13.893  69.716  1.00  0.00    -0.240 C  
ENDBRANCH  10  11
ENDBRANCH   6  10
TORSDOF 2
ENDMDL
MODEL       23
REMARK 921   NORMALIZED FREE ENERGY PREDICTED BY IDOCK:   -5.37 KCAL/MOL
REMARK 922        TOTAL FREE ENERGY PREDICTED BY IDOCK:   -6.14 KCAL/MOL
REMARK 923 INTER-LIGAND FREE ENERGY PREDICTED BY IDOCK:   -5.97 KCAL/MOL
REMARK 924 INTRA-LIGAND FREE ENERGY PREDICTED BY IDOCK:   -0.17 KCAL/MOL
REMARK 927      BINDING AFFINITY PREDICTED BY RF-SCORE:    0.00 PKD
ROOT
HETATM    1  N   UNL     1     -13.595  15.406  70.822  1.00  0.00    -0.814 NA 
HETATM    2  C   UNL     1     -12.418  15.228  70.184  1.00  0.00    -0.334 C  
HETATM    3  H2  UNL     1     -13.744  15.213  71.812  1.00  0.00     0.000 HD 
HETATM    4  H1  UNL     1     -14.317  15.758  70.193  1.00  0.00     0.000 HD 
HETATM    5  N   UNL     1     -11.463  14.762  71.016  1.00  0.00    -0.484 NA 
HETATM    6  N   UNL     1     -12.343  15.480  68.929  1.00  0.00    -0.590 NA 
HETATM    7  H1  UNL     1     -10.575  14.627  70.534  1.00  0.00     0.000 HD 
HETATM    8  H2  UNL     1     -11.611  14.568  72.006  1.00  0.00     0.000 HD 
HETATM    9  H   UNL     1     -13.132  15.889  68.428  1.00  0.00     0.000 HD 
ENDROOT
BRANCH   6  10
HETATM   10  C   UNL     1     -11.091  15.163  68.236  1.00  0.00    -0.291 C  
BRANCH  10  11
HETATM   11  C   UNL     1     -11.329  14.563  66.849  1.00  0.00    -0.348 C  
HETATM   12  C   UNL     1     -12.277  13.387  66.937  1.00  0.00    -0.289 C  
HETATM   13  O   UNL     1     -11.932  12.572  65.824  1.00  0.00    -0.425 OA 
HETATM   14  C   UNL     1     -10.536  12.806  65.606  1.00  0.00    -0.278 C  
HETATM   15  O   UNL     1     -10.131  14.001  66.288  1.00  0.00    -0.282 OA 
HETATM   16  C   UNL     1     -10.302  12.915  64.097  1.00  0.00    -0.385 C  
HETATM   17  C   UNL     1     -10.588  11.584  63.393  1.00  0.00    -0.460 C  
HETATM   18  C   UNL     1      -9.781  10.437  63.998  1.00  0.00    -0.373 C  
HETATM   19  C   UNL     1      -9.968  10.335  65.509  1.00  0.00    -0.364 C  
HETATM   20  C   UNL     1      -9.699  11.666  66.197  1.00  0.00    -0.253 C  
ENDBRANCH  10  11
ENDBRANCH   6  10
TORSDOF 2
ENDMDL
MODEL       24
REMARK 921   NORMALIZED FREE ENERGY PREDICTED BY IDOCK:   -5.36 KCAL/MOL
REMARK 922        TOTAL FREE ENERGY PREDICTED BY IDOCK:   -6.13 KCAL/MOL
REMARK 923 INTER-LIGAND FREE ENERGY PREDICTED BY IDOCK:   -5.79 KCAL/MOL
REMARK 924 INTRA-LIGAND FREE ENERGY PREDICTED BY IDOCK:   -0.33 KCAL/MOL
REMARK 927      BINDING AFFINITY PREDICTED BY RF-SCORE:    0.00 PKD
ROOT
HETATM    1  N   UNL     1     -12.785  11.405  63.002  1.00  0.00    -0.798 NA 
HETATM    2  C   UNL     1     -12.401  12.461  63.752  1.00  0.00    -0.528 C  
HETATM    3  H2  UNL     1     -12.390  11.179  62.089  1.00  0.00     0.000 HD 
HETATM    4  H1  UNL     1     -13.517  10.862  63.460  1.00  0.00     0.000 HD 
HETATM    5  N   UNL     1     -11.432  13.180  63.147  1.00  0.00    -0.657 NA 
HETATM    6  N   UNL     1     -12.977  12.670  64.878  1.00  0.00    -0.850 NA 
HETATM    7  H1  UNL     1     -11.143  13.977  63.713  1.00  0.00     0.000 HD 
HETATM    8  H2  UNL     1     -11.038  12.954  62.234  1.00  0.00     0.000 HD 
HETATM    9  H   UNL     1     -13.659  12.008  65.250  1.00  0.00     0.000 HD 
ENDROOT
BRANCH   6  10
HETATM   10  C   UNL     1     -12.628  13.888  65.615  1.00  0.00    -0.517 C  
BRANCH  10  11
HETATM   11  C   UNL     1     -11.518  13.650  66.641  1.00  0.00    -0.343 C  
HETATM   12  C   UNL     1     -11.509  14.752  67.677  1.00  0.00    -0.347 C  
HETATM   13  O   UNL     1     -10.163  14.798  68.132  1.00  0.00    -0.223 OA 
HETATM   14  C   UNL     1      -9.375  14.377  67.012  1.00  0.00    -0.242 C  
HETATM   15  O   UNL     1     -10.209  13.721  66.048  1.00  0.00    -0.292 OA 
HETATM   16  C   UNL     1      -8.275  13.444  67.529  1.00  0.00    -0.186 C  
HETATM   17  C   UNL     1      -7.294  14.192  68.437  1.00  0.00    -0.115 C  
HETATM   18  C   UNL     1      -6.701  15.417  67.744  1.00  0.00    -0.187 C  
HETATM   19  C   UNL     1      -7.778  16.342  67.186  1.00  0.00    -0.223 C  
HETATM   20  C   UNL     1      -8.759  15.586  66.300  1.00  0.00    -0.283 C  
ENDBRANCH  10  11
ENDBRANCH   6  10
TORSDOF 2
ENDMDL
MODEL       25
REMARK 921   NORMALIZED FREE ENERGY PREDICTED BY IDOCK:   -5.33 KCAL/MOL
REMARK 922        TOTAL FREE ENERGY PREDICTED BY IDOCK:   -6.09 KCAL/MOL
REMARK 923 INTER-LIGAND FREE ENERGY PREDICTED BY IDOCK:   -5.85 KCAL/MOL
REMARK 924 INTRA-LIGAND FREE ENERGY PREDICTED BY IDOCK:   -0.24 KCAL/MOL
REMARK 927      BINDING AFFINITY PREDICTED BY RF-SCORE:    0.00 PKD
ROOT
HETATM    1  N   UNL     1      -8.209  11.533  62.521  1.00  0.00    -0.628 NA 
HETATM    2  C   UNL     1      -9.512  11.245  62.729  1.00  0.00    -0.326 C  
HETATM    3  H2  UNL     1      -7.533  10.876  62.134  1.00  0.00     0.000 HD 
HETATM    4  H1  UNL     1      -7.983  12.488  62.799  1.00  0.00     0.000 HD 
HETATM    5  N   UNL     1      -9.811   9.982  62.362  1.00  0.00    -0.670 NA 
HETATM    6  N   UNL     1     -10.274  12.138  63.245  1.00  0.00    -0.493 NA 
HETATM    7  H1  UNL     1     -10.794   9.764  62.519  1.00  0.00     0.000 HD 
HETATM    8  H2  UNL     1      -9.135   9.324  61.974  1.00  0.00     0.000 HD 
HETATM    9  H   UNL     1      -9.932  13.083  63.421  1.00  0.00     0.000 HD 
ENDROOT
BRANCH   6  10
HETATM   10  C   UNL     1     -11.653  11.761  63.572  1.00  0.00    -0.387 C  
BRANCH  10  11
HETATM   11  C   UNL     1     -12.167  12.469  64.827  1.00  0.00    -0.465 C  
HETATM   12  C   UNL     1     -12.262  13.961  64.591  1.00  0.00    -0.419 C  
HETATM   13  O   UNL     1     -12.112  14.533  65.884  1.00  0.00    -0.354 OA 
HETATM   14  C   UNL     1     -11.281  13.615  66.605  1.00  0.00    -0.313 C  
HETATM   15  O   UNL     1     -11.251  12.351  65.929  1.00  0.00    -0.306 OA 
HETATM   16  C   UNL     1     -11.842  13.480  68.024  1.00  0.00    -0.400 C  
HETATM   17  C   UNL     1     -11.726  14.799  68.795  1.00  0.00    -0.354 C  
HETATM   18  C   UNL     1     -10.291  15.321  68.814  1.00  0.00    -0.232 C  
HETATM   19  C   UNL     1      -9.698  15.427  67.412  1.00  0.00    -0.215 C  
HETATM   20  C   UNL     1      -9.833  14.117  66.648  1.00  0.00    -0.289 C  
ENDBRANCH  10  11
ENDBRANCH   6  10
TORSDOF 2
ENDMDL
MODEL       26
REMARK 921   NORMALIZED FREE ENERGY PREDICTED BY IDOCK:   -5.30 KCAL/MOL
REMARK 922        TOTAL FREE ENERGY PREDICTED BY IDOCK:   -6.05 KCAL/MOL
REMARK 923 INTER-LIGAND FREE ENERGY PREDICTED BY IDOCK:   -5.86 KCAL/MOL
REMARK 924 INTRA-LIGAND FREE ENERGY PREDICTED BY IDOCK:   -0.19 KCAL/MOL
REMARK 927      BINDING AFFINITY PREDICTED BY RF-SCORE:    0.00 PKD
ROOT
HETATM    1  N   UNL     1      -9.894  20.170  65.982  1.00  0.00    -0.606 NA 
HETATM    2  C   UNL     1     -10.072  19.276  66.979  1.00  0.00    -0.374 C  
HETATM    3  H2  UNL     1      -9.787  21.174  66.127  1.00  0.00     0.000 HD 
HETATM    4  H1  UNL     1      -9.880  19.719  65.067  1.00  0.00     0.000 HD 
HETATM    5  N   UNL     1     -10.091  19.872  68.189  1.00  0.00    -0.430 NA 
HETATM    6  N   UNL     1     -10.220  18.036  66.687  1.00  0.00    -0.356 NA 
HETATM    7  H1  UNL     1     -10.226  19.197  68.941  1.00  0.00     0.000 HD 
HETATM    8  H2  UNL     1      -9.984  20.875  68.334  1.00  0.00     0.000 HD 
HETATM    9  H   UNL     1     -10.122  17.708  65.726  1.00  0.00     0.000 HD 
ENDROOT
BRANCH   6  10
HETATM   10  C   UNL     1     -10.532  17.104  67.775  1.00  0.00    -0.362 C  
BRANCH  10  11
HETATM   11  C   UNL     1     -10.311  15.645  67.372  1.00  0.00    -0.275 C  
HETATM   12  C   UNL     1      -9.505  15.565  66.094  1.00  0.00    -0.341 C  
HETATM   13  O   UNL     1      -9.897  14.332  65.506  1.00  0.00    -0.315 OA 
HETATM   14  C   UNL     1     -11.250  14.127  65.932  1.00  0.00    -0.313 C  
HETATM   15  O   UNL     1     -11.544  14.980  67.046  1.00  0.00    -0.331 OA 
HETATM   16  C   UNL     1     -11.414  12.649  66.298  1.00  0.00    -0.415 C  
HETATM   17  C   UNL     1     -11.252  11.750  65.067  1.00  0.00    -0.318 C  
HETATM   18  C   UNL     1     -12.205  12.152  63.943  1.00  0.00    -0.587 C  
HETATM   19  C   UNL     1     -12.086  13.631  63.588  1.00  0.00    -0.397 C  
HETATM   20  C   UNL     1     -12.230  14.515  64.819  1.00  0.00    -0.441 C  
ENDBRANCH  10  11
ENDBRANCH   6  10
TORSDOF 2
ENDMDL
MODEL       27
REMARK 921   NORMALIZED FREE ENERGY PREDICTED BY IDOCK:   -5.29 KCAL/MOL
REMARK 922        TOTAL FREE ENERGY PREDICTED BY IDOCK:   -6.05 KCAL/MOL
REMARK 923 INTER-LIGAND FREE ENERGY PREDICTED BY IDOCK:   -5.82 KCAL/MOL
REMARK 924 INTRA-LIGAND FREE ENERGY PREDICTED BY IDOCK:   -0.23 KCAL/MOL
REMARK 927      BINDING AFFINITY PREDICTED BY RF-SCORE:    0.00 PKD
ROOT
HETATM    1  N   UNL     1     -13.596  12.481  72.227  1.00  0.00    -0.549 NA 
HETATM    2  C   UNL     1     -12.975  11.424  71.657  1.00  0.00    -0.418 C  
HETATM    3  H2  UNL     1     -14.243  12.408  73.012  1.00  0.00     0.000 HD 
HETATM    4  H1  UNL     1     -13.339  13.358  71.776  1.00  0.00     0.000 HD 
HETATM    5  N   UNL     1     -13.316  10.262  72.253  1.00  0.00    -0.590 NA 
HETATM    6  N   UNL     1     -12.198  11.622  70.658  1.00  0.00    -0.384 NA 
HETATM    7  H1  UNL     1     -12.847   9.465  71.823  1.00  0.00     0.000 HD 
HETATM    8  H2  UNL     1     -13.962  10.190  73.039  1.00  0.00     0.000 HD 
HETATM    9  H   UNL     1     -11.977  12.566  70.342  1.00  0.00     0.000 HD 
ENDROOT
BRANCH   6  10
HETATM   10  C   UNL     1     -11.633  10.449  69.982  1.00  0.00    -0.301 C  
BRANCH  10  11
HETATM   11  C   UNL     1     -11.174  10.764  68.556  1.00  0.00    -0.279 C  
HETATM   12  C   UNL     1      -9.964  11.672  68.579  1.00  0.00    -0.194 C  
HETATM   13  O   UNL     1     -10.029  12.376  67.345  1.00  0.00    -0.200 OA 
HETATM   14  C   UNL     1     -11.425  12.462  67.036  1.00  0.00    -0.358 C  
HETATM   15  O   UNL     1     -12.158  11.516  67.825  1.00  0.00    -0.626 OA 
HETATM   16  C   UNL     1     -11.597  12.196  65.537  1.00  0.00    -0.398 C  
HETATM   17  C   UNL     1     -10.943  13.299  64.699  1.00  0.00    -0.384 C  
HETATM   18  C   UNL     1     -11.463  14.684  65.079  1.00  0.00    -0.386 C  
HETATM   19  C   UNL     1     -11.337  14.956  66.575  1.00  0.00    -0.319 C  
HETATM   20  C   UNL     1     -11.974  13.846  67.400  1.00  0.00    -0.436 C  
ENDBRANCH  10  11
ENDBRANCH   6  10
TORSDOF 2
ENDMDL
MODEL       28
REMARK 921   NORMALIZED FREE ENERGY PREDICTED BY IDOCK:   -5.26 KCAL/MOL
REMARK 922        TOTAL FREE ENERGY PREDICTED BY IDOCK:   -6.01 KCAL/MOL
REMARK 923 INTER-LIGAND FREE ENERGY PREDICTED BY IDOCK:   -5.84 KCAL/MOL
REMARK 924 INTRA-LIGAND FREE ENERGY PREDICTED BY IDOCK:   -0.16 KCAL/MOL
REMARK 927      BINDING AFFINITY PREDICTED BY RF-SCORE:    0.00 PKD
ROOT
HETATM    1  N   UNL     1     -10.124  17.244  65.544  1.00  0.00    -0.588 NA 
HETATM    2  C   UNL     1     -10.823  16.217  65.014  1.00  0.00    -0.363 C  
HETATM    3  H2  UNL     1     -10.071  18.174  65.129  1.00  0.00     0.000 HD 
HETATM    4  H1  UNL     1      -9.657  16.977  66.410  1.00  0.00     0.000 HD 
HETATM    5  N   UNL     1     -11.441  16.570  63.868  1.00  0.00    -1.599 NA 
HETATM    6  N   UNL     1     -10.806  15.079  65.605  1.00  0.00    -0.332 NA 
HETATM    7  H1  UNL     1     -11.968  15.794  63.468  1.00  0.00     0.000 HD 
HETATM    8  H2  UNL     1     -11.388  17.500  63.452  1.00  0.00     0.000 HD 
HETATM    9  H   UNL     1     -10.344  14.962  66.507  1.00  0.00     0.000 HD 
ENDROOT
BRANCH   6  10
HETATM   10  C   UNL     1     -11.471  13.950  64.946  1.00  0.00    -0.350 C  
BRANCH  10  11
HETATM   11  C   UNL     1     -10.486  12.856  64.531  1.00  0.00    -0.377 C  
HETATM   12  C   UNL     1     -11.228  11.653  63.992  1.00  0.00    -0.369 C  
HETATM   13  O   UNL     1     -10.357  10.558  64.247  1.00  0.00    -0.332 OA 
HETATM   14  C   UNL     1      -9.627  10.926  65.424  1.00  0.00    -0.225 C  
HETATM   15  O   UNL     1      -9.750  12.336  65.652  1.00  0.00    -0.245 OA 
HETATM   16  C   UNL     1      -8.166  10.515  65.225  1.00  0.00    -0.146 C  
HETATM   17  C   UNL     1      -8.024   8.991  65.138  1.00  0.00    -0.119 C  
HETATM   18  C   UNL     1      -8.635   8.295  66.352  1.00  0.00    -0.144 C  
HETATM   19  C   UNL     1     -10.080   8.719  66.593  1.00  0.00    -0.358 C  
HETATM   20  C   UNL     1     -10.214  10.234  66.660  1.00  0.00    -0.294 C  
ENDBRANCH  10  11
ENDBRANCH   6  10
TORSDOF 2
ENDMDL
MODEL       29
REMARK 921   NORMALIZED FREE ENERGY PREDICTED BY IDOCK:   -5.24 KCAL/MOL
REMARK 922        TOTAL FREE ENERGY PREDICTED BY IDOCK:   -5.99 KCAL/MOL
REMARK 923 INTER-LIGAND FREE ENERGY PREDICTED BY IDOCK:   -5.82 KCAL/MOL
REMARK 924 INTRA-LIGAND FREE ENERGY PREDICTED BY IDOCK:   -0.18 KCAL/MOL
REMARK 927      BINDING AFFINITY PREDICTED BY RF-SCORE:    0.00 PKD
ROOT
HETATM    1  N   UNL     1     -12.377  11.207  68.357  1.00  0.00    -0.607 NA 
HETATM    2  C   UNL     1     -11.456  12.148  68.053  1.00  0.00    -0.319 C  
HETATM    3  H2  UNL     1     -12.356  10.639  69.203  1.00  0.00     0.000 HD 
HETATM    4  H1  UNL     1     -13.096  11.135  67.636  1.00  0.00     0.000 HD 
HETATM    5  N   UNL     1     -10.505  12.244  69.006  1.00  0.00    -0.419 NA 
HETATM    6  N   UNL     1     -11.562  12.792  66.950  1.00  0.00    -0.347 NA 
HETATM    7  H1  UNL     1      -9.810  12.954  68.776  1.00  0.00     0.000 HD 
HETATM    8  H2  UNL     1     -10.484  11.676  69.852  1.00  0.00     0.000 HD 
HETATM    9  H   UNL     1     -12.371  12.664  66.342  1.00  0.00     0.000 HD 
ENDROOT
BRANCH   6  10
HETATM   10  C   UNL     1     -10.485  13.719  66.587  1.00  0.00    -0.272 C  
BRANCH  10  11
HETATM   11  C   UNL     1     -10.953  15.176  66.571  1.00  0.00    -0.318 C  
HETATM   12  C   UNL     1     -10.676  15.806  65.223  1.00  0.00    -0.428 C  
HETATM   13  O   UNL     1     -10.537  17.192  65.503  1.00  0.00    -0.563 OA 
HETATM   14  C   UNL     1     -10.022  17.255  66.839  1.00  0.00    -0.294 C  
HETATM   15  O   UNL     1     -10.212  15.993  67.493  1.00  0.00    -0.262 OA 
HETATM   16  C   UNL     1     -10.748  18.384  67.576  1.00  0.00    -0.399 C  
HETATM   17  C   UNL     1     -10.414  19.750  66.965  1.00  0.00    -0.595 C  
HETATM   18  C   UNL     1      -8.907  19.997  66.918  1.00  0.00    -0.433 C  
HETATM   19  C   UNL     1      -8.159  18.864  66.222  1.00  0.00    -0.286 C  
HETATM   20  C   UNL     1      -8.511  17.510  66.823  1.00  0.00    -0.275 C  
ENDBRANCH  10  11
ENDBRANCH   6  10
TORSDOF 2
ENDMDL
MODEL       30
REMARK 921   NORMALIZED FREE ENERGY PREDICTED BY IDOCK:   -5.24 KCAL/MOL
REMARK 922        TOTAL FREE ENERGY PREDICTED BY IDOCK:   -5.99 KCAL/MOL
REMARK 923 INTER-LIGAND FREE ENERGY PREDICTED BY IDOCK:   -5.68 KCAL/MOL
REMARK 924 INTRA-LIGAND FREE ENERGY PREDICTED BY IDOCK:   -0.31 KCAL/MOL
REMARK 927      BINDING AFFINITY PREDICTED BY RF-SCORE:    0.00 PKD
ROOT
HETATM    1  N   UNL     1     -12.535  14.451  63.457  1.00  0.00    -1.090 NA 
HETATM    2  C   UNL     1     -12.174  13.214  63.865  1.00  0.00    -0.433 C  
HETATM    3  H2  UNL     1     -13.332  14.965  63.830  1.00  0.00     0.000 HD 
HETATM    4  H1  UNL     1     -11.914  14.806  62.730  1.00  0.00     0.000 HD 
HETATM    5  N   UNL     1     -12.997  12.744  64.826  1.00  0.00    -0.844 NA 
HETATM    6  N   UNL     1     -11.167  12.644  63.313  1.00  0.00    -0.731 NA 
HETATM    7  H1  UNL     1     -12.724  11.811  65.133  1.00  0.00     0.000 HD 
HETATM    8  H2  UNL     1     -13.794  13.259  65.199  1.00  0.00     0.000 HD 
HETATM    9  H   UNL     1     -10.589  13.140  62.634  1.00  0.00     0.000 HD 
ENDROOT
BRANCH   6  10
HETATM   10  C   UNL     1     -10.871  11.257  63.687  1.00  0.00    -0.333 C  
BRANCH  10  11
HETATM   11  C   UNL     1      -9.810  11.165  64.786  1.00  0.00    -0.277 C  
HETATM   12  C   UNL     1      -9.417   9.723  65.022  1.00  0.00    -0.272 C  
HETATM   13  O   UNL     1      -8.983   9.693  66.375  1.00  0.00    -0.146 OA 
HETATM   14  C   UNL     1      -9.738  10.717  67.033  1.00  0.00    -0.176 C  
HETATM   15  O   UNL     1     -10.312  11.600  66.061  1.00  0.00    -0.227 OA 
HETATM   16  C   UNL     1      -8.797  11.464  67.984  1.00  0.00    -0.155 C  
HETATM   17  C   UNL     1      -8.310  10.551  69.114  1.00  0.00    -0.154 C  
HETATM   18  C   UNL     1      -9.474   9.916  69.872  1.00  0.00    -0.256 C  
HETATM   19  C   UNL     1     -10.446   9.198  68.940  1.00  0.00    -0.239 C  
HETATM   20  C   UNL     1     -10.910  10.108  67.810  1.00  0.00    -0.346 C  
ENDBRANCH  10  11
ENDBRANCH   6  10
TORSDOF 2
ENDMDL
MODEL       31
REMARK 921   NORMALIZED FREE ENERGY PREDICTED BY IDOCK:   -5.23 KCAL/MOL
REMARK 922        TOTAL FREE ENERGY PREDICTED BY IDOCK:   -5.98 KCAL/MOL
REMARK 923 INTER-LIGAND FREE ENERGY PREDICTED BY IDOCK:   -5.85 KCAL/MOL
REMARK 924 INTRA-LIGAND FREE ENERGY PREDICTED BY IDOCK:   -0.13 KCAL/MOL
REMARK 927      BINDING AFFINITY PREDICTED BY RF-SCORE:    0.00 PKD
ROOT
HETATM    1  N   UNL     1     -12.749  16.307  74.089  1.00  0.00    -0.834 NA 
HETATM    2  C   UNL     1     -13.028  15.678  72.926  1.00  0.00    -0.497 C  
HETATM    3  H2  UNL     1     -13.154  16.050  74.989  1.00  0.00     0.000 HD 
HETATM    4  H1  UNL     1     -12.084  17.069  73.957  1.00  0.00     0.000 HD 
HETATM    5  N   UNL     1     -13.908  14.670  73.100  1.00  0.00    -0.429 NA 
HETATM    6  N   UNL     1     -12.481  16.096  71.844  1.00  0.00    -0.558 NA 
HETATM    7  H1  UNL     1     -14.118  14.196  72.222  1.00  0.00     0.000 HD 
HETATM    8  H2  UNL     1     -14.313  14.413  74.000  1.00  0.00     0.000 HD 
HETATM    9  H   UNL     1     -11.780  16.837  71.861  1.00  0.00     0.000 HD 
ENDROOT
BRANCH   6  10
HETATM   10  C   UNL     1     -12.894  15.476  70.580  1.00  0.00    -0.413 C  
BRANCH  10  11
HETATM   11  C   UNL     1     -11.702  15.138  69.682  1.00  0.00    -0.327 C  
HETATM   12  C   UNL     1     -11.474  16.239  68.669  1.00  0.00    -0.288 C  
HETATM   13  O   UNL     1     -10.850  15.585  67.572  1.00  0.00    -0.295 OA 
HETATM   14  C   UNL     1     -11.354  14.244  67.599  1.00  0.00    -0.324 C  
HETATM   15  O   UNL     1     -11.944  13.972  68.877  1.00  0.00    -0.335 OA 
HETATM   16  C   UNL     1     -10.190  13.294  67.304  1.00  0.00    -0.240 C  
HETATM   17  C   UNL     1      -9.665  13.484  65.877  1.00  0.00    -0.199 C  
HETATM   18  C   UNL     1     -10.777  13.339  64.839  1.00  0.00    -0.365 C  
HETATM   19  C   UNL     1     -11.965  14.249  65.136  1.00  0.00    -0.395 C  
HETATM   20  C   UNL     1     -12.467  14.066  66.561  1.00  0.00    -0.351 C  
ENDBRANCH  10  11
ENDBRANCH   6  10
TORSDOF 2
ENDMDL
MODEL       32
REMARK 921   NORMALIZED FREE ENERGY PREDICTED BY IDOCK:   -5.23 KCAL/MOL
REMARK 922        TOTAL FREE ENERGY PREDICTED BY IDOCK:   -5.98 KCAL/MOL
REMARK 923 INTER-LIGAND FREE ENERGY PREDICTED BY IDOCK:   -5.73 KCAL/MOL
REMARK 924 INTRA-LIGAND FREE ENERGY PREDICTED BY IDOCK:   -0.25 KCAL/MOL
REMARK 927      BINDING AFFINITY PREDICTED BY RF-SCORE:    0.00 PKD
ROOT
HETATM    1  N   UNL     1     -13.722  15.348  70.705  1.00  0.00    -0.841 NA 
HETATM    2  C   UNL     1     -12.577  14.777  70.271  1.00  0.00    -0.315 C  
HETATM    3  H2  UNL     1     -14.089  15.245  71.650  1.00  0.00     0.000 HD 
HETATM    4  H1  UNL     1     -14.173  15.894  69.971  1.00  0.00     0.000 HD 
HETATM    5  N   UNL     1     -11.980  14.053  71.241  1.00  0.00    -0.446 NA 
HETATM    6  N   UNL     1     -12.215  14.950  69.054  1.00  0.00    -0.573 NA 
HETATM    7  H1  UNL     1     -11.116  13.622  70.913  1.00  0.00     0.000 HD 
HETATM    8  H2  UNL     1     -12.347  13.951  72.187  1.00  0.00     0.000 HD 
HETATM    9  H   UNL     1     -12.731  15.577  68.436  1.00  0.00     0.000 HD 
ENDROOT
BRANCH   6  10
HETATM   10  C   UNL     1     -11.035  14.221  68.575  1.00  0.00    -0.252 C  
BRANCH  10  11
HETATM   11  C   UNL     1      -9.921  15.160  68.108  1.00  0.00    -0.221 C  
HETATM   12  C   UNL     1      -9.377  15.957  69.273  1.00  0.00    -0.259 C  
HETATM   13  O   UNL     1      -8.881  17.152  68.683  1.00  0.00    -0.263 OA 
HETATM   14  C   UNL     1      -9.703  17.369  67.530  1.00  0.00    -0.266 C  
HETATM   15  O   UNL     1     -10.405  16.164  67.199  1.00  0.00    -0.281 OA 
HETATM   16  C   UNL     1      -8.799  17.826  66.382  1.00  0.00    -0.256 C  
HETATM   17  C   UNL     1      -8.173  19.193  66.677  1.00  0.00    -0.303 C  
HETATM   18  C   UNL     1      -9.233  20.245  67.001  1.00  0.00    -0.503 C  
HETATM   19  C   UNL     1     -10.170  19.794  68.117  1.00  0.00    -0.577 C  
HETATM   20  C   UNL     1     -10.773  18.427  67.822  1.00  0.00    -0.371 C  
ENDBRANCH  10  11
ENDBRANCH   6  10
TORSDOF 2
ENDMDL
MODEL       33
REMARK 921   NORMALIZED FREE ENERGY PREDICTED BY IDOCK:   -5.19 KCAL/MOL
REMARK 922        TOTAL FREE ENERGY PREDICTED BY IDOCK:   -5.94 KCAL/MOL
REMARK 923 INTER-LIGAND FREE ENERGY PREDICTED BY IDOCK:   -5.79 KCAL/MOL
REMARK 924 INTRA-LIGAND FREE ENERGY PREDICTED BY IDOCK:   -0.15 KCAL/MOL
REMARK 927      BINDING AFFINITY PREDICTED BY RF-SCORE:    0.00 PKD
ROOT
HETATM    1  N   UNL     1     -14.186   8.912  73.313  1.00  0.00    -1.237 NA 
HETATM    2  C   UNL     1     -13.628   8.937  72.083  1.00  0.00    -0.453 C  
HETATM    3  H2  UNL     1     -15.036   8.398  73.545  1.00  0.00     0.000 HD 
HETATM    4  H1  UNL     1     -13.655   9.470  73.981  1.00  0.00     0.000 HD 
HETATM    5  N   UNL     1     -14.331   8.198  71.199  1.00  0.00    -0.674 NA 
HETATM    6  N   UNL     1     -12.570   9.635  71.892  1.00  0.00    -0.393 NA 
HETATM    7  H1  UNL     1     -13.910   8.218  70.271  1.00  0.00     0.000 HD 
HETATM    8  H2  UNL     1     -15.181   7.684  71.431  1.00  0.00     0.000 HD 
HETATM    9  H   UNL     1     -12.100  10.101  72.668  1.00  0.00     0.000 HD 
ENDROOT
BRANCH   6  10
HETATM   10  C   UNL     1     -12.054   9.743  70.523  1.00  0.00    -0.168 C  
BRANCH  10  11
HETATM   11  C   UNL     1     -11.292  11.049  70.290  1.00  0.00    -0.203 C  
HETATM   12  C   UNL     1     -12.208  12.238  70.489  1.00  0.00    -0.300 C  
HETATM   13  O   UNL     1     -11.645  13.256  69.673  1.00  0.00    -0.285 OA 
HETATM   14  C   UNL     1     -11.012  12.563  68.590  1.00  0.00    -0.255 C  
HETATM   15  O   UNL     1     -10.846  11.180  68.930  1.00  0.00    -0.191 OA 
HETATM   16  C   UNL     1      -9.666  13.240  68.315  1.00  0.00    -0.225 C  
HETATM   17  C   UNL     1      -9.858  14.671  67.802  1.00  0.00    -0.216 C  
HETATM   18  C   UNL     1     -10.763  14.716  66.572  1.00  0.00    -0.312 C  
HETATM   19  C   UNL     1     -12.096  14.013  66.812  1.00  0.00    -0.480 C  
HETATM   20  C   UNL     1     -11.895  12.598  67.338  1.00  0.00    -0.393 C  
ENDBRANCH  10  11
ENDBRANCH   6  10
TORSDOF 2
ENDMDL
MODEL       34
REMARK 921   NORMALIZED FREE ENERGY PREDICTED BY IDOCK:   -5.19 KCAL/MOL
REMARK 922        TOTAL FREE ENERGY PREDICTED BY IDOCK:   -5.94 KCAL/MOL
REMARK 923 INTER-LIGAND FREE ENERGY PREDICTED BY IDOCK:   -5.73 KCAL/MOL
REMARK 924 INTRA-LIGAND FREE ENERGY PREDICTED BY IDOCK:   -0.21 KCAL/MOL
REMARK 927      BINDING AFFINITY PREDICTED BY RF-SCORE:    0.00 PKD
ROOT
HETATM    1  N   UNL     1     -12.385  12.314  71.078  1.00  0.00    -0.351 NA 
HETATM    2  C   UNL     1     -12.040  11.242  70.332  1.00  0.00    -0.384 C  
HETATM    3  H2  UNL     1     -13.244  12.377  71.624  1.00  0.00     0.000 HD 
HETATM    4  H1  UNL     1     -11.682  13.051  71.030  1.00  0.00     0.000 HD 
HETATM    5  N   UNL     1     -12.969  10.266  70.395  1.00  0.00    -0.554 NA 
HETATM    6  N   UNL     1     -10.946  11.273  69.663  1.00  0.00    -0.423 NA 
HETATM    7  H1  UNL     1     -12.708   9.458  69.831  1.00  0.00     0.000 HD 
HETATM    8  H2  UNL     1     -13.829  10.330  70.941  1.00  0.00     0.000 HD 
HETATM    9  H   UNL     1     -10.298  12.056  69.753  1.00  0.00     0.000 HD 
ENDROOT
BRANCH   6  10
HETATM   10  C   UNL     1     -10.654  10.150  68.767  1.00  0.00    -0.213 C  
BRANCH  10  11
HETATM   11  C   UNL     1     -10.821  10.524  67.293  1.00  0.00    -0.279 C  
HETATM   12  C   UNL     1      -9.612  11.289  66.801  1.00  0.00    -0.193 C  
HETATM   13  O   UNL     1     -10.110  12.091  65.738  1.00  0.00    -0.227 OA 
HETATM   14  C   UNL     1     -11.477  12.354  66.076  1.00  0.00    -0.382 C  
HETATM   15  O   UNL     1     -11.914  11.434  67.085  1.00  0.00    -0.532 OA 
HETATM   16  C   UNL     1     -12.315  12.227  64.800  1.00  0.00    -0.416 C  
HETATM   17  C   UNL     1     -11.948  13.314  63.785  1.00  0.00    -0.551 C  
HETATM   18  C   UNL     1     -12.062  14.714  64.386  1.00  0.00    -0.481 C  
HETATM   19  C   UNL     1     -11.266  14.852  65.680  1.00  0.00    -0.347 C  
HETATM   20  C   UNL     1     -11.624  13.757  66.676  1.00  0.00    -0.392 C  
ENDBRANCH  10  11
ENDBRANCH   6  10
TORSDOF 2
ENDMDL
MODEL       35
REMARK 921   NORMALIZED FREE ENERGY PREDICTED BY IDOCK:   -5.18 KCAL/MOL
REMARK 922        TOTAL FREE ENERGY PREDICTED BY IDOCK:   -5.93 KCAL/MOL
REMARK 923 INTER-LIGAND FREE ENERGY PREDICTED BY IDOCK:   -5.70 KCAL/MOL
REMARK 924 INTRA-LIGAND FREE ENERGY PREDICTED BY IDOCK:   -0.22 KCAL/MOL
REMARK 927      BINDING AFFINITY PREDICTED BY RF-SCORE:    0.00 PKD
ROOT
HETATM    1  N   UNL     1      -6.362  20.029  68.401  1.00  0.00    -0.266 NA 
HETATM    2  C   UNL     1      -7.399  20.306  67.580  1.00  0.00    -0.305 C  
HETATM    3  H2  UNL     1      -5.482  20.545  68.403  1.00  0.00     0.000 HD 
HETATM    4  H1  UNL     1      -6.566  19.243  69.017  1.00  0.00     0.000 HD 
HETATM    5  N   UNL     1      -7.129  21.346  66.765  1.00  0.00    -0.811 NA 
HETATM    6  N   UNL     1      -8.455  19.580  67.642  1.00  0.00    -0.302 NA 
HETATM    7  H1  UNL     1      -7.912  21.554  66.146  1.00  0.00     0.000 HD 
HETATM    8  H2  UNL     1      -6.250  21.862  66.767  1.00  0.00     0.000 HD 
HETATM    9  H   UNL     1      -8.553  18.856  68.353  1.00  0.00     0.000 HD 
ENDROOT
BRANCH   6  10
HETATM   10  C   UNL     1      -9.516  19.824  66.660  1.00  0.00    -0.389 C  
BRANCH  10  11
HETATM   11  C   UNL     1     -10.405  18.596  66.449  1.00  0.00    -0.432 C  
HETATM   12  C   UNL     1     -10.620  17.867  67.757  1.00  0.00    -0.389 C  
HETATM   13  O   UNL     1     -10.863  16.520  67.374  1.00  0.00    -0.294 OA 
HETATM   14  C   UNL     1     -10.130  16.339  66.156  1.00  0.00    -0.344 C  
HETATM   15  O   UNL     1      -9.782  17.615  65.604  1.00  0.00    -0.525 OA 
HETATM   16  C   UNL     1     -11.002  15.529  65.193  1.00  0.00    -0.422 C  
HETATM   17  C   UNL     1     -11.241  14.109  65.720  1.00  0.00    -0.312 C  
HETATM   18  C   UNL     1      -9.929  13.387  66.019  1.00  0.00    -0.300 C  
HETATM   19  C   UNL     1      -9.026  14.195  66.947  1.00  0.00    -0.247 C  
HETATM   20  C   UNL     1      -8.809  15.608  66.425  1.00  0.00    -0.365 C  
ENDBRANCH  10  11
ENDBRANCH   6  10
TORSDOF 2
ENDMDL
MODEL       36
REMARK 921   NORMALIZED FREE ENERGY PREDICTED BY IDOCK:   -5.17 KCAL/MOL
REMARK 922        TOTAL FREE ENERGY PREDICTED BY IDOCK:   -5.91 KCAL/MOL
REMARK 923 INTER-LIGAND FREE ENERGY PREDICTED BY IDOCK:   -5.57 KCAL/MOL
REMARK 924 INTRA-LIGAND FREE ENERGY PREDICTED BY IDOCK:   -0.33 KCAL/MOL
REMARK 927      BINDING AFFINITY PREDICTED BY RF-SCORE:    0.00 PKD
ROOT
HETATM    1  N   UNL     1     -10.394  18.548  68.940  1.00  0.00    -0.456 NA 
HETATM    2  C   UNL     1     -10.296  17.212  68.764  1.00  0.00    -0.353 C  
HETATM    3  H2  UNL     1      -9.746  19.226  68.540  1.00  0.00     0.000 HD 
HETATM    4  H1  UNL     1     -11.195  18.795  69.521  1.00  0.00     0.000 HD 
HETATM    5  N   UNL     1      -9.235  16.884  67.996  1.00  0.00    -0.230 NA 
HETATM    6  N   UNL     1     -11.151  16.443  69.331  1.00  0.00    -0.318 NA 
HETATM    7  H1  UNL     1      -9.161  15.876  67.864  1.00  0.00     0.000 HD 
HETATM    8  H2  UNL     1      -8.587  17.562  67.597  1.00  0.00     0.000 HD 
HETATM    9  H   UNL     1     -11.947  16.827  69.840  1.00  0.00     0.000 HD 
ENDROOT
BRANCH   6  10
HETATM   10  C   UNL     1     -10.951  14.994  69.225  1.00  0.00    -0.264 C  
BRANCH  10  11
HETATM   11  C   UNL     1     -11.768  14.376  68.088  1.00  0.00    -0.342 C  
HETATM   12  C   UNL     1     -11.895  12.880  68.281  1.00  0.00    -0.330 C  
HETATM   13  O   UNL     1     -12.066  12.368  66.966  1.00  0.00    -0.549 OA 
HETATM   14  C   UNL     1     -11.361  13.281  66.115  1.00  0.00    -0.309 C  
HETATM   15  O   UNL     1     -11.111  14.505  66.816  1.00  0.00    -0.309 OA 
HETATM   16  C   UNL     1     -12.211  13.514  64.863  1.00  0.00    -0.447 C  
HETATM   17  C   UNL     1     -12.345  12.232  64.034  1.00  0.00    -0.569 C  
HETATM   18  C   UNL     1     -10.981  11.643  63.677  1.00  0.00    -0.507 C  
HETATM   19  C   UNL     1     -10.102  11.438  64.907  1.00  0.00    -0.323 C  
HETATM   20  C   UNL     1      -9.990  12.712  65.733  1.00  0.00    -0.266 C  
ENDBRANCH  10  11
ENDBRANCH   6  10
TORSDOF 2
ENDMDL
MODEL       37
REMARK 921   NORMALIZED FREE ENERGY PREDICTED BY IDOCK:   -5.16 KCAL/MOL
REMARK 922        TOTAL FREE ENERGY PREDICTED BY IDOCK:   -5.90 KCAL/MOL
REMARK 923 INTER-LIGAND FREE ENERGY PREDICTED BY IDOCK:   -5.72 KCAL/MOL
REMARK 924 INTRA-LIGAND FREE ENERGY PREDICTED BY IDOCK:   -0.18 KCAL/MOL
REMARK 927      BINDING AFFINITY PREDICTED BY RF-SCORE:    0.00 PKD
ROOT
HETATM    1  N   UNL     1     -12.145  11.072  68.437  1.00  0.00    -0.786 NA 
HETATM    2  C   UNL     1     -11.472  11.996  67.716  1.00  0.00    -0.325 C  
HETATM    3  H2  UNL     1     -12.846  10.442  68.048  1.00  0.00     0.000 HD 
HETATM    4  H1  UNL     1     -11.867  11.083  69.418  1.00  0.00     0.000 HD 
HETATM    5  N   UNL     1     -11.841  11.983  66.418  1.00  0.00    -0.593 NA 
HETATM    6  N   UNL     1     -10.627  12.756  68.308  1.00  0.00    -0.232 NA 
HETATM    7  H1  UNL     1     -11.333  12.680  65.874  1.00  0.00     0.000 HD 
HETATM    8  H2  UNL     1     -12.541  11.352  66.028  1.00  0.00     0.000 HD 
HETATM    9  H   UNL     1     -10.396  12.619  69.292  1.00  0.00     0.000 HD 
ENDROOT
BRANCH   6  10
HETATM   10  C   UNL     1     -10.001  13.829  67.528  1.00  0.00    -0.233 C  
BRANCH  10  11
HETATM   11  C   UNL     1     -10.089  15.186  68.230  1.00  0.00    -0.223 C  
HETATM   12  C   UNL     1     -11.463  15.791  68.040  1.00  0.00    -0.264 C  
HETATM   13  O   UNL     1     -11.247  17.193  68.136  1.00  0.00    -0.236 OA 
HETATM   14  C   UNL     1      -9.911  17.400  67.660  1.00  0.00    -0.282 C  
HETATM   15  O   UNL     1      -9.200  16.155  67.649  1.00  0.00    -0.203 OA 
HETATM   16  C   UNL     1      -9.234  18.425  68.574  1.00  0.00    -0.348 C  
HETATM   17  C   UNL     1      -9.905  19.798  68.461  1.00  0.00    -0.506 C  
HETATM   18  C   UNL     1      -9.952  20.290  67.015  1.00  0.00    -0.601 C  
HETATM   19  C   UNL     1     -10.588  19.266  66.079  1.00  0.00    -0.550 C  
HETATM   20  C   UNL     1      -9.927  17.901  66.211  1.00  0.00    -0.333 C  
ENDBRANCH  10  11
ENDBRANCH   6  10
TORSDOF 2
ENDMDL
MODEL       38
REMARK 921   NORMALIZED FREE ENERGY PREDICTED BY IDOCK:   -5.12 KCAL/MOL
REMARK 922        TOTAL FREE ENERGY PREDICTED BY IDOCK:   -5.85 KCAL/MOL
REMARK 923 INTER-LIGAND FREE ENERGY PREDICTED BY IDOCK:   -5.70 KCAL/MOL
REMARK 924 INTRA-LIGAND FREE ENERGY PREDICTED BY IDOCK:   -0.16 KCAL/MOL
REMARK 927      BINDING AFFINITY PREDICTED BY RF-SCORE:    0.00 PKD
ROOT
HETATM    1  N   UNL     1     -10.425  11.171  62.780  1.00  0.00    -0.759 NA 
HETATM    2  C   UNL     1     -11.381  11.731  63.553  1.00  0.00    -0.405 C  
HETATM    3  H2  UNL     1     -10.611  10.678  61.907  1.00  0.00     0.000 HD 
HETATM    4  H1  UNL     1      -9.494  11.300  63.177  1.00  0.00     0.000 HD 
HETATM    5  N   UNL     1     -12.613  11.560  63.028  1.00  0.00    -0.904 NA 
HETATM    6  N   UNL     1     -11.042  12.309  64.646  1.00  0.00    -0.302 NA 
HETATM    7  H1  UNL     1     -13.334  11.983  63.612  1.00  0.00     0.000 HD 
HETATM    8  H2  UNL     1     -12.799  11.067  62.155  1.00  0.00     0.000 HD 
HETATM    9  H   UNL     1     -10.060  12.423  64.897  1.00  0.00     0.000 HD 
ENDROOT
BRANCH   6  10
HETATM   10  C   UNL     1     -12.108  12.801  65.524  1.00  0.00    -0.465 C  
BRANCH  10  11
HETATM   11  C   UNL     1     -11.926  14.276  65.889  1.00  0.00    -0.391 C  
HETATM   12  C   UNL     1     -10.756  14.867  65.133  1.00  0.00    -0.411 C  
HETATM   13  O   UNL     1     -10.300  15.929  65.961  1.00  0.00    -0.310 OA 
HETATM   14  C   UNL     1     -10.613  15.520  67.299  1.00  0.00    -0.299 C  
HETATM   15  O   UNL     1     -11.569  14.453  67.271  1.00  0.00    -0.344 OA 
HETATM   16  C   UNL     1     -11.153  16.738  68.054  1.00  0.00    -0.220 C  
HETATM   17  C   UNL     1     -10.074  17.814  68.217  1.00  0.00    -0.371 C  
HETATM   18  C   UNL     1      -8.817  17.261  68.885  1.00  0.00    -0.173 C  
HETATM   19  C   UNL     1      -8.283  16.022  68.172  1.00  0.00    -0.152 C  
HETATM   20  C   UNL     1      -9.366  14.966  67.998  1.00  0.00    -0.193 C  
ENDBRANCH  10  11
ENDBRANCH   6  10
TORSDOF 2
ENDMDL
MODEL       39
REMARK 921   NORMALIZED FREE ENERGY PREDICTED BY IDOCK:   -5.12 KCAL/MOL
REMARK 922        TOTAL FREE ENERGY PREDICTED BY IDOCK:   -5.85 KCAL/MOL
REMARK 923 INTER-LIGAND FREE ENERGY PREDICTED BY IDOCK:   -5.69 KCAL/MOL
REMARK 924 INTRA-LIGAND FREE ENERGY PREDICTED BY IDOCK:   -0.16 KCAL/MOL
REMARK 927      BINDING AFFINITY PREDICTED BY RF-SCORE:    0.00 PKD
ROOT
HETATM    1  N   UNL     1     -14.128   9.085  72.786  1.00  0.00    -1.035 NA 
HETATM    2  C   UNL     1     -13.152   9.078  71.852  1.00  0.00    -0.400 C  
HETATM    3  H2  UNL     1     -14.750   8.298  72.967  1.00  0.00     0.000 HD 
HETATM    4  H1  UNL     1     -14.165   9.972  73.287  1.00  0.00     0.000 HD 
HETATM    5  N   UNL     1     -13.102   7.905  71.187  1.00  0.00    -0.536 NA 
HETATM    6  N   UNL     1     -12.438  10.130  71.687  1.00  0.00    -0.408 NA 
HETATM    7  H1  UNL     1     -12.366   7.901  70.482  1.00  0.00     0.000 HD 
HETATM    8  H2  UNL     1     -13.725   7.118  71.368  1.00  0.00     0.000 HD 
HETATM    9  H   UNL     1     -12.540  10.936  72.304  1.00  0.00     0.000 HD 
ENDROOT
BRANCH   6  10
HETATM   10  C   UNL     1     -11.468  10.140  70.587  1.00  0.00    -0.349 C  
BRANCH  10  11
HETATM   11  C   UNL     1     -11.943  10.985  69.402  1.00  0.00    -0.337 C  
HETATM   12  C   UNL     1     -11.262  10.537  68.127  1.00  0.00    -0.293 C  
HETATM   13  O   UNL     1     -11.255  11.696  67.305  1.00  0.00    -0.271 OA 
HETATM   14  C   UNL     1     -11.200  12.801  68.216  1.00  0.00    -0.271 C  
HETATM   15  O   UNL     1     -11.559  12.365  69.533  1.00  0.00    -0.283 OA 
HETATM   16  C   UNL     1     -12.152  13.886  67.704  1.00  0.00    -0.342 C  
HETATM   17  C   UNL     1     -11.674  14.460  66.366  1.00  0.00    -0.397 C  
HETATM   18  C   UNL     1     -10.239  14.977  66.451  1.00  0.00    -0.286 C  
HETATM   19  C   UNL     1      -9.278  13.923  66.995  1.00  0.00    -0.257 C  
HETATM   20  C   UNL     1      -9.771  13.347  68.315  1.00  0.00    -0.226 C  
ENDBRANCH  10  11
ENDBRANCH   6  10
TORSDOF 2
ENDMDL
MODEL       40
REMARK 921   NORMALIZED FREE ENERGY PREDICTED BY IDOCK:   -5.10 KCAL/MOL
REMARK 922        TOTAL FREE ENERGY PREDICTED BY IDOCK:   -5.84 KCAL/MOL
REMARK 923 INTER-LIGAND FREE ENERGY PREDICTED BY IDOCK:   -5.58 KCAL/MOL
REMARK 924 INTRA-LIGAND FREE ENERGY PREDICTED BY IDOCK:   -0.25 KCAL/MOL
REMARK 927      BINDING AFFINITY PREDICTED BY RF-SCORE:    0.00 PKD
ROOT
HETATM    1  N   UNL     1     -11.668  16.306  63.735  1.00  0.00    -1.488 NA 
HETATM    2  C   UNL     1     -11.307  15.846  64.953  1.00  0.00    -0.256 C  
HETATM    3  H2  UNL     1     -11.248  17.117  63.282  1.00  0.00     0.000 HD 
HETATM    4  H1  UNL     1     -12.411  15.742  63.323  1.00  0.00     0.000 HD 
HETATM    5  N   UNL     1     -10.324  16.592  65.498  1.00  0.00    -0.588 NA 
HETATM    6  N   UNL     1     -11.916  14.830  65.442  1.00  0.00    -0.265 NA 
HETATM    7  H1  UNL     1     -10.053  16.246  66.418  1.00  0.00     0.000 HD 
HETATM    8  H2  UNL     1      -9.904  17.404  65.046  1.00  0.00     0.000 HD 
HETATM    9  H   UNL     1     -12.606  14.316  64.894  1.00  0.00     0.000 HD 
ENDROOT
BRANCH   6  10
HETATM   10  C   UNL     1     -11.591  14.427  66.814  1.00  0.00    -0.385 C  
BRANCH  10  11
HETATM   11  C   UNL     1     -10.831  13.100  66.866  1.00  0.00    -0.265 C  
HETATM   12  C   UNL     1      -9.374  13.311  66.514  1.00  0.00    -0.213 C  
HETATM   13  O   UNL     1      -8.955  12.061  65.983  1.00  0.00    -0.145 OA 
HETATM   14  C   UNL     1     -10.128  11.495  65.385  1.00  0.00    -0.260 C  
HETATM   15  O   UNL     1     -11.295  12.171  65.871  1.00  0.00    -0.330 OA 
HETATM   16  C   UNL     1     -10.161  10.002  65.725  1.00  0.00    -0.320 C  
HETATM   17  C   UNL     1      -8.993   9.258  65.070  1.00  0.00    -0.245 C  
HETATM   18  C   UNL     1      -8.952   9.482  63.560  1.00  0.00    -0.205 C  
HETATM   19  C   UNL     1      -8.958  10.964  63.197  1.00  0.00    -0.226 C  
HETATM   20  C   UNL     1     -10.111  11.699  63.866  1.00  0.00    -0.395 C  
ENDBRANCH  10  11
ENDBRANCH   6  10
TORSDOF 2
ENDMDL
MODEL       41
REMARK 921   NORMALIZED FREE ENERGY PREDICTED BY IDOCK:   -5.08 KCAL/MOL
REMARK 922        TOTAL FREE ENERGY PREDICTED BY IDOCK:   -5.81 KCAL/MOL
REMARK 923 INTER-LIGAND FREE ENERGY PREDICTED BY IDOCK:   -5.67 KCAL/MOL
REMARK 924 INTRA-LIGAND FREE ENERGY PREDICTED BY IDOCK:   -0.14 KCAL/MOL
REMARK 927      BINDING AFFINITY PREDICTED BY RF-SCORE:    0.00 PKD
ROOT
HETATM    1  N   UNL     1     -13.365   9.682  71.568  1.00  0.00    -0.386 NA 
HETATM    2  C   UNL     1     -12.191   9.950  70.954  1.00  0.00    -0.328 C  
HETATM    3  H2  UNL     1     -13.442   9.259  72.492  1.00  0.00     0.000 HD 
HETATM    4  H1  UNL     1     -14.162   9.953  70.993  1.00  0.00     0.000 HD 
HETATM    5  N   UNL     1     -11.135   9.591  71.714  1.00  0.00    -0.283 NA 
HETATM    6  N   UNL     1     -12.204  10.462  69.779  1.00  0.00    -0.515 NA 
HETATM    7  H1  UNL     1     -10.250   9.794  71.250  1.00  0.00     0.000 HD 
HETATM    8  H2  UNL     1     -11.213   9.169  72.639  1.00  0.00     0.000 HD 
HETATM    9  H   UNL     1     -13.079  10.744  69.338  1.00  0.00     0.000 HD 
ENDROOT
BRANCH   6  10
HETATM   10  C   UNL     1     -10.922  10.631  69.087  1.00  0.00    -0.247 C  
BRANCH  10  11
HETATM   11  C   UNL     1     -11.096  10.840  67.581  1.00  0.00    -0.319 C  
HETATM   12  C   UNL     1      -9.846  11.448  66.983  1.00  0.00    -0.191 C  
HETATM   13  O   UNL     1     -10.310  12.154  65.840  1.00  0.00    -0.241 OA 
HETATM   14  C   UNL     1     -11.645  12.559  66.166  1.00  0.00    -0.395 C  
HETATM   15  O   UNL     1     -12.124  11.801  67.284  1.00  0.00    -0.595 OA 
HETATM   16  C   UNL     1     -12.521  12.347  64.927  1.00  0.00    -0.439 C  
HETATM   17  C   UNL     1     -12.100  13.276  63.783  1.00  0.00    -0.546 C  
HETATM   18  C   UNL     1     -12.096  14.741  64.215  1.00  0.00    -0.415 C  
HETATM   19  C   UNL     1     -11.260  14.969  65.471  1.00  0.00    -0.344 C  
HETATM   20  C   UNL     1     -11.674  14.030  66.596  1.00  0.00    -0.420 C  
ENDBRANCH  10  11
ENDBRANCH   6  10
TORSDOF 2
ENDMDL
MODEL       42
REMARK 921   NORMALIZED FREE ENERGY PREDICTED BY IDOCK:   -5.08 KCAL/MOL
REMARK 922        TOTAL FREE ENERGY PREDICTED BY IDOCK:   -5.81 KCAL/MOL
REMARK 923 INTER-LIGAND FREE ENERGY PREDICTED BY IDOCK:   -5.41 KCAL/MOL
REMARK 924 INTRA-LIGAND FREE ENERGY PREDICTED BY IDOCK:   -0.39 KCAL/MOL
REMARK 927      BINDING AFFINITY PREDICTED BY RF-SCORE:    0.00 PKD
ROOT
HETATM    1  N   UNL     1     -12.953  15.856  70.162  1.00  0.00    -0.660 NA 
HETATM    2  C   UNL     1     -11.887  15.557  69.388  1.00  0.00    -0.374 C  
HETATM    3  H2  UNL     1     -12.885  16.208  71.117  1.00  0.00     0.000 HD 
HETATM    4  H1  UNL     1     -13.833  15.687  69.675  1.00  0.00     0.000 HD 
HETATM    5  N   UNL     1     -10.722  15.780  70.032  1.00  0.00    -0.317 NA 
HETATM    6  N   UNL     1     -12.082  15.098  68.207  1.00  0.00    -0.543 NA 
HETATM    7  H1  UNL     1      -9.918  15.554  69.447  1.00  0.00     0.000 HD 
HETATM    8  H2  UNL     1     -10.654  16.132  70.986  1.00  0.00     0.000 HD 
HETATM    9  H   UNL     1     -13.022  15.035  67.816  1.00  0.00     0.000 HD 
ENDROOT
BRANCH   6  10
HETATM   10  C   UNL     1     -10.913  14.668  67.433  1.00  0.00    -0.308 C  
BRANCH  10  11
HETATM   11  C   UNL     1     -10.659  13.163  67.551  1.00  0.00    -0.235 C  
HETATM   12  C   UNL     1     -11.903  12.387  67.175  1.00  0.00    -0.291 C  
HETATM   13  O   UNL     1     -11.787  11.166  67.895  1.00  0.00    -0.601 OA 
HETATM   14  C   UNL     1     -11.049  11.497  69.078  1.00  0.00    -0.245 C  
HETATM   15  O   UNL     1     -10.398  12.763  68.907  1.00  0.00    -0.159 OA 
HETATM   16  C   UNL     1     -10.039  10.376  69.337  1.00  0.00    -0.251 C  
HETATM   17  C   UNL     1     -10.746   9.058  69.674  1.00  0.00    -0.228 C  
HETATM   18  C   UNL     1     -11.711   9.216  70.847  1.00  0.00    -0.341 C  
HETATM   19  C   UNL     1     -12.703  10.355  70.627  1.00  0.00    -0.417 C  
HETATM   20  C   UNL     1     -11.993  11.655  70.276  1.00  0.00    -0.445 C  
ENDBRANCH  10  11
ENDBRANCH   6  10
TORSDOF 2
ENDMDL
MODEL       43
REMARK 921   NORMALIZED FREE ENERGY PREDICTED BY IDOCK:   -5.07 KCAL/MOL
REMARK 922        TOTAL FREE ENERGY PREDICTED BY IDOCK:   -5.80 KCAL/MOL
REMARK 923 INTER-LIGAND FREE ENERGY PREDICTED BY IDOCK:   -5.58 KCAL/MOL
REMARK 924 INTRA-LIGAND FREE ENERGY PREDICTED BY IDOCK:   -0.21 KCAL/MOL
REMARK 927      BINDING AFFINITY PREDICTED BY RF-SCORE:    0.00 PKD
ROOT
HETATM    1  N   UNL     1     -12.416  16.650  73.921  1.00  0.00    -0.522 NA 
HETATM    2  C   UNL     1     -12.633  15.840  72.862  1.00  0.00    -0.466 C  
HETATM    3  H2  UNL     1     -12.692  16.428  74.877  1.00  0.00     0.000 HD 
HETATM    4  H1  UNL     1     -11.942  17.511  73.648  1.00  0.00     0.000 HD 
HETATM    5  N   UNL     1     -13.261  14.701  73.224  1.00  0.00    -0.589 NA 
HETATM    6  N   UNL     1     -12.267  16.225  71.696  1.00  0.00    -0.614 NA 
HETATM    7  H1  UNL     1     -13.425  14.090  72.424  1.00  0.00     0.000 HD 
HETATM    8  H2  UNL     1     -13.537  14.479  74.180  1.00  0.00     0.000 HD 
HETATM    9  H   UNL     1     -11.743  17.091  71.569  1.00  0.00     0.000 HD 
ENDROOT
BRANCH   6  10
HETATM   10  C   UNL     1     -12.623  15.383  70.549  1.00  0.00    -0.423 C  
BRANCH  10  11
HETATM   11  C   UNL     1     -11.521  15.349  69.488  1.00  0.00    -0.319 C  
HETATM   12  C   UNL     1     -10.162  15.514  70.132  1.00  0.00    -0.214 C  
HETATM   13  O   UNL     1      -9.356  16.090  69.113  1.00  0.00    -0.228 OA 
HETATM   14  C   UNL     1     -10.260  16.860  68.311  1.00  0.00    -0.318 C  
HETATM   15  O   UNL     1     -11.610  16.460  68.579  1.00  0.00    -0.302 OA 
HETATM   16  C   UNL     1      -9.891  16.644  66.840  1.00  0.00    -0.267 C  
HETATM   17  C   UNL     1      -8.506  17.217  66.524  1.00  0.00    -0.306 C  
HETATM   18  C   UNL     1      -8.399  18.691  66.912  1.00  0.00    -0.269 C  
HETATM   19  C   UNL     1      -8.799  18.935  68.364  1.00  0.00    -0.379 C  
HETATM   20  C   UNL     1     -10.169  18.347  68.673  1.00  0.00    -0.370 C  
ENDBRANCH  10  11
ENDBRANCH   6  10
TORSDOF 2
ENDMDL
MODEL       44
REMARK 921   NORMALIZED FREE ENERGY PREDICTED BY IDOCK:   -5.05 KCAL/MOL
REMARK 922        TOTAL FREE ENERGY PREDICTED BY IDOCK:   -5.78 KCAL/MOL
REMARK 923 INTER-LIGAND FREE ENERGY PREDICTED BY IDOCK:   -5.53 KCAL/MOL
REMARK 924 INTRA-LIGAND FREE ENERGY PREDICTED BY IDOCK:   -0.25 KCAL/MOL
REMARK 927      BINDING AFFINITY PREDICTED BY RF-SCORE:    0.00 PKD
ROOT
HETATM    1  N   UNL     1     -12.130  11.026  68.166  1.00  0.00    -0.780 NA 
HETATM    2  C   UNL     1     -12.135  10.975  69.516  1.00  0.00    -0.329 C  
HETATM    3  H2  UNL     1     -11.731  11.793  67.625  1.00  0.00     0.000 HD 
HETATM    4  H1  UNL     1     -12.574  10.205  67.755  1.00  0.00     0.000 HD 
HETATM    5  N   UNL     1     -11.549  12.062  70.061  1.00  0.00    -0.510 NA 
HETATM    6  N   UNL     1     -12.685   9.975  70.101  1.00  0.00    -0.532 NA 
HETATM    7  H1  UNL     1     -11.553  12.023  71.080  1.00  0.00     0.000 HD 
HETATM    8  H2  UNL     1     -11.150  12.828  69.520  1.00  0.00     0.000 HD 
HETATM    9  H   UNL     1     -13.041   9.184  69.565  1.00  0.00     0.000 HD 
ENDROOT
BRANCH   6  10
HETATM   10  C   UNL     1     -12.785  10.003  71.564  1.00  0.00    -0.429 C  
BRANCH  10  11
HETATM   11  C   UNL     1     -12.094   8.803  72.217  1.00  0.00    -0.353 C  
HETATM   12  C   UNL     1     -10.607   8.832  71.936  1.00  0.00    -0.354 C  
HETATM   13  O   UNL     1     -10.210   7.469  71.999  1.00  0.00    -0.190 OA 
HETATM   14  C   UNL     1     -11.363   6.724  71.586  1.00  0.00    -0.266 C  
HETATM   15  O   UNL     1     -12.529   7.555  71.652  1.00  0.00    -0.316 OA 
HETATM   16  C   UNL     1     -11.491   5.502  72.500  1.00  0.00    -0.303 C  
HETATM   17  C   UNL     1     -10.315   4.538  72.309  1.00  0.00    -0.243 C  
HETATM   18  C   UNL     1     -10.154   4.123  70.848  1.00  0.00    -0.119 C  
HETATM   19  C   UNL     1     -10.063   5.326  69.913  1.00  0.00    -0.333 C  
HETATM   20  C   UNL     1     -11.226   6.286  70.123  1.00  0.00    -0.470 C  
ENDBRANCH  10  11
ENDBRANCH   6  10
TORSDOF 2
ENDMDL
MODEL       45
REMARK 921   NORMALIZED FREE ENERGY PREDICTED BY IDOCK:   -4.99 KCAL/MOL
REMARK 922        TOTAL FREE ENERGY PREDICTED BY IDOCK:   -5.71 KCAL/MOL
REMARK 923 INTER-LIGAND FREE ENERGY PREDICTED BY IDOCK:   -5.57 KCAL/MOL
REMARK 924 INTRA-LIGAND FREE ENERGY PREDICTED BY IDOCK:   -0.13 KCAL/MOL
REMARK 927      BINDING AFFINITY PREDICTED BY RF-SCORE:    0.00 PKD
ROOT
HETATM    1  N   UNL     1      -9.887  19.613  65.822  1.00  0.00    -0.405 NA 
HETATM    2  C   UNL     1      -9.637  18.406  66.377  1.00  0.00    -0.310 C  
HETATM    3  H2  UNL     1      -9.176  20.203  65.392  1.00  0.00     0.000 HD 
HETATM    4  H1  UNL     1     -10.875  19.861  65.887  1.00  0.00     0.000 HD 
HETATM    5  N   UNL     1      -8.331  18.078  66.293  1.00  0.00    -0.435 NA 
HETATM    6  N   UNL     1     -10.601  17.753  66.914  1.00  0.00    -0.292 NA 
HETATM    7  H1  UNL     1      -8.142  17.168  66.712  1.00  0.00     0.000 HD 
HETATM    8  H2  UNL     1      -7.619  18.668  65.863  1.00  0.00     0.000 HD 
HETATM    9  H   UNL     1     -11.562  18.091  66.854  1.00  0.00     0.000 HD 
ENDROOT
BRANCH   6  10
HETATM   10  C   UNL     1     -10.282  16.506  67.615  1.00  0.00    -0.279 C  
BRANCH  10  11
HETATM   11  C   UNL     1     -10.886  16.457  69.020  1.00  0.00    -0.331 C  
HETATM   12  C   UNL     1      -9.993  15.669  69.953  1.00  0.00    -0.228 C  
HETATM   13  O   UNL     1     -10.878  15.161  70.942  1.00  0.00    -0.252 OA 
HETATM   14  C   UNL     1     -12.135  14.998  70.273  1.00  0.00    -0.329 C  
HETATM   15  O   UNL     1     -12.133  15.741  69.048  1.00  0.00    -0.349 OA 
HETATM   16  C   UNL     1     -13.242  15.475  71.218  1.00  0.00    -0.588 C  
HETATM   17  C   UNL     1     -13.340  14.578  72.456  1.00  0.00    -0.565 C  
HETATM   18  C   UNL     1     -13.528  13.109  72.080  1.00  0.00    -0.598 C  
HETATM   19  C   UNL     1     -12.458  12.623  71.107  1.00  0.00    -0.326 C  
HETATM   20  C   UNL     1     -12.355  13.530  69.889  1.00  0.00    -0.287 C  
ENDBRANCH  10  11
ENDBRANCH   6  10
TORSDOF 2
ENDMDL
MODEL       46
REMARK 921   NORMALIZED FREE ENERGY PREDICTED BY IDOCK:   -4.98 KCAL/MOL
REMARK 922        TOTAL FREE ENERGY PREDICTED BY IDOCK:   -5.70 KCAL/MOL
REMARK 923 INTER-LIGAND FREE ENERGY PREDICTED BY IDOCK:   -5.55 KCAL/MOL
REMARK 924 INTRA-LIGAND FREE ENERGY PREDICTED BY IDOCK:   -0.15 KCAL/MOL
REMARK 927      BINDING AFFINITY PREDICTED BY RF-SCORE:    0.00 PKD
ROOT
HETATM    1  N   UNL     1     -11.554  11.470  62.977  1.00  0.00    -0.856 NA 
HETATM    2  C   UNL     1     -11.758  12.518  63.805  1.00  0.00    -0.485 C  
HETATM    3  H2  UNL     1     -11.855  11.444  62.003  1.00  0.00     0.000 HD 
HETATM    4  H1  UNL     1     -11.061  10.709  63.444  1.00  0.00     0.000 HD 
HETATM    5  N   UNL     1     -12.410  13.525  63.187  1.00  0.00    -1.024 NA 
HETATM    6  N   UNL     1     -11.359  12.440  65.021  1.00  0.00    -0.311 NA 
HETATM    7  H1  UNL     1     -12.565  14.315  63.812  1.00  0.00     0.000 HD 
HETATM    8  H2  UNL     1     -12.712  13.499  62.213  1.00  0.00     0.000 HD 
HETATM    9  H   UNL     1     -10.820  11.638  65.346  1.00  0.00     0.000 HD 
ENDROOT
BRANCH   6  10
HETATM   10  C   UNL     1     -11.701  13.539  65.929  1.00  0.00    -0.352 C  
BRANCH  10  11
HETATM   11  C   UNL     1     -10.514  13.969  66.795  1.00  0.00    -0.277 C  
HETATM   12  C   UNL     1     -10.997  14.519  68.119  1.00  0.00    -0.251 C  
HETATM   13  O   UNL     1      -9.972  15.419  68.521  1.00  0.00    -0.206 OA 
HETATM   14  C   UNL     1      -9.405  15.911  67.301  1.00  0.00    -0.211 C  
HETATM   15  O   UNL     1      -9.785  15.062  66.210  1.00  0.00    -0.256 OA 
HETATM   16  C   UNL     1      -7.884  15.962  67.470  1.00  0.00    -0.176 C  
HETATM   17  C   UNL     1      -7.477  16.989  68.531  1.00  0.00    -0.221 C  
HETATM   18  C   UNL     1      -8.047  18.374  68.229  1.00  0.00    -0.315 C  
HETATM   19  C   UNL     1      -9.558  18.341  68.018  1.00  0.00    -0.314 C  
HETATM   20  C   UNL     1      -9.954  17.305  66.975  1.00  0.00    -0.289 C  
ENDBRANCH  10  11
ENDBRANCH   6  10
TORSDOF 2
ENDMDL
MODEL       47
REMARK 921   NORMALIZED FREE ENERGY PREDICTED BY IDOCK:   -4.96 KCAL/MOL
REMARK 922        TOTAL FREE ENERGY PREDICTED BY IDOCK:   -5.68 KCAL/MOL
REMARK 923 INTER-LIGAND FREE ENERGY PREDICTED BY IDOCK:   -5.25 KCAL/MOL
REMARK 924 INTRA-LIGAND FREE ENERGY PREDICTED BY IDOCK:   -0.43 KCAL/MOL
REMARK 927      BINDING AFFINITY PREDICTED BY RF-SCORE:    0.00 PKD
ROOT
HETATM    1  N   UNL     1     -14.110   8.863  73.107  1.00  0.00    -1.225 NA 
HETATM    2  C   UNL     1     -13.379   8.002  72.366  1.00  0.00     0.007 C  
HETATM    3  H2  UNL     1     -15.077   9.112  72.905  1.00  0.00     0.000 HD 
HETATM    4  H1  UNL     1     -13.575   9.233  73.893  1.00  0.00     0.000 HD 
HETATM    5  N   UNL     1     -14.085   7.512  71.326  1.00  0.00    -0.634 NA 
HETATM    6  N   UNL     1     -12.160   7.775  72.694  1.00  0.00    -0.588 NA 
HETATM    7  H1  UNL     1     -13.533   6.863  70.767  1.00  0.00     0.000 HD 
HETATM    8  H2  UNL     1     -15.053   7.761  71.124  1.00  0.00     0.000 HD 
HETATM    9  H   UNL     1     -11.764   8.167  73.548  1.00  0.00     0.000 HD 
ENDROOT
BRANCH   6  10
HETATM   10  C   UNL     1     -11.353   6.932  71.805  1.00  0.00    -0.261 C  
BRANCH  10  11
HETATM   11  C   UNL     1     -10.621   7.748  70.737  1.00  0.00    -0.218 C  
HETATM   12  C   UNL     1      -9.953   8.954  71.359  1.00  0.00    -0.308 C  
HETATM   13  O   UNL     1      -9.887   9.904  70.304  1.00  0.00    -0.253 OA 
HETATM   14  C   UNL     1     -11.017   9.619  69.471  1.00  0.00    -0.208 C  
HETATM   15  O   UNL     1     -11.526   8.313  69.772  1.00  0.00     0.038 OA 
HETATM   16  C   UNL     1     -10.570   9.725  68.011  1.00  0.00    -0.291 C  
HETATM   17  C   UNL     1     -10.176  11.162  67.653  1.00  0.00    -0.208 C  
HETATM   18  C   UNL     1     -11.297  12.152  67.963  1.00  0.00    -0.353 C  
HETATM   19  C   UNL     1     -11.785  12.037  69.404  1.00  0.00    -0.402 C  
HETATM   20  C   UNL     1     -12.158  10.603  69.755  1.00  0.00    -0.343 C  
ENDBRANCH  10  11
ENDBRANCH   6  10
TORSDOF 2
ENDMDL
MODEL       48
REMARK 921   NORMALIZED FREE ENERGY PREDICTED BY IDOCK:   -4.95 KCAL/MOL
REMARK 922        TOTAL FREE ENERGY PREDICTED BY IDOCK:   -5.66 KCAL/MOL
REMARK 923 INTER-LIGAND FREE ENERGY PREDICTED BY IDOCK:   -5.61 KCAL/MOL
REMARK 924 INTRA-LIGAND FREE ENERGY PREDICTED BY IDOCK:   -0.05 KCAL/MOL
REMARK 927      BINDING AFFINITY PREDICTED BY RF-SCORE:    0.00 PKD
ROOT
HETATM    1  N   UNL     1     -12.375  13.925  63.465  1.00  0.00    -1.087 NA 
HETATM    2  C   UNL     1     -11.565  14.095  64.533  1.00  0.00    -0.389 C  
HETATM    3  H2  UNL     1     -12.083  13.493  62.589  1.00  0.00     0.000 HD 
HETATM    4  H1  UNL     1     -13.314  14.283  63.642  1.00  0.00     0.000 HD 
HETATM    5  N   UNL     1     -10.323  13.623  64.299  1.00  0.00    -0.697 NA 
HETATM    6  N   UNL     1     -12.025  14.674  65.580  1.00  0.00    -0.292 NA 
HETATM    7  H1  UNL     1      -9.711  13.752  65.105  1.00  0.00     0.000 HD 
HETATM    8  H2  UNL     1     -10.031  13.190  63.423  1.00  0.00     0.000 HD 
HETATM    9  H   UNL     1     -13.010  14.930  65.649  1.00  0.00     0.000 HD 
ENDROOT
BRANCH   6  10
HETATM   10  C   UNL     1     -11.094  14.955  66.678  1.00  0.00    -0.329 C  
BRANCH  10  11
HETATM   11  C   UNL     1     -10.504  16.364  66.593  1.00  0.00    -0.274 C  
HETATM   12  C   UNL     1      -9.147  16.330  65.923  1.00  0.00    -0.211 C  
HETATM   13  O   UNL     1      -8.465  17.460  66.451  1.00  0.00    -0.250 OA 
HETATM   14  C   UNL     1      -9.005  17.644  67.765  1.00  0.00    -0.247 C  
HETATM   15  O   UNL     1     -10.235  16.918  67.892  1.00  0.00    -0.283 OA 
HETATM   16  C   UNL     1      -9.213  19.144  67.989  1.00  0.00    -0.364 C  
HETATM   17  C   UNL     1      -7.876  19.894  68.008  1.00  0.00    -0.317 C  
HETATM   18  C   UNL     1      -6.912  19.308  69.038  1.00  0.00    -0.381 C  
HETATM   19  C   UNL     1      -6.720  17.805  68.859  1.00  0.00    -0.237 C  
HETATM   20  C   UNL     1      -8.054  17.072  68.823  1.00  0.00    -0.250 C  
ENDBRANCH  10  11
ENDBRANCH   6  10
TORSDOF 2
ENDMDL
MODEL       49
REMARK 921   NORMALIZED FREE ENERGY PREDICTED BY IDOCK:   -4.93 KCAL/MOL
REMARK 922        TOTAL FREE ENERGY PREDICTED BY IDOCK:   -5.65 KCAL/MOL
REMARK 923 INTER-LIGAND FREE ENERGY PREDICTED BY IDOCK:   -5.53 KCAL/MOL
REMARK 924 INTRA-LIGAND FREE ENERGY PREDICTED BY IDOCK:   -0.12 KCAL/MOL
REMARK 927      BINDING AFFINITY PREDICTED BY RF-SCORE:    0.00 PKD
ROOT
HETATM    1  N   UNL     1     -11.155   5.707  66.430  1.00  0.00    -0.758 NA 
HETATM    2  C   UNL     1     -11.125   6.745  67.294  1.00  0.00    -0.324 C  
HETATM    3  H2  UNL     1     -11.361   4.745  66.699  1.00  0.00     0.000 HD 
HETATM    4  H1  UNL     1     -10.946   6.002  65.476  1.00  0.00     0.000 HD 
HETATM    5  N   UNL     1     -11.400   6.354  68.556  1.00  0.00    -0.550 NA 
HETATM    6  N   UNL     1     -10.831   7.914  66.856  1.00  0.00    -0.453 NA 
HETATM    7  H1  UNL     1     -11.377   7.138  69.208  1.00  0.00     0.000 HD 
HETATM    8  H2  UNL     1     -11.606   5.393  68.825  1.00  0.00     0.000 HD 
HETATM    9  H   UNL     1     -10.703   8.084  65.858  1.00  0.00     0.000 HD 
ENDROOT
BRANCH   6  10
HETATM   10  C   UNL     1     -10.686   8.999  67.832  1.00  0.00    -0.138 C  
BRANCH  10  11
HETATM   11  C   UNL     1     -10.680  10.378  67.170  1.00  0.00    -0.256 C  
HETATM   12  C   UNL     1      -9.466  11.169  67.607  1.00  0.00    -0.166 C  
HETATM   13  O   UNL     1      -9.868  12.527  67.488  1.00  0.00    -0.194 OA 
HETATM   14  C   UNL     1     -11.282  12.521  67.723  1.00  0.00    -0.269 C  
HETATM   15  O   UNL     1     -11.791  11.187  67.595  1.00  0.00    -0.612 OA 
HETATM   16  C   UNL     1     -11.935  13.471  66.714  1.00  0.00    -0.453 C  
HETATM   17  C   UNL     1     -11.505  14.921  66.958  1.00  0.00    -0.333 C  
HETATM   18  C   UNL     1     -11.783  15.362  68.394  1.00  0.00    -0.332 C  
HETATM   19  C   UNL     1     -11.174  14.408  69.418  1.00  0.00    -0.317 C  
HETATM   20  C   UNL     1     -11.592  12.967  69.156  1.00  0.00    -0.375 C  
ENDBRANCH  10  11
ENDBRANCH   6  10
TORSDOF 2
ENDMDL
MODEL       50
REMARK 921   NORMALIZED FREE ENERGY PREDICTED BY IDOCK:   -4.93 KCAL/MOL
REMARK 922        TOTAL FREE ENERGY PREDICTED BY IDOCK:   -5.64 KCAL/MOL
REMARK 923 INTER-LIGAND FREE ENERGY PREDICTED BY IDOCK:   -5.44 KCAL/MOL
REMARK 924 INTRA-LIGAND FREE ENERGY PREDICTED BY IDOCK:   -0.19 KCAL/MOL
REMARK 927      BINDING AFFINITY PREDICTED BY RF-SCORE:    0.00 PKD
ROOT
HETATM    1  N   UNL     1     -11.165  16.617  64.120  1.00  0.00    -1.430 NA 
HETATM    2  C   UNL     1     -11.570  15.465  64.698  1.00  0.00    -0.311 C  
HETATM    3  H2  UNL     1     -11.385  16.884  63.161  1.00  0.00     0.000 HD 
HETATM    4  H1  UNL     1     -10.612  17.187  64.760  1.00  0.00     0.000 HD 
HETATM    5  N   UNL     1     -12.301  14.710  63.851  1.00  0.00    -1.060 NA 
HETATM    6  N   UNL     1     -11.218  15.214  65.905  1.00  0.00    -0.318 NA 
HETATM    7  H1  UNL     1     -12.606  13.841  64.287  1.00  0.00     0.000 HD 
HETATM    8  H2  UNL     1     -12.522  14.977  62.892  1.00  0.00     0.000 HD 
HETATM    9  H   UNL     1     -10.711  15.905  66.458  1.00  0.00     0.000 HD 
ENDROOT
BRANCH   6  10
HETATM   10  C   UNL     1     -11.568  13.905  66.466  1.00  0.00    -0.369 C  
BRANCH  10  11
HETATM   11  C   UNL     1     -10.348  12.994  66.619  1.00  0.00    -0.260 C  
HETATM   12  C   UNL     1     -10.571  11.685  65.893  1.00  0.00    -0.271 C  
HETATM   13  O   UNL     1      -9.758  10.752  66.590  1.00  0.00    -0.181 OA 
HETATM   14  C   UNL     1      -9.709  11.231  67.940  1.00  0.00    -0.177 C  
HETATM   15  O   UNL     1     -10.135  12.599  67.985  1.00  0.00    -0.215 OA 
HETATM   16  C   UNL     1      -8.274  11.072  68.449  1.00  0.00    -0.137 C  
HETATM   17  C   UNL     1      -7.879   9.595  68.546  1.00  0.00    -0.085 C  
HETATM   18  C   UNL     1      -8.862   8.800  69.403  1.00  0.00    -0.143 C  
HETATM   19  C   UNL     1     -10.305   8.975  68.937  1.00  0.00    -0.232 C  
HETATM   20  C   UNL     1     -10.682  10.446  68.826  1.00  0.00    -0.255 C  
ENDBRANCH  10  11
ENDBRANCH   6  10
TORSDOF 2
ENDMDL
MODEL       51
REMARK 921   NORMALIZED FREE ENERGY PREDICTED BY IDOCK:   -4.92 KCAL/MOL
REMARK 922        TOTAL FREE ENERGY PREDICTED BY IDOCK:   -5.63 KCAL/MOL
REMARK 923 INTER-LIGAND FREE ENERGY PREDICTED BY IDOCK:   -5.41 KCAL/MOL
REMARK 924 INTRA-LIGAND FREE ENERGY PREDICTED BY IDOCK:   -0.22 KCAL/MOL
REMARK 927      BINDING AFFINITY PREDICTED BY RF-SCORE:    0.00 PKD
ROOT
HETATM    1  N   UNL     1     -11.506  16.435  63.917  1.00  0.00    -1.618 NA 
HETATM    2  C   UNL     1     -10.941  16.616  65.131  1.00  0.00    -0.151 C  
HETATM    3  H2  UNL     1     -11.707  17.190  63.262  1.00  0.00     0.000 HD 
HETATM    4  H1  UNL     1     -11.708  15.452  63.737  1.00  0.00     0.000 HD 
HETATM    5  N   UNL     1     -10.674  17.917  65.370  1.00  0.00    -0.558 NA 
HETATM    6  N   UNL     1     -10.752  15.600  65.889  1.00  0.00    -0.331 NA 
HETATM    7  H1  UNL     1     -10.248  18.053  66.286  1.00  0.00     0.000 HD 
HETATM    8  H2  UNL     1     -10.875  18.672  64.715  1.00  0.00     0.000 HD 
HETATM    9  H   UNL     1     -10.945  14.654  65.559  1.00  0.00     0.000 HD 
ENDROOT
BRANCH   6  10
HETATM   10  C   UNL     1     -10.251  15.837  67.247  1.00  0.00    -0.268 C  
BRANCH  10  11
HETATM   11  C   UNL     1     -10.079  14.539  68.039  1.00  0.00    -0.226 C  
HETATM   12  C   UNL     1      -8.793  13.846  67.644  1.00  0.00    -0.191 C  
HETATM   13  O   UNL     1      -9.040  12.470  67.906  1.00  0.00    -0.183 OA 
HETATM   14  C   UNL     1     -10.449  12.299  67.715  1.00  0.00    -0.209 C  
HETATM   15  O   UNL     1     -11.101  13.576  67.729  1.00  0.00    -0.255 OA 
HETATM   16  C   UNL     1     -10.973  11.390  68.830  1.00  0.00    -0.276 C  
HETATM   17  C   UNL     1     -10.390   9.977  68.716  1.00  0.00    -0.216 C  
HETATM   18  C   UNL     1     -10.645   9.369  67.338  1.00  0.00    -0.326 C  
HETATM   19  C   UNL     1     -10.166  10.276  66.209  1.00  0.00    -0.287 C  
HETATM   20  C   UNL     1     -10.736  11.682  66.342  1.00  0.00    -0.316 C  
ENDBRANCH  10  11
ENDBRANCH   6  10
TORSDOF 2
ENDMDL
MODEL       52
REMARK 921   NORMALIZED FREE ENERGY PREDICTED BY IDOCK:   -4.88 KCAL/MOL
REMARK 922        TOTAL FREE ENERGY PREDICTED BY IDOCK:   -5.59 KCAL/MOL
REMARK 923 INTER-LIGAND FREE ENERGY PREDICTED BY IDOCK:   -5.32 KCAL/MOL
REMARK 924 INTRA-LIGAND FREE ENERGY PREDICTED BY IDOCK:   -0.27 KCAL/MOL
REMARK 927      BINDING AFFINITY PREDICTED BY RF-SCORE:    0.00 PKD
ROOT
HETATM    1  N   UNL     1     -14.286   8.896  73.215  1.00  0.00    -1.237 NA 
HETATM    2  C   UNL     1     -13.578   8.797  72.069  1.00  0.00    -0.427 C  
HETATM    3  H2  UNL     1     -15.273   8.654  73.301  1.00  0.00     0.000 HD 
HETATM    4  H1  UNL     1     -13.713   9.242  73.985  1.00  0.00     0.000 HD 
HETATM    5  N   UNL     1     -14.337   8.340  71.050  1.00  0.00    -0.657 NA 
HETATM    6  N   UNL     1     -12.346   9.150  72.063  1.00  0.00    -0.375 NA 
HETATM    7  H1  UNL     1     -13.802   8.266  70.185  1.00  0.00     0.000 HD 
HETATM    8  H2  UNL     1     -15.323   8.098  71.136  1.00  0.00     0.000 HD 
HETATM    9  H   UNL     1     -11.874   9.424  72.925  1.00  0.00     0.000 HD 
ENDROOT
BRANCH   6  10
HETATM   10  C   UNL     1     -11.635   9.149  70.780  1.00  0.00    -0.276 C  
BRANCH  10  11
HETATM   11  C   UNL     1     -10.778   7.896  70.592  1.00  0.00    -0.228 C  
HETATM   12  C   UNL     1      -9.564   8.208  69.743  1.00  0.00    -0.171 C  
HETATM   13  O   UNL     1      -9.236   6.969  69.129  1.00  0.00    -0.140 OA 
HETATM   14  C   UNL     1     -10.482   6.273  68.999  1.00  0.00    -0.237 C  
HETATM   15  O   UNL     1     -11.466   6.875  69.849  1.00  0.00    -0.288 OA 
HETATM   16  C   UNL     1     -10.246   4.805  69.364  1.00  0.00    -0.166 C  
HETATM   17  C   UNL     1      -9.313   4.124  68.358  1.00  0.00    -0.213 C  
HETATM   18  C   UNL     1      -9.825   4.263  66.925  1.00  0.00    -0.224 C  
HETATM   19  C   UNL     1     -10.104   5.716  66.552  1.00  0.00    -0.225 C  
HETATM   20  C   UNL     1     -11.017   6.389  67.567  1.00  0.00    -0.454 C  
ENDBRANCH  10  11
ENDBRANCH   6  10
TORSDOF 2
ENDMDL
MODEL       53
REMARK 921   NORMALIZED FREE ENERGY PREDICTED BY IDOCK:   -4.87 KCAL/MOL
REMARK 922        TOTAL FREE ENERGY PREDICTED BY IDOCK:   -5.57 KCAL/MOL
REMARK 923 INTER-LIGAND FREE ENERGY PREDICTED BY IDOCK:   -5.41 KCAL/MOL
REMARK 924 INTRA-LIGAND FREE ENERGY PREDICTED BY IDOCK:   -0.16 KCAL/MOL
REMARK 927      BINDING AFFINITY PREDICTED BY RF-SCORE:    0.00 PKD
ROOT
HETATM    1  N   UNL     1     -13.534  15.122  70.510  1.00  0.00    -0.691 NA 
HETATM    2  C   UNL     1     -12.265  15.294  70.077  1.00  0.00    -0.349 C  
HETATM    3  H2  UNL     1     -13.786  14.596  71.346  1.00  0.00     0.000 HD 
HETATM    4  H1  UNL     1     -14.207  15.584  69.899  1.00  0.00     0.000 HD 
HETATM    5  N   UNL     1     -11.374  14.683  70.885  1.00  0.00    -0.509 NA 
HETATM    6  N   UNL     1     -12.058  15.955  68.999  1.00  0.00    -0.503 NA 
HETATM    7  H1  UNL     1     -10.417  14.812  70.558  1.00  0.00     0.000 HD 
HETATM    8  H2  UNL     1     -11.626  14.156  71.721  1.00  0.00     0.000 HD 
HETATM    9  H   UNL     1     -12.824  16.421  68.512  1.00  0.00     0.000 HD 
ENDROOT
BRANCH   6  10
HETATM   10  C   UNL     1     -10.685  16.023  68.485  1.00  0.00    -0.287 C  
BRANCH  10  11
HETATM   11  C   UNL     1     -10.050  17.397  68.705  1.00  0.00    -0.355 C  
HETATM   12  C   UNL     1     -10.619  18.405  67.730  1.00  0.00    -0.391 C  
HETATM   13  O   UNL     1      -9.587  19.370  67.578  1.00  0.00    -0.309 OA 
HETATM   14  C   UNL     1      -8.366  18.649  67.779  1.00  0.00    -0.267 C  
HETATM   15  O   UNL     1      -8.641  17.395  68.416  1.00  0.00    -0.255 OA 
HETATM   16  C   UNL     1      -7.434  19.518  68.628  1.00  0.00    -0.380 C  
HETATM   17  C   UNL     1      -7.018  20.786  67.876  1.00  0.00    -0.292 C  
HETATM   18  C   UNL     1      -6.391  20.462  66.521  1.00  0.00    -0.251 C  
HETATM   19  C   UNL     1      -7.286  19.564  65.672  1.00  0.00    -0.283 C  
HETATM   20  C   UNL     1      -7.709  18.315  66.434  1.00  0.00    -0.289 C  
ENDBRANCH  10  11
ENDBRANCH   6  10
TORSDOF 2
ENDMDL
MODEL       54
REMARK 921   NORMALIZED FREE ENERGY PREDICTED BY IDOCK:   -4.86 KCAL/MOL
REMARK 922        TOTAL FREE ENERGY PREDICTED BY IDOCK:   -5.57 KCAL/MOL
REMARK 923 INTER-LIGAND FREE ENERGY PREDICTED BY IDOCK:   -5.40 KCAL/MOL
REMARK 924 INTRA-LIGAND FREE ENERGY PREDICTED BY IDOCK:   -0.18 KCAL/MOL
REMARK 927      BINDING AFFINITY PREDICTED BY RF-SCORE:    0.00 PKD
ROOT
HETATM    1  N   UNL     1      -7.570  20.474  65.465  1.00  0.00    -0.512 NA 
HETATM    2  C   UNL     1      -8.237  20.075  66.570  1.00  0.00    -0.309 C  
HETATM    3  H2  UNL     1      -7.915  21.176  64.811  1.00  0.00     0.000 HD 
HETATM    4  H1  UNL     1      -6.680  19.986  65.364  1.00  0.00     0.000 HD 
HETATM    5  N   UNL     1      -9.415  20.720  66.704  1.00  0.00    -0.647 NA 
HETATM    6  N   UNL     1      -7.725  19.166  67.315  1.00  0.00    -0.233 NA 
HETATM    7  H1  UNL     1      -9.918  20.419  67.538  1.00  0.00     0.000 HD 
HETATM    8  H2  UNL     1      -9.760  21.423  66.051  1.00  0.00     0.000 HD 
HETATM    9  H   UNL     1      -6.790  18.802  67.131  1.00  0.00     0.000 HD 
ENDROOT
BRANCH   6  10
HETATM   10  C   UNL     1      -8.523  18.666  68.439  1.00  0.00    -0.338 C  
BRANCH  10  11
HETATM   11  C   UNL     1      -9.261  17.370  68.097  1.00  0.00    -0.270 C  
HETATM   12  C   UNL     1     -10.723  17.649  67.827  1.00  0.00    -0.332 C  
HETATM   13  O   UNL     1     -11.381  16.433  68.155  1.00  0.00    -0.324 OA 
HETATM   14  C   UNL     1     -10.577  15.837  69.181  1.00  0.00    -0.242 C  
HETATM   15  O   UNL     1      -9.282  16.451  69.203  1.00  0.00    -0.257 OA 
HETATM   16  C   UNL     1     -10.482  14.335  68.898  1.00  0.00    -0.241 C  
HETATM   17  C   UNL     1     -11.850  13.657  69.031  1.00  0.00    -0.393 C  
HETATM   18  C   UNL     1     -12.486  13.925  70.394  1.00  0.00    -0.404 C  
HETATM   19  C   UNL     1     -12.555  15.415  70.714  1.00  0.00    -0.497 C  
HETATM   20  C   UNL     1     -11.196  16.083  70.562  1.00  0.00    -0.397 C  
ENDBRANCH  10  11
ENDBRANCH   6  10
TORSDOF 2
ENDMDL
MODEL       55
REMARK 921   NORMALIZED FREE ENERGY PREDICTED BY IDOCK:   -4.86 KCAL/MOL
REMARK 922        TOTAL FREE ENERGY PREDICTED BY IDOCK:   -5.56 KCAL/MOL
REMARK 923 INTER-LIGAND FREE ENERGY PREDICTED BY IDOCK:   -5.36 KCAL/MOL
REMARK 924 INTRA-LIGAND FREE ENERGY PREDICTED BY IDOCK:   -0.21 KCAL/MOL
REMARK 927      BINDING AFFINITY PREDICTED BY RF-SCORE:    0.00 PKD
ROOT
HETATM    1  N   UNL     1      -7.874  20.823  66.715  1.00  0.00    -0.556 NA 
HETATM    2  C   UNL     1      -8.665  19.796  67.095  1.00  0.00    -0.323 C  
HETATM    3  H2  UNL     1      -8.176  21.797  66.687  1.00  0.00     0.000 HD 
HETATM    4  H1  UNL     1      -6.939  20.506  66.460  1.00  0.00     0.000 HD 
HETATM    5  N   UNL     1      -9.903  20.215  67.432  1.00  0.00    -0.409 NA 
HETATM    6  N   UNL     1      -8.195  18.604  67.072  1.00  0.00    -0.248 NA 
HETATM    7  H1  UNL     1     -10.500  19.440  67.718  1.00  0.00     0.000 HD 
HETATM    8  H2  UNL     1     -10.204  21.189  67.404  1.00  0.00     0.000 HD 
HETATM    9  H   UNL     1      -7.214  18.430  66.853  1.00  0.00     0.000 HD 
ENDROOT
BRANCH   6  10
HETATM   10  C   UNL     1      -9.109  17.496  67.371  1.00  0.00    -0.237 C  
BRANCH  10  11
HETATM   11  C   UNL     1      -9.331  16.583  66.164  1.00  0.00    -0.304 C  
HETATM   12  C   UNL     1     -10.513  17.062  65.350  1.00  0.00    -0.112 C  
HETATM   13  O   UNL     1     -11.000  15.889  64.711  1.00  0.00    -0.480 OA 
HETATM   14  C   UNL     1     -10.682  14.816  65.606  1.00  0.00    -0.336 C  
HETATM   15  O   UNL     1      -9.697  15.249  66.554  1.00  0.00    -0.240 OA 
HETATM   16  C   UNL     1     -10.177  13.635  64.771  1.00  0.00    -0.363 C  
HETATM   17  C   UNL     1     -11.284  13.077  63.872  1.00  0.00    -0.434 C  
HETATM   18  C   UNL     1     -12.529  12.698  64.672  1.00  0.00    -0.538 C  
HETATM   19  C   UNL     1     -13.027  13.848  65.542  1.00  0.00    -0.375 C  
HETATM   20  C   UNL     1     -11.915  14.408  66.419  1.00  0.00    -0.402 C  
ENDBRANCH  10  11
ENDBRANCH   6  10
TORSDOF 2
ENDMDL
MODEL       56
REMARK 921   NORMALIZED FREE ENERGY PREDICTED BY IDOCK:   -4.84 KCAL/MOL
REMARK 922        TOTAL FREE ENERGY PREDICTED BY IDOCK:   -5.54 KCAL/MOL
REMARK 923 INTER-LIGAND FREE ENERGY PREDICTED BY IDOCK:   -5.41 KCAL/MOL
REMARK 924 INTRA-LIGAND FREE ENERGY PREDICTED BY IDOCK:   -0.13 KCAL/MOL
REMARK 927      BINDING AFFINITY PREDICTED BY RF-SCORE:    0.00 PKD
ROOT
HETATM    1  N   UNL     1     -12.068  14.949  68.699  1.00  0.00    -0.574 NA 
HETATM    2  C   UNL     1     -12.404  14.203  69.774  1.00  0.00    -0.299 C  
HETATM    3  H2  UNL     1     -12.431  15.884  68.516  1.00  0.00     0.000 HD 
HETATM    4  H1  UNL     1     -11.408  14.463  68.092  1.00  0.00     0.000 HD 
HETATM    5  N   UNL     1     -13.278  14.847  70.577  1.00  0.00    -0.633 NA 
HETATM    6  N   UNL     1     -11.908  13.028  69.898  1.00  0.00    -0.428 NA 
HETATM    7  H1  UNL     1     -13.531  14.283  71.388  1.00  0.00     0.000 HD 
HETATM    8  H2  UNL     1     -13.640  15.782  70.394  1.00  0.00     0.000 HD 
HETATM    9  H   UNL     1     -11.205  12.682  69.245  1.00  0.00     0.000 HD 
ENDROOT
BRANCH   6  10
HETATM   10  C   UNL     1     -12.382  12.194  71.008  1.00  0.00    -0.230 C  
BRANCH  10  11
HETATM   11  C   UNL     1     -12.521  10.722  70.611  1.00  0.00    -0.370 C  
HETATM   12  C   UNL     1     -13.356   9.977  71.629  1.00  0.00    -0.373 C  
HETATM   13  O   UNL     1     -12.903   8.633  71.541  1.00  0.00    -0.323 OA 
HETATM   14  C   UNL     1     -11.528   8.726  71.147  1.00  0.00    -0.286 C  
HETATM   15  O   UNL     1     -11.258  10.035  70.630  1.00  0.00    -0.304 OA 
HETATM   16  C   UNL     1     -11.260   7.641  70.100  1.00  0.00    -0.193 C  
HETATM   17  C   UNL     1     -11.399   6.239  70.703  1.00  0.00    -0.409 C  
HETATM   18  C   UNL     1     -10.506   6.058  71.929  1.00  0.00    -0.263 C  
HETATM   19  C   UNL     1     -10.730   7.151  72.971  1.00  0.00    -0.359 C  
HETATM   20  C   UNL     1     -10.607   8.540  72.359  1.00  0.00    -0.368 C  
ENDBRANCH  10  11
ENDBRANCH   6  10
TORSDOF 2
ENDMDL
MODEL       57
REMARK 921   NORMALIZED FREE ENERGY PREDICTED BY IDOCK:   -4.83 KCAL/MOL
REMARK 922        TOTAL FREE ENERGY PREDICTED BY IDOCK:   -5.53 KCAL/MOL
REMARK 923 INTER-LIGAND FREE ENERGY PREDICTED BY IDOCK:   -5.31 KCAL/MOL
REMARK 924 INTRA-LIGAND FREE ENERGY PREDICTED BY IDOCK:   -0.22 KCAL/MOL
REMARK 927      BINDING AFFINITY PREDICTED BY RF-SCORE:    0.00 PKD
ROOT
HETATM    1  N   UNL     1      -7.431  20.005  65.253  1.00  0.00    -0.424 NA 
HETATM    2  C   UNL     1      -7.908  20.053  66.517  1.00  0.00    -0.306 C  
HETATM    3  H2  UNL     1      -6.921  20.766  64.806  1.00  0.00     0.000 HD 
HETATM    4  H1  UNL     1      -7.643  19.115  64.803  1.00  0.00     0.000 HD 
HETATM    5  N   UNL     1      -7.628  21.230  67.113  1.00  0.00    -0.755 NA 
HETATM    6  N   UNL     1      -8.557  19.048  66.978  1.00  0.00    -0.285 NA 
HETATM    7  H1  UNL     1      -7.988  21.266  68.067  1.00  0.00     0.000 HD 
HETATM    8  H2  UNL     1      -7.118  21.992  66.666  1.00  0.00     0.000 HD 
HETATM    9  H   UNL     1      -8.645  18.187  66.437  1.00  0.00     0.000 HD 
ENDROOT
BRANCH   6  10
HETATM   10  C   UNL     1      -9.167  19.173  68.305  1.00  0.00    -0.335 C  
BRANCH  10  11
HETATM   11  C   UNL     1      -9.725  17.842  68.816  1.00  0.00    -0.323 C  
HETATM   12  C   UNL     1      -8.727  16.728  68.587  1.00  0.00    -0.255 C  
HETATM   13  O   UNL     1      -9.525  15.556  68.482  1.00  0.00    -0.191 OA 
HETATM   14  C   UNL     1     -10.775  16.001  67.940  1.00  0.00    -0.316 C  
HETATM   15  O   UNL     1     -10.887  17.424  68.079  1.00  0.00    -0.384 OA 
HETATM   16  C   UNL     1     -11.900  15.274  68.682  1.00  0.00    -0.329 C  
HETATM   17  C   UNL     1     -11.869  13.768  68.401  1.00  0.00    -0.411 C  
HETATM   18  C   UNL     1     -11.908  13.469  66.904  1.00  0.00    -0.452 C  
HETATM   19  C   UNL     1     -10.818  14.214  66.139  1.00  0.00    -0.296 C  
HETATM   20  C   UNL     1     -10.847  15.706  66.437  1.00  0.00    -0.252 C  
ENDBRANCH  10  11
ENDBRANCH   6  10
TORSDOF 2
ENDMDL
MODEL       58
REMARK 921   NORMALIZED FREE ENERGY PREDICTED BY IDOCK:   -4.82 KCAL/MOL
REMARK 922        TOTAL FREE ENERGY PREDICTED BY IDOCK:   -5.52 KCAL/MOL
REMARK 923 INTER-LIGAND FREE ENERGY PREDICTED BY IDOCK:   -5.38 KCAL/MOL
REMARK 924 INTRA-LIGAND FREE ENERGY PREDICTED BY IDOCK:   -0.15 KCAL/MOL
REMARK 927      BINDING AFFINITY PREDICTED BY RF-SCORE:    0.00 PKD
ROOT
HETATM    1  N   UNL     1      -7.642  20.532  66.109  1.00  0.00    -0.511 NA 
HETATM    2  C   UNL     1      -8.725  19.766  66.366  1.00  0.00    -0.368 C  
HETATM    3  H2  UNL     1      -7.648  21.551  66.118  1.00  0.00     0.000 HD 
HETATM    4  H1  UNL     1      -6.819  19.966  65.906  1.00  0.00     0.000 HD 
HETATM    5  N   UNL     1      -9.816  20.514  66.635  1.00  0.00    -0.619 NA 
HETATM    6  N   UNL     1      -8.616  18.490  66.306  1.00  0.00    -0.441 NA 
HETATM    7  H1  UNL     1     -10.633  19.936  66.828  1.00  0.00     0.000 HD 
HETATM    8  H2  UNL     1      -9.822  21.534  66.643  1.00  0.00     0.000 HD 
HETATM    9  H   UNL     1      -7.711  18.047  66.151  1.00  0.00     0.000 HD 
ENDROOT
BRANCH   6  10
HETATM   10  C   UNL     1      -9.832  17.686  66.469  1.00  0.00    -0.319 C  
BRANCH  10  11
HETATM   11  C   UNL     1     -10.031  17.218  67.912  1.00  0.00    -0.297 C  
HETATM   12  C   UNL     1      -9.120  16.050  68.219  1.00  0.00    -0.191 C  
HETATM   13  O   UNL     1      -9.796  15.336  69.246  1.00  0.00    -0.229 OA 
HETATM   14  C   UNL     1     -11.189  15.572  69.012  1.00  0.00    -0.303 C  
HETATM   15  O   UNL     1     -11.352  16.695  68.135  1.00  0.00    -0.289 OA 
HETATM   16  C   UNL     1     -11.864  15.815  70.365  1.00  0.00    -0.391 C  
HETATM   17  C   UNL     1     -11.824  14.557  71.239  1.00  0.00    -0.345 C  
HETATM   18  C   UNL     1     -12.430  13.350  70.526  1.00  0.00    -0.350 C  
HETATM   19  C   UNL     1     -11.799  13.113  69.157  1.00  0.00    -0.364 C  
HETATM   20  C   UNL     1     -11.828  14.373  68.303  1.00  0.00    -0.361 C  
ENDBRANCH  10  11
ENDBRANCH   6  10
TORSDOF 2
ENDMDL
MODEL       59
REMARK 921   NORMALIZED FREE ENERGY PREDICTED BY IDOCK:   -4.82 KCAL/MOL
REMARK 922        TOTAL FREE ENERGY PREDICTED BY IDOCK:   -5.52 KCAL/MOL
REMARK 923 INTER-LIGAND FREE ENERGY PREDICTED BY IDOCK:   -5.28 KCAL/MOL
REMARK 924 INTRA-LIGAND FREE ENERGY PREDICTED BY IDOCK:   -0.24 KCAL/MOL
REMARK 927      BINDING AFFINITY PREDICTED BY RF-SCORE:    0.00 PKD
ROOT
HETATM    1  N   UNL     1     -14.263   8.843  73.236  1.00  0.00    -1.237 NA 
HETATM    2  C   UNL     1     -13.554   8.658  72.100  1.00  0.00    -0.406 C  
HETATM    3  H2  UNL     1     -15.252   8.615  73.336  1.00  0.00     0.000 HD 
HETATM    4  H1  UNL     1     -13.688   9.237  73.980  1.00  0.00     0.000 HD 
HETATM    5  N   UNL     1     -14.315   8.136  71.115  1.00  0.00    -0.674 NA 
HETATM    6  N   UNL     1     -12.319   9.000  72.072  1.00  0.00    -0.373 NA 
HETATM    7  H1  UNL     1     -13.780   7.998  70.258  1.00  0.00     0.000 HD 
HETATM    8  H2  UNL     1     -15.304   7.909  71.215  1.00  0.00     0.000 HD 
HETATM    9  H   UNL     1     -11.846   9.329  72.914  1.00  0.00     0.000 HD 
ENDROOT
BRANCH   6  10
HETATM   10  C   UNL     1     -11.606   8.903  70.794  1.00  0.00    -0.259 C  
BRANCH  10  11
HETATM   11  C   UNL     1     -10.673   7.692  70.740  1.00  0.00    -0.226 C  
HETATM   12  C   UNL     1     -11.415   6.475  70.233  1.00  0.00    -0.411 C  
HETATM   13  O   UNL     1     -10.721   5.374  70.804  1.00  0.00    -0.248 OA 
HETATM   14  C   UNL     1     -10.193   5.866  72.043  1.00  0.00    -0.197 C  
HETATM   15  O   UNL     1     -10.217   7.300  72.046  1.00  0.00    -0.188 OA 
HETATM   16  C   UNL     1      -8.768   5.328  72.199  1.00  0.00    -0.131 C  
HETATM   17  C   UNL     1      -8.763   3.804  72.352  1.00  0.00    -0.109 C  
HETATM   18  C   UNL     1      -9.658   3.346  73.503  1.00  0.00    -0.138 C  
HETATM   19  C   UNL     1     -11.074   3.903  73.388  1.00  0.00    -0.329 C  
HETATM   20  C   UNL     1     -11.068   5.416  73.218  1.00  0.00    -0.352 C  
ENDBRANCH  10  11
ENDBRANCH   6  10
TORSDOF 2
ENDMDL
MODEL       60
REMARK 921   NORMALIZED FREE ENERGY PREDICTED BY IDOCK:   -4.82 KCAL/MOL
REMARK 922        TOTAL FREE ENERGY PREDICTED BY IDOCK:   -5.52 KCAL/MOL
REMARK 923 INTER-LIGAND FREE ENERGY PREDICTED BY IDOCK:   -5.29 KCAL/MOL
REMARK 924 INTRA-LIGAND FREE ENERGY PREDICTED BY IDOCK:   -0.23 KCAL/MOL
REMARK 927      BINDING AFFINITY PREDICTED BY RF-SCORE:    0.00 PKD
ROOT
HETATM    1  N   UNL     1     -10.653  19.855  65.717  1.00  0.00    -0.473 NA 
HETATM    2  C   UNL     1      -9.904  19.232  66.653  1.00  0.00    -0.367 C  
HETATM    3  H2  UNL     1     -11.243  20.665  65.904  1.00  0.00     0.000 HD 
HETATM    4  H1  UNL     1     -10.556  19.415  64.802  1.00  0.00     0.000 HD 
HETATM    5  N   UNL     1     -10.032  19.813  67.865  1.00  0.00    -0.391 NA 
HETATM    6  N   UNL     1      -9.214  18.205  66.319  1.00  0.00    -0.463 NA 
HETATM    7  H1  UNL     1      -9.467  19.342  68.571  1.00  0.00     0.000 HD 
HETATM    8  H2  UNL     1     -10.622  20.623  68.051  1.00  0.00     0.000 HD 
HETATM    9  H   UNL     1      -9.157  17.903  65.346  1.00  0.00     0.000 HD 
ENDROOT
BRANCH   6  10
HETATM   10  C   UNL     1      -8.507  17.475  67.377  1.00  0.00    -0.216 C  
BRANCH  10  11
HETATM   11  C   UNL     1      -9.065  16.066  67.584  1.00  0.00    -0.199 C  
HETATM   12  C   UNL     1      -8.316  15.070  66.726  1.00  0.00    -0.154 C  
HETATM   13  O   UNL     1      -9.252  14.024  66.501  1.00  0.00    -0.270 OA 
HETATM   14  C   UNL     1     -10.537  14.658  66.531  1.00  0.00    -0.300 C  
HETATM   15  O   UNL     1     -10.427  15.951  67.139  1.00  0.00    -0.302 OA 
HETATM   16  C   UNL     1     -11.497  13.752  67.307  1.00  0.00    -0.367 C  
HETATM   17  C   UNL     1     -11.732  12.429  66.570  1.00  0.00    -0.443 C  
HETATM   18  C   UNL     1     -12.219  12.656  65.140  1.00  0.00    -0.539 C  
HETATM   19  C   UNL     1     -11.297  13.588  64.359  1.00  0.00    -0.407 C  
HETATM   20  C   UNL     1     -11.055  14.892  65.107  1.00  0.00    -0.399 C  
ENDBRANCH  10  11
ENDBRANCH   6  10
TORSDOF 2
ENDMDL
MODEL       61
REMARK 921   NORMALIZED FREE ENERGY PREDICTED BY IDOCK:   -4.80 KCAL/MOL
REMARK 922        TOTAL FREE ENERGY PREDICTED BY IDOCK:   -5.50 KCAL/MOL
REMARK 923 INTER-LIGAND FREE ENERGY PREDICTED BY IDOCK:   -5.30 KCAL/MOL
REMARK 924 INTRA-LIGAND FREE ENERGY PREDICTED BY IDOCK:   -0.20 KCAL/MOL
REMARK 927      BINDING AFFINITY PREDICTED BY RF-SCORE:    0.00 PKD
ROOT
HETATM    1  N   UNL     1     -11.508   6.553  67.327  1.00  0.00    -0.743 NA 
HETATM    2  C   UNL     1     -10.747   7.650  67.119  1.00  0.00    -0.290 C  
HETATM    3  H2  UNL     1     -11.399   5.677  66.817  1.00  0.00     0.000 HD 
HETATM    4  H1  UNL     1     -12.204   6.708  68.056  1.00  0.00     0.000 HD 
HETATM    5  N   UNL     1      -9.826   7.445  66.154  1.00  0.00    -0.435 NA 
HETATM    6  N   UNL     1     -10.982   8.711  67.799  1.00  0.00    -0.487 NA 
HETATM    7  H1  UNL     1      -9.252   8.273  65.997  1.00  0.00     0.000 HD 
HETATM    8  H2  UNL     1      -9.717   6.569  65.644  1.00  0.00     0.000 HD 
HETATM    9  H   UNL     1     -11.675   8.712  68.548  1.00  0.00     0.000 HD 
ENDROOT
BRANCH   6  10
HETATM   10  C   UNL     1     -10.224   9.922  67.469  1.00  0.00    -0.216 C  
BRANCH  10  11
HETATM   11  C   UNL     1     -10.957  10.810  66.461  1.00  0.00    -0.075 C  
HETATM   12  C   UNL     1     -10.049  11.154  65.301  1.00  0.00    -0.276 C  
HETATM   13  O   UNL     1     -10.544  12.397  64.821  1.00  0.00    -0.278 OA 
HETATM   14  C   UNL     1     -11.104  13.045  65.969  1.00  0.00    -0.278 C  
HETATM   15  O   UNL     1     -11.305  12.089  67.018  1.00  0.00    -0.299 OA 
HETATM   16  C   UNL     1     -12.421  13.703  65.548  1.00  0.00    -0.544 C  
HETATM   17  C   UNL     1     -12.182  14.832  64.541  1.00  0.00    -0.443 C  
HETATM   18  C   UNL     1     -11.191  15.866  65.073  1.00  0.00    -0.296 C  
HETATM   19  C   UNL     1      -9.885  15.228  65.535  1.00  0.00    -0.362 C  
HETATM   20  C   UNL     1     -10.134  14.096  66.521  1.00  0.00    -0.283 C  
ENDBRANCH  10  11
ENDBRANCH   6  10
TORSDOF 2
ENDMDL
MODEL       62
REMARK 921   NORMALIZED FREE ENERGY PREDICTED BY IDOCK:   -4.79 KCAL/MOL
REMARK 922        TOTAL FREE ENERGY PREDICTED BY IDOCK:   -5.49 KCAL/MOL
REMARK 923 INTER-LIGAND FREE ENERGY PREDICTED BY IDOCK:   -5.31 KCAL/MOL
REMARK 924 INTRA-LIGAND FREE ENERGY PREDICTED BY IDOCK:   -0.18 KCAL/MOL
REMARK 927      BINDING AFFINITY PREDICTED BY RF-SCORE:    0.00 PKD
ROOT
HETATM    1  N   UNL     1     -10.260  10.995  65.760  1.00  0.00    -0.252 NA 
HETATM    2  C   UNL     1     -10.659  12.100  66.426  1.00  0.00    -0.241 C  
HETATM    3  H2  UNL     1     -10.885  10.241  65.477  1.00  0.00     0.000 HD 
HETATM    4  H1  UNL     1      -9.257  11.007  65.575  1.00  0.00     0.000 HD 
HETATM    5  N   UNL     1     -11.986  12.085  66.672  1.00  0.00    -0.603 NA 
HETATM    6  N   UNL     1      -9.787  12.980  66.756  1.00  0.00    -0.237 NA 
HETATM    7  H1  UNL     1     -12.287  12.919  67.175  1.00  0.00     0.000 HD 
HETATM    8  H2  UNL     1     -12.611  11.331  66.389  1.00  0.00     0.000 HD 
HETATM    9  H   UNL     1      -8.816  12.897  66.452  1.00  0.00     0.000 HD 
ENDROOT
BRANCH   6  10
HETATM   10  C   UNL     1     -10.225  14.108  67.583  1.00  0.00    -0.241 C  
BRANCH  10  11
HETATM   11  C   UNL     1     -10.320  15.411  66.786  1.00  0.00    -0.279 C  
HETATM   12  C   UNL     1      -9.003  15.711  66.104  1.00  0.00    -0.327 C  
HETATM   13  O   UNL     1      -8.990  17.125  65.968  1.00  0.00    -0.481 OA 
HETATM   14  C   UNL     1      -9.757  17.615  67.076  1.00  0.00    -0.292 C  
HETATM   15  O   UNL     1     -10.537  16.551  67.636  1.00  0.00    -0.312 OA 
HETATM   16  C   UNL     1     -10.644  18.757  66.571  1.00  0.00    -0.436 C  
HETATM   17  C   UNL     1      -9.804  19.956  66.118  1.00  0.00    -0.562 C  
HETATM   18  C   UNL     1      -8.858  20.433  67.219  1.00  0.00    -0.444 C  
HETATM   19  C   UNL     1      -7.990  19.303  67.764  1.00  0.00    -0.312 C  
HETATM   20  C   UNL     1      -8.833  18.110  68.194  1.00  0.00    -0.289 C  
ENDBRANCH  10  11
ENDBRANCH   6  10
TORSDOF 2
ENDMDL
MODEL       63
REMARK 921   NORMALIZED FREE ENERGY PREDICTED BY IDOCK:   -4.79 KCAL/MOL
REMARK 922        TOTAL FREE ENERGY PREDICTED BY IDOCK:   -5.48 KCAL/MOL
REMARK 923 INTER-LIGAND FREE ENERGY PREDICTED BY IDOCK:   -5.28 KCAL/MOL
REMARK 924 INTRA-LIGAND FREE ENERGY PREDICTED BY IDOCK:   -0.20 KCAL/MOL
REMARK 927      BINDING AFFINITY PREDICTED BY RF-SCORE:    0.00 PKD
ROOT
HETATM    1  N   UNL     1      -9.886  14.095  65.098  1.00  0.00    -0.582 NA 
HETATM    2  C   UNL     1     -10.548  15.178  65.563  1.00  0.00    -0.366 C  
HETATM    3  H2  UNL     1     -10.157  13.132  65.294  1.00  0.00     0.000 HD 
HETATM    4  H1  UNL     1      -9.083  14.360  64.528  1.00  0.00     0.000 HD 
HETATM    5  N   UNL     1     -11.611  14.828  66.318  1.00  0.00    -0.336 NA 
HETATM    6  N   UNL     1     -10.110  16.348  65.277  1.00  0.00    -0.535 NA 
HETATM    7  H1  UNL     1     -12.110  15.645  66.669  1.00  0.00     0.000 HD 
HETATM    8  H2  UNL     1     -11.882  13.865  66.514  1.00  0.00     0.000 HD 
HETATM    9  H   UNL     1      -9.324  16.474  64.639  1.00  0.00     0.000 HD 
ENDROOT
BRANCH   6  10
HETATM   10  C   UNL     1     -10.774  17.501  65.893  1.00  0.00    -0.119 C  
BRANCH  10  11
HETATM   11  C   UNL     1     -10.024  18.016  67.123  1.00  0.00    -0.325 C  
HETATM   12  C   UNL     1     -10.343  19.475  67.366  1.00  0.00    -0.450 C  
HETATM   13  O   UNL     1      -9.199  19.978  68.042  1.00  0.00    -0.331 OA 
HETATM   14  C   UNL     1      -8.103  19.188  67.564  1.00  0.00    -0.273 C  
HETATM   15  O   UNL     1      -8.598  18.000  66.934  1.00  0.00    -0.236 OA 
HETATM   16  C   UNL     1      -7.201  18.857  68.757  1.00  0.00    -0.351 C  
HETATM   17  C   UNL     1      -6.550  20.120  69.329  1.00  0.00    -0.302 C  
HETATM   18  C   UNL     1      -5.789  20.901  68.259  1.00  0.00    -0.386 C  
HETATM   19  C   UNL     1      -6.659  21.209  67.044  1.00  0.00    -0.405 C  
HETATM   20  C   UNL     1      -7.315  19.951  66.493  1.00  0.00    -0.286 C  
ENDBRANCH  10  11
ENDBRANCH   6  10
TORSDOF 2
ENDMDL
MODEL       64
REMARK 921   NORMALIZED FREE ENERGY PREDICTED BY IDOCK:   -4.74 KCAL/MOL
REMARK 922        TOTAL FREE ENERGY PREDICTED BY IDOCK:   -5.43 KCAL/MOL
REMARK 923 INTER-LIGAND FREE ENERGY PREDICTED BY IDOCK:   -5.30 KCAL/MOL
REMARK 924 INTRA-LIGAND FREE ENERGY PREDICTED BY IDOCK:   -0.13 KCAL/MOL
REMARK 927      BINDING AFFINITY PREDICTED BY RF-SCORE:    0.00 PKD
ROOT
HETATM    1  N   UNL     1     -12.333  13.257  63.353  1.00  0.00    -0.851 NA 
HETATM    2  C   UNL     1     -11.526  13.351  64.433  1.00  0.00    -0.384 C  
HETATM    3  H2  UNL     1     -12.013  13.363  62.390  1.00  0.00     0.000 HD 
HETATM    4  H1  UNL     1     -13.299  13.067  63.617  1.00  0.00     0.000 HD 
HETATM    5  N   UNL     1     -10.248  13.603  64.083  1.00  0.00    -0.728 NA 
HETATM    6  N   UNL     1     -12.033  13.224  65.603  1.00  0.00    -0.387 NA 
HETATM    7  H1  UNL     1      -9.640  13.674  64.898  1.00  0.00     0.000 HD 
HETATM    8  H2  UNL     1      -9.928  13.710  63.120  1.00  0.00     0.000 HD 
HETATM    9  H   UNL     1     -13.014  12.972  65.727  1.00  0.00     0.000 HD 
ENDROOT
BRANCH   6  10
HETATM   10  C   UNL     1     -11.161  13.451  66.760  1.00  0.00    -0.310 C  
BRANCH  10  11
HETATM   11  C   UNL     1     -10.551  12.152  67.292  1.00  0.00    -0.227 C  
HETATM   12  C   UNL     1     -11.526  11.006  67.133  1.00  0.00    -0.015 C  
HETATM   13  O   UNL     1     -11.170  10.094  68.163  1.00  0.00    -0.258 OA 
HETATM   14  C   UNL     1     -10.638  10.907  69.216  1.00  0.00    -0.217 C  
HETATM   15  O   UNL     1     -10.311  12.207  68.709  1.00  0.00    -0.215 OA 
HETATM   16  C   UNL     1      -9.405  10.200  69.786  1.00  0.00    -0.183 C  
HETATM   17  C   UNL     1      -9.786   8.881  70.467  1.00  0.00    -0.244 C  
HETATM   18  C   UNL     1     -10.854   9.084  71.540  1.00  0.00    -0.416 C  
HETATM   19  C   UNL     1     -12.077   9.822  71.003  1.00  0.00    -0.434 C  
HETATM   20  C   UNL     1     -11.687  11.122  70.313  1.00  0.00    -0.431 C  
ENDBRANCH  10  11
ENDBRANCH   6  10
TORSDOF 2
ENDMDL
MODEL       65
REMARK 921   NORMALIZED FREE ENERGY PREDICTED BY IDOCK:   -4.73 KCAL/MOL
REMARK 922        TOTAL FREE ENERGY PREDICTED BY IDOCK:   -5.42 KCAL/MOL
REMARK 923 INTER-LIGAND FREE ENERGY PREDICTED BY IDOCK:   -5.25 KCAL/MOL
REMARK 924 INTRA-LIGAND FREE ENERGY PREDICTED BY IDOCK:   -0.17 KCAL/MOL
REMARK 927      BINDING AFFINITY PREDICTED BY RF-SCORE:    0.00 PKD
ROOT
HETATM    1  N   UNL     1      -9.691  11.938  67.683  1.00  0.00    -0.181 NA 
HETATM    2  C   UNL     1     -10.863  11.980  68.354  1.00  0.00    -0.233 C  
HETATM    3  H2  UNL     1      -9.612  11.976  66.667  1.00  0.00     0.000 HD 
HETATM    4  H1  UNL     1      -8.895  11.865  68.317  1.00  0.00     0.000 HD 
HETATM    5  N   UNL     1     -11.916  12.076  67.516  1.00  0.00    -0.578 NA 
HETATM    6  N   UNL     1     -10.853  11.902  69.634  1.00  0.00    -0.450 NA 
HETATM    7  H1  UNL     1     -12.801  12.107  68.022  1.00  0.00     0.000 HD 
HETATM    8  H2  UNL     1     -11.837  12.114  66.500  1.00  0.00     0.000 HD 
HETATM    9  H   UNL     1      -9.975  11.893  70.153  1.00  0.00     0.000 HD 
ENDROOT
BRANCH   6  10
HETATM   10  C   UNL     1     -12.142  11.826  70.329  1.00  0.00    -0.342 C  
BRANCH  10  11
HETATM   11  C   UNL     1     -12.581  10.382  70.584  1.00  0.00    -0.348 C  
HETATM   12  C   UNL     1     -13.043  10.216  72.016  1.00  0.00    -0.437 C  
HETATM   13  O   UNL     1     -12.807   8.844  72.305  1.00  0.00    -0.378 OA 
HETATM   14  C   UNL     1     -11.683   8.478  71.494  1.00  0.00    -0.297 C  
HETATM   15  O   UNL     1     -11.489   9.455  70.463  1.00  0.00    -0.263 OA 
HETATM   16  C   UNL     1     -11.953   7.089  70.908  1.00  0.00    -0.409 C  
HETATM   17  C   UNL     1     -12.004   6.023  72.007  1.00  0.00    -0.237 C  
HETATM   18  C   UNL     1     -10.738   6.028  72.862  1.00  0.00    -0.277 C  
HETATM   19  C   UNL     1     -10.428   7.412  73.425  1.00  0.00    -0.419 C  
HETATM   20  C   UNL     1     -10.397   8.467  72.328  1.00  0.00    -0.402 C  
ENDBRANCH  10  11
ENDBRANCH   6  10
TORSDOF 2
ENDMDL
MODEL       66
REMARK 921   NORMALIZED FREE ENERGY PREDICTED BY IDOCK:   -4.71 KCAL/MOL
REMARK 922        TOTAL FREE ENERGY PREDICTED BY IDOCK:   -5.40 KCAL/MOL
REMARK 923 INTER-LIGAND FREE ENERGY PREDICTED BY IDOCK:   -5.11 KCAL/MOL
REMARK 924 INTRA-LIGAND FREE ENERGY PREDICTED BY IDOCK:   -0.28 KCAL/MOL
REMARK 927      BINDING AFFINITY PREDICTED BY RF-SCORE:    0.00 PKD
ROOT
HETATM    1  N   UNL     1     -14.398   8.671  72.979  1.00  0.00    -1.094 NA 
HETATM    2  C   UNL     1     -13.144   8.949  72.560  1.00  0.00    -0.364 C  
HETATM    3  H2  UNL     1     -15.188   9.309  72.883  1.00  0.00     0.000 HD 
HETATM    4  H1  UNL     1     -14.459   7.746  73.403  1.00  0.00     0.000 HD 
HETATM    5  N   UNL     1     -13.064  10.173  71.999  1.00  0.00    -0.451 NA 
HETATM    6  N   UNL     1     -12.217   8.085  72.749  1.00  0.00    -0.614 NA 
HETATM    7  H1  UNL     1     -12.117  10.383  71.682  1.00  0.00     0.000 HD 
HETATM    8  H2  UNL     1     -13.853  10.812  71.902  1.00  0.00     0.000 HD 
HETATM    9  H   UNL     1     -12.427   7.164  73.134  1.00  0.00     0.000 HD 
ENDROOT
BRANCH   6  10
HETATM   10  C   UNL     1     -10.843   8.459  72.396  1.00  0.00    -0.346 C  
BRANCH  10  11
HETATM   11  C   UNL     1     -10.410   7.876  71.049  1.00  0.00    -0.201 C  
HETATM   12  C   UNL     1      -8.997   8.304  70.718  1.00  0.00    -0.149 C  
HETATM   13  O   UNL     1      -8.945   8.279  69.298  1.00  0.00    -0.145 OA 
HETATM   14  C   UNL     1     -10.280   8.574  68.868  1.00  0.00    -0.207 C  
HETATM   15  O   UNL     1     -11.193   8.393  69.959  1.00  0.00    -0.206 OA 
HETATM   16  C   UNL     1     -10.616   7.649  67.695  1.00  0.00    -0.294 C  
HETATM   17  C   UNL     1      -9.739   7.955  66.477  1.00  0.00    -0.279 C  
HETATM   18  C   UNL     1      -9.828   9.424  66.068  1.00  0.00    -0.366 C  
HETATM   19  C   UNL     1      -9.534  10.365  67.232  1.00  0.00    -0.176 C  
HETATM   20  C   UNL     1     -10.398  10.042  68.444  1.00  0.00    -0.218 C  
ENDBRANCH  10  11
ENDBRANCH   6  10
TORSDOF 2
ENDMDL
MODEL       67
REMARK 921   NORMALIZED FREE ENERGY PREDICTED BY IDOCK:   -4.70 KCAL/MOL
REMARK 922        TOTAL FREE ENERGY PREDICTED BY IDOCK:   -5.39 KCAL/MOL
REMARK 923 INTER-LIGAND FREE ENERGY PREDICTED BY IDOCK:   -5.16 KCAL/MOL
REMARK 924 INTRA-LIGAND FREE ENERGY PREDICTED BY IDOCK:   -0.22 KCAL/MOL
REMARK 927      BINDING AFFINITY PREDICTED BY RF-SCORE:    0.00 PKD
ROOT
HETATM    1  N   UNL     1     -10.322  11.044  69.749  1.00  0.00    -0.433 NA 
HETATM    2  C   UNL     1     -11.133  11.529  68.783  1.00  0.00    -0.233 C  
HETATM    3  H2  UNL     1     -10.457  10.144  70.209  1.00  0.00     0.000 HD 
HETATM    4  H1  UNL     1      -9.561  11.688  69.962  1.00  0.00     0.000 HD 
HETATM    5  N   UNL     1     -12.141  10.678  68.501  1.00  0.00    -0.819 NA 
HETATM    6  N   UNL     1     -10.888  12.685  68.285  1.00  0.00    -0.229 NA 
HETATM    7  H1  UNL     1     -12.753  11.045  67.772  1.00  0.00     0.000 HD 
HETATM    8  H2  UNL     1     -12.276   9.778  68.961  1.00  0.00     0.000 HD 
HETATM    9  H   UNL     1     -10.049  13.203  68.547  1.00  0.00     0.000 HD 
ENDROOT
BRANCH   6  10
HETATM   10  C   UNL     1     -11.850  13.240  67.327  1.00  0.00    -0.372 C  
BRANCH  10  11
HETATM   11  C   UNL     1     -11.441  14.629  66.831  1.00  0.00    -0.363 C  
HETATM   12  C   UNL     1     -10.038  14.597  66.267  1.00  0.00    -0.294 C  
HETATM   13  O   UNL     1      -9.557  15.923  66.444  1.00  0.00    -0.246 OA 
HETATM   14  C   UNL     1     -10.229  16.414  67.610  1.00  0.00    -0.272 C  
HETATM   15  O   UNL     1     -11.362  15.585  67.903  1.00  0.00    -0.331 OA 
HETATM   16  C   UNL     1     -10.648  17.862  67.343  1.00  0.00    -0.370 C  
HETATM   17  C   UNL     1      -9.426  18.774  67.186  1.00  0.00    -0.328 C  
HETATM   18  C   UNL     1      -8.490  18.680  68.389  1.00  0.00    -0.366 C  
HETATM   19  C   UNL     1      -8.090  17.240  68.697  1.00  0.00    -0.261 C  
HETATM   20  C   UNL     1      -9.310  16.339  68.834  1.00  0.00    -0.248 C  
ENDBRANCH  10  11
ENDBRANCH   6  10
TORSDOF 2
ENDMDL
MODEL       68
REMARK 921   NORMALIZED FREE ENERGY PREDICTED BY IDOCK:   -4.70 KCAL/MOL
REMARK 922        TOTAL FREE ENERGY PREDICTED BY IDOCK:   -5.38 KCAL/MOL
REMARK 923 INTER-LIGAND FREE ENERGY PREDICTED BY IDOCK:   -5.16 KCAL/MOL
REMARK 924 INTRA-LIGAND FREE ENERGY PREDICTED BY IDOCK:   -0.22 KCAL/MOL
REMARK 927      BINDING AFFINITY PREDICTED BY RF-SCORE:    0.00 PKD
ROOT
HETATM    1  N   UNL     1     -13.203  14.671  71.267  1.00  0.00    -0.353 NA 
HETATM    2  C   UNL     1     -12.450  15.249  70.306  1.00  0.00    -0.363 C  
HETATM    3  H2  UNL     1     -13.191  14.951  72.248  1.00  0.00     0.000 HD 
HETATM    4  H1  UNL     1     -13.783  13.921  70.893  1.00  0.00     0.000 HD 
HETATM    5  N   UNL     1     -11.681  16.242  70.801  1.00  0.00    -0.542 NA 
HETATM    6  N   UNL     1     -12.522  14.806  69.105  1.00  0.00    -0.580 NA 
HETATM    7  H1  UNL     1     -11.113  16.678  70.075  1.00  0.00     0.000 HD 
HETATM    8  H2  UNL     1     -11.669  16.522  71.781  1.00  0.00     0.000 HD 
HETATM    9  H   UNL     1     -13.196  14.083  68.852  1.00  0.00     0.000 HD 
ENDROOT
BRANCH   6  10
HETATM   10  C   UNL     1     -11.607  15.368  68.107  1.00  0.00    -0.319 C  
BRANCH  10  11
HETATM   11  C   UNL     1     -11.305  14.384  66.975  1.00  0.00    -0.346 C  
HETATM   12  C   UNL     1     -12.505  13.503  66.706  1.00  0.00    -0.159 C  
HETATM   13  O   UNL     1     -11.952  12.308  66.170  1.00  0.00    -0.579 OA 
HETATM   14  C   UNL     1     -10.654  12.195  66.767  1.00  0.00    -0.226 C  
HETATM   15  O   UNL     1     -10.266  13.455  67.329  1.00  0.00    -0.238 OA 
HETATM   16  C   UNL     1      -9.672  11.735  65.685  1.00  0.00    -0.256 C  
HETATM   17  C   UNL     1     -10.002  10.320  65.200  1.00  0.00    -0.395 C  
HETATM   18  C   UNL     1     -10.060   9.323  66.356  1.00  0.00    -0.337 C  
HETATM   19  C   UNL     1     -11.004   9.780  67.464  1.00  0.00    -0.205 C  
HETATM   20  C   UNL     1     -10.680  11.193  67.927  1.00  0.00    -0.261 C  
ENDBRANCH  10  11
ENDBRANCH   6  10
TORSDOF 2
ENDMDL
MODEL       69
REMARK 921   NORMALIZED FREE ENERGY PREDICTED BY IDOCK:   -4.69 KCAL/MOL
REMARK 922        TOTAL FREE ENERGY PREDICTED BY IDOCK:   -5.38 KCAL/MOL
REMARK 923 INTER-LIGAND FREE ENERGY PREDICTED BY IDOCK:   -5.15 KCAL/MOL
REMARK 924 INTRA-LIGAND FREE ENERGY PREDICTED BY IDOCK:   -0.23 KCAL/MOL
REMARK 927      BINDING AFFINITY PREDICTED BY RF-SCORE:    0.00 PKD
ROOT
HETATM    1  N   UNL     1     -14.203   8.887  73.245  1.00  0.00    -1.237 NA 
HETATM    2  C   UNL     1     -13.676   9.124  72.024  1.00  0.00    -0.448 C  
HETATM    3  H2  UNL     1     -14.905   8.172  73.435  1.00  0.00     0.000 HD 
HETATM    4  H1  UNL     1     -13.815   9.511  73.952  1.00  0.00     0.000 HD 
HETATM    5  N   UNL     1     -14.190   8.299  71.088  1.00  0.00    -0.652 NA 
HETATM    6  N   UNL     1     -12.815  10.064  71.886  1.00  0.00    -0.423 NA 
HETATM    7  H1  UNL     1     -13.792   8.478  70.166  1.00  0.00     0.000 HD 
HETATM    8  H2  UNL     1     -14.892   7.584  71.278  1.00  0.00     0.000 HD 
HETATM    9  H   UNL     1     -12.464  10.577  72.695  1.00  0.00     0.000 HD 
ENDROOT
BRANCH   6  10
HETATM   10  C   UNL     1     -12.350  10.380  70.532  1.00  0.00    -0.322 C  
BRANCH  10  11
HETATM   11  C   UNL     1     -11.023   9.695  70.199  1.00  0.00    -0.275 C  
HETATM   12  C   UNL     1     -10.888   9.502  68.704  1.00  0.00    -0.139 C  
HETATM   13  O   UNL     1     -10.035   8.373  68.570  1.00  0.00    -0.176 OA 
HETATM   14  C   UNL     1     -10.284   7.575  69.733  1.00  0.00    -0.211 C  
HETATM   15  O   UNL     1     -10.954   8.360  70.728  1.00  0.00    -0.236 OA 
HETATM   16  C   UNL     1      -8.940   7.049  70.245  1.00  0.00    -0.149 C  
HETATM   17  C   UNL     1      -8.301   6.084  69.240  1.00  0.00    -0.115 C  
HETATM   18  C   UNL     1      -9.243   4.938  68.877  1.00  0.00    -0.164 C  
HETATM   19  C   UNL     1     -10.603   5.439  68.400  1.00  0.00    -0.148 C  
HETATM   20  C   UNL     1     -11.222   6.410  69.397  1.00  0.00    -0.459 C  
ENDBRANCH  10  11
ENDBRANCH   6  10
TORSDOF 2
ENDMDL
MODEL       70
REMARK 921   NORMALIZED FREE ENERGY PREDICTED BY IDOCK:   -4.69 KCAL/MOL
REMARK 922        TOTAL FREE ENERGY PREDICTED BY IDOCK:   -5.38 KCAL/MOL
REMARK 923 INTER-LIGAND FREE ENERGY PREDICTED BY IDOCK:   -5.20 KCAL/MOL
REMARK 924 INTRA-LIGAND FREE ENERGY PREDICTED BY IDOCK:   -0.18 KCAL/MOL
REMARK 927      BINDING AFFINITY PREDICTED BY RF-SCORE:    0.00 PKD
ROOT
HETATM    1  N   UNL     1     -11.493   9.961  68.720  1.00  0.00    -0.491 NA 
HETATM    2  C   UNL     1     -11.063  10.698  67.672  1.00  0.00    -0.319 C  
HETATM    3  H2  UNL     1     -10.963   9.195  69.135  1.00  0.00     0.000 HD 
HETATM    4  H1  UNL     1     -12.411  10.265  69.044  1.00  0.00     0.000 HD 
HETATM    5  N   UNL     1      -9.849  10.296  67.242  1.00  0.00    -0.176 NA 
HETATM    6  N   UNL     1     -11.818  11.626  67.209  1.00  0.00    -0.626 NA 
HETATM    7  H1  UNL     1      -9.525  10.852  66.450  1.00  0.00     0.000 HD 
HETATM    8  H2  UNL     1      -9.319   9.530  67.657  1.00  0.00     0.000 HD 
HETATM    9  H   UNL     1     -12.695  11.868  67.671  1.00  0.00     0.000 HD 
ENDROOT
BRANCH   6  10
HETATM   10  C   UNL     1     -11.382  12.328  65.998  1.00  0.00    -0.350 C  
BRANCH  10  11
HETATM   11  C   UNL     1     -11.546  13.845  66.115  1.00  0.00    -0.359 C  
HETATM   12  C   UNL     1     -11.083  14.526  64.845  1.00  0.00    -0.394 C  
HETATM   13  O   UNL     1     -10.681  15.823  65.267  1.00  0.00    -0.385 OA 
HETATM   14  C   UNL     1     -10.229  15.654  66.616  1.00  0.00    -0.279 C  
HETATM   15  O   UNL     1     -10.700  14.404  67.135  1.00  0.00    -0.278 OA 
HETATM   16  C   UNL     1     -10.746  16.836  67.441  1.00  0.00    -0.244 C  
HETATM   17  C   UNL     1     -10.115  18.154  66.981  1.00  0.00    -0.357 C  
HETATM   18  C   UNL     1      -8.589  18.090  67.000  1.00  0.00    -0.254 C  
HETATM   19  C   UNL     1      -8.053  16.897  66.215  1.00  0.00    -0.351 C  
HETATM   20  C   UNL     1      -8.698  15.595  66.668  1.00  0.00    -0.333 C  
ENDBRANCH  10  11
ENDBRANCH   6  10
TORSDOF 2
ENDMDL
MODEL       71
REMARK 921   NORMALIZED FREE ENERGY PREDICTED BY IDOCK:   -4.67 KCAL/MOL
REMARK 922        TOTAL FREE ENERGY PREDICTED BY IDOCK:   -5.35 KCAL/MOL
REMARK 923 INTER-LIGAND FREE ENERGY PREDICTED BY IDOCK:   -5.12 KCAL/MOL
REMARK 924 INTRA-LIGAND FREE ENERGY PREDICTED BY IDOCK:   -0.23 KCAL/MOL
REMARK 927      BINDING AFFINITY PREDICTED BY RF-SCORE:    0.00 PKD
ROOT
HETATM    1  N   UNL     1     -10.528  19.953  69.283  1.00  0.00    -0.544 NA 
HETATM    2  C   UNL     1     -10.314  19.766  67.962  1.00  0.00    -0.434 C  
HETATM    3  H2  UNL     1     -10.152  20.736  69.818  1.00  0.00     0.000 HD 
HETATM    4  H1  UNL     1     -11.111  19.216  69.680  1.00  0.00     0.000 HD 
HETATM    5  N   UNL     1      -9.542  20.741  67.437  1.00  0.00    -0.547 NA 
HETATM    6  N   UNL     1     -10.813  18.734  67.389  1.00  0.00    -0.423 NA 
HETATM    7  H1  UNL     1      -9.380  20.599  66.440  1.00  0.00     0.000 HD 
HETATM    8  H2  UNL     1      -9.166  21.524  67.971  1.00  0.00     0.000 HD 
HETATM    9  H   UNL     1     -11.435  18.102  67.893  1.00  0.00     0.000 HD 
ENDROOT
BRANCH   6  10
HETATM   10  C   UNL     1     -10.466  18.490  65.985  1.00  0.00    -0.400 C  
BRANCH  10  11
HETATM   11  C   UNL     1     -10.053  17.039  65.732  1.00  0.00    -0.199 C  
HETATM   12  C   UNL     1     -11.146  16.300  64.991  1.00  0.00    -0.254 C  
HETATM   13  O   UNL     1     -10.971  14.940  65.368  1.00  0.00    -0.325 OA 
HETATM   14  C   UNL     1     -10.416  14.986  66.689  1.00  0.00    -0.284 C  
HETATM   15  O   UNL     1      -9.902  16.298  66.955  1.00  0.00    -0.235 OA 
HETATM   16  C   UNL     1      -9.317  13.923  66.779  1.00  0.00    -0.286 C  
HETATM   17  C   UNL     1      -9.898  12.511  66.650  1.00  0.00    -0.245 C  
HETATM   18  C   UNL     1     -11.002  12.256  67.674  1.00  0.00    -0.287 C  
HETATM   19  C   UNL     1     -12.089  13.326  67.628  1.00  0.00    -0.295 C  
HETATM   20  C   UNL     1     -11.501  14.726  67.739  1.00  0.00    -0.363 C  
ENDBRANCH  10  11
ENDBRANCH   6  10
TORSDOF 2
ENDMDL
MODEL       72
REMARK 921   NORMALIZED FREE ENERGY PREDICTED BY IDOCK:   -4.67 KCAL/MOL
REMARK 922        TOTAL FREE ENERGY PREDICTED BY IDOCK:   -5.35 KCAL/MOL
REMARK 923 INTER-LIGAND FREE ENERGY PREDICTED BY IDOCK:   -5.12 KCAL/MOL
REMARK 924 INTRA-LIGAND FREE ENERGY PREDICTED BY IDOCK:   -0.23 KCAL/MOL
REMARK 927      BINDING AFFINITY PREDICTED BY RF-SCORE:    0.00 PKD
ROOT
HETATM    1  N   UNL     1     -12.371  15.952  71.643  1.00  0.00    -0.451 NA 
HETATM    2  C   UNL     1     -11.780  14.900  71.035  1.00  0.00    -0.327 C  
HETATM    3  H2  UNL     1     -11.881  16.802  71.919  1.00  0.00     0.000 HD 
HETATM    4  H1  UNL     1     -13.367  15.791  71.793  1.00  0.00     0.000 HD 
HETATM    5  N   UNL     1     -10.462  15.113  70.837  1.00  0.00    -0.453 NA 
HETATM    6  N   UNL     1     -12.483  13.866  70.751  1.00  0.00    -0.357 NA 
HETATM    7  H1  UNL     1     -10.016  14.319  70.379  1.00  0.00     0.000 HD 
HETATM    8  H2  UNL     1      -9.972  15.963  71.113  1.00  0.00     0.000 HD 
HETATM    9  H   UNL     1     -13.492  13.860  70.901  1.00  0.00     0.000 HD 
ENDROOT
BRANCH   6  10
HETATM   10  C   UNL     1     -11.793  12.694  70.204  1.00  0.00    -0.249 C  
BRANCH  10  11
HETATM   11  C   UNL     1     -11.902  12.614  68.679  1.00  0.00    -0.302 C  
HETATM   12  C   UNL     1     -10.527  12.505  68.056  1.00  0.00    -0.219 C  
HETATM   13  O   UNL     1     -10.683  13.065  66.759  1.00  0.00    -0.260 OA 
HETATM   14  C   UNL     1     -11.721  14.043  66.894  1.00  0.00    -0.410 C  
HETATM   15  O   UNL     1     -12.445  13.819  68.112  1.00  0.00    -0.091 OA 
HETATM   16  C   UNL     1     -12.636  13.939  65.670  1.00  0.00    -0.553 C  
HETATM   17  C   UNL     1     -11.895  14.332  64.388  1.00  0.00    -0.444 C  
HETATM   18  C   UNL     1     -11.271  15.722  64.497  1.00  0.00    -0.334 C  
HETATM   19  C   UNL     1     -10.386  15.861  65.732  1.00  0.00    -0.396 C  
HETATM   20  C   UNL     1     -11.125  15.451  66.998  1.00  0.00    -0.273 C  
ENDBRANCH  10  11
ENDBRANCH   6  10
TORSDOF 2
ENDMDL
MODEL       73
REMARK 921   NORMALIZED FREE ENERGY PREDICTED BY IDOCK:   -4.66 KCAL/MOL
REMARK 922        TOTAL FREE ENERGY PREDICTED BY IDOCK:   -5.34 KCAL/MOL
REMARK 923 INTER-LIGAND FREE ENERGY PREDICTED BY IDOCK:   -5.14 KCAL/MOL
REMARK 924 INTRA-LIGAND FREE ENERGY PREDICTED BY IDOCK:   -0.20 KCAL/MOL
REMARK 927      BINDING AFFINITY PREDICTED BY RF-SCORE:    0.00 PKD
ROOT
HETATM    1  N   UNL     1      -9.177  20.162  66.035  1.00  0.00    -0.591 NA 
HETATM    2  C   UNL     1      -9.042  18.848  66.319  1.00  0.00    -0.261 C  
HETATM    3  H2  UNL     1      -8.454  20.728  65.593  1.00  0.00     0.000 HD 
HETATM    4  H1  UNL     1     -10.091  20.517  66.317  1.00  0.00     0.000 HD 
HETATM    5  N   UNL     1      -7.833  18.377  65.947  1.00  0.00    -0.509 NA 
HETATM    6  N   UNL     1     -10.005  18.232  66.899  1.00  0.00    -0.330 NA 
HETATM    7  H1  UNL     1      -7.731  17.386  66.161  1.00  0.00     0.000 HD 
HETATM    8  H2  UNL     1      -7.110  18.944  65.504  1.00  0.00     0.000 HD 
HETATM    9  H   UNL     1     -10.897  18.696  67.072  1.00  0.00     0.000 HD 
ENDROOT
BRANCH   6  10
HETATM   10  C   UNL     1      -9.787  16.839  67.305  1.00  0.00    -0.260 C  
BRANCH  10  11
HETATM   11  C   UNL     1     -10.516  15.847  66.396  1.00  0.00    -0.308 C  
HETATM   12  C   UNL     1     -11.361  14.899  67.219  1.00  0.00    -0.349 C  
HETATM   13  O   UNL     1     -11.446  13.723  66.425  1.00  0.00    -0.316 OA 
HETATM   14  C   UNL     1     -10.228  13.691  65.672  1.00  0.00    -0.304 C  
HETATM   15  O   UNL     1      -9.605  14.982  65.698  1.00  0.00    -0.333 OA 
HETATM   16  C   UNL     1     -10.565  13.259  64.242  1.00  0.00    -0.402 C  
HETATM   17  C   UNL     1     -11.085  11.818  64.204  1.00  0.00    -0.442 C  
HETATM   18  C   UNL     1     -10.108  10.845  64.861  1.00  0.00    -0.374 C  
HETATM   19  C   UNL     1      -9.727  11.277  66.274  1.00  0.00    -0.246 C  
HETATM   20  C   UNL     1      -9.229  12.715  66.304  1.00  0.00    -0.114 C  
ENDBRANCH  10  11
ENDBRANCH   6  10
TORSDOF 2
ENDMDL
MODEL       74
REMARK 921   NORMALIZED FREE ENERGY PREDICTED BY IDOCK:   -4.65 KCAL/MOL
REMARK 922        TOTAL FREE ENERGY PREDICTED BY IDOCK:   -5.33 KCAL/MOL
REMARK 923 INTER-LIGAND FREE ENERGY PREDICTED BY IDOCK:   -5.11 KCAL/MOL
REMARK 924 INTRA-LIGAND FREE ENERGY PREDICTED BY IDOCK:   -0.22 KCAL/MOL
REMARK 927      BINDING AFFINITY PREDICTED BY RF-SCORE:    0.00 PKD
ROOT
HETATM    1  N   UNL     1     -10.413  18.944  67.802  1.00  0.00    -0.413 NA 
HETATM    2  C   UNL     1     -10.051  18.010  66.895  1.00  0.00    -0.348 C  
HETATM    3  H2  UNL     1     -10.084  19.909  67.791  1.00  0.00     0.000 HD 
HETATM    4  H1  UNL     1     -11.055  18.565  68.498  1.00  0.00     0.000 HD 
HETATM    5  N   UNL     1      -9.202  18.510  65.973  1.00  0.00    -0.493 NA 
HETATM    6  N   UNL     1     -10.504  16.817  67.012  1.00  0.00    -0.308 NA 
HETATM    7  H1  UNL     1      -8.929  17.806  65.289  1.00  0.00     0.000 HD 
HETATM    8  H2  UNL     1      -8.873  19.475  65.962  1.00  0.00     0.000 HD 
HETATM    9  H   UNL     1     -11.194  16.584  67.726  1.00  0.00     0.000 HD 
ENDROOT
BRANCH   6  10
HETATM   10  C   UNL     1     -10.001  15.795  66.088  1.00  0.00    -0.311 C  
BRANCH  10  11
HETATM   11  C   UNL     1     -10.496  14.392  66.447  1.00  0.00    -0.295 C  
HETATM   12  C   UNL     1     -12.004  14.379  66.573  1.00  0.00    -0.386 C  
HETATM   13  O   UNL     1     -12.273  13.315  67.477  1.00  0.00    -0.304 OA 
HETATM   14  C   UNL     1     -11.127  13.253  68.335  1.00  0.00    -0.270 C  
HETATM   15  O   UNL     1     -10.036  13.971  67.743  1.00  0.00    -0.233 OA 
HETATM   16  C   UNL     1     -10.776  11.779  68.553  1.00  0.00    -0.251 C  
HETATM   17  C   UNL     1     -11.881  11.053  69.327  1.00  0.00    -0.411 C  
HETATM   18  C   UNL     1     -12.200  11.749  70.649  1.00  0.00    -0.443 C  
HETATM   19  C   UNL     1     -12.515  13.229  70.460  1.00  0.00    -0.332 C  
HETATM   20  C   UNL     1     -11.419  13.938  69.675  1.00  0.00    -0.310 C  
ENDBRANCH  10  11
ENDBRANCH   6  10
TORSDOF 2
ENDMDL
MODEL       75
REMARK 921   NORMALIZED FREE ENERGY PREDICTED BY IDOCK:   -4.65 KCAL/MOL
REMARK 922        TOTAL FREE ENERGY PREDICTED BY IDOCK:   -5.33 KCAL/MOL
REMARK 923 INTER-LIGAND FREE ENERGY PREDICTED BY IDOCK:   -5.11 KCAL/MOL
REMARK 924 INTRA-LIGAND FREE ENERGY PREDICTED BY IDOCK:   -0.22 KCAL/MOL
REMARK 927      BINDING AFFINITY PREDICTED BY RF-SCORE:    0.00 PKD
ROOT
HETATM    1  N   UNL     1     -11.061  16.177  64.324  1.00  0.00    -1.134 NA 
HETATM    2  C   UNL     1     -11.709  15.004  64.500  1.00  0.00    -0.368 C  
HETATM    3  H2  UNL     1     -11.094  16.724  63.464  1.00  0.00     0.000 HD 
HETATM    4  H1  UNL     1     -10.536  16.448  65.155  1.00  0.00     0.000 HD 
HETATM    5  N   UNL     1     -12.403  14.645  63.399  1.00  0.00    -0.904 NA 
HETATM    6  N   UNL     1     -11.583  14.382  65.614  1.00  0.00    -0.343 NA 
HETATM    7  H1  UNL     1     -12.891  13.760  63.532  1.00  0.00     0.000 HD 
HETATM    8  H2  UNL     1     -12.435  15.193  62.540  1.00  0.00     0.000 HD 
HETATM    9  H   UNL     1     -11.072  14.798  66.393  1.00  0.00     0.000 HD 
ENDROOT
BRANCH   6  10
HETATM   10  C   UNL     1     -12.195  13.056  65.735  1.00  0.00    -0.453 C  
BRANCH  10  11
HETATM   11  C   UNL     1     -11.571  12.228  66.861  1.00  0.00    -0.361 C  
HETATM   12  C   UNL     1     -11.334  13.090  68.082  1.00  0.00    -0.294 C  
HETATM   13  O   UNL     1     -10.248  12.462  68.751  1.00  0.00    -0.186 OA 
HETATM   14  C   UNL     1      -9.478  11.840  67.715  1.00  0.00    -0.181 C  
HETATM   15  O   UNL     1     -10.260  11.747  66.517  1.00  0.00    -0.202 OA 
HETATM   16  C   UNL     1      -9.043  10.459  68.210  1.00  0.00    -0.145 C  
HETATM   17  C   UNL     1      -8.080  10.572  69.397  1.00  0.00    -0.136 C  
HETATM   18  C   UNL     1      -6.873  11.448  69.066  1.00  0.00    -0.102 C  
HETATM   19  C   UNL     1      -7.283  12.817  68.533  1.00  0.00    -0.114 C  
HETATM   20  C   UNL     1      -8.254  12.695  67.366  1.00  0.00    -0.184 C  
ENDBRANCH  10  11
ENDBRANCH   6  10
TORSDOF 2
ENDMDL
MODEL       76
REMARK 921   NORMALIZED FREE ENERGY PREDICTED BY IDOCK:   -4.62 KCAL/MOL
REMARK 922        TOTAL FREE ENERGY PREDICTED BY IDOCK:   -5.30 KCAL/MOL
REMARK 923 INTER-LIGAND FREE ENERGY PREDICTED BY IDOCK:   -5.06 KCAL/MOL
REMARK 924 INTRA-LIGAND FREE ENERGY PREDICTED BY IDOCK:   -0.24 KCAL/MOL
REMARK 927      BINDING AFFINITY PREDICTED BY RF-SCORE:    0.00 PKD
ROOT
HETATM    1  N   UNL     1     -11.522   4.535  65.098  1.00  0.00    -1.109 NA 
HETATM    2  C   UNL     1     -10.447   4.740  65.890  1.00  0.00    -0.274 C  
HETATM    3  H2  UNL     1     -11.884   3.614  64.853  1.00  0.00     0.000 HD 
HETATM    4  H1  UNL     1     -11.927   5.413  64.776  1.00  0.00     0.000 HD 
HETATM    5  N   UNL     1      -9.910   3.577  66.316  1.00  0.00    -0.416 NA 
HETATM    6  N   UNL     1     -10.059   5.940  66.118  1.00  0.00    -0.398 NA 
HETATM    7  H1  UNL     1      -9.098   3.732  66.914  1.00  0.00     0.000 HD 
HETATM    8  H2  UNL     1     -10.272   2.656  66.071  1.00  0.00     0.000 HD 
HETATM    9  H   UNL     1     -10.596   6.739  65.780  1.00  0.00     0.000 HD 
ENDROOT
BRANCH   6  10
HETATM   10  C   UNL     1      -8.819   6.131  66.879  1.00  0.00    -0.117 C  
BRANCH  10  11
HETATM   11  C   UNL     1      -8.992   7.120  68.033  1.00  0.00    -0.127 C  
HETATM   12  C   UNL     1      -8.554   6.492  69.338  1.00  0.00    -0.134 C  
HETATM   13  O   UNL     1      -9.311   7.174  70.330  1.00  0.00    -0.156 OA 
HETATM   14  C   UNL     1     -10.532   7.546  69.679  1.00  0.00    -0.234 C  
HETATM   15  O   UNL     1     -10.373   7.455  68.257  1.00  0.00    -0.185 OA 
HETATM   16  C   UNL     1     -10.887   8.971  70.114  1.00  0.00    -0.261 C  
HETATM   17  C   UNL     1     -11.210   9.031  71.611  1.00  0.00    -0.431 C  
HETATM   18  C   UNL     1     -12.311   8.043  71.994  1.00  0.00    -0.366 C  
HETATM   19  C   UNL     1     -11.996   6.623  71.535  1.00  0.00    -0.402 C  
HETATM   20  C   UNL     1     -11.659   6.576  70.051  1.00  0.00    -0.455 C  
ENDBRANCH  10  11
ENDBRANCH   6  10
TORSDOF 2
ENDMDL
MODEL       77
REMARK 921   NORMALIZED FREE ENERGY PREDICTED BY IDOCK:   -4.60 KCAL/MOL
REMARK 922        TOTAL FREE ENERGY PREDICTED BY IDOCK:   -5.27 KCAL/MOL
REMARK 923 INTER-LIGAND FREE ENERGY PREDICTED BY IDOCK:   -5.06 KCAL/MOL
REMARK 924 INTRA-LIGAND FREE ENERGY PREDICTED BY IDOCK:   -0.22 KCAL/MOL
REMARK 927      BINDING AFFINITY PREDICTED BY RF-SCORE:    0.00 PKD
ROOT
HETATM    1  N   UNL     1      -6.509  17.538  69.000  1.00  0.00    -0.217 NA 
HETATM    2  C   UNL     1      -7.541  18.113  68.345  1.00  0.00    -0.283 C  
HETATM    3  H2  UNL     1      -5.970  17.998  69.733  1.00  0.00     0.000 HD 
HETATM    4  H1  UNL     1      -6.335  16.588  68.672  1.00  0.00     0.000 HD 
HETATM    5  N   UNL     1      -7.771  19.370  68.779  1.00  0.00    -0.358 NA 
HETATM    6  N   UNL     1      -8.140  17.455  67.422  1.00  0.00    -0.197 NA 
HETATM    7  H1  UNL     1      -8.550  19.804  68.284  1.00  0.00     0.000 HD 
HETATM    8  H2  UNL     1      -7.232  19.830  69.512  1.00  0.00     0.000 HD 
HETATM    9  H   UNL     1      -7.903  16.481  67.233  1.00  0.00     0.000 HD 
ENDROOT
BRANCH   6  10
HETATM   10  C   UNL     1      -9.175  18.145  66.645  1.00  0.00    -0.290 C  
BRANCH  10  11
HETATM   11  C   UNL     1     -10.408  17.269  66.413  1.00  0.00    -0.316 C  
HETATM   12  C   UNL     1     -10.718  16.454  67.650  1.00  0.00    -0.312 C  
HETATM   13  O   UNL     1     -11.388  15.302  67.155  1.00  0.00    -0.323 OA 
HETATM   14  C   UNL     1     -10.854  15.093  65.842  1.00  0.00    -0.339 C  
HETATM   15  O   UNL     1     -10.186  16.279  65.394  1.00  0.00    -0.518 OA 
HETATM   16  C   UNL     1     -12.010  14.714  64.913  1.00  0.00    -0.402 C  
HETATM   17  C   UNL     1     -12.620  13.364  65.306  1.00  0.00    -0.518 C  
HETATM   18  C   UNL     1     -11.566  12.259  65.358  1.00  0.00    -0.412 C  
HETATM   19  C   UNL     1     -10.384  12.632  66.248  1.00  0.00    -0.269 C  
HETATM   20  C   UNL     1      -9.797  13.982  65.862  1.00  0.00    -0.302 C  
ENDBRANCH  10  11
ENDBRANCH   6  10
TORSDOF 2
ENDMDL
MODEL       78
REMARK 921   NORMALIZED FREE ENERGY PREDICTED BY IDOCK:   -4.58 KCAL/MOL
REMARK 922        TOTAL FREE ENERGY PREDICTED BY IDOCK:   -5.26 KCAL/MOL
REMARK 923 INTER-LIGAND FREE ENERGY PREDICTED BY IDOCK:   -5.13 KCAL/MOL
REMARK 924 INTRA-LIGAND FREE ENERGY PREDICTED BY IDOCK:   -0.13 KCAL/MOL
REMARK 927      BINDING AFFINITY PREDICTED BY RF-SCORE:    0.00 PKD
ROOT
HETATM    1  N   UNL     1     -10.724   8.541  71.677  1.00  0.00    -0.258 NA 
HETATM    2  C   UNL     1     -11.558   9.400  71.050  1.00  0.00    -0.330 C  
HETATM    3  H2  UNL     1     -11.019   7.659  72.094  1.00  0.00     0.000 HD 
HETATM    4  H1  UNL     1      -9.763   8.883  71.682  1.00  0.00     0.000 HD 
HETATM    5  N   UNL     1     -12.829   8.948  71.044  1.00  0.00    -0.503 NA 
HETATM    6  N   UNL     1     -11.087  10.495  70.579  1.00  0.00    -0.427 NA 
HETATM    7  H1  UNL     1     -13.458   9.596  70.571  1.00  0.00     0.000 HD 
HETATM    8  H2  UNL     1     -13.125   8.066  71.461  1.00  0.00     0.000 HD 
HETATM    9  H   UNL     1     -10.086  10.688  70.597  1.00  0.00     0.000 HD 
ENDROOT
BRANCH   6  10
HETATM   10  C   UNL     1     -12.032  11.463  70.012  1.00  0.00    -0.363 C  
BRANCH  10  11
HETATM   11  C   UNL     1     -11.324  12.633  69.324  1.00  0.00    -0.245 C  
HETATM   12  C   UNL     1     -12.264  13.810  69.182  1.00  0.00    -0.250 C  
HETATM   13  O   UNL     1     -11.776  14.516  68.049  1.00  0.00    -0.320 OA 
HETATM   14  C   UNL     1     -11.180  13.516  67.213  1.00  0.00    -0.298 C  
HETATM   15  O   UNL     1     -10.953  12.321  67.971  1.00  0.00    -0.206 OA 
HETATM   16  C   UNL     1      -9.872  14.083  66.654  1.00  0.00    -0.288 C  
HETATM   17  C   UNL     1     -10.134  15.268  65.718  1.00  0.00    -0.384 C  
HETATM   18  C   UNL     1     -11.103  14.900  64.596  1.00  0.00    -0.335 C  
HETATM   19  C   UNL     1     -12.400  14.297  65.129  1.00  0.00    -0.427 C  
HETATM   20  C   UNL     1     -12.128  13.132  66.071  1.00  0.00    -0.495 C  
ENDBRANCH  10  11
ENDBRANCH   6  10
TORSDOF 2
ENDMDL
MODEL       79
REMARK 921   NORMALIZED FREE ENERGY PREDICTED BY IDOCK:   -4.58 KCAL/MOL
REMARK 922        TOTAL FREE ENERGY PREDICTED BY IDOCK:   -5.26 KCAL/MOL
REMARK 923 INTER-LIGAND FREE ENERGY PREDICTED BY IDOCK:   -5.12 KCAL/MOL
REMARK 924 INTRA-LIGAND FREE ENERGY PREDICTED BY IDOCK:   -0.14 KCAL/MOL
REMARK 927      BINDING AFFINITY PREDICTED BY RF-SCORE:    0.00 PKD
ROOT
HETATM    1  N   UNL     1      -9.267   8.764  65.280  1.00  0.00    -0.433 NA 
HETATM    2  C   UNL     1      -9.779   9.990  65.035  1.00  0.00    -0.317 C  
HETATM    3  H2  UNL     1      -9.072   8.072  64.558  1.00  0.00     0.000 HD 
HETATM    4  H1  UNL     1      -9.101   8.616  66.276  1.00  0.00     0.000 HD 
HETATM    5  N   UNL     1      -9.999  10.187  63.719  1.00  0.00    -0.489 NA 
HETATM    6  N   UNL     1     -10.009  10.779  66.020  1.00  0.00    -0.233 NA 
HETATM    7  H1  UNL     1     -10.385  11.113  63.534  1.00  0.00     0.000 HD 
HETATM    8  H2  UNL     1      -9.804   9.495  62.996  1.00  0.00     0.000 HD 
HETATM    9  H   UNL     1      -9.737  10.527  66.970  1.00  0.00     0.000 HD 
ENDROOT
BRANCH   6  10
HETATM   10  C   UNL     1     -10.676  12.054  65.739  1.00  0.00    -0.279 C  
BRANCH  10  11
HETATM   11  C   UNL     1     -11.589  12.498  66.884  1.00  0.00    -0.370 C  
HETATM   12  C   UNL     1     -12.117  13.893  66.630  1.00  0.00    -0.448 C  
HETATM   13  O   UNL     1     -12.372  14.416  67.927  1.00  0.00    -0.220 OA 
HETATM   14  C   UNL     1     -11.421  13.772  68.784  1.00  0.00    -0.303 C  
HETATM   15  O   UNL     1     -10.877  12.619  68.128  1.00  0.00    -0.211 OA 
HETATM   16  C   UNL     1     -12.133  13.394  70.085  1.00  0.00    -0.415 C  
HETATM   17  C   UNL     1     -12.575  14.640  70.860  1.00  0.00    -0.410 C  
HETATM   18  C   UNL     1     -11.406  15.588  71.123  1.00  0.00    -0.442 C  
HETATM   19  C   UNL     1     -10.657  15.948  69.843  1.00  0.00    -0.327 C  
HETATM   20  C   UNL     1     -10.238  14.704  69.072  1.00  0.00    -0.222 C  
ENDBRANCH  10  11
ENDBRANCH   6  10
TORSDOF 2
ENDMDL
MODEL       80
REMARK 921   NORMALIZED FREE ENERGY PREDICTED BY IDOCK:   -4.58 KCAL/MOL
REMARK 922        TOTAL FREE ENERGY PREDICTED BY IDOCK:   -5.25 KCAL/MOL
REMARK 923 INTER-LIGAND FREE ENERGY PREDICTED BY IDOCK:   -5.05 KCAL/MOL
REMARK 924 INTRA-LIGAND FREE ENERGY PREDICTED BY IDOCK:   -0.20 KCAL/MOL
REMARK 927      BINDING AFFINITY PREDICTED BY RF-SCORE:    0.00 PKD
ROOT
HETATM    1  N   UNL     1     -11.169   5.307  66.027  1.00  0.00    -0.772 NA 
HETATM    2  C   UNL     1     -10.743   6.429  66.649  1.00  0.00    -0.200 C  
HETATM    3  H2  UNL     1     -11.925   4.716  66.371  1.00  0.00     0.000 HD 
HETATM    4  H1  UNL     1     -10.642   5.125  65.173  1.00  0.00     0.000 HD 
HETATM    5  N   UNL     1     -11.440   6.670  67.779  1.00  0.00    -0.658 NA 
HETATM    6  N   UNL     1      -9.767   7.090  66.145  1.00  0.00    -0.410 NA 
HETATM    7  H1  UNL     1     -11.118   7.516  68.249  1.00  0.00     0.000 HD 
HETATM    8  H2  UNL     1     -12.195   6.078  68.123  1.00  0.00     0.000 HD 
HETATM    9  H   UNL     1      -9.366   6.830  65.244  1.00  0.00     0.000 HD 
ENDROOT
BRANCH   6  10
HETATM   10  C   UNL     1      -9.245   8.233  66.902  1.00  0.00    -0.158 C  
BRANCH  10  11
HETATM   11  C   UNL     1      -9.195   9.511  66.063  1.00  0.00    -0.196 C  
HETATM   12  C   UNL     1      -8.675  10.667  66.891  1.00  0.00    -0.132 C  
HETATM   13  O   UNL     1      -9.249  11.819  66.288  1.00  0.00    -0.216 OA 
HETATM   14  C   UNL     1     -10.494  11.372  65.737  1.00  0.00    -0.262 C  
HETATM   15  O   UNL     1     -10.504   9.941  65.652  1.00  0.00    -0.144 OA 
HETATM   16  C   UNL     1     -10.663  12.018  64.359  1.00  0.00    -0.369 C  
HETATM   17  C   UNL     1     -10.809  13.539  64.472  1.00  0.00    -0.422 C  
HETATM   18  C   UNL     1     -11.949  13.931  65.410  1.00  0.00    -0.393 C  
HETATM   19  C   UNL     1     -11.823  13.267  66.778  1.00  0.00    -0.448 C  
HETATM   20  C   UNL     1     -11.660  11.759  66.655  1.00  0.00    -0.273 C  
ENDBRANCH  10  11
ENDBRANCH   6  10
TORSDOF 2
ENDMDL
MODEL       81
REMARK 921   NORMALIZED FREE ENERGY PREDICTED BY IDOCK:   -4.56 KCAL/MOL
REMARK 922        TOTAL FREE ENERGY PREDICTED BY IDOCK:   -5.23 KCAL/MOL
REMARK 923 INTER-LIGAND FREE ENERGY PREDICTED BY IDOCK:   -5.09 KCAL/MOL
REMARK 924 INTRA-LIGAND FREE ENERGY PREDICTED BY IDOCK:   -0.14 KCAL/MOL
REMARK 927      BINDING AFFINITY PREDICTED BY RF-SCORE:    0.00 PKD
ROOT
HETATM    1  N   UNL     1     -11.921  12.847  63.734  1.00  0.00    -0.473 NA 
HETATM    2  C   UNL     1     -11.332  13.062  64.931  1.00  0.00    -0.303 C  
HETATM    3  H2  UNL     1     -11.466  13.012  62.836  1.00  0.00     0.000 HD 
HETATM    4  H1  UNL     1     -12.874  12.499  63.838  1.00  0.00     0.000 HD 
HETATM    5  N   UNL     1     -10.071  13.523  64.794  1.00  0.00    -0.609 NA 
HETATM    6  N   UNL     1     -12.001  12.844  66.003  1.00  0.00    -0.431 NA 
HETATM    7  H1  UNL     1      -9.628  13.686  65.697  1.00  0.00     0.000 HD 
HETATM    8  H2  UNL     1      -9.617  13.688  63.896  1.00  0.00     0.000 HD 
HETATM    9  H   UNL     1     -12.934  12.435  65.966  1.00  0.00     0.000 HD 
ENDROOT
BRANCH   6  10
HETATM   10  C   UNL     1     -11.383  13.201  67.284  1.00  0.00    -0.306 C  
BRANCH  10  11
HETATM   11  C   UNL     1     -12.150  12.630  68.479  1.00  0.00    -0.085 C  
HETATM   12  C   UNL     1     -11.490  13.041  69.777  1.00  0.00    -0.143 C  
HETATM   13  O   UNL     1     -11.840  12.012  70.692  1.00  0.00    -0.260 OA 
HETATM   14  C   UNL     1     -11.983  10.832  69.892  1.00  0.00    -0.342 C  
HETATM   15  O   UNL     1     -12.110  11.193  68.511  1.00  0.00    -0.586 OA 
HETATM   16  C   UNL     1     -13.213  10.067  70.389  1.00  0.00     0.066 C  
HETATM   17  C   UNL     1     -13.007   9.548  71.816  1.00  0.00    -0.502 C  
HETATM   18  C   UNL     1     -11.743   8.699  71.933  1.00  0.00    -0.422 C  
HETATM   19  C   UNL     1     -10.509   9.427  71.408  1.00  0.00    -0.358 C  
HETATM   20  C   UNL     1     -10.730   9.955  69.997  1.00  0.00    -0.338 C  
ENDBRANCH  10  11
ENDBRANCH   6  10
TORSDOF 2
ENDMDL
MODEL       82
REMARK 921   NORMALIZED FREE ENERGY PREDICTED BY IDOCK:   -4.56 KCAL/MOL
REMARK 922        TOTAL FREE ENERGY PREDICTED BY IDOCK:   -5.23 KCAL/MOL
REMARK 923 INTER-LIGAND FREE ENERGY PREDICTED BY IDOCK:   -5.01 KCAL/MOL
REMARK 924 INTRA-LIGAND FREE ENERGY PREDICTED BY IDOCK:   -0.22 KCAL/MOL
REMARK 927      BINDING AFFINITY PREDICTED BY RF-SCORE:    0.00 PKD
ROOT
HETATM    1  N   UNL     1     -10.845   8.304  69.045  1.00  0.00    -0.421 NA 
HETATM    2  C   UNL     1     -11.070   9.592  69.384  1.00  0.00    -0.139 C  
HETATM    3  H2  UNL     1     -10.193   7.691  69.532  1.00  0.00     0.000 HD 
HETATM    4  H1  UNL     1     -11.407   8.021  68.242  1.00  0.00     0.000 HD 
HETATM    5  N   UNL     1     -10.327   9.968  70.446  1.00  0.00    -0.388 NA 
HETATM    6  N   UNL     1     -11.895  10.286  68.690  1.00  0.00    -0.682 NA 
HETATM    7  H1  UNL     1     -10.497  10.940  70.701  1.00  0.00     0.000 HD 
HETATM    8  H2  UNL     1      -9.675   9.354  70.933  1.00  0.00     0.000 HD 
HETATM    9  H   UNL     1     -12.442   9.859  67.942  1.00  0.00     0.000 HD 
ENDROOT
BRANCH   6  10
HETATM   10  C   UNL     1     -12.030  11.712  69.003  1.00  0.00    -0.305 C  
BRANCH  10  11
HETATM   11  C   UNL     1     -11.301  12.601  67.992  1.00  0.00    -0.290 C  
HETATM   12  C   UNL     1      -9.990  13.091  68.567  1.00  0.00    -0.172 C  
HETATM   13  O   UNL     1      -9.746  14.318  67.892  1.00  0.00    -0.213 OA 
HETATM   14  C   UNL     1     -11.044  14.844  67.589  1.00  0.00    -0.311 C  
HETATM   15  O   UNL     1     -12.028  13.809  67.710  1.00  0.00    -0.361 OA 
HETATM   16  C   UNL     1     -11.004  15.418  66.170  1.00  0.00    -0.279 C  
HETATM   17  C   UNL     1     -10.065  16.626  66.085  1.00  0.00    -0.361 C  
HETATM   18  C   UNL     1     -10.429  17.700  67.107  1.00  0.00    -0.319 C  
HETATM   19  C   UNL     1     -10.512  17.142  68.525  1.00  0.00    -0.377 C  
HETATM   20  C   UNL     1     -11.433  15.932  68.596  1.00  0.00    -0.391 C  
ENDBRANCH  10  11
ENDBRANCH   6  10
TORSDOF 2
ENDMDL
MODEL       83
REMARK 921   NORMALIZED FREE ENERGY PREDICTED BY IDOCK:   -4.49 KCAL/MOL
REMARK 922        TOTAL FREE ENERGY PREDICTED BY IDOCK:   -5.15 KCAL/MOL
REMARK 923 INTER-LIGAND FREE ENERGY PREDICTED BY IDOCK:   -5.03 KCAL/MOL
REMARK 924 INTRA-LIGAND FREE ENERGY PREDICTED BY IDOCK:   -0.12 KCAL/MOL
REMARK 927      BINDING AFFINITY PREDICTED BY RF-SCORE:    0.00 PKD
ROOT
HETATM    1  N   UNL     1     -11.232   3.876  63.979  1.00  0.00    -0.561 NA 
HETATM    2  C   UNL     1     -10.655   4.096  65.180  1.00  0.00    -0.117 C  
HETATM    3  H2  UNL     1     -11.017   3.079  63.380  1.00  0.00     0.000 HD 
HETATM    4  H1  UNL     1     -11.907   4.603  63.744  1.00  0.00     0.000 HD 
HETATM    5  N   UNL     1      -9.761   3.134  65.491  1.00  0.00    -0.378 NA 
HETATM    6  N   UNL     1     -10.978   5.143  65.846  1.00  0.00    -0.777 NA 
HETATM    7  H1  UNL     1      -9.325   3.301  66.398  1.00  0.00     0.000 HD 
HETATM    8  H2  UNL     1      -9.547   2.338  64.892  1.00  0.00     0.000 HD 
HETATM    9  H   UNL     1     -11.721   5.764  65.521  1.00  0.00     0.000 HD 
ENDROOT
BRANCH   6  10
HETATM   10  C   UNL     1     -10.250   5.423  67.088  1.00  0.00    -0.224 C  
BRANCH  10  11
HETATM   11  C   UNL     1     -11.053   6.305  68.046  1.00  0.00    -0.265 C  
HETATM   12  C   UNL     1     -10.367   7.641  68.235  1.00  0.00    -0.198 C  
HETATM   13  O   UNL     1     -10.784   8.072  69.524  1.00  0.00    -0.230 OA 
HETATM   14  C   UNL     1     -11.004   6.868  70.269  1.00  0.00    -0.281 C  
HETATM   15  O   UNL     1     -11.107   5.754  69.373  1.00  0.00    -0.346 OA 
HETATM   16  C   UNL     1     -12.282   7.046  71.093  1.00  0.00    -0.427 C  
HETATM   17  C   UNL     1     -12.110   8.136  72.157  1.00  0.00    -0.408 C  
HETATM   18  C   UNL     1     -10.904   7.868  73.055  1.00  0.00    -0.408 C  
HETATM   19  C   UNL     1      -9.625   7.648  72.252  1.00  0.00    -0.215 C  
HETATM   20  C   UNL     1      -9.811   6.576  71.187  1.00  0.00    -0.198 C  
ENDBRANCH  10  11
ENDBRANCH   6  10
TORSDOF 2
ENDMDL
MODEL       84
REMARK 921   NORMALIZED FREE ENERGY PREDICTED BY IDOCK:   -4.49 KCAL/MOL
REMARK 922        TOTAL FREE ENERGY PREDICTED BY IDOCK:   -5.15 KCAL/MOL
REMARK 923 INTER-LIGAND FREE ENERGY PREDICTED BY IDOCK:   -5.09 KCAL/MOL
REMARK 924 INTRA-LIGAND FREE ENERGY PREDICTED BY IDOCK:   -0.06 KCAL/MOL
REMARK 927      BINDING AFFINITY PREDICTED BY RF-SCORE:    0.00 PKD
ROOT
HETATM    1  N   UNL     1      -9.233  18.428  66.052  1.00  0.00    -0.503 NA 
HETATM    2  C   UNL     1      -9.027  17.467  66.979  1.00  0.00    -0.240 C  
HETATM    3  H2  UNL     1      -8.884  19.383  66.132  1.00  0.00     0.000 HD 
HETATM    4  H1  UNL     1      -9.779  18.083  65.264  1.00  0.00     0.000 HD 
HETATM    5  N   UNL     1      -8.304  17.924  68.023  1.00  0.00    -0.251 NA 
HETATM    6  N   UNL     1      -9.530  16.302  66.793  1.00  0.00    -0.225 NA 
HETATM    7  H1  UNL     1      -8.150  17.199  68.722  1.00  0.00     0.000 HD 
HETATM    8  H2  UNL     1      -7.955  18.879  68.103  1.00  0.00     0.000 HD 
HETATM    9  H   UNL     1     -10.008  16.070  65.923  1.00  0.00     0.000 HD 
ENDROOT
BRANCH   6  10
HETATM   10  C   UNL     1      -9.396  15.314  67.869  1.00  0.00    -0.189 C  
BRANCH  10  11
HETATM   11  C   UNL     1     -10.749  14.906  68.455  1.00  0.00    -0.245 C  
HETATM   12  C   UNL     1     -11.628  16.122  68.651  1.00  0.00    -0.283 C  
HETATM   13  O   UNL     1     -12.499  15.760  69.714  1.00  0.00    -0.262 OA 
HETATM   14  C   UNL     1     -11.747  14.843  70.519  1.00  0.00    -0.292 C  
HETATM   15  O   UNL     1     -10.622  14.355  69.777  1.00  0.00    -0.085 OA 
HETATM   16  C   UNL     1     -12.680  13.704  70.939  1.00  0.00    -0.382 C  
HETATM   17  C   UNL     1     -13.794  14.209  71.862  1.00  0.00    -0.539 C  
HETATM   18  C   UNL     1     -13.234  14.943  73.078  1.00  0.00    -0.596 C  
HETATM   19  C   UNL     1     -12.271  16.059  72.684  1.00  0.00    -0.619 C  
HETATM   20  C   UNL     1     -11.178  15.552  71.753  1.00  0.00    -0.376 C  
ENDBRANCH  10  11
ENDBRANCH   6  10
TORSDOF 2
ENDMDL
MODEL       85
REMARK 921   NORMALIZED FREE ENERGY PREDICTED BY IDOCK:   -4.42 KCAL/MOL
REMARK 922        TOTAL FREE ENERGY PREDICTED BY IDOCK:   -5.08 KCAL/MOL
REMARK 923 INTER-LIGAND FREE ENERGY PREDICTED BY IDOCK:   -4.93 KCAL/MOL
REMARK 924 INTRA-LIGAND FREE ENERGY PREDICTED BY IDOCK:   -0.14 KCAL/MOL
REMARK 927      BINDING AFFINITY PREDICTED BY RF-SCORE:    0.00 PKD
ROOT
HETATM    1  N   UNL     1     -13.666  15.407  70.747  1.00  0.00    -0.845 NA 
HETATM    2  C   UNL     1     -12.468  14.919  70.360  1.00  0.00    -0.350 C  
HETATM    3  H2  UNL     1     -13.924  15.587  71.718  1.00  0.00     0.000 HD 
HETATM    4  H1  UNL     1     -14.282  15.574  69.952  1.00  0.00     0.000 HD 
HETATM    5  N   UNL     1     -11.653  14.698  71.413  1.00  0.00    -0.504 NA 
HETATM    6  N   UNL     1     -12.253  14.707  69.114  1.00  0.00    -0.549 NA 
HETATM    7  H1  UNL     1     -10.749  14.329  71.120  1.00  0.00     0.000 HD 
HETATM    8  H2  UNL     1     -11.910  14.878  72.383  1.00  0.00     0.000 HD 
HETATM    9  H   UNL     1     -12.939  14.978  68.409  1.00  0.00     0.000 HD 
ENDROOT
BRANCH   6  10
HETATM   10  C   UNL     1     -10.991  14.064  68.732  1.00  0.00    -0.262 C  
BRANCH  10  11
HETATM   11  C   UNL     1     -11.213  12.768  67.949  1.00  0.00    -0.274 C  
HETATM   12  C   UNL     1     -12.021  11.787  68.770  1.00  0.00    -0.257 C  
HETATM   13  O   UNL     1     -11.629  10.511  68.279  1.00  0.00    -0.367 OA 
HETATM   14  C   UNL     1     -10.276  10.678  67.839  1.00  0.00    -0.177 C  
HETATM   15  O   UNL     1      -9.981  12.073  67.692  1.00  0.00    -0.186 OA 
HETATM   16  C   UNL     1     -10.111   9.927  66.514  1.00  0.00    -0.298 C  
HETATM   17  C   UNL     1     -10.274   8.416  66.708  1.00  0.00    -0.376 C  
HETATM   18  C   UNL     1      -9.323   7.875  67.774  1.00  0.00    -0.153 C  
HETATM   19  C   UNL     1      -9.443   8.635  69.092  1.00  0.00    -0.157 C  
HETATM   20  C   UNL     1      -9.297  10.136  68.887  1.00  0.00    -0.179 C  
ENDBRANCH  10  11
ENDBRANCH   6  10
TORSDOF 2
ENDMDL
MODEL       86
REMARK 921   NORMALIZED FREE ENERGY PREDICTED BY IDOCK:   -4.36 KCAL/MOL
REMARK 922        TOTAL FREE ENERGY PREDICTED BY IDOCK:   -5.01 KCAL/MOL
REMARK 923 INTER-LIGAND FREE ENERGY PREDICTED BY IDOCK:   -4.83 KCAL/MOL
REMARK 924 INTRA-LIGAND FREE ENERGY PREDICTED BY IDOCK:   -0.17 KCAL/MOL
REMARK 927      BINDING AFFINITY PREDICTED BY RF-SCORE:    0.00 PKD
ROOT
HETATM    1  N   UNL     1     -10.820  10.200  70.812  1.00  0.00    -0.383 NA 
HETATM    2  C   UNL     1     -11.450  10.572  69.676  1.00  0.00    -0.282 C  
HETATM    3  H2  UNL     1     -11.299   9.862  71.646  1.00  0.00     0.000 HD 
HETATM    4  H1  UNL     1      -9.808  10.299  70.733  1.00  0.00     0.000 HD 
HETATM    5  N   UNL     1     -12.789  10.442  69.780  1.00  0.00    -0.586 NA 
HETATM    6  N   UNL     1     -10.755  11.006  68.690  1.00  0.00    -0.185 NA 
HETATM    7  H1  UNL     1     -13.264  10.723  68.923  1.00  0.00     0.000 HD 
HETATM    8  H2  UNL     1     -13.268  10.104  70.614  1.00  0.00     0.000 HD 
HETATM    9  H   UNL     1      -9.735  10.996  68.721  1.00  0.00     0.000 HD 
ENDROOT
BRANCH   6  10
HETATM   10  C   UNL     1     -11.469  11.517  67.515  1.00  0.00    -0.282 C  
BRANCH  10  11
HETATM   11  C   UNL     1     -11.784  13.010  67.631  1.00  0.00    -0.366 C  
HETATM   12  C   UNL     1     -12.003  13.611  66.260  1.00  0.00    -0.423 C  
HETATM   13  O   UNL     1     -11.652  14.980  66.415  1.00  0.00    -0.294 OA 
HETATM   14  C   UNL     1     -10.653  14.996  67.443  1.00  0.00    -0.271 C  
HETATM   15  O   UNL     1     -10.677  13.757  68.164  1.00  0.00    -0.237 OA 
HETATM   16  C   UNL     1     -10.938  16.187  68.363  1.00  0.00    -0.341 C  
HETATM   17  C   UNL     1     -10.757  17.517  67.623  1.00  0.00    -0.306 C  
HETATM   18  C   UNL     1      -9.374  17.627  66.985  1.00  0.00    -0.258 C  
HETATM   19  C   UNL     1      -9.053  16.431  66.094  1.00  0.00    -0.362 C  
HETATM   20  C   UNL     1      -9.252  15.115  66.832  1.00  0.00    -0.259 C  
ENDBRANCH  10  11
ENDBRANCH   6  10
TORSDOF 2
ENDMDL
MODEL       87
REMARK 921   NORMALIZED FREE ENERGY PREDICTED BY IDOCK:   -4.35 KCAL/MOL
REMARK 922        TOTAL FREE ENERGY PREDICTED BY IDOCK:   -5.00 KCAL/MOL
REMARK 923 INTER-LIGAND FREE ENERGY PREDICTED BY IDOCK:   -4.79 KCAL/MOL
REMARK 924 INTRA-LIGAND FREE ENERGY PREDICTED BY IDOCK:   -0.21 KCAL/MOL
REMARK 927      BINDING AFFINITY PREDICTED BY RF-SCORE:    0.00 PKD
ROOT
HETATM    1  N   UNL     1     -11.402   4.491  65.123  1.00  0.00    -1.113 NA 
HETATM    2  C   UNL     1     -10.649   5.397  65.785  1.00  0.00     0.165 C  
HETATM    3  H2  UNL     1     -11.045   3.877  64.391  1.00  0.00     0.000 HD 
HETATM    4  H1  UNL     1     -12.369   4.496  65.445  1.00  0.00     0.000 HD 
HETATM    5  N   UNL     1      -9.368   5.391  65.358  1.00  0.00    -0.338 NA 
HETATM    6  N   UNL     1     -11.200   6.137  66.674  1.00  0.00    -0.758 NA 
HETATM    7  H1  UNL     1      -8.801   6.075  65.858  1.00  0.00     0.000 HD 
HETATM    8  H2  UNL     1      -9.012   4.777  64.626  1.00  0.00     0.000 HD 
HETATM    9  H   UNL     1     -12.174   5.996  66.946  1.00  0.00     0.000 HD 
ENDROOT
BRANCH   6  10
HETATM   10  C   UNL     1     -10.391   7.194  67.290  1.00  0.00    -0.272 C  
BRANCH  10  11
HETATM   11  C   UNL     1     -10.645   7.319  68.794  1.00  0.00    -0.181 C  
HETATM   12  C   UNL     1      -9.334   7.368  69.549  1.00  0.00    -0.156 C  
HETATM   13  O   UNL     1      -9.649   6.852  70.836  1.00  0.00    -0.165 OA 
HETATM   14  C   UNL     1     -10.723   5.929  70.617  1.00  0.00    -0.285 C  
HETATM   15  O   UNL     1     -11.309   6.161  69.329  1.00  0.00    -0.416 OA 
HETATM   16  C   UNL     1     -11.746   6.116  71.741  1.00  0.00    -0.312 C  
HETATM   17  C   UNL     1     -11.159   5.716  73.099  1.00  0.00    -0.315 C  
HETATM   18  C   UNL     1     -10.608   4.291  73.081  1.00  0.00    -0.270 C  
HETATM   19  C   UNL     1      -9.615   4.071  71.944  1.00  0.00    -0.217 C  
HETATM   20  C   UNL     1     -10.201   4.488  70.602  1.00  0.00    -0.158 C  
ENDBRANCH  10  11
ENDBRANCH   6  10
TORSDOF 2
ENDMDL
MODEL       88
REMARK 921   NORMALIZED FREE ENERGY PREDICTED BY IDOCK:   -4.35 KCAL/MOL
REMARK 922        TOTAL FREE ENERGY PREDICTED BY IDOCK:   -5.00 KCAL/MOL
REMARK 923 INTER-LIGAND FREE ENERGY PREDICTED BY IDOCK:   -4.61 KCAL/MOL
REMARK 924 INTRA-LIGAND FREE ENERGY PREDICTED BY IDOCK:   -0.39 KCAL/MOL
REMARK 927      BINDING AFFINITY PREDICTED BY RF-SCORE:    0.00 PKD
ROOT
HETATM    1  N   UNL     1     -11.214   9.365  71.675  1.00  0.00    -0.382 NA 
HETATM    2  C   UNL     1     -11.617   9.478  70.390  1.00  0.00    -0.212 C  
HETATM    3  H2  UNL     1     -11.815   9.537  72.480  1.00  0.00     0.000 HD 
HETATM    4  H1  UNL     1     -10.234   9.088  71.741  1.00  0.00     0.000 HD 
HETATM    5  N   UNL     1     -12.913   9.844  70.302  1.00  0.00    -0.504 NA 
HETATM    6  N   UNL     1     -10.773   9.262  69.450  1.00  0.00    -0.258 NA 
HETATM    7  H1  UNL     1     -13.216   9.930  69.333  1.00  0.00     0.000 HD 
HETATM    8  H2  UNL     1     -13.514  10.016  71.107  1.00  0.00     0.000 HD 
HETATM    9  H   UNL     1      -9.831   8.928  69.655  1.00  0.00     0.000 HD 
ENDROOT
BRANCH   6  10
HETATM   10  C   UNL     1     -11.202   9.509  68.069  1.00  0.00     0.148 C  
BRANCH  10  11
HETATM   11  C   UNL     1     -10.960  10.956  67.635  1.00  0.00    -0.293 C  
HETATM   12  C   UNL     1      -9.803  11.553  68.406  1.00  0.00    -0.204 C  
HETATM   13  O   UNL     1     -10.071  12.949  68.419  1.00  0.00    -0.233 OA 
HETATM   14  C   UNL     1     -11.499  13.057  68.380  1.00  0.00    -0.310 C  
HETATM   15  O   UNL     1     -12.070  11.811  67.960  1.00  0.00    -0.572 OA 
HETATM   16  C   UNL     1     -11.864  14.194  67.420  1.00  0.00    -0.447 C  
HETATM   17  C   UNL     1     -11.385  15.548  67.955  1.00  0.00    -0.332 C  
HETATM   18  C   UNL     1     -11.912  15.820  69.363  1.00  0.00    -0.321 C  
HETATM   19  C   UNL     1     -11.594  14.682  70.327  1.00  0.00    -0.335 C  
HETATM   20  C   UNL     1     -12.057  13.339  69.779  1.00  0.00    -0.355 C  
ENDBRANCH  10  11
ENDBRANCH   6  10
TORSDOF 2
ENDMDL
MODEL       89
REMARK 921   NORMALIZED FREE ENERGY PREDICTED BY IDOCK:   -4.35 KCAL/MOL
REMARK 922        TOTAL FREE ENERGY PREDICTED BY IDOCK:   -4.99 KCAL/MOL
REMARK 923 INTER-LIGAND FREE ENERGY PREDICTED BY IDOCK:   -4.88 KCAL/MOL
REMARK 924 INTRA-LIGAND FREE ENERGY PREDICTED BY IDOCK:   -0.12 KCAL/MOL
REMARK 927      BINDING AFFINITY PREDICTED BY RF-SCORE:    0.00 PKD
ROOT
HETATM    1  N   UNL     1     -13.370  14.170  72.657  1.00  0.00    -0.514 NA 
HETATM    2  C   UNL     1     -13.055  14.592  71.413  1.00  0.00    -0.347 C  
HETATM    3  H2  UNL     1     -14.228  14.423  73.146  1.00  0.00     0.000 HD 
HETATM    4  H1  UNL     1     -12.644  13.569  73.047  1.00  0.00     0.000 HD 
HETATM    5  N   UNL     1     -14.015  15.388  70.896  1.00  0.00    -0.857 NA 
HETATM    6  N   UNL     1     -11.938  14.235  70.896  1.00  0.00    -0.409 NA 
HETATM    7  H1  UNL     1     -13.777  15.707  69.957  1.00  0.00     0.000 HD 
HETATM    8  H2  UNL     1     -14.873  15.641  71.385  1.00  0.00     0.000 HD 
HETATM    9  H   UNL     1     -11.325  13.574  71.374  1.00  0.00     0.000 HD 
ENDROOT
BRANCH   6  10
HETATM   10  C   UNL     1     -11.566  14.804  69.596  1.00  0.00    -0.304 C  
BRANCH  10  11
HETATM   11  C   UNL     1     -11.686  13.785  68.460  1.00  0.00    -0.356 C  
HETATM   12  C   UNL     1     -11.840  12.387  69.018  1.00  0.00    -0.300 C  
HETATM   13  O   UNL     1     -11.314  11.543  68.002  1.00  0.00    -0.250 OA 
HETATM   14  C   UNL     1     -10.312  12.328  67.344  1.00  0.00    -0.206 C  
HETATM   15  O   UNL     1     -10.487  13.713  67.670  1.00  0.00    -0.235 OA 
HETATM   16  C   UNL     1     -10.432  12.085  65.837  1.00  0.00    -0.290 C  
HETATM   17  C   UNL     1     -10.089  10.635  65.478  1.00  0.00    -0.343 C  
HETATM   18  C   UNL     1      -8.709  10.234  65.996  1.00  0.00    -0.162 C  
HETATM   19  C   UNL     1      -8.553  10.503  67.489  1.00  0.00    -0.121 C  
HETATM   20  C   UNL     1      -8.913  11.941  67.839  1.00  0.00    -0.179 C  
ENDBRANCH  10  11
ENDBRANCH   6  10
TORSDOF 2
ENDMDL
MODEL       90
REMARK 921   NORMALIZED FREE ENERGY PREDICTED BY IDOCK:   -4.32 KCAL/MOL
REMARK 922        TOTAL FREE ENERGY PREDICTED BY IDOCK:   -4.96 KCAL/MOL
REMARK 923 INTER-LIGAND FREE ENERGY PREDICTED BY IDOCK:   -4.80 KCAL/MOL
REMARK 924 INTRA-LIGAND FREE ENERGY PREDICTED BY IDOCK:   -0.16 KCAL/MOL
REMARK 927      BINDING AFFINITY PREDICTED BY RF-SCORE:    0.00 PKD
ROOT
HETATM    1  N   UNL     1     -11.328   4.485  65.027  1.00  0.00    -1.108 NA 
HETATM    2  C   UNL     1     -10.688   5.075  66.060  1.00  0.00    -0.183 C  
HETATM    3  H2  UNL     1     -10.987   3.656  64.542  1.00  0.00     0.000 HD 
HETATM    4  H1  UNL     1     -12.194   4.970  64.791  1.00  0.00     0.000 HD 
HETATM    5  N   UNL     1      -9.543   4.433  66.372  1.00  0.00    -0.178 NA 
HETATM    6  N   UNL     1     -11.192   6.130  66.587  1.00  0.00    -0.758 NA 
HETATM    7  H1  UNL     1      -9.060   4.879  67.152  1.00  0.00     0.000 HD 
HETATM    8  H2  UNL     1      -9.201   3.604  65.887  1.00  0.00     0.000 HD 
HETATM    9  H   UNL     1     -12.104   6.479  66.293  1.00  0.00     0.000 HD 
ENDROOT
BRANCH   6  10
HETATM   10  C   UNL     1     -10.418   6.819  67.624  1.00  0.00    -0.229 C  
BRANCH  10  11
HETATM   11  C   UNL     1      -9.904   8.182  67.157  1.00  0.00    -0.217 C  
HETATM   12  C   UNL     1      -9.167   8.882  68.278  1.00  0.00    -0.140 C  
HETATM   13  O   UNL     1      -9.310  10.266  67.984  1.00  0.00    -0.137 OA 
HETATM   14  C   UNL     1     -10.561  10.375  67.294  1.00  0.00    -0.267 C  
HETATM   15  O   UNL     1     -10.977   9.083  66.832  1.00  0.00    -0.059 OA 
HETATM   16  C   UNL     1     -10.379  11.356  66.132  1.00  0.00    -0.294 C  
HETATM   17  C   UNL     1     -10.089  12.772  66.640  1.00  0.00    -0.248 C  
HETATM   18  C   UNL     1     -11.163  13.258  67.612  1.00  0.00    -0.307 C  
HETATM   19  C   UNL     1     -11.388  12.276  68.758  1.00  0.00    -0.337 C  
HETATM   20  C   UNL     1     -11.658  10.869  68.244  1.00  0.00    -0.335 C  
ENDBRANCH  10  11
ENDBRANCH   6  10
TORSDOF 2
ENDMDL
MODEL       91
REMARK 921   NORMALIZED FREE ENERGY PREDICTED BY IDOCK:   -4.30 KCAL/MOL
REMARK 922        TOTAL FREE ENERGY PREDICTED BY IDOCK:   -4.94 KCAL/MOL
REMARK 923 INTER-LIGAND FREE ENERGY PREDICTED BY IDOCK:   -4.79 KCAL/MOL
REMARK 924 INTRA-LIGAND FREE ENERGY PREDICTED BY IDOCK:   -0.15 KCAL/MOL
REMARK 927      BINDING AFFINITY PREDICTED BY RF-SCORE:    0.00 PKD
ROOT
HETATM    1  N   UNL     1      -9.397   8.757  69.041  1.00  0.00    -0.145 NA 
HETATM    2  C   UNL     1      -9.641   9.982  68.527  1.00  0.00    -0.151 C  
HETATM    3  H2  UNL     1      -9.198   7.931  68.478  1.00  0.00     0.000 HD 
HETATM    4  H1  UNL     1      -9.436   8.760  70.060  1.00  0.00     0.000 HD 
HETATM    5  N   UNL     1      -9.589   9.979  67.179  1.00  0.00    -0.161 NA 
HETATM    6  N   UNL     1      -9.904  10.952  69.323  1.00  0.00    -0.396 NA 
HETATM    7  H1  UNL     1      -9.774  10.904  66.791  1.00  0.00     0.000 HD 
HETATM    8  H2  UNL     1      -9.390   9.153  66.616  1.00  0.00     0.000 HD 
HETATM    9  H   UNL     1      -9.850  10.831  70.335  1.00  0.00     0.000 HD 
ENDROOT
BRANCH   6  10
HETATM   10  C   UNL     1     -10.284  12.241  68.736  1.00  0.00    -0.102 C  
BRANCH  10  11
HETATM   11  C   UNL     1     -11.626  12.750  69.269  1.00  0.00    -0.314 C  
HETATM   12  C   UNL     1     -11.895  14.153  68.771  1.00  0.00    -0.349 C  
HETATM   13  O   UNL     1     -12.739  14.723  69.763  1.00  0.00    -0.188 OA 
HETATM   14  C   UNL     1     -12.371  14.074  70.986  1.00  0.00    -0.369 C  
HETATM   15  O   UNL     1     -11.624  12.885  70.700  1.00  0.00     0.056 OA 
HETATM   16  C   UNL     1     -13.653  13.759  71.761  1.00  0.00    -0.450 C  
HETATM   17  C   UNL     1     -14.367  15.043  72.200  1.00  0.00    -0.622 C  
HETATM   18  C   UNL     1     -13.445  15.958  73.003  1.00  0.00    -0.653 C  
HETATM   19  C   UNL     1     -12.142  16.254  72.265  1.00  0.00    -0.567 C  
HETATM   20  C   UNL     1     -11.450  14.974  71.818  1.00  0.00    -0.376 C  
ENDBRANCH  10  11
ENDBRANCH   6  10
TORSDOF 2
ENDMDL
MODEL       92
REMARK 921   NORMALIZED FREE ENERGY PREDICTED BY IDOCK:   -4.29 KCAL/MOL
REMARK 922        TOTAL FREE ENERGY PREDICTED BY IDOCK:   -4.93 KCAL/MOL
REMARK 923 INTER-LIGAND FREE ENERGY PREDICTED BY IDOCK:   -4.59 KCAL/MOL
REMARK 924 INTRA-LIGAND FREE ENERGY PREDICTED BY IDOCK:   -0.33 KCAL/MOL
REMARK 927      BINDING AFFINITY PREDICTED BY RF-SCORE:    0.00 PKD
ROOT
HETATM    1  N   UNL     1     -14.123   8.871  73.158  1.00  0.00    -1.225 NA 
HETATM    2  C   UNL     1     -13.293   8.915  72.093  1.00  0.00    -0.440 C  
HETATM    3  H2  UNL     1     -15.027   8.399  73.159  1.00  0.00     0.000 HD 
HETATM    4  H1  UNL     1     -13.735   9.368  73.960  1.00  0.00     0.000 HD 
HETATM    5  N   UNL     1     -13.806   8.258  71.031  1.00  0.00    -0.570 NA 
HETATM    6  N   UNL     1     -12.187   9.556  72.189  1.00  0.00    -0.288 NA 
HETATM    7  H1  UNL     1     -13.179   8.292  70.227  1.00  0.00     0.000 HD 
HETATM    8  H2  UNL     1     -14.709   7.786  71.033  1.00  0.00     0.000 HD 
HETATM    9  H   UNL     1     -11.889   9.961  73.077  1.00  0.00     0.000 HD 
ENDROOT
BRANCH   6  10
HETATM   10  C   UNL     1     -11.362   9.691  70.983  1.00  0.00    -0.374 C  
BRANCH  10  11
HETATM   11  C   UNL     1     -10.074   8.870  71.066  1.00  0.00    -0.255 C  
HETATM   12  C   UNL     1     -10.210   7.591  70.268  1.00  0.00    -0.204 C  
HETATM   13  O   UNL     1      -9.314   6.685  70.899  1.00  0.00    -0.157 OA 
HETATM   14  C   UNL     1      -9.277   7.090  72.273  1.00  0.00    -0.133 C  
HETATM   15  O   UNL     1      -9.805   8.417  72.404  1.00  0.00    -0.273 OA 
HETATM   16  C   UNL     1      -7.824   7.014  72.751  1.00  0.00    -0.104 C  
HETATM   17  C   UNL     1      -7.316   5.569  72.757  1.00  0.00    -0.092 C  
HETATM   18  C   UNL     1      -8.219   4.653  73.581  1.00  0.00    -0.106 C  
HETATM   19  C   UNL     1      -9.679   4.742  73.146  1.00  0.00    -0.160 C  
HETATM   20  C   UNL     1     -10.170   6.183  73.127  1.00  0.00    -0.213 C  
ENDBRANCH  10  11
ENDBRANCH   6  10
TORSDOF 2
ENDMDL
MODEL       93
REMARK 921   NORMALIZED FREE ENERGY PREDICTED BY IDOCK:   -4.25 KCAL/MOL
REMARK 922        TOTAL FREE ENERGY PREDICTED BY IDOCK:   -4.88 KCAL/MOL
REMARK 923 INTER-LIGAND FREE ENERGY PREDICTED BY IDOCK:   -4.44 KCAL/MOL
REMARK 924 INTRA-LIGAND FREE ENERGY PREDICTED BY IDOCK:   -0.44 KCAL/MOL
REMARK 927      BINDING AFFINITY PREDICTED BY RF-SCORE:    0.00 PKD
ROOT
HETATM    1  N   UNL     1      -7.815  12.164  68.937  1.00  0.00    -0.327 NA 
HETATM    2  C   UNL     1      -8.639  11.191  68.492  1.00  0.00    -0.157 C  
HETATM    3  H2  UNL     1      -8.027  12.777  69.724  1.00  0.00     0.000 HD 
HETATM    4  H1  UNL     1      -6.955  12.211  68.390  1.00  0.00     0.000 HD 
HETATM    5  N   UNL     1      -9.777  11.129  69.215  1.00  0.00    -0.424 NA 
HETATM    6  N   UNL     1      -8.287  10.489  67.478  1.00  0.00    -0.118 NA 
HETATM    7  H1  UNL     1     -10.399  10.394  68.878  1.00  0.00     0.000 HD 
HETATM    8  H2  UNL     1      -9.989  11.741  70.001  1.00  0.00     0.000 HD 
HETATM    9  H   UNL     1      -7.364  10.600  67.058  1.00  0.00     0.000 HD 
ENDROOT
BRANCH   6  10
HETATM   10  C   UNL     1      -9.251   9.523  66.940  1.00  0.00    -0.143 C  
BRANCH  10  11
HETATM   11  C   UNL     1     -10.077  10.104  65.791  1.00  0.00    -0.254 C  
HETATM   12  C   UNL     1      -9.182  10.831  64.811  1.00  0.00    -0.214 C  
HETATM   13  O   UNL     1     -10.028  11.805  64.215  1.00  0.00    -0.258 OA 
HETATM   14  C   UNL     1     -10.996  12.127  65.222  1.00  0.00    -0.304 C  
HETATM   15  O   UNL     1     -10.993  11.118  66.240  1.00  0.00    -0.251 OA 
HETATM   16  C   UNL     1     -12.365  12.240  64.547  1.00  0.00    -0.468 C  
HETATM   17  C   UNL     1     -12.409  13.421  63.572  1.00  0.00    -0.398 C  
HETATM   18  C   UNL     1     -12.017  14.732  64.252  1.00  0.00    -0.387 C  
HETATM   19  C   UNL     1     -10.672  14.631  64.965  1.00  0.00    -0.448 C  
HETATM   20  C   UNL     1     -10.632  13.444  65.918  1.00  0.00    -0.286 C  
ENDBRANCH  10  11
ENDBRANCH   6  10
TORSDOF 2
ENDMDL
MODEL       94
REMARK 921   NORMALIZED FREE ENERGY PREDICTED BY IDOCK:   -4.21 KCAL/MOL
REMARK 922        TOTAL FREE ENERGY PREDICTED BY IDOCK:   -4.83 KCAL/MOL
REMARK 923 INTER-LIGAND FREE ENERGY PREDICTED BY IDOCK:   -4.68 KCAL/MOL
REMARK 924 INTRA-LIGAND FREE ENERGY PREDICTED BY IDOCK:   -0.15 KCAL/MOL
REMARK 927      BINDING AFFINITY PREDICTED BY RF-SCORE:    0.00 PKD
ROOT
HETATM    1  N   UNL     1     -10.392  19.521  68.713  1.00  0.00    -0.556 NA 
HETATM    2  C   UNL     1     -10.500  18.661  67.676  1.00  0.00    -0.423 C  
HETATM    3  H2  UNL     1     -10.340  20.534  68.612  1.00  0.00     0.000 HD 
HETATM    4  H1  UNL     1     -10.369  19.033  69.608  1.00  0.00     0.000 HD 
HETATM    5  N   UNL     1     -10.531  19.306  66.491  1.00  0.00    -0.434 NA 
HETATM    6  N   UNL     1     -10.535  17.401  67.911  1.00  0.00    -0.370 NA 
HETATM    7  H1  UNL     1     -10.612  18.657  65.709  1.00  0.00     0.000 HD 
HETATM    8  H2  UNL     1     -10.479  20.320  66.391  1.00  0.00     0.000 HD 
HETATM    9  H   UNL     1     -10.565  17.045  68.866  1.00  0.00     0.000 HD 
ENDROOT
BRANCH   6  10
HETATM   10  C   UNL     1     -10.529  16.487  66.764  1.00  0.00    -0.269 C  
BRANCH  10  11
HETATM   11  C   UNL     1     -11.132  15.122  67.106  1.00  0.00    -0.335 C  
HETATM   12  C   UNL     1     -10.864  14.773  68.554  1.00  0.00    -0.252 C  
HETATM   13  O   UNL     1     -10.867  13.352  68.580  1.00  0.00    -0.251 OA 
HETATM   14  C   UNL     1     -10.413  12.952  67.281  1.00  0.00    -0.234 C  
HETATM   15  O   UNL     1     -10.509  14.055  66.371  1.00  0.00    -0.277 OA 
HETATM   16  C   UNL     1     -11.270  11.769  66.822  1.00  0.00    -0.388 C  
HETATM   17  C   UNL     1     -11.044  10.540  67.709  1.00  0.00    -0.382 C  
HETATM   18  C   UNL     1      -9.567  10.159  67.784  1.00  0.00    -0.168 C  
HETATM   19  C   UNL     1      -8.688  11.334  68.202  1.00  0.00    -0.155 C  
HETATM   20  C   UNL     1      -8.933  12.555  67.326  1.00  0.00    -0.192 C  
ENDBRANCH  10  11
ENDBRANCH   6  10
TORSDOF 2
ENDMDL
MODEL       95
REMARK 921   NORMALIZED FREE ENERGY PREDICTED BY IDOCK:   -4.19 KCAL/MOL
REMARK 922        TOTAL FREE ENERGY PREDICTED BY IDOCK:   -4.81 KCAL/MOL
REMARK 923 INTER-LIGAND FREE ENERGY PREDICTED BY IDOCK:   -4.50 KCAL/MOL
REMARK 924 INTRA-LIGAND FREE ENERGY PREDICTED BY IDOCK:   -0.31 KCAL/MOL
REMARK 927      BINDING AFFINITY PREDICTED BY RF-SCORE:    0.00 PKD
ROOT
HETATM    1  N   UNL     1      -8.523   7.714  64.203  1.00  0.00    -0.367 NA 
HETATM    2  C   UNL     1      -8.811   8.057  65.477  1.00  0.00    -0.061 C  
HETATM    3  H2  UNL     1      -8.821   6.843  63.764  1.00  0.00     0.000 HD 
HETATM    4  H1  UNL     1      -7.971   8.432  63.733  1.00  0.00     0.000 HD 
HETATM    5  N   UNL     1      -9.541   7.107  66.099  1.00  0.00    -0.407 NA 
HETATM    6  N   UNL     1      -8.367   9.167  65.941  1.00  0.00    -0.119 NA 
HETATM    7  H1  UNL     1      -9.757   7.366  67.061  1.00  0.00     0.000 HD 
HETATM    8  H2  UNL     1      -9.839   6.236  65.660  1.00  0.00     0.000 HD 
HETATM    9  H   UNL     1      -7.874   9.828  65.340  1.00  0.00     0.000 HD 
ENDROOT
BRANCH   6  10
HETATM   10  C   UNL     1      -8.590   9.459  67.360  1.00  0.00    -0.125 C  
BRANCH  10  11
HETATM   11  C   UNL     1      -9.483  10.684  67.569  1.00  0.00    -0.153 C  
HETATM   12  C   UNL     1     -10.943  10.291  67.506  1.00  0.00    -0.280 C  
HETATM   13  O   UNL     1     -11.607  11.472  67.077  1.00  0.00    -0.510 OA 
HETATM   14  C   UNL     1     -10.651  12.167  66.267  1.00  0.00    -0.250 C  
HETATM   15  O   UNL     1      -9.338  11.646  66.511  1.00  0.00    -0.194 OA 
HETATM   16  C   UNL     1     -10.736  13.658  66.605  1.00  0.00    -0.280 C  
HETATM   17  C   UNL     1     -12.092  14.244  66.196  1.00  0.00    -0.424 C  
HETATM   18  C   UNL     1     -12.397  13.992  64.721  1.00  0.00    -0.437 C  
HETATM   19  C   UNL     1     -12.280  12.516  64.352  1.00  0.00    -0.528 C  
HETATM   20  C   UNL     1     -10.937  11.938  64.778  1.00  0.00    -0.366 C  
ENDBRANCH  10  11
ENDBRANCH   6  10
TORSDOF 2
ENDMDL
MODEL       96
REMARK 921   NORMALIZED FREE ENERGY PREDICTED BY IDOCK:   -4.15 KCAL/MOL
REMARK 922        TOTAL FREE ENERGY PREDICTED BY IDOCK:   -4.77 KCAL/MOL
REMARK 923 INTER-LIGAND FREE ENERGY PREDICTED BY IDOCK:   -4.63 KCAL/MOL
REMARK 924 INTRA-LIGAND FREE ENERGY PREDICTED BY IDOCK:   -0.14 KCAL/MOL
REMARK 927      BINDING AFFINITY PREDICTED BY RF-SCORE:    0.00 PKD
ROOT
HETATM    1  N   UNL     1     -10.820  19.340  65.399  1.00  0.00    -0.469 NA 
HETATM    2  C   UNL     1     -10.083  18.453  66.103  1.00  0.00    -0.360 C  
HETATM    3  H2  UNL     1     -10.753  20.352  65.507  1.00  0.00     0.000 HD 
HETATM    4  H1  UNL     1     -11.450  18.874  64.746  1.00  0.00     0.000 HD 
HETATM    5  N   UNL     1      -9.249  19.068  66.967  1.00  0.00    -0.292 NA 
HETATM    6  N   UNL     1     -10.261  17.198  65.906  1.00  0.00    -0.525 NA 
HETATM    7  H1  UNL     1      -8.693  18.399  67.498  1.00  0.00     0.000 HD 
HETATM    8  H2  UNL     1      -9.182  20.080  67.075  1.00  0.00     0.000 HD 
HETATM    9  H   UNL     1     -10.886  16.865  65.172  1.00  0.00     0.000 HD 
ENDROOT
BRANCH   6  10
HETATM   10  C   UNL     1      -9.538  16.257  66.768  1.00  0.00    -0.239 C  
BRANCH  10  11
HETATM   11  C   UNL     1      -9.486  14.848  66.174  1.00  0.00    -0.295 C  
HETATM   12  C   UNL     1     -10.863  14.414  65.722  1.00  0.00    -0.307 C  
HETATM   13  O   UNL     1     -10.831  12.995  65.807  1.00  0.00    -0.270 OA 
HETATM   14  C   UNL     1      -9.913  12.704  66.868  1.00  0.00    -0.230 C  
HETATM   15  O   UNL     1      -9.116  13.861  67.153  1.00  0.00    -0.219 OA 
HETATM   16  C   UNL     1      -9.046  11.518  66.434  1.00  0.00    -0.206 C  
HETATM   17  C   UNL     1      -9.883  10.244  66.282  1.00  0.00    -0.276 C  
HETATM   18  C   UNL     1     -10.664   9.923  67.555  1.00  0.00    -0.333 C  
HETATM   19  C   UNL     1     -11.505  11.105  68.029  1.00  0.00    -0.366 C  
HETATM   20  C   UNL     1     -10.669  12.370  68.159  1.00  0.00    -0.243 C  
ENDBRANCH  10  11
ENDBRANCH   6  10
TORSDOF 2
ENDMDL
MODEL       97
REMARK 921   NORMALIZED FREE ENERGY PREDICTED BY IDOCK:   -4.14 KCAL/MOL
REMARK 922        TOTAL FREE ENERGY PREDICTED BY IDOCK:   -4.76 KCAL/MOL
REMARK 923 INTER-LIGAND FREE ENERGY PREDICTED BY IDOCK:   -4.74 KCAL/MOL
REMARK 924 INTRA-LIGAND FREE ENERGY PREDICTED BY IDOCK:   -0.02 KCAL/MOL
REMARK 927      BINDING AFFINITY PREDICTED BY RF-SCORE:    0.00 PKD
ROOT
HETATM    1  N   UNL     1     -11.828  15.341  74.241  1.00  0.00    -0.386 NA 
HETATM    2  C   UNL     1     -12.542  15.404  73.096  1.00  0.00    -0.465 C  
HETATM    3  H2  UNL     1     -12.242  15.235  75.167  1.00  0.00     0.000 HD 
HETATM    4  H1  UNL     1     -10.826  15.412  74.067  1.00  0.00     0.000 HD 
HETATM    5  N   UNL     1     -13.868  15.311  73.326  1.00  0.00    -0.557 NA 
HETATM    6  N   UNL     1     -11.925  15.562  71.983  1.00  0.00    -0.387 NA 
HETATM    7  H1  UNL     1     -14.406  15.359  72.462  1.00  0.00     0.000 HD 
HETATM    8  H2  UNL     1     -14.282  15.205  74.252  1.00  0.00     0.000 HD 
HETATM    9  H   UNL     1     -10.905  15.557  71.943  1.00  0.00     0.000 HD 
ENDROOT
BRANCH   6  10
HETATM   10  C   UNL     1     -12.727  15.750  70.770  1.00  0.00    -0.338 C  
BRANCH  10  11
HETATM   11  C   UNL     1     -12.718  14.513  69.870  1.00  0.00    -0.075 C  
HETATM   12  C   UNL     1     -12.076  13.344  70.584  1.00  0.00    -0.295 C  
HETATM   13  O   UNL     1     -11.558  12.533  69.537  1.00  0.00    -0.284 OA 
HETATM   14  C   UNL     1     -11.240  13.445  68.479  1.00  0.00    -0.283 C  
HETATM   15  O   UNL     1     -11.898  14.699  68.703  1.00  0.00    -0.319 OA 
HETATM   16  C   UNL     1     -11.679  12.809  67.156  1.00  0.00    -0.443 C  
HETATM   17  C   UNL     1     -10.860  11.552  66.846  1.00  0.00    -0.331 C  
HETATM   18  C   UNL     1      -9.359  11.836  66.853  1.00  0.00    -0.197 C  
HETATM   19  C   UNL     1      -8.906  12.505  68.147  1.00  0.00    -0.191 C  
HETATM   20  C   UNL     1      -9.737  13.743  68.457  1.00  0.00    -0.193 C  
ENDBRANCH  10  11
ENDBRANCH   6  10
TORSDOF 2
ENDMDL
MODEL       98
REMARK 921   NORMALIZED FREE ENERGY PREDICTED BY IDOCK:   -4.13 KCAL/MOL
REMARK 922        TOTAL FREE ENERGY PREDICTED BY IDOCK:   -4.75 KCAL/MOL
REMARK 923 INTER-LIGAND FREE ENERGY PREDICTED BY IDOCK:   -4.59 KCAL/MOL
REMARK 924 INTRA-LIGAND FREE ENERGY PREDICTED BY IDOCK:   -0.16 KCAL/MOL
REMARK 927      BINDING AFFINITY PREDICTED BY RF-SCORE:    0.00 PKD
ROOT
HETATM    1  N   UNL     1      -7.903  19.835  68.232  1.00  0.00    -0.317 NA 
HETATM    2  C   UNL     1      -9.016  19.173  67.848  1.00  0.00    -0.303 C  
HETATM    3  H2  UNL     1      -7.377  20.467  67.629  1.00  0.00     0.000 HD 
HETATM    4  H1  UNL     1      -7.652  19.625  69.198  1.00  0.00     0.000 HD 
HETATM    5  N   UNL     1      -9.348  19.450  66.570  1.00  0.00    -0.343 NA 
HETATM    6  N   UNL     1      -9.590  18.382  68.678  1.00  0.00    -0.336 NA 
HETATM    7  H1  UNL     1     -10.188  18.950  66.280  1.00  0.00     0.000 HD 
HETATM    8  H2  UNL     1      -8.822  20.082  65.966  1.00  0.00     0.000 HD 
HETATM    9  H   UNL     1      -9.268  18.310  69.643  1.00  0.00     0.000 HD 
ENDROOT
BRANCH   6  10
HETATM   10  C   UNL     1     -10.724  17.585  68.199  1.00  0.00    -0.329 C  
BRANCH  10  11
HETATM   11  C   UNL     1     -10.800  16.216  68.877  1.00  0.00    -0.305 C  
HETATM   12  C   UNL     1      -9.482  15.484  68.742  1.00  0.00    -0.210 C  
HETATM   13  O   UNL     1      -9.835  14.108  68.800  1.00  0.00    -0.224 OA 
HETATM   14  C   UNL     1     -11.159  14.038  68.256  1.00  0.00    -0.254 C  
HETATM   15  O   UNL     1     -11.747  15.345  68.235  1.00  0.00    -0.360 OA 
HETATM   16  C   UNL     1     -11.974  13.068  69.115  1.00  0.00    -0.320 C  
HETATM   17  C   UNL     1     -11.432  11.639  69.008  1.00  0.00    -0.356 C  
HETATM   18  C   UNL     1     -11.359  11.167  67.557  1.00  0.00    -0.351 C  
HETATM   19  C   UNL     1     -10.583  12.138  66.674  1.00  0.00    -0.266 C  
HETATM   20  C   UNL     1     -11.118  13.558  66.800  1.00  0.00    -0.311 C  
ENDBRANCH  10  11
ENDBRANCH   6  10
TORSDOF 2
ENDMDL
MODEL       99
REMARK 921   NORMALIZED FREE ENERGY PREDICTED BY IDOCK:   -4.12 KCAL/MOL
REMARK 922        TOTAL FREE ENERGY PREDICTED BY IDOCK:   -4.74 KCAL/MOL
REMARK 923 INTER-LIGAND FREE ENERGY PREDICTED BY IDOCK:   -4.48 KCAL/MOL
REMARK 924 INTRA-LIGAND FREE ENERGY PREDICTED BY IDOCK:   -0.26 KCAL/MOL
REMARK 927      BINDING AFFINITY PREDICTED BY RF-SCORE:    0.00 PKD
ROOT
HETATM    1  N   UNL     1      -8.601  15.792  66.073  1.00  0.00    -0.331 NA 
HETATM    2  C   UNL     1      -9.789  15.181  65.870  1.00  0.00    -0.341 C  
HETATM    3  H2  UNL     1      -8.451  16.537  66.752  1.00  0.00     0.000 HD 
HETATM    4  H1  UNL     1      -7.874  15.417  65.464  1.00  0.00     0.000 HD 
HETATM    5  N   UNL     1     -10.752  15.678  66.675  1.00  0.00    -0.308 NA 
HETATM    6  N   UNL     1      -9.877  14.270  64.972  1.00  0.00    -0.543 NA 
HETATM    7  H1  UNL     1     -11.648  15.217  66.521  1.00  0.00     0.000 HD 
HETATM    8  H2  UNL     1     -10.601  16.423  67.354  1.00  0.00     0.000 HD 
HETATM    9  H   UNL     1      -9.050  13.944  64.472  1.00  0.00     0.000 HD 
ENDROOT
BRANCH   6  10
HETATM   10  C   UNL     1     -11.202  13.709  64.687  1.00  0.00    -0.373 C  
BRANCH  10  11
HETATM   11  C   UNL     1     -11.393  12.324  65.310  1.00  0.00    -0.338 C  
HETATM   12  C   UNL     1     -11.994  12.445  66.693  1.00  0.00    -0.229 C  
HETATM   13  O   UNL     1     -11.546  11.281  67.375  1.00  0.00    -0.519 OA 
HETATM   14  C   UNL     1     -10.280  10.964  66.782  1.00  0.00    -0.231 C  
HETATM   15  O   UNL     1     -10.141  11.653  65.533  1.00  0.00    -0.227 OA 
HETATM   16  C   UNL     1     -10.210   9.445  66.596  1.00  0.00    -0.319 C  
HETATM   17  C   UNL     1     -10.201   8.720  67.946  1.00  0.00    -0.272 C  
HETATM   18  C   UNL     1      -9.077   9.220  68.852  1.00  0.00    -0.139 C  
HETATM   19  C   UNL     1      -9.104  10.736  69.020  1.00  0.00    -0.153 C  
HETATM   20  C   UNL     1      -9.131  11.447  67.674  1.00  0.00    -0.155 C  
ENDBRANCH  10  11
ENDBRANCH   6  10
TORSDOF 2
ENDMDL
MODEL      100
REMARK 921   NORMALIZED FREE ENERGY PREDICTED BY IDOCK:   -4.11 KCAL/MOL
REMARK 922        TOTAL FREE ENERGY PREDICTED BY IDOCK:   -4.73 KCAL/MOL
REMARK 923 INTER-LIGAND FREE ENERGY PREDICTED BY IDOCK:   -4.29 KCAL/MOL
REMARK 924 INTRA-LIGAND FREE ENERGY PREDICTED BY IDOCK:   -0.45 KCAL/MOL
REMARK 927      BINDING AFFINITY PREDICTED BY RF-SCORE:    0.00 PKD
ROOT
HETATM    1  N   UNL     1      -7.245  10.665  70.329  1.00  0.00    -0.466 NA 
HETATM    2  C   UNL     1      -7.373   9.346  70.590  1.00  0.00    -0.131 C  
HETATM    3  H2  UNL     1      -7.108  11.378  71.045  1.00  0.00     0.000 HD 
HETATM    4  H1  UNL     1      -7.301  10.861  69.330  1.00  0.00     0.000 HD 
HETATM    5  N   UNL     1      -7.298   9.087  71.912  1.00  0.00    -0.332 NA 
HETATM    6  N   UNL     1      -7.565   8.533  69.617  1.00  0.00    -0.086 NA 
HETATM    7  H1  UNL     1      -7.396   8.091  72.108  1.00  0.00     0.000 HD 
HETATM    8  H2  UNL     1      -7.162   9.800  72.628  1.00  0.00     0.000 HD 
HETATM    9  H   UNL     1      -7.539   8.856  68.650  1.00  0.00     0.000 HD 
ENDROOT
BRANCH   6  10
HETATM   10  C   UNL     1      -7.822   7.125  69.936  1.00  0.00    -0.113 C  
BRANCH  10  11
HETATM   11  C   UNL     1      -9.316   6.822  70.070  1.00  0.00    -0.158 C  
HETATM   12  C   UNL     1     -10.117   7.686  69.120  1.00  0.00    -0.194 C  
HETATM   13  O   UNL     1     -11.391   7.804  69.740  1.00  0.00    -0.085 OA 
HETATM   14  C   UNL     1     -11.133   7.717  71.147  1.00  0.00    -0.251 C  
HETATM   15  O   UNL     1      -9.825   7.172  71.369  1.00  0.00    -0.176 OA 
HETATM   16  C   UNL     1     -12.220   6.841  71.777  1.00  0.00    -0.402 C  
HETATM   17  C   UNL     1     -13.597   7.505  71.674  1.00  0.00    -0.442 C  
HETATM   18  C   UNL     1     -13.597   8.908  72.278  1.00  0.00    -0.513 C  
HETATM   19  C   UNL     1     -12.495   9.787  71.693  1.00  0.00    -0.500 C  
HETATM   20  C   UNL     1     -11.134   9.111  71.783  1.00  0.00    -0.437 C  
ENDBRANCH  10  11
ENDBRANCH   6  10
TORSDOF 2
ENDMDL
MODEL      101
REMARK 921   NORMALIZED FREE ENERGY PREDICTED BY IDOCK:   -4.11 KCAL/MOL
REMARK 922        TOTAL FREE ENERGY PREDICTED BY IDOCK:   -4.73 KCAL/MOL
REMARK 923 INTER-LIGAND FREE ENERGY PREDICTED BY IDOCK:   -4.30 KCAL/MOL
REMARK 924 INTRA-LIGAND FREE ENERGY PREDICTED BY IDOCK:   -0.43 KCAL/MOL
REMARK 927      BINDING AFFINITY PREDICTED BY RF-SCORE:    0.00 PKD
ROOT
HETATM    1  N   UNL     1      -6.974   7.222  72.519  1.00  0.00    -0.067 NA 
HETATM    2  C   UNL     1      -8.043   6.703  73.161  1.00  0.00    -0.105 C  
HETATM    3  H2  UNL     1      -6.401   7.982  72.885  1.00  0.00     0.000 HD 
HETATM    4  H1  UNL     1      -6.809   6.760  71.624  1.00  0.00     0.000 HD 
HETATM    5  N   UNL     1      -8.262   7.314  74.344  1.00  0.00    -0.164 NA 
HETATM    6  N   UNL     1      -8.711   5.762  72.602  1.00  0.00    -0.120 NA 
HETATM    7  H1  UNL     1      -9.070   6.923  74.828  1.00  0.00     0.000 HD 
HETATM    8  H2  UNL     1      -7.689   8.075  74.710  1.00  0.00     0.000 HD 
HETATM    9  H   UNL     1      -8.399   5.346  71.725  1.00  0.00     0.000 HD 
ENDROOT
BRANCH   6  10
HETATM   10  C   UNL     1      -9.937   5.301  73.262  1.00  0.00    -0.165 C  
BRANCH  10  11
HETATM   11  C   UNL     1     -11.178   6.052  72.775  1.00  0.00    -0.261 C  
HETATM   12  C   UNL     1     -11.204   6.104  71.262  1.00  0.00    -0.287 C  
HETATM   13  O   UNL     1     -11.947   7.278  70.963  1.00  0.00    -0.311 OA 
HETATM   14  C   UNL     1     -11.702   8.167  72.059  1.00  0.00    -0.332 C  
HETATM   15  O   UNL     1     -11.163   7.435  73.168  1.00  0.00    -0.335 OA 
HETATM   16  C   UNL     1     -13.025   8.847  72.425  1.00  0.00    -0.467 C  
HETATM   17  C   UNL     1     -13.516   9.753  71.290  1.00  0.00    -0.362 C  
HETATM   18  C   UNL     1     -12.459  10.778  70.885  1.00  0.00    -0.500 C  
HETATM   19  C   UNL     1     -11.120  10.126  70.554  1.00  0.00    -0.400 C  
HETATM   20  C   UNL     1     -10.649   9.214  71.679  1.00  0.00    -0.427 C  
ENDBRANCH  10  11
ENDBRANCH   6  10
TORSDOF 2
ENDMDL
MODEL      102
REMARK 921   NORMALIZED FREE ENERGY PREDICTED BY IDOCK:   -4.11 KCAL/MOL
REMARK 922        TOTAL FREE ENERGY PREDICTED BY IDOCK:   -4.73 KCAL/MOL
REMARK 923 INTER-LIGAND FREE ENERGY PREDICTED BY IDOCK:   -4.56 KCAL/MOL
REMARK 924 INTRA-LIGAND FREE ENERGY PREDICTED BY IDOCK:   -0.17 KCAL/MOL
REMARK 927      BINDING AFFINITY PREDICTED BY RF-SCORE:    0.00 PKD
ROOT
HETATM    1  N   UNL     1     -13.928   8.780  73.359  1.00  0.00    -1.016 NA 
HETATM    2  C   UNL     1     -13.419   8.427  72.158  1.00  0.00    -0.315 C  
HETATM    3  H2  UNL     1     -14.912   8.695  73.611  1.00  0.00     0.000 HD 
HETATM    4  H1  UNL     1     -13.207   9.143  73.983  1.00  0.00     0.000 HD 
HETATM    5  N   UNL     1     -14.373   7.947  71.332  1.00  0.00    -0.617 NA 
HETATM    6  N   UNL     1     -12.168   8.597  71.935  1.00  0.00    -0.330 NA 
HETATM    7  H1  UNL     1     -13.989   7.681  70.426  1.00  0.00     0.000 HD 
HETATM    8  H2  UNL     1     -15.357   7.862  71.584  1.00  0.00     0.000 HD 
HETATM    9  H   UNL     1     -11.541   8.915  72.674  1.00  0.00     0.000 HD 
ENDROOT
BRANCH   6  10
HETATM   10  C   UNL     1     -11.666   8.320  70.586  1.00  0.00    -0.147 C  
BRANCH  10  11
HETATM   11  C   UNL     1     -10.631   9.350  70.128  1.00  0.00    -0.240 C  
HETATM   12  C   UNL     1     -11.233  10.739  70.125  1.00  0.00    -0.267 C  
HETATM   13  O   UNL     1     -10.486  11.445  69.144  1.00  0.00    -0.200 OA 
HETATM   14  C   UNL     1     -10.084  10.452  68.192  1.00  0.00    -0.155 C  
HETATM   15  O   UNL     1     -10.230   9.145  68.762  1.00  0.00    -0.198 OA 
HETATM   16  C   UNL     1      -8.632  10.734  67.797  1.00  0.00    -0.127 C  
HETATM   17  C   UNL     1      -8.508  12.064  67.047  1.00  0.00    -0.183 C  
HETATM   18  C   UNL     1      -9.433  12.120  65.833  1.00  0.00    -0.187 C  
HETATM   19  C   UNL     1     -10.881  11.804  66.198  1.00  0.00    -0.336 C  
HETATM   20  C   UNL     1     -10.992  10.489  66.958  1.00  0.00    -0.247 C  
ENDBRANCH  10  11
ENDBRANCH   6  10
TORSDOF 2
ENDMDL
MODEL      103
REMARK 921   NORMALIZED FREE ENERGY PREDICTED BY IDOCK:   -4.10 KCAL/MOL
REMARK 922        TOTAL FREE ENERGY PREDICTED BY IDOCK:   -4.71 KCAL/MOL
REMARK 923 INTER-LIGAND FREE ENERGY PREDICTED BY IDOCK:   -4.52 KCAL/MOL
REMARK 924 INTRA-LIGAND FREE ENERGY PREDICTED BY IDOCK:   -0.20 KCAL/MOL
REMARK 927      BINDING AFFINITY PREDICTED BY RF-SCORE:    0.00 PKD
ROOT
HETATM    1  N   UNL     1     -11.455   4.345  65.166  1.00  0.00    -1.054 NA 
HETATM    2  C   UNL     1     -10.477   4.788  65.986  1.00  0.00    -0.292 C  
HETATM    3  H2  UNL     1     -11.802   3.386  65.156  1.00  0.00     0.000 HD 
HETATM    4  H1  UNL     1     -11.803   5.086  64.558  1.00  0.00     0.000 HD 
HETATM    5  N   UNL     1     -10.016   3.807  66.791  1.00  0.00    -0.349 NA 
HETATM    6  N   UNL     1     -10.097   6.009  65.902  1.00  0.00    -0.376 NA 
HETATM    7  H1  UNL     1      -9.277   4.141  67.409  1.00  0.00     0.000 HD 
HETATM    8  H2  UNL     1     -10.363   2.848  66.781  1.00  0.00     0.000 HD 
HETATM    9  H   UNL     1     -10.576   6.667  65.287  1.00  0.00     0.000 HD 
ENDROOT
BRANCH   6  10
HETATM   10  C   UNL     1      -8.953   6.432  66.717  1.00  0.00    -0.130 C  
BRANCH  10  11
HETATM   11  C   UNL     1      -9.159   7.817  67.334  1.00  0.00    -0.126 C  
HETATM   12  C   UNL     1     -10.630   8.169  67.364  1.00  0.00    -0.255 C  
HETATM   13  O   UNL     1     -10.654   9.590  67.327  1.00  0.00    -0.264 OA 
HETATM   14  C   UNL     1      -9.479   9.966  66.599  1.00  0.00    -0.173 C  
HETATM   15  O   UNL     1      -8.570   8.858  66.536  1.00  0.00    -0.119 OA 
HETATM   16  C   UNL     1      -8.848  11.171  67.303  1.00  0.00    -0.144 C  
HETATM   17  C   UNL     1      -9.762  12.398  67.228  1.00  0.00    -0.201 C  
HETATM   18  C   UNL     1     -10.144  12.735  65.788  1.00  0.00    -0.296 C  
HETATM   19  C   UNL     1     -10.739  11.537  65.055  1.00  0.00    -0.350 C  
HETATM   20  C   UNL     1      -9.833  10.317  65.149  1.00  0.00    -0.389 C  
ENDBRANCH  10  11
ENDBRANCH   6  10
TORSDOF 2
ENDMDL
MODEL      104
REMARK 921   NORMALIZED FREE ENERGY PREDICTED BY IDOCK:   -4.09 KCAL/MOL
REMARK 922        TOTAL FREE ENERGY PREDICTED BY IDOCK:   -4.71 KCAL/MOL
REMARK 923 INTER-LIGAND FREE ENERGY PREDICTED BY IDOCK:   -4.58 KCAL/MOL
REMARK 924 INTRA-LIGAND FREE ENERGY PREDICTED BY IDOCK:   -0.13 KCAL/MOL
REMARK 927      BINDING AFFINITY PREDICTED BY RF-SCORE:    0.00 PKD
ROOT
HETATM    1  N   UNL     1     -11.152  13.576  63.742  1.00  0.00    -0.517 NA 
HETATM    2  C   UNL     1     -11.059  12.232  63.843  1.00  0.00    -0.412 C  
HETATM    3  H2  UNL     1     -11.757  14.059  63.077  1.00  0.00     0.000 HD 
HETATM    4  H1  UNL     1     -10.544  14.049  64.410  1.00  0.00     0.000 HD 
HETATM    5  N   UNL     1     -11.863  11.606  62.959  1.00  0.00    -0.877 NA 
HETATM    6  N   UNL     1     -10.248  11.725  64.698  1.00  0.00    -0.271 NA 
HETATM    7  H1  UNL     1     -11.792  10.592  63.035  1.00  0.00     0.000 HD 
HETATM    8  H2  UNL     1     -12.468  12.089  62.294  1.00  0.00     0.000 HD 
HETATM    9  H   UNL     1      -9.739  12.317  65.354  1.00  0.00     0.000 HD 
ENDROOT
BRANCH   6  10
HETATM   10  C   UNL     1     -10.076  10.269  64.704  1.00  0.00    -0.247 C  
BRANCH  10  11
HETATM   11  C   UNL     1      -9.581   9.748  66.055  1.00  0.00    -0.235 C  
HETATM   12  C   UNL     1      -8.524   8.684  65.856  1.00  0.00    -0.146 C  
HETATM   13  O   UNL     1      -8.615   7.874  67.020  1.00  0.00    -0.124 OA 
HETATM   14  C   UNL     1      -9.987   7.955  67.427  1.00  0.00    -0.198 C  
HETATM   15  O   UNL     1     -10.618   9.072  66.787  1.00  0.00    -0.228 OA 
HETATM   16  C   UNL     1     -10.023   8.088  68.952  1.00  0.00    -0.199 C  
HETATM   17  C   UNL     1      -9.489   6.823  69.633  1.00  0.00    -0.146 C  
HETATM   18  C   UNL     1     -10.232   5.572  69.167  1.00  0.00    -0.309 C  
HETATM   19  C   UNL     1     -10.242   5.440  67.647  1.00  0.00    -0.236 C  
HETATM   20  C   UNL     1     -10.757   6.708  66.980  1.00  0.00    -0.437 C  
ENDBRANCH  10  11
ENDBRANCH   6  10
TORSDOF 2
ENDMDL
MODEL      105
REMARK 921   NORMALIZED FREE ENERGY PREDICTED BY IDOCK:   -4.09 KCAL/MOL
REMARK 922        TOTAL FREE ENERGY PREDICTED BY IDOCK:   -4.71 KCAL/MOL
REMARK 923 INTER-LIGAND FREE ENERGY PREDICTED BY IDOCK:   -4.43 KCAL/MOL
REMARK 924 INTRA-LIGAND FREE ENERGY PREDICTED BY IDOCK:   -0.28 KCAL/MOL
REMARK 927      BINDING AFFINITY PREDICTED BY RF-SCORE:    0.00 PKD
ROOT
HETATM    1  N   UNL     1     -10.161  16.210  68.461  1.00  0.00    -0.234 NA 
HETATM    2  C   UNL     1     -11.170  15.432  68.010  1.00  0.00    -0.325 C  
HETATM    3  H2  UNL     1     -10.197  16.749  69.325  1.00  0.00     0.000 HD 
HETATM    4  H1  UNL     1      -9.359  16.191  67.831  1.00  0.00     0.000 HD 
HETATM    5  N   UNL     1     -12.231  15.457  68.844  1.00  0.00    -0.604 NA 
HETATM    6  N   UNL     1     -11.032  14.813  66.897  1.00  0.00    -0.320 NA 
HETATM    7  H1  UNL     1     -12.993  14.871  68.503  1.00  0.00     0.000 HD 
HETATM    8  H2  UNL     1     -12.268  15.997  69.708  1.00  0.00     0.000 HD 
HETATM    9  H   UNL     1     -10.146  14.832  66.391  1.00  0.00     0.000 HD 
ENDROOT
BRANCH   6  10
HETATM   10  C   UNL     1     -12.185  14.075  66.371  1.00  0.00    -0.460 C  
BRANCH  10  11
HETATM   11  C   UNL     1     -11.857  12.607  66.089  1.00  0.00    -0.418 C  
HETATM   12  C   UNL     1     -11.653  11.853  67.385  1.00  0.00    -0.297 C  
HETATM   13  O   UNL     1     -10.780  10.786  67.038  1.00  0.00    -0.251 OA 
HETATM   14  C   UNL     1      -9.986  11.288  65.956  1.00  0.00    -0.231 C  
HETATM   15  O   UNL     1     -10.605  12.455  65.399  1.00  0.00    -0.269 OA 
HETATM   16  C   UNL     1      -9.845  10.175  64.913  1.00  0.00    -0.390 C  
HETATM   17  C   UNL     1      -9.045   8.992  65.468  1.00  0.00    -0.271 C  
HETATM   18  C   UNL     1      -7.681   9.429  65.999  1.00  0.00    -0.099 C  
HETATM   19  C   UNL     1      -7.795  10.565  67.012  1.00  0.00    -0.114 C  
HETATM   20  C   UNL     1      -8.606  11.728  66.459  1.00  0.00    -0.148 C  
ENDBRANCH  10  11
ENDBRANCH   6  10
TORSDOF 2
ENDMDL
MODEL      106
REMARK 921   NORMALIZED FREE ENERGY PREDICTED BY IDOCK:   -4.09 KCAL/MOL
REMARK 922        TOTAL FREE ENERGY PREDICTED BY IDOCK:   -4.70 KCAL/MOL
REMARK 923 INTER-LIGAND FREE ENERGY PREDICTED BY IDOCK:   -4.40 KCAL/MOL
REMARK 924 INTRA-LIGAND FREE ENERGY PREDICTED BY IDOCK:   -0.30 KCAL/MOL
REMARK 927      BINDING AFFINITY PREDICTED BY RF-SCORE:    0.00 PKD
ROOT
HETATM    1  N   UNL     1      -9.769   6.605  65.966  1.00  0.00    -0.396 NA 
HETATM    2  C   UNL     1     -10.209   7.271  67.056  1.00  0.00    -0.278 C  
HETATM    3  H2  UNL     1     -10.287   5.858  65.505  1.00  0.00     0.000 HD 
HETATM    4  H1  UNL     1      -8.856   6.942  65.660  1.00  0.00     0.000 HD 
HETATM    5  N   UNL     1     -11.416   6.825  67.461  1.00  0.00    -0.688 NA 
HETATM    6  N   UNL     1      -9.468   8.180  67.574  1.00  0.00    -0.149 NA 
HETATM    7  H1  UNL     1     -11.748   7.327  68.285  1.00  0.00     0.000 HD 
HETATM    8  H2  UNL     1     -11.934   6.077  67.001  1.00  0.00     0.000 HD 
HETATM    9  H   UNL     1      -8.595   8.464  67.128  1.00  0.00     0.000 HD 
ENDROOT
BRANCH   6  10
HETATM   10  C   UNL     1      -9.913   8.801  68.825  1.00  0.00    -0.185 C  
BRANCH  10  11
HETATM   11  C   UNL     1     -10.066  10.318  68.699  1.00  0.00    -0.174 C  
HETATM   12  C   UNL     1     -11.513  10.685  68.452  1.00  0.00    -0.259 C  
HETATM   13  O   UNL     1     -11.449  11.919  67.748  1.00  0.00    -0.281 OA 
HETATM   14  C   UNL     1     -10.218  11.869  67.016  1.00  0.00    -0.210 C  
HETATM   15  O   UNL     1      -9.376  10.839  67.550  1.00  0.00    -0.146 OA 
HETATM   16  C   UNL     1      -9.552  13.244  67.112  1.00  0.00    -0.240 C  
HETATM   17  C   UNL     1     -10.385  14.316  66.401  1.00  0.00    -0.287 C  
HETATM   18  C   UNL     1     -10.673  13.940  64.949  1.00  0.00    -0.422 C  
HETATM   19  C   UNL     1     -11.301  12.555  64.826  1.00  0.00    -0.354 C  
HETATM   20  C   UNL     1     -10.476  11.500  65.551  1.00  0.00    -0.327 C  
ENDBRANCH  10  11
ENDBRANCH   6  10
TORSDOF 2
ENDMDL
MODEL      107
REMARK 921   NORMALIZED FREE ENERGY PREDICTED BY IDOCK:   -4.09 KCAL/MOL
REMARK 922        TOTAL FREE ENERGY PREDICTED BY IDOCK:   -4.70 KCAL/MOL
REMARK 923 INTER-LIGAND FREE ENERGY PREDICTED BY IDOCK:   -4.45 KCAL/MOL
REMARK 924 INTRA-LIGAND FREE ENERGY PREDICTED BY IDOCK:   -0.25 KCAL/MOL
REMARK 927      BINDING AFFINITY PREDICTED BY RF-SCORE:    0.00 PKD
ROOT
HETATM    1  N   UNL     1      -5.956  19.882  69.467  1.00  0.00    -0.280 NA 
HETATM    2  C   UNL     1      -6.677  19.970  68.328  1.00  0.00    -0.289 C  
HETATM    3  H2  UNL     1      -5.458  20.665  69.889  1.00  0.00     0.000 HD 
HETATM    4  H1  UNL     1      -5.971  18.938  69.852  1.00  0.00     0.000 HD 
HETATM    5  N   UNL     1      -6.657  21.219  67.818  1.00  0.00    -0.422 NA 
HETATM    6  N   UNL     1      -7.247  18.918  67.867  1.00  0.00    -0.236 NA 
HETATM    7  H1  UNL     1      -7.201  21.285  66.958  1.00  0.00     0.000 HD 
HETATM    8  H2  UNL     1      -6.159  22.002  68.240  1.00  0.00     0.000 HD 
HETATM    9  H   UNL     1      -7.233  18.041  68.388  1.00  0.00     0.000 HD 
ENDROOT
BRANCH   6  10
HETATM   10  C   UNL     1      -7.921  19.013  66.567  1.00  0.00    -0.282 C  
BRANCH  10  11
HETATM   11  C   UNL     1      -9.170  18.132  66.494  1.00  0.00    -0.281 C  
HETATM   12  C   UNL     1     -10.256  18.678  67.395  1.00  0.00    -0.384 C  
HETATM   13  O   UNL     1     -11.034  17.540  67.739  1.00  0.00    -0.314 OA 
HETATM   14  C   UNL     1     -10.118  16.438  67.716  1.00  0.00    -0.262 C  
HETATM   15  O   UNL     1      -8.930  16.809  67.005  1.00  0.00    -0.196 OA 
HETATM   16  C   UNL     1     -10.821  15.250  67.053  1.00  0.00    -0.321 C  
HETATM   17  C   UNL     1     -12.000  14.759  67.900  1.00  0.00    -0.260 C  
HETATM   18  C   UNL     1     -11.572  14.424  69.328  1.00  0.00    -0.345 C  
HETATM   19  C   UNL     1     -10.834  15.581  69.995  1.00  0.00    -0.330 C  
HETATM   20  C   UNL     1      -9.676  16.074  69.137  1.00  0.00    -0.251 C  
ENDBRANCH  10  11
ENDBRANCH   6  10
TORSDOF 2
ENDMDL
MODEL      108
REMARK 921   NORMALIZED FREE ENERGY PREDICTED BY IDOCK:   -4.08 KCAL/MOL
REMARK 922        TOTAL FREE ENERGY PREDICTED BY IDOCK:   -4.69 KCAL/MOL
REMARK 923 INTER-LIGAND FREE ENERGY PREDICTED BY IDOCK:   -4.50 KCAL/MOL
REMARK 924 INTRA-LIGAND FREE ENERGY PREDICTED BY IDOCK:   -0.19 KCAL/MOL
REMARK 927      BINDING AFFINITY PREDICTED BY RF-SCORE:    0.00 PKD
ROOT
HETATM    1  N   UNL     1     -11.997  15.329  73.255  1.00  0.00    -0.437 NA 
HETATM    2  C   UNL     1     -12.359  15.453  71.960  1.00  0.00    -0.373 C  
HETATM    3  H2  UNL     1     -12.654  15.184  74.021  1.00  0.00     0.000 HD 
HETATM    4  H1  UNL     1     -10.986  15.399  73.374  1.00  0.00     0.000 HD 
HETATM    5  N   UNL     1     -13.696  15.361  71.803  1.00  0.00    -0.486 NA 
HETATM    6  N   UNL     1     -11.454  15.657  71.075  1.00  0.00    -0.361 NA 
HETATM    7  H1  UNL     1     -13.969  15.455  70.825  1.00  0.00     0.000 HD 
HETATM    8  H2  UNL     1     -14.354  15.216  72.569  1.00  0.00     0.000 HD 
HETATM    9  H   UNL     1     -10.465  15.644  71.322  1.00  0.00     0.000 HD 
ENDROOT
BRANCH   6  10
HETATM   10  C   UNL     1     -11.884  15.908  69.695  1.00  0.00    -0.290 C  
BRANCH  10  11
HETATM   11  C   UNL     1     -10.957  15.252  68.669  1.00  0.00    -0.257 C  
HETATM   12  C   UNL     1     -11.740  14.828  67.445  1.00  0.00    -0.350 C  
HETATM   13  O   UNL     1     -10.997  13.741  66.911  1.00  0.00    -0.286 OA 
HETATM   14  C   UNL     1     -10.364  13.128  68.041  1.00  0.00    -0.238 C  
HETATM   15  O   UNL     1     -10.390  14.025  69.158  1.00  0.00    -0.171 OA 
HETATM   16  C   UNL     1      -8.931  12.765  67.644  1.00  0.00    -0.191 C  
HETATM   17  C   UNL     1      -8.911  11.688  66.554  1.00  0.00    -0.191 C  
HETATM   18  C   UNL     1      -9.702  10.448  66.968  1.00  0.00    -0.216 C  
HETATM   19  C   UNL     1     -11.123  10.791  67.405  1.00  0.00    -0.363 C  
HETATM   20  C   UNL     1     -11.133  11.874  68.474  1.00  0.00    -0.290 C  
ENDBRANCH  10  11
ENDBRANCH   6  10
TORSDOF 2
ENDMDL
MODEL      109
REMARK 921   NORMALIZED FREE ENERGY PREDICTED BY IDOCK:   -4.06 KCAL/MOL
REMARK 922        TOTAL FREE ENERGY PREDICTED BY IDOCK:   -4.68 KCAL/MOL
REMARK 923 INTER-LIGAND FREE ENERGY PREDICTED BY IDOCK:   -4.53 KCAL/MOL
REMARK 924 INTRA-LIGAND FREE ENERGY PREDICTED BY IDOCK:   -0.14 KCAL/MOL
REMARK 927      BINDING AFFINITY PREDICTED BY RF-SCORE:    0.00 PKD
ROOT
HETATM    1  N   UNL     1      -6.351  11.765  70.388  1.00  0.00    -0.501 NA 
HETATM    2  C   UNL     1      -6.408  13.114  70.417  1.00  0.00     0.159 C  
HETATM    3  H2  UNL     1      -6.006  11.190  71.157  1.00  0.00     0.000 HD 
HETATM    4  H1  UNL     1      -6.694  11.391  69.503  1.00  0.00     0.000 HD 
HETATM    5  N   UNL     1      -5.954  13.609  71.588  1.00  0.00    -0.571 NA 
HETATM    6  N   UNL     1      -6.837  13.744  69.386  1.00  0.00    -0.242 NA 
HETATM    7  H1  UNL     1      -5.997  14.628  71.609  1.00  0.00     0.000 HD 
HETATM    8  H2  UNL     1      -5.609  13.035  72.357  1.00  0.00     0.000 HD 
HETATM    9  H   UNL     1      -7.211  13.240  68.581  1.00  0.00     0.000 HD 
ENDROOT
BRANCH   6  10
HETATM   10  C   UNL     1      -6.775  15.209  69.398  1.00  0.00    -0.162 C  
BRANCH  10  11
HETATM   11  C   UNL     1      -8.106  15.850  68.999  1.00  0.00    -0.229 C  
HETATM   12  C   UNL     1      -8.359  15.666  67.519  1.00  0.00    -0.169 C  
HETATM   13  O   UNL     1      -9.188  16.765  67.164  1.00  0.00    -0.217 OA 
HETATM   14  C   UNL     1      -8.821  17.818  68.063  1.00  0.00    -0.259 C  
HETATM   15  O   UNL     1      -8.092  17.278  69.173  1.00  0.00    -0.159 OA 
HETATM   16  C   UNL     1     -10.102  18.520  68.520  1.00  0.00    -0.414 C  
HETATM   17  C   UNL     1     -10.795  19.230  67.352  1.00  0.00    -0.554 C  
HETATM   18  C   UNL     1      -9.855  20.200  66.640  1.00  0.00    -0.588 C  
HETATM   19  C   UNL     1      -8.553  19.530  66.209  1.00  0.00    -0.382 C  
HETATM   20  C   UNL     1      -7.882  18.814  67.372  1.00  0.00    -0.245 C  
ENDBRANCH  10  11
ENDBRANCH   6  10
TORSDOF 2
ENDMDL
MODEL      110
REMARK 921   NORMALIZED FREE ENERGY PREDICTED BY IDOCK:   -4.05 KCAL/MOL
REMARK 922        TOTAL FREE ENERGY PREDICTED BY IDOCK:   -4.66 KCAL/MOL
REMARK 923 INTER-LIGAND FREE ENERGY PREDICTED BY IDOCK:   -4.52 KCAL/MOL
REMARK 924 INTRA-LIGAND FREE ENERGY PREDICTED BY IDOCK:   -0.14 KCAL/MOL
REMARK 927      BINDING AFFINITY PREDICTED BY RF-SCORE:    0.00 PKD
ROOT
HETATM    1  N   UNL     1      -8.877  17.976  68.541  1.00  0.00    -0.302 NA 
HETATM    2  C   UNL     1      -9.920  17.119  68.479  1.00  0.00    -0.309 C  
HETATM    3  H2  UNL     1      -8.735  18.649  69.293  1.00  0.00     0.000 HD 
HETATM    4  H1  UNL     1      -8.250  17.866  67.745  1.00  0.00     0.000 HD 
HETATM    5  N   UNL     1     -10.751  17.264  69.533  1.00  0.00    -0.338 NA 
HETATM    6  N   UNL     1     -10.018  16.326  67.476  1.00  0.00    -0.244 NA 
HETATM    7  H1  UNL     1     -11.538  16.617  69.486  1.00  0.00     0.000 HD 
HETATM    8  H2  UNL     1     -10.609  17.937  70.285  1.00  0.00     0.000 HD 
HETATM    9  H   UNL     1      -9.282  16.276  66.772  1.00  0.00     0.000 HD 
ENDROOT
BRANCH   6  10
HETATM   10  C   UNL     1     -11.221  15.494  67.371  1.00  0.00    -0.248 C  
BRANCH  10  11
HETATM   11  C   UNL     1     -11.045  14.341  66.381  1.00  0.00    -0.325 C  
HETATM   12  C   UNL     1     -12.297  13.492  66.330  1.00  0.00    -0.383 C  
HETATM   13  O   UNL     1     -11.836  12.205  65.941  1.00  0.00    -0.504 OA 
HETATM   14  C   UNL     1     -10.502  12.114  66.457  1.00  0.00    -0.225 C  
HETATM   15  O   UNL     1     -10.021  13.421  66.797  1.00  0.00    -0.251 OA 
HETATM   16  C   UNL     1      -9.624  11.452  65.391  1.00  0.00    -0.255 C  
HETATM   17  C   UNL     1     -10.048  10.000  65.146  1.00  0.00    -0.268 C  
HETATM   18  C   UNL     1     -10.058   9.186  66.439  1.00  0.00    -0.345 C  
HETATM   19  C   UNL     1     -10.896   9.848  67.529  1.00  0.00    -0.307 C  
HETATM   20  C   UNL     1     -10.480  11.295  67.753  1.00  0.00    -0.218 C  
ENDBRANCH  10  11
ENDBRANCH   6  10
TORSDOF 2
ENDMDL
MODEL      111
REMARK 921   NORMALIZED FREE ENERGY PREDICTED BY IDOCK:   -4.04 KCAL/MOL
REMARK 922        TOTAL FREE ENERGY PREDICTED BY IDOCK:   -4.65 KCAL/MOL
REMARK 923 INTER-LIGAND FREE ENERGY PREDICTED BY IDOCK:   -4.29 KCAL/MOL
REMARK 924 INTRA-LIGAND FREE ENERGY PREDICTED BY IDOCK:   -0.36 KCAL/MOL
REMARK 927      BINDING AFFINITY PREDICTED BY RF-SCORE:    0.00 PKD
ROOT
HETATM    1  N   UNL     1     -11.310  13.108  69.710  1.00  0.00    -0.491 NA 
HETATM    2  C   UNL     1     -10.838  13.702  68.592  1.00  0.00    -0.263 C  
HETATM    3  H2  UNL     1     -10.761  12.967  70.558  1.00  0.00     0.000 HD 
HETATM    4  H1  UNL     1     -12.282  12.819  69.603  1.00  0.00     0.000 HD 
HETATM    5  N   UNL     1      -9.551  14.084  68.734  1.00  0.00    -0.372 NA 
HETATM    6  N   UNL     1     -11.605  13.810  67.571  1.00  0.00    -0.334 NA 
HETATM    7  H1  UNL     1      -9.195  14.532  67.890  1.00  0.00     0.000 HD 
HETATM    8  H2  UNL     1      -9.002  13.943  69.581  1.00  0.00     0.000 HD 
HETATM    9  H   UNL     1     -12.585  13.532  67.618  1.00  0.00     0.000 HD 
ENDROOT
BRANCH   6  10
HETATM   10  C   UNL     1     -11.031  14.347  66.333  1.00  0.00    -0.319 C  
BRANCH  10  11
HETATM   11  C   UNL     1     -10.480  13.247  65.422  1.00  0.00    -0.297 C  
HETATM   12  C   UNL     1     -11.565  12.247  65.085  1.00  0.00    -0.351 C  
HETATM   13  O   UNL     1     -10.862  11.038  64.829  1.00  0.00    -0.276 OA 
HETATM   14  C   UNL     1      -9.687  11.107  65.646  1.00  0.00    -0.225 C  
HETATM   15  O   UNL     1      -9.472  12.458  66.077  1.00  0.00    -0.232 OA 
HETATM   16  C   UNL     1      -8.505  10.586  64.823  1.00  0.00    -0.150 C  
HETATM   17  C   UNL     1      -8.667   9.097  64.499  1.00  0.00    -0.192 C  
HETATM   18  C   UNL     1      -8.877   8.261  65.761  1.00  0.00    -0.194 C  
HETATM   19  C   UNL     1     -10.026   8.787  66.616  1.00  0.00    -0.355 C  
HETATM   20  C   UNL     1      -9.865  10.270  66.918  1.00  0.00    -0.244 C  
ENDBRANCH  10  11
ENDBRANCH   6  10
TORSDOF 2
ENDMDL
MODEL      112
REMARK 921   NORMALIZED FREE ENERGY PREDICTED BY IDOCK:   -4.02 KCAL/MOL
REMARK 922        TOTAL FREE ENERGY PREDICTED BY IDOCK:   -4.63 KCAL/MOL
REMARK 923 INTER-LIGAND FREE ENERGY PREDICTED BY IDOCK:   -4.33 KCAL/MOL
REMARK 924 INTRA-LIGAND FREE ENERGY PREDICTED BY IDOCK:   -0.30 KCAL/MOL
REMARK 927      BINDING AFFINITY PREDICTED BY RF-SCORE:    0.00 PKD
ROOT
HETATM    1  N   UNL     1     -10.640  11.029  62.718  1.00  0.00    -0.778 NA 
HETATM    2  C   UNL     1      -9.588  10.864  63.548  1.00  0.00    -0.319 C  
HETATM    3  H2  UNL     1     -10.727  11.795  62.050  1.00  0.00     0.000 HD 
HETATM    4  H1  UNL     1     -11.337  10.295  62.840  1.00  0.00     0.000 HD 
HETATM    5  N   UNL     1      -8.665  11.836  63.387  1.00  0.00    -0.217 NA 
HETATM    6  N   UNL     1      -9.588   9.879  64.368  1.00  0.00    -0.405 NA 
HETATM    7  H1  UNL     1      -7.871  11.711  64.015  1.00  0.00     0.000 HD 
HETATM    8  H2  UNL     1      -8.752  12.602  62.720  1.00  0.00     0.000 HD 
HETATM    9  H   UNL     1     -10.326   9.175  64.344  1.00  0.00     0.000 HD 
ENDROOT
BRANCH   6  10
HETATM   10  C   UNL     1      -8.494   9.792  65.341  1.00  0.00    -0.145 C  
BRANCH  10  11
HETATM   11  C   UNL     1      -8.759  10.634  66.591  1.00  0.00    -0.140 C  
HETATM   12  C   UNL     1     -10.103  10.282  67.191  1.00  0.00    -0.210 C  
HETATM   13  O   UNL     1     -10.507  11.464  67.869  1.00  0.00    -0.175 OA 
HETATM   14  C   UNL     1      -9.914  12.540  67.132  1.00  0.00    -0.216 C  
HETATM   15  O   UNL     1      -8.873  12.034  66.286  1.00  0.00    -0.171 OA 
HETATM   16  C   UNL     1      -9.374  13.563  68.136  1.00  0.00    -0.213 C  
HETATM   17  C   UNL     1     -10.511  14.215  68.930  1.00  0.00    -0.229 C  
HETATM   18  C   UNL     1     -11.560  14.839  68.012  1.00  0.00    -0.367 C  
HETATM   19  C   UNL     1     -12.083  13.848  66.977  1.00  0.00    -0.451 C  
HETATM   20  C   UNL     1     -10.946  13.192  66.205  1.00  0.00    -0.295 C  
ENDBRANCH  10  11
ENDBRANCH   6  10
TORSDOF 2
ENDMDL
MODEL      113
REMARK 921   NORMALIZED FREE ENERGY PREDICTED BY IDOCK:   -4.00 KCAL/MOL
REMARK 922        TOTAL FREE ENERGY PREDICTED BY IDOCK:   -4.60 KCAL/MOL
REMARK 923 INTER-LIGAND FREE ENERGY PREDICTED BY IDOCK:   -4.47 KCAL/MOL
REMARK 924 INTRA-LIGAND FREE ENERGY PREDICTED BY IDOCK:   -0.14 KCAL/MOL
REMARK 927      BINDING AFFINITY PREDICTED BY RF-SCORE:    0.00 PKD
ROOT
HETATM    1  N   UNL     1      -8.092   8.105  65.732  1.00  0.00    -0.108 NA 
HETATM    2  C   UNL     1      -8.849   9.052  65.137  1.00  0.00    -0.182 C  
HETATM    3  H2  UNL     1      -7.574   7.386  65.226  1.00  0.00     0.000 HD 
HETATM    4  H1  UNL     1      -8.102   8.196  66.747  1.00  0.00     0.000 HD 
HETATM    5  N   UNL     1      -8.837   8.931  63.792  1.00  0.00    -0.431 NA 
HETATM    6  N   UNL     1      -9.480   9.897  65.866  1.00  0.00    -0.197 NA 
HETATM    7  H1  UNL     1      -9.409   9.646  63.344  1.00  0.00     0.000 HD 
HETATM    8  H2  UNL     1      -8.319   8.213  63.287  1.00  0.00     0.000 HD 
HETATM    9  H   UNL     1      -9.353   9.915  66.878  1.00  0.00     0.000 HD 
ENDROOT
BRANCH   6  10
HETATM   10  C   UNL     1     -10.389  10.836  65.202  1.00  0.00    -0.271 C  
BRANCH  10  11
HETATM   11  C   UNL     1     -10.959  11.876  66.170  1.00  0.00    -0.308 C  
HETATM   12  C   UNL     1     -11.963  12.761  65.464  1.00  0.00    -0.449 C  
HETATM   13  O   UNL     1     -11.925  13.984  66.188  1.00  0.00    -0.380 OA 
HETATM   14  C   UNL     1     -10.589  14.077  66.697  1.00  0.00    -0.274 C  
HETATM   15  O   UNL     1      -9.953  12.793  66.632  1.00  0.00    -0.234 OA 
HETATM   16  C   UNL     1     -10.664  14.594  68.137  1.00  0.00    -0.242 C  
HETATM   17  C   UNL     1     -11.200  16.029  68.184  1.00  0.00    -0.325 C  
HETATM   18  C   UNL     1     -10.383  16.969  67.299  1.00  0.00    -0.311 C  
HETATM   19  C   UNL     1     -10.262  16.453  65.868  1.00  0.00    -0.379 C  
HETATM   20  C   UNL     1      -9.746  15.021  65.832  1.00  0.00    -0.376 C  
ENDBRANCH  10  11
ENDBRANCH   6  10
TORSDOF 2
ENDMDL
MODEL      114
REMARK 921   NORMALIZED FREE ENERGY PREDICTED BY IDOCK:   -3.99 KCAL/MOL
REMARK 922        TOTAL FREE ENERGY PREDICTED BY IDOCK:   -4.59 KCAL/MOL
REMARK 923 INTER-LIGAND FREE ENERGY PREDICTED BY IDOCK:   -4.38 KCAL/MOL
REMARK 924 INTRA-LIGAND FREE ENERGY PREDICTED BY IDOCK:   -0.21 KCAL/MOL
REMARK 927      BINDING AFFINITY PREDICTED BY RF-SCORE:    0.00 PKD
ROOT
HETATM    1  N   UNL     1      -5.614  18.466  65.990  1.00  0.00    -0.159 NA 
HETATM    2  C   UNL     1      -6.720  17.869  66.487  1.00  0.00    -0.217 C  
HETATM    3  H2  UNL     1      -4.746  18.586  66.511  1.00  0.00     0.000 HD 
HETATM    4  H1  UNL     1      -5.754  18.781  65.030  1.00  0.00     0.000 HD 
HETATM    5  N   UNL     1      -6.535  17.451  67.757  1.00  0.00    -0.147 NA 
HETATM    6  N   UNL     1      -7.769  17.789  65.755  1.00  0.00    -0.549 NA 
HETATM    7  H1  UNL     1      -7.370  17.001  68.132  1.00  0.00     0.000 HD 
HETATM    8  H2  UNL     1      -5.667  17.572  68.278  1.00  0.00     0.000 HD 
HETATM    9  H   UNL     1      -7.755  18.093  64.781  1.00  0.00     0.000 HD 
ENDROOT
BRANCH   6  10
HETATM   10  C   UNL     1      -8.991  17.247  66.358  1.00  0.00    -0.252 C  
BRANCH  10  11
HETATM   11  C   UNL     1      -9.301  15.830  65.871  1.00  0.00    -0.321 C  
HETATM   12  C   UNL     1     -10.777  15.685  65.571  1.00  0.00    -0.389 C  
HETATM   13  O   UNL     1     -11.041  14.301  65.760  1.00  0.00    -0.300 OA 
HETATM   14  C   UNL     1     -10.106  13.874  66.758  1.00  0.00    -0.265 C  
HETATM   15  O   UNL     1      -9.056  14.842  66.887  1.00  0.00    -0.221 OA 
HETATM   16  C   UNL     1      -9.560  12.505  66.343  1.00  0.00    -0.247 C  
HETATM   17  C   UNL     1     -10.662  11.440  66.360  1.00  0.00    -0.325 C  
HETATM   18  C   UNL     1     -11.362  11.370  67.716  1.00  0.00    -0.354 C  
HETATM   19  C   UNL     1     -11.881  12.732  68.168  1.00  0.00    -0.372 C  
HETATM   20  C   UNL     1     -10.784  13.787  68.131  1.00  0.00    -0.258 C  
ENDBRANCH  10  11
ENDBRANCH   6  10
TORSDOF 2
ENDMDL
MODEL      115
REMARK 921   NORMALIZED FREE ENERGY PREDICTED BY IDOCK:   -3.97 KCAL/MOL
REMARK 922        TOTAL FREE ENERGY PREDICTED BY IDOCK:   -4.57 KCAL/MOL
REMARK 923 INTER-LIGAND FREE ENERGY PREDICTED BY IDOCK:   -4.28 KCAL/MOL
REMARK 924 INTRA-LIGAND FREE ENERGY PREDICTED BY IDOCK:   -0.29 KCAL/MOL
REMARK 927      BINDING AFFINITY PREDICTED BY RF-SCORE:    0.00 PKD
ROOT
HETATM    1  N   UNL     1      -6.948  10.484  67.453  1.00  0.00    -0.083 NA 
HETATM    2  C   UNL     1      -7.159  10.288  66.133  1.00  0.00    -0.121 C  
HETATM    3  H2  UNL     1      -6.222  11.092  67.831  1.00  0.00     0.000 HD 
HETATM    4  H1  UNL     1      -7.602   9.949  68.024  1.00  0.00     0.000 HD 
HETATM    5  N   UNL     1      -6.293  10.995  65.377  1.00  0.00    -0.371 NA 
HETATM    6  N   UNL     1      -8.085   9.482  65.761  1.00  0.00    -0.110 NA 
HETATM    7  H1  UNL     1      -6.453  10.847  64.380  1.00  0.00     0.000 HD 
HETATM    8  H2  UNL     1      -5.568  11.603  65.755  1.00  0.00     0.000 HD 
HETATM    9  H   UNL     1      -8.713   9.055  66.441  1.00  0.00     0.000 HD 
ENDROOT
BRANCH   6  10
HETATM   10  C   UNL     1      -8.213   9.194  64.329  1.00  0.00    -0.161 C  
BRANCH  10  11
HETATM   11  C   UNL     1      -9.346   9.989  63.675  1.00  0.00    -0.253 C  
HETATM   12  C   UNL     1      -8.793  11.190  62.939  1.00  0.00    -0.199 C  
HETATM   13  O   UNL     1      -9.860  12.130  62.946  1.00  0.00    -0.270 OA 
HETATM   14  C   UNL     1     -10.593  11.855  64.146  1.00  0.00    -0.350 C  
HETATM   15  O   UNL     1     -10.238  10.560  64.648  1.00  0.00    -0.345 OA 
HETATM   16  C   UNL     1     -12.087  11.942  63.820  1.00  0.00    -0.547 C  
HETATM   17  C   UNL     1     -12.490  13.369  63.435  1.00  0.00    -0.229 C  
HETATM   18  C   UNL     1     -12.098  14.379  64.511  1.00  0.00    -0.498 C  
HETATM   19  C   UNL     1     -10.620  14.285  64.880  1.00  0.00    -0.452 C  
HETATM   20  C   UNL     1     -10.225  12.860  65.244  1.00  0.00    -0.294 C  
ENDBRANCH  10  11
ENDBRANCH   6  10
TORSDOF 2
ENDMDL
MODEL      116
REMARK 921   NORMALIZED FREE ENERGY PREDICTED BY IDOCK:   -3.96 KCAL/MOL
REMARK 922        TOTAL FREE ENERGY PREDICTED BY IDOCK:   -4.56 KCAL/MOL
REMARK 923 INTER-LIGAND FREE ENERGY PREDICTED BY IDOCK:   -4.12 KCAL/MOL
REMARK 924 INTRA-LIGAND FREE ENERGY PREDICTED BY IDOCK:   -0.44 KCAL/MOL
REMARK 927      BINDING AFFINITY PREDICTED BY RF-SCORE:    0.00 PKD
ROOT
HETATM    1  N   UNL     1      -9.578  16.233  67.173  1.00  0.00    -0.230 NA 
HETATM    2  C   UNL     1      -9.111  14.966  67.164  1.00  0.00    -0.222 C  
HETATM    3  H2  UNL     1      -9.343  16.924  67.886  1.00  0.00     0.000 HD 
HETATM    4  H1  UNL     1     -10.194  16.415  66.381  1.00  0.00     0.000 HD 
HETATM    5  N   UNL     1      -8.296  14.725  68.212  1.00  0.00    -0.142 NA 
HETATM    6  N   UNL     1      -9.487  14.168  66.233  1.00  0.00    -0.423 NA 
HETATM    7  H1  UNL     1      -7.943  13.768  68.205  1.00  0.00     0.000 HD 
HETATM    8  H2  UNL     1      -8.061  15.415  68.925  1.00  0.00     0.000 HD 
HETATM    9  H   UNL     1     -10.063  14.498  65.459  1.00  0.00     0.000 HD 
ENDROOT
BRANCH   6  10
HETATM   10  C   UNL     1      -9.063  12.766  66.314  1.00  0.00    -0.024 C  
BRANCH  10  11
HETATM   11  C   UNL     1     -10.066  11.898  67.077  1.00  0.00    -0.205 C  
HETATM   12  C   UNL     1     -11.476  12.403  66.857  1.00  0.00    -0.360 C  
HETATM   13  O   UNL     1     -12.182  11.995  68.022  1.00  0.00    -0.454 OA 
HETATM   14  C   UNL     1     -11.202  11.979  69.067  1.00  0.00    -0.258 C  
HETATM   15  O   UNL     1      -9.885  11.985  68.501  1.00  0.00    -0.209 OA 
HETATM   16  C   UNL     1     -11.440  10.730  69.922  1.00  0.00    -0.398 C  
HETATM   17  C   UNL     1     -12.786  10.803  70.650  1.00  0.00    -0.417 C  
HETATM   18  C   UNL     1     -12.912  12.077  71.483  1.00  0.00    -0.407 C  
HETATM   19  C   UNL     1     -12.641  13.333  70.660  1.00  0.00    -0.305 C  
HETATM   20  C   UNL     1     -11.310  13.244  69.926  1.00  0.00    -0.067 C  
ENDBRANCH  10  11
ENDBRANCH   6  10
TORSDOF 2
ENDMDL
MODEL      117
REMARK 921   NORMALIZED FREE ENERGY PREDICTED BY IDOCK:   -3.95 KCAL/MOL
REMARK 922        TOTAL FREE ENERGY PREDICTED BY IDOCK:   -4.55 KCAL/MOL
REMARK 923 INTER-LIGAND FREE ENERGY PREDICTED BY IDOCK:   -4.38 KCAL/MOL
REMARK 924 INTRA-LIGAND FREE ENERGY PREDICTED BY IDOCK:   -0.18 KCAL/MOL
REMARK 927      BINDING AFFINITY PREDICTED BY RF-SCORE:    0.00 PKD
ROOT
HETATM    1  N   UNL     1      -9.340   8.375  65.861  1.00  0.00    -0.387 NA 
HETATM    2  C   UNL     1     -10.137   9.337  66.377  1.00  0.00    -0.267 C  
HETATM    3  H2  UNL     1      -9.170   7.474  66.306  1.00  0.00     0.000 HD 
HETATM    4  H1  UNL     1      -8.929   8.662  64.973  1.00  0.00     0.000 HD 
HETATM    5  N   UNL     1     -10.681   8.959  67.552  1.00  0.00    -0.447 NA 
HETATM    6  N   UNL     1     -10.265  10.446  65.747  1.00  0.00    -0.255 NA 
HETATM    7  H1  UNL     1     -11.282   9.684  67.941  1.00  0.00     0.000 HD 
HETATM    8  H2  UNL     1     -10.511   8.057  67.998  1.00  0.00     0.000 HD 
HETATM    9  H   UNL     1      -9.842  10.581  64.828  1.00  0.00     0.000 HD 
ENDROOT
BRANCH   6  10
HETATM   10  C   UNL     1     -11.036  11.516  66.387  1.00  0.00    -0.269 C  
BRANCH  10  11
HETATM   11  C   UNL     1     -10.291  12.852  66.385  1.00  0.00    -0.268 C  
HETATM   12  C   UNL     1      -9.371  12.947  67.583  1.00  0.00    -0.195 C  
HETATM   13  O   UNL     1      -9.255  14.342  67.830  1.00  0.00    -0.184 OA 
HETATM   14  C   UNL     1     -10.496  14.905  67.387  1.00  0.00    -0.255 C  
HETATM   15  O   UNL     1     -11.181  13.970  66.544  1.00  0.00    -0.309 OA 
HETATM   16  C   UNL     1     -10.187  16.209  66.645  1.00  0.00    -0.291 C  
HETATM   17  C   UNL     1      -9.598  17.261  67.591  1.00  0.00    -0.256 C  
HETATM   18  C   UNL     1     -10.501  17.509  68.797  1.00  0.00    -0.318 C  
HETATM   19  C   UNL     1     -10.854  16.218  69.529  1.00  0.00    -0.342 C  
HETATM   20  C   UNL     1     -11.422  15.174  68.578  1.00  0.00    -0.335 C  
ENDBRANCH  10  11
ENDBRANCH   6  10
TORSDOF 2
ENDMDL
MODEL      118
REMARK 921   NORMALIZED FREE ENERGY PREDICTED BY IDOCK:   -3.93 KCAL/MOL
REMARK 922        TOTAL FREE ENERGY PREDICTED BY IDOCK:   -4.53 KCAL/MOL
REMARK 923 INTER-LIGAND FREE ENERGY PREDICTED BY IDOCK:   -4.09 KCAL/MOL
REMARK 924 INTRA-LIGAND FREE ENERGY PREDICTED BY IDOCK:   -0.45 KCAL/MOL
REMARK 927      BINDING AFFINITY PREDICTED BY RF-SCORE:    0.00 PKD
ROOT
HETATM    1  N   UNL     1      -8.653   4.506  70.204  1.00  0.00    -0.076 NA 
HETATM    2  C   UNL     1      -8.478   5.831  70.007  1.00  0.00    -0.124 C  
HETATM    3  H2  UNL     1      -9.073   3.877  69.521  1.00  0.00     0.000 HD 
HETATM    4  H1  UNL     1      -8.314   4.212  71.120  1.00  0.00     0.000 HD 
HETATM    5  N   UNL     1      -8.926   6.220  68.795  1.00  0.00    -0.125 NA 
HETATM    6  N   UNL     1      -7.960   6.539  70.942  1.00  0.00    -0.110 NA 
HETATM    7  H1  UNL     1      -8.795   7.220  68.646  1.00  0.00     0.000 HD 
HETATM    8  H2  UNL     1      -9.346   5.591  68.111  1.00  0.00     0.000 HD 
HETATM    9  H   UNL     1      -7.604   6.105  71.794  1.00  0.00     0.000 HD 
ENDROOT
BRANCH   6  10
HETATM   10  C   UNL     1      -7.893   7.991  70.750  1.00  0.00    -0.091 C  
BRANCH  10  11
HETATM   11  C   UNL     1      -9.088   8.716  71.373  1.00  0.00    -0.229 C  
HETATM   12  C   UNL     1      -9.537   8.008  72.633  1.00  0.00    -0.259 C  
HETATM   13  O   UNL     1     -10.917   8.327  72.744  1.00  0.00    -0.354 OA 
HETATM   14  C   UNL     1     -11.371   8.502  71.396  1.00  0.00    -0.271 C  
HETATM   15  O   UNL     1     -10.247   8.678  70.524  1.00  0.00    -0.188 OA 
HETATM   16  C   UNL     1     -12.304   9.715  71.362  1.00  0.00    -0.468 C  
HETATM   17  C   UNL     1     -13.579   9.459  72.172  1.00  0.00    -0.528 C  
HETATM   18  C   UNL     1     -14.299   8.193  71.711  1.00  0.00    -0.582 C  
HETATM   19  C   UNL     1     -13.377   6.978  71.699  1.00  0.00    -0.356 C  
HETATM   20  C   UNL     1     -12.106   7.248  70.907  1.00  0.00    -0.326 C  
ENDBRANCH  10  11
ENDBRANCH   6  10
TORSDOF 2
ENDMDL
MODEL      119
REMARK 921   NORMALIZED FREE ENERGY PREDICTED BY IDOCK:   -3.92 KCAL/MOL
REMARK 922        TOTAL FREE ENERGY PREDICTED BY IDOCK:   -4.52 KCAL/MOL
REMARK 923 INTER-LIGAND FREE ENERGY PREDICTED BY IDOCK:   -4.19 KCAL/MOL
REMARK 924 INTRA-LIGAND FREE ENERGY PREDICTED BY IDOCK:   -0.32 KCAL/MOL
REMARK 927      BINDING AFFINITY PREDICTED BY RF-SCORE:    0.00 PKD
ROOT
HETATM    1  N   UNL     1      -6.455  10.878  67.562  1.00  0.00    -0.057 NA 
HETATM    2  C   UNL     1      -7.284  11.734  68.199  1.00  0.00    -0.086 C  
HETATM    3  H2  UNL     1      -6.313   9.908  67.839  1.00  0.00     0.000 HD 
HETATM    4  H1  UNL     1      -5.988  11.322  66.771  1.00  0.00     0.000 HD 
HETATM    5  N   UNL     1      -7.901  11.147  69.246  1.00  0.00    -0.343 NA 
HETATM    6  N   UNL     1      -7.373  12.944  67.783  1.00  0.00    -0.119 NA 
HETATM    7  H1  UNL     1      -8.527  11.794  69.726  1.00  0.00     0.000 HD 
HETATM    8  H2  UNL     1      -7.760  10.177  69.523  1.00  0.00     0.000 HD 
HETATM    9  H   UNL     1      -6.893  13.244  66.935  1.00  0.00     0.000 HD 
ENDROOT
BRANCH   6  10
HETATM   10  C   UNL     1      -8.185  13.882  68.564  1.00  0.00    -0.131 C  
BRANCH  10  11
HETATM   11  C   UNL     1      -9.420  14.360  67.796  1.00  0.00    -0.211 C  
HETATM   12  C   UNL     1     -10.598  13.452  68.073  1.00  0.00    -0.243 C  
HETATM   13  O   UNL     1     -11.413  13.567  66.914  1.00  0.00    -0.316 OA 
HETATM   14  C   UNL     1     -10.502  13.841  65.842  1.00  0.00    -0.297 C  
HETATM   15  O   UNL     1      -9.241  14.270  66.373  1.00  0.00    -0.264 OA 
HETATM   16  C   UNL     1     -11.130  14.914  64.948  1.00  0.00    -0.424 C  
HETATM   17  C   UNL     1     -12.396  14.393  64.260  1.00  0.00    -0.402 C  
HETATM   18  C   UNL     1     -12.130  13.107  63.479  1.00  0.00    -0.585 C  
HETATM   19  C   UNL     1     -11.468  12.036  64.342  1.00  0.00    -0.413 C  
HETATM   20  C   UNL     1     -10.221  12.568  65.035  1.00  0.00    -0.301 C  
ENDBRANCH  10  11
ENDBRANCH   6  10
TORSDOF 2
ENDMDL
MODEL      120
REMARK 921   NORMALIZED FREE ENERGY PREDICTED BY IDOCK:   -3.90 KCAL/MOL
REMARK 922        TOTAL FREE ENERGY PREDICTED BY IDOCK:   -4.50 KCAL/MOL
REMARK 923 INTER-LIGAND FREE ENERGY PREDICTED BY IDOCK:   -4.38 KCAL/MOL
REMARK 924 INTRA-LIGAND FREE ENERGY PREDICTED BY IDOCK:   -0.12 KCAL/MOL
REMARK 927      BINDING AFFINITY PREDICTED BY RF-SCORE:    0.00 PKD
ROOT
HETATM    1  N   UNL     1     -12.295  14.245  63.527  1.00  0.00    -1.122 NA 
HETATM    2  C   UNL     1     -11.995  12.930  63.611  1.00  0.00    -0.541 C  
HETATM    3  H2  UNL     1     -13.143  14.610  63.095  1.00  0.00     0.000 HD 
HETATM    4  H1  UNL     1     -11.571  14.826  63.949  1.00  0.00     0.000 HD 
HETATM    5  N   UNL     1     -12.952  12.161  63.052  1.00  0.00    -0.633 NA 
HETATM    6  N   UNL     1     -10.889  12.576  64.155  1.00  0.00    -0.351 NA 
HETATM    7  H1  UNL     1     -12.725  11.169  63.115  1.00  0.00     0.000 HD 
HETATM    8  H2  UNL     1     -13.800  12.527  62.619  1.00  0.00     0.000 HD 
HETATM    9  H   UNL     1     -10.277  13.262  64.597  1.00  0.00     0.000 HD 
ENDROOT
BRANCH   6  10
HETATM   10  C   UNL     1     -10.531  11.154  64.124  1.00  0.00    -0.377 C  
BRANCH  10  11
HETATM   11  C   UNL     1      -9.277  10.852  64.948  1.00  0.00    -0.204 C  
HETATM   12  C   UNL     1      -8.315   9.996  64.153  1.00  0.00    -0.167 C  
HETATM   13  O   UNL     1      -7.579   9.284  65.139  1.00  0.00    -0.102 OA 
HETATM   14  C   UNL     1      -8.479   9.138  66.245  1.00  0.00    -0.124 C  
HETATM   15  O   UNL     1      -9.571  10.056  66.109  1.00  0.00    -0.183 OA 
HETATM   16  C   UNL     1      -7.691   9.390  67.534  1.00  0.00    -0.091 C  
HETATM   17  C   UNL     1      -6.625   8.311  67.754  1.00  0.00    -0.061 C  
HETATM   18  C   UNL     1      -7.226   6.907  67.737  1.00  0.00    -0.091 C  
HETATM   19  C   UNL     1      -8.048   6.648  66.478  1.00  0.00    -0.111 C  
HETATM   20  C   UNL     1      -9.093   7.734  66.259  1.00  0.00    -0.221 C  
ENDBRANCH  10  11
ENDBRANCH   6  10
TORSDOF 2
ENDMDL
MODEL      121
REMARK 921   NORMALIZED FREE ENERGY PREDICTED BY IDOCK:   -3.90 KCAL/MOL
REMARK 922        TOTAL FREE ENERGY PREDICTED BY IDOCK:   -4.49 KCAL/MOL
REMARK 923 INTER-LIGAND FREE ENERGY PREDICTED BY IDOCK:   -4.26 KCAL/MOL
REMARK 924 INTRA-LIGAND FREE ENERGY PREDICTED BY IDOCK:   -0.23 KCAL/MOL
REMARK 927      BINDING AFFINITY PREDICTED BY RF-SCORE:    0.00 PKD
ROOT
HETATM    1  N   UNL     1     -10.765   5.626  68.874  1.00  0.00    -0.239 NA 
HETATM    2  C   UNL     1     -10.984   6.442  69.928  1.00  0.00    -0.348 C  
HETATM    3  H2  UNL     1     -10.311   4.715  68.942  1.00  0.00     0.000 HD 
HETATM    4  H1  UNL     1     -11.108   6.032  68.004  1.00  0.00     0.000 HD 
HETATM    5  N   UNL     1     -10.530   5.906  71.080  1.00  0.00    -0.223 NA 
HETATM    6  N   UNL     1     -11.542   7.580  69.732  1.00  0.00    -0.466 NA 
HETATM    7  H1  UNL     1     -10.695   6.522  71.875  1.00  0.00     0.000 HD 
HETATM    8  H2  UNL     1     -10.076   4.995  71.147  1.00  0.00     0.000 HD 
HETATM    9  H   UNL     1     -11.896   7.839  68.811  1.00  0.00     0.000 HD 
ENDROOT
BRANCH   6  10
HETATM   10  C   UNL     1     -11.658   8.496  70.871  1.00  0.00    -0.263 C  
BRANCH  10  11
HETATM   11  C   UNL     1     -11.017   9.857  70.590  1.00  0.00    -0.337 C  
HETATM   12  C   UNL     1     -12.067  10.947  70.593  1.00  0.00    -0.371 C  
HETATM   13  O   UNL     1     -11.534  11.953  69.743  1.00  0.00    -0.278 OA 
HETATM   14  C   UNL     1     -10.726  11.249  68.791  1.00  0.00    -0.203 C  
HETATM   15  O   UNL     1     -10.451   9.926  69.270  1.00  0.00    -0.197 OA 
HETATM   16  C   UNL     1      -9.437  12.049  68.579  1.00  0.00    -0.136 C  
HETATM   17  C   UNL     1      -9.724  13.402  67.921  1.00  0.00    -0.226 C  
HETATM   18  C   UNL     1     -10.500  13.245  66.615  1.00  0.00    -0.279 C  
HETATM   19  C   UNL     1     -11.769  12.418  66.794  1.00  0.00    -0.430 C  
HETATM   20  C   UNL     1     -11.476  11.083  67.465  1.00  0.00    -0.266 C  
ENDBRANCH  10  11
ENDBRANCH   6  10
TORSDOF 2
ENDMDL
MODEL      122
REMARK 921   NORMALIZED FREE ENERGY PREDICTED BY IDOCK:   -3.89 KCAL/MOL
REMARK 922        TOTAL FREE ENERGY PREDICTED BY IDOCK:   -4.48 KCAL/MOL
REMARK 923 INTER-LIGAND FREE ENERGY PREDICTED BY IDOCK:   -4.31 KCAL/MOL
REMARK 924 INTRA-LIGAND FREE ENERGY PREDICTED BY IDOCK:   -0.17 KCAL/MOL
REMARK 927      BINDING AFFINITY PREDICTED BY RF-SCORE:    0.00 PKD
ROOT
HETATM    1  N   UNL     1     -14.087   8.906  73.267  1.00  0.00    -1.248 NA 
HETATM    2  C   UNL     1     -13.518   9.002  72.046  1.00  0.00    -0.442 C  
HETATM    3  H2  UNL     1     -15.017   8.524  73.436  1.00  0.00     0.000 HD 
HETATM    4  H1  UNL     1     -13.474   9.263  74.000  1.00  0.00     0.000 HD 
HETATM    5  N   UNL     1     -14.330   8.531  71.076  1.00  0.00    -0.631 NA 
HETATM    6  N   UNL     1     -12.350   9.521  71.940  1.00  0.00    -0.381 NA 
HETATM    7  H1  UNL     1     -13.899   8.603  70.155  1.00  0.00     0.000 HD 
HETATM    8  H2  UNL     1     -15.260   8.148  71.245  1.00  0.00     0.000 HD 
HETATM    9  H   UNL     1     -11.815   9.784  72.768  1.00  0.00     0.000 HD 
ENDROOT
BRANCH   6  10
HETATM   10  C   UNL     1     -11.806   9.724  70.594  1.00  0.00    -0.281 C  
BRANCH  10  11
HETATM   11  C   UNL     1     -10.857   8.599  70.174  1.00  0.00    -0.233 C  
HETATM   12  C   UNL     1      -9.669   8.533  71.109  1.00  0.00    -0.201 C  
HETATM   13  O   UNL     1      -8.630   7.970  70.319  1.00  0.00    -0.129 OA 
HETATM   14  C   UNL     1      -8.913   8.385  68.977  1.00  0.00    -0.147 C  
HETATM   15  O   UNL     1     -10.269   8.840  68.884  1.00  0.00    -0.197 OA 
HETATM   16  C   UNL     1      -8.654   7.196  68.047  1.00  0.00    -0.128 C  
HETATM   17  C   UNL     1      -7.170   6.815  68.033  1.00  0.00    -0.091 C  
HETATM   18  C   UNL     1      -6.282   8.004  67.672  1.00  0.00    -0.052 C  
HETATM   19  C   UNL     1      -6.550   9.215  68.561  1.00  0.00    -0.055 C  
HETATM   20  C   UNL     1      -8.030   9.575  68.583  1.00  0.00    -0.092 C  
ENDBRANCH  10  11
ENDBRANCH   6  10
TORSDOF 2
ENDMDL
MODEL      123
REMARK 921   NORMALIZED FREE ENERGY PREDICTED BY IDOCK:   -3.87 KCAL/MOL
REMARK 922        TOTAL FREE ENERGY PREDICTED BY IDOCK:   -4.46 KCAL/MOL
REMARK 923 INTER-LIGAND FREE ENERGY PREDICTED BY IDOCK:   -4.28 KCAL/MOL
REMARK 924 INTRA-LIGAND FREE ENERGY PREDICTED BY IDOCK:   -0.18 KCAL/MOL
REMARK 927      BINDING AFFINITY PREDICTED BY RF-SCORE:    0.00 PKD
ROOT
HETATM    1  N   UNL     1      -9.736  14.287  65.565  1.00  0.00    -0.542 NA 
HETATM    2  C   UNL     1     -10.443  13.265  66.096  1.00  0.00    -0.293 C  
HETATM    3  H2  UNL     1     -10.065  15.251  65.529  1.00  0.00     0.000 HD 
HETATM    4  H1  UNL     1      -8.834  13.976  65.204  1.00  0.00     0.000 HD 
HETATM    5  N   UNL     1     -11.636  13.676  66.573  1.00  0.00    -0.349 NA 
HETATM    6  N   UNL     1      -9.947  12.083  66.070  1.00  0.00    -0.229 NA 
HETATM    7  H1  UNL     1     -12.169  12.905  66.974  1.00  0.00     0.000 HD 
HETATM    8  H2  UNL     1     -11.965  14.641  66.538  1.00  0.00     0.000 HD 
HETATM    9  H   UNL     1      -8.999  11.918  65.731  1.00  0.00     0.000 HD 
ENDROOT
BRANCH   6  10
HETATM   10  C   UNL     1     -10.784  10.974  66.541  1.00  0.00    -0.241 C  
BRANCH  10  11
HETATM   11  C   UNL     1     -10.043  10.064  67.523  1.00  0.00    -0.198 C  
HETATM   12  C   UNL     1     -10.759   8.738  67.657  1.00  0.00    -0.136 C  
HETATM   13  O   UNL     1     -10.413   8.280  68.958  1.00  0.00    -0.219 OA 
HETATM   14  C   UNL     1     -10.210   9.469  69.732  1.00  0.00    -0.228 C  
HETATM   15  O   UNL     1     -10.045  10.594  68.860  1.00  0.00    -0.184 OA 
HETATM   16  C   UNL     1      -8.976   9.256  70.614  1.00  0.00    -0.296 C  
HETATM   17  C   UNL     1      -9.218   8.153  71.650  1.00  0.00    -0.220 C  
HETATM   18  C   UNL     1     -10.461   8.428  72.493  1.00  0.00    -0.372 C  
HETATM   19  C   UNL     1     -11.696   8.682  71.633  1.00  0.00    -0.380 C  
HETATM   20  C   UNL     1     -11.441   9.766  70.595  1.00  0.00    -0.397 C  
ENDBRANCH  10  11
ENDBRANCH   6  10
TORSDOF 2
ENDMDL
MODEL      124
REMARK 921   NORMALIZED FREE ENERGY PREDICTED BY IDOCK:   -3.86 KCAL/MOL
REMARK 922        TOTAL FREE ENERGY PREDICTED BY IDOCK:   -4.45 KCAL/MOL
REMARK 923 INTER-LIGAND FREE ENERGY PREDICTED BY IDOCK:   -4.04 KCAL/MOL
REMARK 924 INTRA-LIGAND FREE ENERGY PREDICTED BY IDOCK:   -0.40 KCAL/MOL
REMARK 927      BINDING AFFINITY PREDICTED BY RF-SCORE:    0.00 PKD
ROOT
HETATM    1  N   UNL     1     -10.937   8.830  72.505  1.00  0.00    -0.163 NA 
HETATM    2  C   UNL     1     -10.941   8.363  71.237  1.00  0.00    -0.252 C  
HETATM    3  H2  UNL     1     -11.779   9.042  73.039  1.00  0.00     0.000 HD 
HETATM    4  H1  UNL     1      -9.989   8.944  72.863  1.00  0.00     0.000 HD 
HETATM    5  N   UNL     1     -12.195   8.213  70.763  1.00  0.00    -0.496 NA 
HETATM    6  N   UNL     1      -9.823   8.150  70.647  1.00  0.00    -0.181 NA 
HETATM    7  H1  UNL     1     -12.198   7.861  69.806  1.00  0.00     0.000 HD 
HETATM    8  H2  UNL     1     -13.038   8.425  71.297  1.00  0.00     0.000 HD 
HETATM    9  H   UNL     1      -8.938   8.248  71.145  1.00  0.00     0.000 HD 
ENDROOT
BRANCH   6  10
HETATM   10  C   UNL     1      -9.854   7.761  69.233  1.00  0.00    -0.173 C  
BRANCH  10  11
HETATM   11  C   UNL     1      -9.729   8.964  68.296  1.00  0.00    -0.157 C  
HETATM   12  C   UNL     1      -8.980  10.089  68.977  1.00  0.00    -0.163 C  
HETATM   13  O   UNL     1      -9.462  11.267  68.344  1.00  0.00    -0.179 OA 
HETATM   14  C   UNL     1     -10.806  10.960  67.953  1.00  0.00    -0.247 C  
HETATM   15  O   UNL     1     -11.008   9.541  67.981  1.00  0.00    -0.203 OA 
HETATM   16  C   UNL     1     -11.035  11.532  66.551  1.00  0.00    -0.346 C  
HETATM   17  C   UNL     1     -10.972  13.063  66.559  1.00  0.00    -0.307 C  
HETATM   18  C   UNL     1     -11.946  13.666  67.570  1.00  0.00    -0.393 C  
HETATM   19  C   UNL     1     -11.761  13.081  68.967  1.00  0.00    -0.376 C  
HETATM   20  C   UNL     1     -11.807  11.559  68.946  1.00  0.00    -0.406 C  
ENDBRANCH  10  11
ENDBRANCH   6  10
TORSDOF 2
ENDMDL
MODEL      125
REMARK 921   NORMALIZED FREE ENERGY PREDICTED BY IDOCK:   -3.85 KCAL/MOL
REMARK 922        TOTAL FREE ENERGY PREDICTED BY IDOCK:   -4.44 KCAL/MOL
REMARK 923 INTER-LIGAND FREE ENERGY PREDICTED BY IDOCK:   -4.20 KCAL/MOL
REMARK 924 INTRA-LIGAND FREE ENERGY PREDICTED BY IDOCK:   -0.23 KCAL/MOL
REMARK 927      BINDING AFFINITY PREDICTED BY RF-SCORE:    0.00 PKD
ROOT
HETATM    1  N   UNL     1      -6.890  12.638  67.020  1.00  0.00    -0.376 NA 
HETATM    2  C   UNL     1      -6.716  13.665  67.880  1.00  0.00    -0.153 C  
HETATM    3  H2  UNL     1      -7.490  11.835  67.203  1.00  0.00     0.000 HD 
HETATM    4  H1  UNL     1      -6.348  12.765  66.165  1.00  0.00     0.000 HD 
HETATM    5  N   UNL     1      -7.432  13.498  69.011  1.00  0.00    -0.287 NA 
HETATM    6  N   UNL     1      -5.919  14.618  67.562  1.00  0.00    -0.349 NA 
HETATM    7  H1  UNL     1      -7.301  14.273  69.661  1.00  0.00     0.000 HD 
HETATM    8  H2  UNL     1      -8.032  12.695  69.195  1.00  0.00     0.000 HD 
HETATM    9  H   UNL     1      -5.483  14.653  66.641  1.00  0.00     0.000 HD 
ENDROOT
BRANCH   6  10
HETATM   10  C   UNL     1      -5.654  15.658  68.562  1.00  0.00    -0.103 C  
BRANCH  10  11
HETATM   11  C   UNL     1      -6.115  17.041  68.099  1.00  0.00    -0.130 C  
HETATM   12  C   UNL     1      -6.914  17.725  69.187  1.00  0.00    -0.209 C  
HETATM   13  O   UNL     1      -7.775  18.613  68.487  1.00  0.00    -0.298 OA 
HETATM   14  C   UNL     1      -8.011  17.986  67.221  1.00  0.00    -0.212 C  
HETATM   15  O   UNL     1      -7.031  16.965  66.993  1.00  0.00    -0.160 OA 
HETATM   16  C   UNL     1      -7.957  19.067  66.138  1.00  0.00    -0.273 C  
HETATM   17  C   UNL     1      -9.105  20.070  66.296  1.00  0.00    -0.402 C  
HETATM   18  C   UNL     1     -10.466  19.376  66.319  1.00  0.00    -0.586 C  
HETATM   19  C   UNL     1     -10.529  18.268  67.366  1.00  0.00    -0.430 C  
HETATM   20  C   UNL     1      -9.375  17.287  67.211  1.00  0.00    -0.237 C  
ENDBRANCH  10  11
ENDBRANCH   6  10
TORSDOF 2
ENDMDL
MODEL      126
REMARK 921   NORMALIZED FREE ENERGY PREDICTED BY IDOCK:   -3.85 KCAL/MOL
REMARK 922        TOTAL FREE ENERGY PREDICTED BY IDOCK:   -4.44 KCAL/MOL
REMARK 923 INTER-LIGAND FREE ENERGY PREDICTED BY IDOCK:   -4.20 KCAL/MOL
REMARK 924 INTRA-LIGAND FREE ENERGY PREDICTED BY IDOCK:   -0.24 KCAL/MOL
REMARK 927      BINDING AFFINITY PREDICTED BY RF-SCORE:    0.00 PKD
ROOT
HETATM    1  N   UNL     1     -12.003   7.895  72.597  1.00  0.00    -0.582 NA 
HETATM    2  C   UNL     1     -12.048   7.230  71.422  1.00  0.00    -0.335 C  
HETATM    3  H2  UNL     1     -12.799   8.384  73.008  1.00  0.00     0.000 HD 
HETATM    4  H1  UNL     1     -11.078   7.850  73.023  1.00  0.00     0.000 HD 
HETATM    5  N   UNL     1     -13.272   7.290  70.858  1.00  0.00    -0.583 NA 
HETATM    6  N   UNL     1     -10.982   6.668  70.982  1.00  0.00    -0.247 NA 
HETATM    7  H1  UNL     1     -13.305   6.788  69.971  1.00  0.00     0.000 HD 
HETATM    8  H2  UNL     1     -14.068   7.778  71.269  1.00  0.00     0.000 HD 
HETATM    9  H   UNL     1     -10.130   6.646  71.543  1.00  0.00     0.000 HD 
ENDROOT
BRANCH   6  10
HETATM   10  C   UNL     1     -11.026   6.058  69.650  1.00  0.00    -0.400 C  
BRANCH  10  11
HETATM   11  C   UNL     1     -10.181   6.826  68.631  1.00  0.00    -0.175 C  
HETATM   12  C   UNL     1      -9.237   7.776  69.335  1.00  0.00    -0.149 C  
HETATM   13  O   UNL     1      -9.011   8.814  68.390  1.00  0.00    -0.140 OA 
HETATM   14  C   UNL     1     -10.213   8.881  67.613  1.00  0.00    -0.237 C  
HETATM   15  O   UNL     1     -10.982   7.685  67.801  1.00  0.00    -0.102 OA 
HETATM   16  C   UNL     1      -9.820   9.070  66.145  1.00  0.00    -0.349 C  
HETATM   17  C   UNL     1      -9.136  10.423  65.923  1.00  0.00    -0.192 C  
HETATM   18  C   UNL     1      -9.998  11.583  66.420  1.00  0.00    -0.241 C  
HETATM   19  C   UNL     1     -10.435  11.396  67.870  1.00  0.00    -0.212 C  
HETATM   20  C   UNL     1     -11.096  10.041  68.085  1.00  0.00    -0.252 C  
ENDBRANCH  10  11
ENDBRANCH   6  10
TORSDOF 2
ENDMDL
MODEL      127
REMARK 921   NORMALIZED FREE ENERGY PREDICTED BY IDOCK:   -3.83 KCAL/MOL
REMARK 922        TOTAL FREE ENERGY PREDICTED BY IDOCK:   -4.42 KCAL/MOL
REMARK 923 INTER-LIGAND FREE ENERGY PREDICTED BY IDOCK:   -4.24 KCAL/MOL
REMARK 924 INTRA-LIGAND FREE ENERGY PREDICTED BY IDOCK:   -0.18 KCAL/MOL
REMARK 927      BINDING AFFINITY PREDICTED BY RF-SCORE:    0.00 PKD
ROOT
HETATM    1  N   UNL     1     -13.428  14.167  65.438  1.00  0.00    -0.541 NA 
HETATM    2  C   UNL     1     -12.648  13.071  65.563  1.00  0.00    -0.362 C  
HETATM    3  H2  UNL     1     -14.092  14.313  64.679  1.00  0.00     0.000 HD 
HETATM    4  H1  UNL     1     -13.270  14.831  66.196  1.00  0.00     0.000 HD 
HETATM    5  N   UNL     1     -12.856  12.192  64.560  1.00  0.00    -0.635 NA 
HETATM    6  N   UNL     1     -11.827  12.997  66.545  1.00  0.00    -0.391 NA 
HETATM    7  H1  UNL     1     -12.267  11.365  64.654  1.00  0.00     0.000 HD 
HETATM    8  H2  UNL     1     -13.520  12.338  63.800  1.00  0.00     0.000 HD 
HETATM    9  H   UNL     1     -11.813  13.710  67.273  1.00  0.00     0.000 HD 
ENDROOT
BRANCH   6  10
HETATM   10  C   UNL     1     -10.908  11.855  66.589  1.00  0.00    -0.276 C  
BRANCH  10  11
HETATM   11  C   UNL     1     -11.355  10.787  67.589  1.00  0.00    -0.252 C  
HETATM   12  C   UNL     1     -11.565  11.398  68.957  1.00  0.00    -0.317 C  
HETATM   13  O   UNL     1     -11.340  10.325  69.862  1.00  0.00    -0.254 OA 
HETATM   14  C   UNL     1     -10.393   9.473  69.204  1.00  0.00    -0.207 C  
HETATM   15  O   UNL     1     -10.342   9.790  67.807  1.00  0.00    -0.195 OA 
HETATM   16  C   UNL     1     -10.820   8.021  69.435  1.00  0.00    -0.104 C  
HETATM   17  C   UNL     1     -10.722   7.642  70.917  1.00  0.00    -0.243 C  
HETATM   18  C   UNL     1      -9.327   7.906  71.479  1.00  0.00    -0.179 C  
HETATM   19  C   UNL     1      -8.865   9.338  71.226  1.00  0.00    -0.057 C  
HETATM   20  C   UNL     1      -8.982   9.711  69.754  1.00  0.00    -0.226 C  
ENDBRANCH  10  11
ENDBRANCH   6  10
TORSDOF 2
ENDMDL
MODEL      128
REMARK 921   NORMALIZED FREE ENERGY PREDICTED BY IDOCK:   -3.82 KCAL/MOL
REMARK 922        TOTAL FREE ENERGY PREDICTED BY IDOCK:   -4.41 KCAL/MOL
REMARK 923 INTER-LIGAND FREE ENERGY PREDICTED BY IDOCK:   -4.18 KCAL/MOL
REMARK 924 INTRA-LIGAND FREE ENERGY PREDICTED BY IDOCK:   -0.22 KCAL/MOL
REMARK 927      BINDING AFFINITY PREDICTED BY RF-SCORE:    0.00 PKD
ROOT
HETATM    1  N   UNL     1     -13.051  14.807  70.757  1.00  0.00    -0.484 NA 
HETATM    2  C   UNL     1     -12.363  14.147  69.799  1.00  0.00    -0.299 C  
HETATM    3  H2  UNL     1     -13.144  14.483  71.719  1.00  0.00     0.000 HD 
HETATM    4  H1  UNL     1     -13.465  15.668  70.400  1.00  0.00     0.000 HD 
HETATM    5  N   UNL     1     -11.815  13.008  70.271  1.00  0.00    -0.532 NA 
HETATM    6  N   UNL     1     -12.326  14.630  68.612  1.00  0.00    -0.593 NA 
HETATM    7  H1  UNL     1     -11.296  12.510  69.548  1.00  0.00     0.000 HD 
HETATM    8  H2  UNL     1     -11.909  12.684  71.233  1.00  0.00     0.000 HD 
HETATM    9  H   UNL     1     -12.735  15.540  68.402  1.00  0.00     0.000 HD 
ENDROOT
BRANCH   6  10
HETATM   10  C   UNL     1     -11.676  13.835  67.565  1.00  0.00    -0.375 C  
BRANCH  10  11
HETATM   11  C   UNL     1     -10.480  14.558  66.943  1.00  0.00    -0.269 C  
HETATM   12  C   UNL     1      -9.323  13.600  66.754  1.00  0.00    -0.261 C  
HETATM   13  O   UNL     1      -8.169  14.428  66.803  1.00  0.00    -0.098 OA 
HETATM   14  C   UNL     1      -8.525  15.518  67.662  1.00  0.00    -0.166 C  
HETATM   15  O   UNL     1      -9.950  15.573  67.813  1.00  0.00    -0.221 OA 
HETATM   16  C   UNL     1      -7.976  16.808  67.045  1.00  0.00    -0.231 C  
HETATM   17  C   UNL     1      -6.443  16.808  67.030  1.00  0.00    -0.229 C  
HETATM   18  C   UNL     1      -5.863  16.568  68.423  1.00  0.00    -0.120 C  
HETATM   19  C   UNL     1      -6.426  15.308  69.073  1.00  0.00    -0.111 C  
HETATM   20  C   UNL     1      -7.949  15.309  69.066  1.00  0.00    -0.195 C  
ENDBRANCH  10  11
ENDBRANCH   6  10
TORSDOF 2
ENDMDL
MODEL      129
REMARK 921   NORMALIZED FREE ENERGY PREDICTED BY IDOCK:   -3.82 KCAL/MOL
REMARK 922        TOTAL FREE ENERGY PREDICTED BY IDOCK:   -4.40 KCAL/MOL
REMARK 923 INTER-LIGAND FREE ENERGY PREDICTED BY IDOCK:   -4.24 KCAL/MOL
REMARK 924 INTRA-LIGAND FREE ENERGY PREDICTED BY IDOCK:   -0.16 KCAL/MOL
REMARK 927      BINDING AFFINITY PREDICTED BY RF-SCORE:    0.00 PKD
ROOT
HETATM    1  N   UNL     1     -11.093  14.902  65.156  1.00  0.00    -0.371 NA 
HETATM    2  C   UNL     1     -10.477  13.700  65.179  1.00  0.00    -0.374 C  
HETATM    3  H2  UNL     1     -11.294  15.425  64.304  1.00  0.00     0.000 HD 
HETATM    4  H1  UNL     1     -11.332  15.222  66.095  1.00  0.00     0.000 HD 
HETATM    5  N   UNL     1     -10.160  13.277  63.937  1.00  0.00    -0.731 NA 
HETATM    6  N   UNL     1     -10.250  13.136  66.307  1.00  0.00    -0.287 NA 
HETATM    7  H1  UNL     1      -9.694  12.370  63.955  1.00  0.00     0.000 HD 
HETATM    8  H2  UNL     1     -10.361  13.800  63.086  1.00  0.00     0.000 HD 
HETATM    9  H   UNL     1     -10.599  13.540  67.176  1.00  0.00     0.000 HD 
ENDROOT
BRANCH   6  10
HETATM   10  C   UNL     1      -9.472  11.892  66.312  1.00  0.00    -0.227 C  
BRANCH  10  11
HETATM   11  C   UNL     1     -10.324  10.676  66.680  1.00  0.00    -0.241 C  
HETATM   12  C   UNL     1     -10.713  10.725  68.142  1.00  0.00    -0.214 C  
HETATM   13  O   UNL     1     -10.901   9.363  68.503  1.00  0.00    -0.191 OA 
HETATM   14  C   UNL     1     -10.010   8.625  67.658  1.00  0.00    -0.194 C  
HETATM   15  O   UNL     1      -9.591   9.444  66.559  1.00  0.00    -0.175 OA 
HETATM   16  C   UNL     1     -10.744   7.370  67.175  1.00  0.00    -0.400 C  
HETATM   17  C   UNL     1     -11.051   6.423  68.340  1.00  0.00    -0.374 C  
HETATM   18  C   UNL     1      -9.791   6.061  69.124  1.00  0.00    -0.185 C  
HETATM   19  C   UNL     1      -9.022   7.297  69.582  1.00  0.00    -0.141 C  
HETATM   20  C   UNL     1      -8.738   8.240  68.421  1.00  0.00    -0.133 C  
ENDBRANCH  10  11
ENDBRANCH   6  10
TORSDOF 2
ENDMDL
MODEL      130
REMARK 921   NORMALIZED FREE ENERGY PREDICTED BY IDOCK:   -3.81 KCAL/MOL
REMARK 922        TOTAL FREE ENERGY PREDICTED BY IDOCK:   -4.39 KCAL/MOL
REMARK 923 INTER-LIGAND FREE ENERGY PREDICTED BY IDOCK:   -4.20 KCAL/MOL
REMARK 924 INTRA-LIGAND FREE ENERGY PREDICTED BY IDOCK:   -0.19 KCAL/MOL
REMARK 927      BINDING AFFINITY PREDICTED BY RF-SCORE:    0.00 PKD
ROOT
HETATM    1  N   UNL     1      -9.815  10.727  63.763  1.00  0.00    -0.312 NA 
HETATM    2  C   UNL     1      -9.277  10.188  64.879  1.00  0.00    -0.232 C  
HETATM    3  H2  UNL     1      -9.567  11.645  63.395  1.00  0.00     0.000 HD 
HETATM    4  H1  UNL     1     -10.499  10.104  63.334  1.00  0.00     0.000 HD 
HETATM    5  N   UNL     1      -8.372  11.013  65.447  1.00  0.00    -0.363 NA 
HETATM    6  N   UNL     1      -9.677   9.035  65.271  1.00  0.00    -0.412 NA 
HETATM    7  H1  UNL     1      -7.967  10.606  66.290  1.00  0.00     0.000 HD 
HETATM    8  H2  UNL     1      -8.124  11.930  65.079  1.00  0.00     0.000 HD 
HETATM    9  H   UNL     1     -10.329   8.486  64.710  1.00  0.00     0.000 HD 
ENDROOT
BRANCH   6  10
HETATM   10  C   UNL     1      -9.168   8.527  66.549  1.00  0.00    -0.190 C  
BRANCH  10  11
HETATM   11  C   UNL     1     -10.290   8.242  67.550  1.00  0.00    -0.265 C  
HETATM   12  C   UNL     1     -10.737   9.522  68.221  1.00  0.00    -0.194 C  
HETATM   13  O   UNL     1     -11.245   9.101  69.480  1.00  0.00    -0.118 OA 
HETATM   14  C   UNL     1     -10.498   7.924  69.811  1.00  0.00    -0.233 C  
HETATM   15  O   UNL     1      -9.846   7.416  68.640  1.00  0.00    -0.157 OA 
HETATM   16  C   UNL     1     -11.467   6.897  70.405  1.00  0.00    -0.387 C  
HETATM   17  C   UNL     1     -12.042   7.382  71.740  1.00  0.00    -0.345 C  
HETATM   18  C   UNL     1     -10.940   7.744  72.734  1.00  0.00    -0.447 C  
HETATM   19  C   UNL     1      -9.940   8.737  72.150  1.00  0.00    -0.359 C  
HETATM   20  C   UNL     1      -9.388   8.254  70.815  1.00  0.00    -0.183 C  
ENDBRANCH  10  11
ENDBRANCH   6  10
TORSDOF 2
ENDMDL
MODEL      131
REMARK 921   NORMALIZED FREE ENERGY PREDICTED BY IDOCK:   -3.81 KCAL/MOL
REMARK 922        TOTAL FREE ENERGY PREDICTED BY IDOCK:   -4.39 KCAL/MOL
REMARK 923 INTER-LIGAND FREE ENERGY PREDICTED BY IDOCK:   -4.24 KCAL/MOL
REMARK 924 INTRA-LIGAND FREE ENERGY PREDICTED BY IDOCK:   -0.15 KCAL/MOL
REMARK 927      BINDING AFFINITY PREDICTED BY RF-SCORE:    0.00 PKD
ROOT
HETATM    1  N   UNL     1      -9.330   3.608  64.953  1.00  0.00    -0.146 NA 
HETATM    2  C   UNL     1     -10.117   4.518  65.568  1.00  0.00    -0.222 C  
HETATM    3  H2  UNL     1      -9.641   3.003  64.194  1.00  0.00     0.000 HD 
HETATM    4  H1  UNL     1      -8.387   3.601  65.341  1.00  0.00     0.000 HD 
HETATM    5  N   UNL     1     -11.366   4.527  65.056  1.00  0.00    -1.108 NA 
HETATM    6  N   UNL     1      -9.634   5.214  66.529  1.00  0.00    -0.146 NA 
HETATM    7  H1  UNL     1     -11.960   5.213  65.520  1.00  0.00     0.000 HD 
HETATM    8  H2  UNL     1     -11.677   3.921  64.297  1.00  0.00     0.000 HD 
HETATM    9  H   UNL     1      -8.647   5.151  66.779  1.00  0.00     0.000 HD 
ENDROOT
BRANCH   6  10
HETATM   10  C   UNL     1     -10.541   6.105  67.259  1.00  0.00    -0.290 C  
BRANCH  10  11
HETATM   11  C   UNL     1      -9.873   6.745  68.478  1.00  0.00    -0.141 C  
HETATM   12  C   UNL     1      -8.965   5.749  69.166  1.00  0.00    -0.118 C  
HETATM   13  O   UNL     1      -8.929   6.181  70.520  1.00  0.00    -0.144 OA 
HETATM   14  C   UNL     1     -10.199   6.806  70.747  1.00  0.00    -0.195 C  
HETATM   15  O   UNL     1     -10.827   7.102  69.493  1.00  0.00    -0.239 OA 
HETATM   16  C   UNL     1      -9.963   8.075  71.571  1.00  0.00    -0.225 C  
HETATM   17  C   UNL     1      -9.438   7.739  72.971  1.00  0.00    -0.311 C  
HETATM   18  C   UNL     1     -10.358   6.765  73.704  1.00  0.00    -0.372 C  
HETATM   19  C   UNL     1     -10.638   5.509  72.885  1.00  0.00    -0.268 C  
HETATM   20  C   UNL     1     -11.143   5.853  71.490  1.00  0.00    -0.314 C  
ENDBRANCH  10  11
ENDBRANCH   6  10
TORSDOF 2
ENDMDL
MODEL      132
REMARK 921   NORMALIZED FREE ENERGY PREDICTED BY IDOCK:   -3.80 KCAL/MOL
REMARK 922        TOTAL FREE ENERGY PREDICTED BY IDOCK:   -4.39 KCAL/MOL
REMARK 923 INTER-LIGAND FREE ENERGY PREDICTED BY IDOCK:   -4.24 KCAL/MOL
REMARK 924 INTRA-LIGAND FREE ENERGY PREDICTED BY IDOCK:   -0.15 KCAL/MOL
REMARK 927      BINDING AFFINITY PREDICTED BY RF-SCORE:    0.00 PKD
ROOT
HETATM    1  N   UNL     1      -9.145  11.392  64.953  1.00  0.00    -0.407 NA 
HETATM    2  C   UNL     1      -8.639  11.445  66.204  1.00  0.00    -0.128 C  
HETATM    3  H2  UNL     1      -9.466  12.207  64.431  1.00  0.00     0.000 HD 
HETATM    4  H1  UNL     1      -9.168  10.437  64.594  1.00  0.00     0.000 HD 
HETATM    5  N   UNL     1      -8.609  12.708  66.679  1.00  0.00    -0.409 NA 
HETATM    6  N   UNL     1      -8.286  10.356  66.782  1.00  0.00    -0.124 NA 
HETATM    7  H1  UNL     1      -8.227  12.747  67.623  1.00  0.00     0.000 HD 
HETATM    8  H2  UNL     1      -8.929  13.523  66.157  1.00  0.00     0.000 HD 
HETATM    9  H   UNL     1      -8.304   9.467  66.282  1.00  0.00     0.000 HD 
ENDROOT
BRANCH   6  10
HETATM   10  C   UNL     1      -7.854  10.427  68.181  1.00  0.00    -0.108 C  
BRANCH  10  11
HETATM   11  C   UNL     1      -8.586   9.418  69.068  1.00  0.00    -0.135 C  
HETATM   12  C   UNL     1      -9.812   8.883  68.359  1.00  0.00    -0.174 C  
HETATM   13  O   UNL     1     -10.695   8.515  69.411  1.00  0.00    -0.222 OA 
HETATM   14  C   UNL     1     -10.386   9.408  70.489  1.00  0.00    -0.281 C  
HETATM   15  O   UNL     1      -9.113  10.026  70.260  1.00  0.00    -0.136 OA 
HETATM   16  C   UNL     1     -10.394   8.602  71.790  1.00  0.00    -0.386 C  
HETATM   17  C   UNL     1     -11.796   8.075  72.110  1.00  0.00    -0.401 C  
HETATM   18  C   UNL     1     -12.830   9.199  72.149  1.00  0.00    -0.486 C  
HETATM   19  C   UNL     1     -12.814  10.041  70.876  1.00  0.00    -0.408 C  
HETATM   20  C   UNL     1     -11.413  10.545  70.557  1.00  0.00    -0.433 C  
ENDBRANCH  10  11
ENDBRANCH   6  10
TORSDOF 2
ENDMDL
MODEL      133
REMARK 921   NORMALIZED FREE ENERGY PREDICTED BY IDOCK:   -3.80 KCAL/MOL
REMARK 922        TOTAL FREE ENERGY PREDICTED BY IDOCK:   -4.38 KCAL/MOL
REMARK 923 INTER-LIGAND FREE ENERGY PREDICTED BY IDOCK:   -4.56 KCAL/MOL
REMARK 924 INTRA-LIGAND FREE ENERGY PREDICTED BY IDOCK:    0.18 KCAL/MOL
REMARK 927      BINDING AFFINITY PREDICTED BY RF-SCORE:    0.00 PKD
ROOT
HETATM    1  N   UNL     1      -9.914   9.895  67.100  1.00  0.00    -0.189 NA 
HETATM    2  C   UNL     1     -10.416  11.063  66.642  1.00  0.00    -0.256 C  
HETATM    3  H2  UNL     1     -10.442   9.227  67.660  1.00  0.00     0.000 HD 
HETATM    4  H1  UNL     1      -8.943   9.764  66.817  1.00  0.00     0.000 HD 
HETATM    5  N   UNL     1     -11.700  11.237  67.016  1.00  0.00    -0.457 NA 
HETATM    6  N   UNL     1      -9.659  11.844  65.964  1.00  0.00    -0.233 NA 
HETATM    7  H1  UNL     1     -12.078  12.119  66.671  1.00  0.00     0.000 HD 
HETATM    8  H2  UNL     1     -12.229  10.569  67.577  1.00  0.00     0.000 HD 
HETATM    9  H   UNL     1      -8.716  11.561  65.697  1.00  0.00     0.000 HD 
ENDROOT
BRANCH   6  10
HETATM   10  C   UNL     1     -10.189  13.157  65.583  1.00  0.00    -0.286 C  
BRANCH  10  11
HETATM   11  C   UNL     1     -10.084  14.178  66.718  1.00  0.00    -0.262 C  
HETATM   12  C   UNL     1      -9.325  13.592  67.888  1.00  0.00    -0.215 C  
HETATM   13  O   UNL     1      -9.821  14.296  69.019  1.00  0.00    -0.178 OA 
HETATM   14  C   UNL     1     -11.171  14.640  68.683  1.00  0.00    -0.275 C  
HETATM   15  O   UNL     1     -11.370  14.509  67.270  1.00  0.00    -0.322 OA 
HETATM   16  C   UNL     1     -11.428  16.074  69.156  1.00  0.00    -0.347 C  
HETATM   17  C   UNL     1     -11.368  16.174  70.684  1.00  0.00    -0.394 C  
HETATM   18  C   UNL     1     -12.324  15.190  71.355  1.00  0.00    -0.411 C  
HETATM   19  C   UNL     1     -12.112  13.759  70.870  1.00  0.00    -0.366 C  
HETATM   20  C   UNL     1     -12.156  13.672  69.350  1.00  0.00    -0.364 C  
ENDBRANCH  10  11
ENDBRANCH   6  10
TORSDOF 2
ENDMDL
MODEL      134
REMARK 921   NORMALIZED FREE ENERGY PREDICTED BY IDOCK:   -3.77 KCAL/MOL
REMARK 922        TOTAL FREE ENERGY PREDICTED BY IDOCK:   -4.35 KCAL/MOL
REMARK 923 INTER-LIGAND FREE ENERGY PREDICTED BY IDOCK:   -4.16 KCAL/MOL
REMARK 924 INTRA-LIGAND FREE ENERGY PREDICTED BY IDOCK:   -0.19 KCAL/MOL
REMARK 927      BINDING AFFINITY PREDICTED BY RF-SCORE:    0.00 PKD
ROOT
HETATM    1  N   UNL     1      -5.441  18.433  66.872  1.00  0.00    -0.138 NA 
HETATM    2  C   UNL     1      -6.525  18.251  67.658  1.00  0.00    -0.191 C  
HETATM    3  H2  UNL     1      -4.484  18.239  67.164  1.00  0.00     0.000 HD 
HETATM    4  H1  UNL     1      -5.698  18.787  65.950  1.00  0.00     0.000 HD 
HETATM    5  N   UNL     1      -6.186  17.783  68.877  1.00  0.00    -0.199 NA 
HETATM    6  N   UNL     1      -7.685  18.548  67.201  1.00  0.00    -0.223 NA 
HETATM    7  H1  UNL     1      -7.004  17.646  69.471  1.00  0.00     0.000 HD 
HETATM    8  H2  UNL     1      -5.229  17.589  69.170  1.00  0.00     0.000 HD 
HETATM    9  H   UNL     1      -7.809  18.838  66.230  1.00  0.00     0.000 HD 
ENDROOT
BRANCH   6  10
HETATM   10  C   UNL     1      -8.829  18.458  68.113  1.00  0.00    -0.302 C  
BRANCH  10  11
HETATM   11  C   UNL     1      -9.538  17.104  68.025  1.00  0.00    -0.267 C  
HETATM   12  C   UNL     1     -11.021  17.298  67.793  1.00  0.00    -0.163 C  
HETATM   13  O   UNL     1     -11.619  16.134  68.348  1.00  0.00    -0.355 OA 
HETATM   14  C   UNL     1     -10.747  15.735  69.412  1.00  0.00    -0.266 C  
HETATM   15  O   UNL     1      -9.474  16.378  69.264  1.00  0.00    -0.246 OA 
HETATM   16  C   UNL     1     -10.614  14.210  69.370  1.00  0.00    -0.061 C  
HETATM   17  C   UNL     1     -11.949  13.526  69.684  1.00  0.00    -0.397 C  
HETATM   18  C   UNL     1     -12.527  13.996  71.018  1.00  0.00    -0.444 C  
HETATM   19  C   UNL     1     -12.632  15.516  71.097  1.00  0.00    -0.509 C  
HETATM   20  C   UNL     1     -11.306  16.186  70.766  1.00  0.00    -0.397 C  
ENDBRANCH  10  11
ENDBRANCH   6  10
TORSDOF 2
ENDMDL
MODEL      135
REMARK 921   NORMALIZED FREE ENERGY PREDICTED BY IDOCK:   -3.77 KCAL/MOL
REMARK 922        TOTAL FREE ENERGY PREDICTED BY IDOCK:   -4.34 KCAL/MOL
REMARK 923 INTER-LIGAND FREE ENERGY PREDICTED BY IDOCK:   -4.21 KCAL/MOL
REMARK 924 INTRA-LIGAND FREE ENERGY PREDICTED BY IDOCK:   -0.13 KCAL/MOL
REMARK 927      BINDING AFFINITY PREDICTED BY RF-SCORE:    0.00 PKD
ROOT
HETATM    1  N   UNL     1      -8.842  13.051  66.219  1.00  0.00    -0.431 NA 
HETATM    2  C   UNL     1      -9.858  12.273  66.653  1.00  0.00    -0.220 C  
HETATM    3  H2  UNL     1      -8.780  13.438  65.278  1.00  0.00     0.000 HD 
HETATM    4  H1  UNL     1      -8.145  13.204  66.948  1.00  0.00     0.000 HD 
HETATM    5  N   UNL     1     -10.780  12.069  65.689  1.00  0.00    -0.263 NA 
HETATM    6  N   UNL     1      -9.828  11.817  67.851  1.00  0.00    -0.178 NA 
HETATM    7  H1  UNL     1     -11.546  11.481  66.017  1.00  0.00     0.000 HD 
HETATM    8  H2  UNL     1     -10.718  12.456  64.748  1.00  0.00     0.000 HD 
HETATM    9  H   UNL     1      -9.095  12.100  68.503  1.00  0.00     0.000 HD 
ENDROOT
BRANCH   6  10
HETATM   10  C   UNL     1     -10.878  10.878  68.257  1.00  0.00    -0.225 C  
BRANCH  10  11
HETATM   11  C   UNL     1     -10.716  10.417  69.708  1.00  0.00    -0.278 C  
HETATM   12  C   UNL     1      -9.428   9.641  69.875  1.00  0.00    -0.231 C  
HETATM   13  O   UNL     1      -9.679   8.772  70.972  1.00  0.00    -0.191 OA 
HETATM   14  C   UNL     1     -11.087   8.510  70.927  1.00  0.00    -0.255 C  
HETATM   15  O   UNL     1     -11.736   9.481  70.095  1.00  0.00    -0.180 OA 
HETATM   16  C   UNL     1     -11.624   8.551  72.361  1.00  0.00    -0.425 C  
HETATM   17  C   UNL     1     -11.042   7.412  73.205  1.00  0.00    -0.357 C  
HETATM   18  C   UNL     1     -11.285   6.048  72.561  1.00  0.00    -0.333 C  
HETATM   19  C   UNL     1     -10.793   5.997  71.117  1.00  0.00    -0.338 C  
HETATM   20  C   UNL     1     -11.362   7.143  70.292  1.00  0.00    -0.305 C  
ENDBRANCH  10  11
ENDBRANCH   6  10
TORSDOF 2
ENDMDL
MODEL      136
REMARK 921   NORMALIZED FREE ENERGY PREDICTED BY IDOCK:   -3.76 KCAL/MOL
REMARK 922        TOTAL FREE ENERGY PREDICTED BY IDOCK:   -4.33 KCAL/MOL
REMARK 923 INTER-LIGAND FREE ENERGY PREDICTED BY IDOCK:   -4.11 KCAL/MOL
REMARK 924 INTRA-LIGAND FREE ENERGY PREDICTED BY IDOCK:   -0.23 KCAL/MOL
REMARK 927      BINDING AFFINITY PREDICTED BY RF-SCORE:    0.00 PKD
ROOT
HETATM    1  N   UNL     1     -10.319  11.080  69.467  1.00  0.00    -0.430 NA 
HETATM    2  C   UNL     1     -11.352  10.328  69.907  1.00  0.00    -0.290 C  
HETATM    3  H2  UNL     1     -10.389  11.758  68.708  1.00  0.00     0.000 HD 
HETATM    4  H1  UNL     1      -9.463  10.888  69.986  1.00  0.00     0.000 HD 
HETATM    5  N   UNL     1     -12.485  10.582  69.219  1.00  0.00    -0.717 NA 
HETATM    6  N   UNL     1     -11.153   9.487  70.854  1.00  0.00    -0.306 NA 
HETATM    7  H1  UNL     1     -13.264  10.013  69.551  1.00  0.00     0.000 HD 
HETATM    8  H2  UNL     1     -12.554  11.259  68.460  1.00  0.00     0.000 HD 
HETATM    9  H   UNL     1     -10.253   9.438  71.332  1.00  0.00     0.000 HD 
ENDROOT
BRANCH   6  10
HETATM   10  C   UNL     1     -12.257   8.598  71.229  1.00  0.00    -0.281 C  
BRANCH  10  11
HETATM   11  C   UNL     1     -11.944   7.128  70.941  1.00  0.00    -0.334 C  
HETATM   12  C   UNL     1     -11.619   6.395  72.224  1.00  0.00    -0.299 C  
HETATM   13  O   UNL     1     -10.772   5.329  71.816  1.00  0.00    -0.223 OA 
HETATM   14  C   UNL     1     -10.081   5.819  70.660  1.00  0.00    -0.203 C  
HETATM   15  O   UNL     1     -10.757   6.974  70.144  1.00  0.00    -0.224 OA 
HETATM   16  C   UNL     1     -10.026   4.692  69.626  1.00  0.00    -0.281 C  
HETATM   17  C   UNL     1      -9.169   3.522  70.124  1.00  0.00    -0.224 C  
HETATM   18  C   UNL     1      -7.767   3.977  70.526  1.00  0.00    -0.048 C  
HETATM   19  C   UNL     1      -7.799   5.127  71.527  1.00  0.00    -0.111 C  
HETATM   20  C   UNL     1      -8.666   6.276  71.032  1.00  0.00    -0.136 C  
ENDBRANCH  10  11
ENDBRANCH   6  10
TORSDOF 2
ENDMDL
MODEL      137
REMARK 921   NORMALIZED FREE ENERGY PREDICTED BY IDOCK:   -3.73 KCAL/MOL
REMARK 922        TOTAL FREE ENERGY PREDICTED BY IDOCK:   -4.31 KCAL/MOL
REMARK 923 INTER-LIGAND FREE ENERGY PREDICTED BY IDOCK:   -4.16 KCAL/MOL
REMARK 924 INTRA-LIGAND FREE ENERGY PREDICTED BY IDOCK:   -0.15 KCAL/MOL
REMARK 927      BINDING AFFINITY PREDICTED BY RF-SCORE:    0.00 PKD
ROOT
HETATM    1  N   UNL     1      -7.178  20.321  67.981  1.00  0.00    -0.284 NA 
HETATM    2  C   UNL     1      -6.922  19.052  67.595  1.00  0.00    -0.213 C  
HETATM    3  H2  UNL     1      -6.698  21.140  67.609  1.00  0.00     0.000 HD 
HETATM    4  H1  UNL     1      -7.910  20.360  68.691  1.00  0.00     0.000 HD 
HETATM    5  N   UNL     1      -5.954  19.000  66.657  1.00  0.00    -0.165 NA 
HETATM    6  N   UNL     1      -7.567  18.090  68.144  1.00  0.00    -0.250 NA 
HETATM    7  H1  UNL     1      -5.760  18.042  66.366  1.00  0.00     0.000 HD 
HETATM    8  H2  UNL     1      -5.474  19.819  66.284  1.00  0.00     0.000 HD 
HETATM    9  H   UNL     1      -8.324  18.273  68.803  1.00  0.00     0.000 HD 
ENDROOT
BRANCH   6  10
HETATM   10  C   UNL     1      -7.185  16.718  67.796  1.00  0.00    -0.138 C  
BRANCH  10  11
HETATM   11  C   UNL     1      -8.317  15.718  68.046  1.00  0.00    -0.152 C  
HETATM   12  C   UNL     1      -7.954  14.359  67.489  1.00  0.00    -0.192 C  
HETATM   13  O   UNL     1      -9.205  13.751  67.197  1.00  0.00    -0.223 OA 
HETATM   14  C   UNL     1     -10.083  14.838  66.878  1.00  0.00    -0.246 C  
HETATM   15  O   UNL     1      -9.518  16.072  67.338  1.00  0.00    -0.217 OA 
HETATM   16  C   UNL     1     -11.439  14.562  67.535  1.00  0.00    -0.375 C  
HETATM   17  C   UNL     1     -12.111  13.327  66.926  1.00  0.00    -0.389 C  
HETATM   18  C   UNL     1     -12.243  13.443  65.409  1.00  0.00    -0.492 C  
HETATM   19  C   UNL     1     -10.910  13.756  64.736  1.00  0.00    -0.410 C  
HETATM   20  C   UNL     1     -10.242  14.974  65.359  1.00  0.00    -0.411 C  
ENDBRANCH  10  11
ENDBRANCH   6  10
TORSDOF 2
ENDMDL
MODEL      138
REMARK 921   NORMALIZED FREE ENERGY PREDICTED BY IDOCK:   -3.73 KCAL/MOL
REMARK 922        TOTAL FREE ENERGY PREDICTED BY IDOCK:   -4.30 KCAL/MOL
REMARK 923 INTER-LIGAND FREE ENERGY PREDICTED BY IDOCK:   -4.13 KCAL/MOL
REMARK 924 INTRA-LIGAND FREE ENERGY PREDICTED BY IDOCK:   -0.17 KCAL/MOL
REMARK 927      BINDING AFFINITY PREDICTED BY RF-SCORE:    0.00 PKD
ROOT
HETATM    1  N   UNL     1     -11.395   3.733  73.452  1.00  0.00    -0.189 NA 
HETATM    2  C   UNL     1     -10.666   4.867  73.365  1.00  0.00    -0.268 C  
HETATM    3  H2  UNL     1     -10.998   2.794  73.414  1.00  0.00     0.000 HD 
HETATM    4  H1  UNL     1     -12.390   3.930  73.559  1.00  0.00     0.000 HD 
HETATM    5  N   UNL     1      -9.350   4.607  73.222  1.00  0.00    -0.117 NA 
HETATM    6  N   UNL     1     -11.267   5.999  73.400  1.00  0.00    -0.455 NA 
HETATM    7  H1  UNL     1      -8.800   5.463  73.156  1.00  0.00     0.000 HD 
HETATM    8  H2  UNL     1      -8.953   3.669  73.184  1.00  0.00     0.000 HD 
HETATM    9  H   UNL     1     -12.270   6.057  73.575  1.00  0.00     0.000 HD 
ENDROOT
BRANCH   6  10
HETATM   10  C   UNL     1     -10.468   7.210  73.182  1.00  0.00    -0.321 C  
BRANCH  10  11
HETATM   11  C   UNL     1     -11.238   8.283  72.409  1.00  0.00    -0.381 C  
HETATM   12  C   UNL     1     -12.127   7.646  71.363  1.00  0.00    -0.316 C  
HETATM   13  O   UNL     1     -12.262   8.644  70.360  1.00  0.00     0.090 OA 
HETATM   14  C   UNL     1     -11.044   9.397  70.414  1.00  0.00    -0.261 C  
HETATM   15  O   UNL     1     -10.364   9.135  71.648  1.00  0.00    -0.334 OA 
HETATM   16  C   UNL     1     -11.396  10.881  70.271  1.00  0.00    -0.342 C  
HETATM   17  C   UNL     1     -11.979  11.183  68.887  1.00  0.00    -0.367 C  
HETATM   18  C   UNL     1     -11.049  10.723  67.766  1.00  0.00    -0.381 C  
HETATM   19  C   UNL     1     -10.654   9.256  67.910  1.00  0.00    -0.288 C  
HETATM   20  C   UNL     1     -10.092   8.962  69.294  1.00  0.00    -0.205 C  
ENDBRANCH  10  11
ENDBRANCH   6  10
TORSDOF 2
ENDMDL
MODEL      139
REMARK 921   NORMALIZED FREE ENERGY PREDICTED BY IDOCK:   -3.72 KCAL/MOL
REMARK 922        TOTAL FREE ENERGY PREDICTED BY IDOCK:   -4.30 KCAL/MOL
REMARK 923 INTER-LIGAND FREE ENERGY PREDICTED BY IDOCK:   -4.01 KCAL/MOL
REMARK 924 INTRA-LIGAND FREE ENERGY PREDICTED BY IDOCK:   -0.29 KCAL/MOL
REMARK 927      BINDING AFFINITY PREDICTED BY RF-SCORE:    0.00 PKD
ROOT
HETATM    1  N   UNL     1      -6.114  10.873  62.544  1.00  0.00    -0.318 NA 
HETATM    2  C   UNL     1      -6.926  10.247  63.423  1.00  0.00    -0.088 C  
HETATM    3  H2  UNL     1      -6.025  10.614  61.563  1.00  0.00     0.000 HD 
HETATM    4  H1  UNL     1      -5.600  11.638  62.983  1.00  0.00     0.000 HD 
HETATM    5  N   UNL     1      -7.606   9.235  62.843  1.00  0.00    -0.105 NA 
HETATM    6  N   UNL     1      -6.947  10.638  64.644  1.00  0.00    -0.358 NA 
HETATM    7  H1  UNL     1      -8.219   8.762  63.507  1.00  0.00     0.000 HD 
HETATM    8  H2  UNL     1      -7.517   8.975  61.861  1.00  0.00     0.000 HD 
HETATM    9  H   UNL     1      -6.424  11.463  64.940  1.00  0.00     0.000 HD 
ENDROOT
BRANCH   6  10
HETATM   10  C   UNL     1      -7.743   9.865  65.602  1.00  0.00    -0.121 C  
BRANCH  10  11
HETATM   11  C   UNL     1      -8.920  10.668  66.161  1.00  0.00    -0.168 C  
HETATM   12  C   UNL     1     -10.233  10.029  65.762  1.00  0.00    -0.200 C  
HETATM   13  O   UNL     1     -11.160  11.106  65.751  1.00  0.00    -0.155 OA 
HETATM   14  C   UNL     1     -10.387  12.263  65.410  1.00  0.00    -0.269 C  
HETATM   15  O   UNL     1      -8.992  11.988  65.595  1.00  0.00    -0.015 OA 
HETATM   16  C   UNL     1     -10.853  13.423  66.295  1.00  0.00    -0.294 C  
HETATM   17  C   UNL     1     -12.300  13.815  65.981  1.00  0.00    -0.499 C  
HETATM   18  C   UNL     1     -12.492  14.136  64.499  1.00  0.00    -0.350 C  
HETATM   19  C   UNL     1     -11.999  13.009  63.597  1.00  0.00    -0.608 C  
HETATM   20  C   UNL     1     -10.566  12.614  63.929  1.00  0.00    -0.460 C  
ENDBRANCH  10  11
ENDBRANCH   6  10
TORSDOF 2
ENDMDL
MODEL      140
REMARK 921   NORMALIZED FREE ENERGY PREDICTED BY IDOCK:   -3.71 KCAL/MOL
REMARK 922        TOTAL FREE ENERGY PREDICTED BY IDOCK:   -4.29 KCAL/MOL
REMARK 923 INTER-LIGAND FREE ENERGY PREDICTED BY IDOCK:   -4.19 KCAL/MOL
REMARK 924 INTRA-LIGAND FREE ENERGY PREDICTED BY IDOCK:   -0.09 KCAL/MOL
REMARK 927      BINDING AFFINITY PREDICTED BY RF-SCORE:    0.00 PKD
ROOT
HETATM    1  N   UNL     1     -11.333   6.988  73.014  1.00  0.00    -0.526 NA 
HETATM    2  C   UNL     1     -11.436   7.802  71.941  1.00  0.00    -0.275 C  
HETATM    3  H2  UNL     1     -11.886   6.142  73.145  1.00  0.00     0.000 HD 
HETATM    4  H1  UNL     1     -10.635   7.324  73.678  1.00  0.00     0.000 HD 
HETATM    5  N   UNL     1     -12.359   7.358  71.063  1.00  0.00    -0.477 NA 
HETATM    6  N   UNL     1     -10.709   8.857  71.885  1.00  0.00    -0.352 NA 
HETATM    7  H1  UNL     1     -12.437   7.973  70.253  1.00  0.00     0.000 HD 
HETATM    8  H2  UNL     1     -12.912   6.512  71.193  1.00  0.00     0.000 HD 
HETATM    9  H   UNL     1     -10.001   9.045  72.594  1.00  0.00     0.000 HD 
ENDROOT
BRANCH   6  10
HETATM   10  C   UNL     1     -10.927   9.785  70.771  1.00  0.00    -0.336 C  
BRANCH  10  11
HETATM   11  C   UNL     1     -10.151   9.380  69.516  1.00  0.00    -0.205 C  
HETATM   12  C   UNL     1      -8.905  10.226  69.368  1.00  0.00    -0.163 C  
HETATM   13  O   UNL     1      -8.648  10.234  67.970  1.00  0.00    -0.117 OA 
HETATM   14  C   UNL     1      -9.934  10.108  67.352  1.00  0.00    -0.195 C  
HETATM   15  O   UNL     1     -10.892   9.643  68.312  1.00  0.00    -0.231 OA 
HETATM   16  C   UNL     1      -9.802   9.138  66.174  1.00  0.00    -0.363 C  
HETATM   17  C   UNL     1      -8.898   9.714  65.079  1.00  0.00    -0.221 C  
HETATM   18  C   UNL     1      -9.375  11.088  64.614  1.00  0.00    -0.235 C  
HETATM   19  C   UNL     1      -9.551  12.061  65.777  1.00  0.00    -0.227 C  
HETATM   20  C   UNL     1     -10.436  11.473  66.868  1.00  0.00    -0.270 C  
ENDBRANCH  10  11
ENDBRANCH   6  10
TORSDOF 2
ENDMDL
MODEL      141
REMARK 921   NORMALIZED FREE ENERGY PREDICTED BY IDOCK:   -3.69 KCAL/MOL
REMARK 922        TOTAL FREE ENERGY PREDICTED BY IDOCK:   -4.26 KCAL/MOL
REMARK 923 INTER-LIGAND FREE ENERGY PREDICTED BY IDOCK:   -4.14 KCAL/MOL
REMARK 924 INTRA-LIGAND FREE ENERGY PREDICTED BY IDOCK:   -0.13 KCAL/MOL
REMARK 927      BINDING AFFINITY PREDICTED BY RF-SCORE:    0.00 PKD
ROOT
HETATM    1  N   UNL     1     -13.462  12.830  72.172  1.00  0.00    -0.542 NA 
HETATM    2  C   UNL     1     -12.900  11.757  71.573  1.00  0.00    -0.345 C  
HETATM    3  H2  UNL     1     -14.129  12.772  72.941  1.00  0.00     0.000 HD 
HETATM    4  H1  UNL     1     -13.139  13.706  71.760  1.00  0.00     0.000 HD 
HETATM    5  N   UNL     1     -13.329  10.599  72.117  1.00  0.00    -0.580 NA 
HETATM    6  N   UNL     1     -12.090  11.940  70.596  1.00  0.00    -0.449 NA 
HETATM    7  H1  UNL     1     -12.905   9.790  71.664  1.00  0.00     0.000 HD 
HETATM    8  H2  UNL     1     -13.995  10.540  72.886  1.00  0.00     0.000 HD 
HETATM    9  H   UNL     1     -11.802  12.880  70.322  1.00  0.00     0.000 HD 
ENDROOT
BRANCH   6  10
HETATM   10  C   UNL     1     -11.589  10.759  69.886  1.00  0.00    -0.331 C  
BRANCH  10  11
HETATM   11  C   UNL     1     -10.314  11.054  69.093  1.00  0.00    -0.188 C  
HETATM   12  C   UNL     1     -10.612  11.992  67.943  1.00  0.00    -0.202 C  
HETATM   13  O   UNL     1      -9.614  11.692  66.976  1.00  0.00    -0.181 OA 
HETATM   14  C   UNL     1      -9.305  10.306  67.175  1.00  0.00    -0.153 C  
HETATM   15  O   UNL     1      -9.790   9.878  68.454  1.00  0.00    -0.147 OA 
HETATM   16  C   UNL     1      -7.787  10.138  67.064  1.00  0.00    -0.102 C  
HETATM   17  C   UNL     1      -7.295  10.448  65.647  1.00  0.00    -0.148 C  
HETATM   18  C   UNL     1      -8.023   9.610  64.597  1.00  0.00    -0.135 C  
HETATM   19  C   UNL     1      -9.539   9.733  64.713  1.00  0.00    -0.284 C  
HETATM   20  C   UNL     1     -10.017   9.440  66.129  1.00  0.00    -0.351 C  
ENDBRANCH  10  11
ENDBRANCH   6  10
TORSDOF 2
ENDMDL
MODEL      142
REMARK 921   NORMALIZED FREE ENERGY PREDICTED BY IDOCK:   -3.69 KCAL/MOL
REMARK 922        TOTAL FREE ENERGY PREDICTED BY IDOCK:   -4.26 KCAL/MOL
REMARK 923 INTER-LIGAND FREE ENERGY PREDICTED BY IDOCK:   -4.67 KCAL/MOL
REMARK 924 INTRA-LIGAND FREE ENERGY PREDICTED BY IDOCK:    0.41 KCAL/MOL
REMARK 927      BINDING AFFINITY PREDICTED BY RF-SCORE:    0.00 PKD
ROOT
HETATM    1  N   UNL     1      -7.117  12.112  66.934  1.00  0.00    -0.355 NA 
HETATM    2  C   UNL     1      -8.155  12.643  67.617  1.00  0.00    -0.173 C  
HETATM    3  H2  UNL     1      -6.218  11.878  67.354  1.00  0.00     0.000 HD 
HETATM    4  H1  UNL     1      -7.343  11.973  65.950  1.00  0.00     0.000 HD 
HETATM    5  N   UNL     1      -7.856  12.828  68.920  1.00  0.00    -0.328 NA 
HETATM    6  N   UNL     1      -9.238  12.923  66.989  1.00  0.00    -0.220 NA 
HETATM    7  H1  UNL     1      -8.640  13.230  69.434  1.00  0.00     0.000 HD 
HETATM    8  H2  UNL     1      -6.957  12.594  69.339  1.00  0.00     0.000 HD 
HETATM    9  H   UNL     1      -9.354  12.674  66.007  1.00  0.00     0.000 HD 
ENDROOT
BRANCH   6  10
HETATM   10  C   UNL     1     -10.303  13.610  67.726  1.00  0.00    -0.241 C  
BRANCH  10  11
HETATM   11  C   UNL     1      -9.801  14.870  68.435  1.00  0.00    -0.216 C  
HETATM   12  C   UNL     1     -10.954  15.615  69.070  1.00  0.00    -0.263 C  
HETATM   13  O   UNL     1     -10.521  16.968  69.110  1.00  0.00    -0.320 OA 
HETATM   14  C   UNL     1      -9.642  17.113  67.988  1.00  0.00    -0.267 C  
HETATM   15  O   UNL     1      -9.239  15.822  67.515  1.00  0.00    -0.201 OA 
HETATM   16  C   UNL     1      -8.439  17.950  68.431  1.00  0.00    -0.300 C  
HETATM   17  C   UNL     1      -8.858  19.381  68.786  1.00  0.00    -0.385 C  
HETATM   18  C   UNL     1      -9.609  20.054  67.639  1.00  0.00    -0.516 C  
HETATM   19  C   UNL     1     -10.790  19.218  67.154  1.00  0.00    -0.543 C  
HETATM   20  C   UNL     1     -10.367  17.794  66.821  1.00  0.00    -0.343 C  
ENDBRANCH  10  11
ENDBRANCH   6  10
TORSDOF 2
ENDMDL
MODEL      143
REMARK 921   NORMALIZED FREE ENERGY PREDICTED BY IDOCK:   -3.68 KCAL/MOL
REMARK 922        TOTAL FREE ENERGY PREDICTED BY IDOCK:   -4.24 KCAL/MOL
REMARK 923 INTER-LIGAND FREE ENERGY PREDICTED BY IDOCK:   -4.03 KCAL/MOL
REMARK 924 INTRA-LIGAND FREE ENERGY PREDICTED BY IDOCK:   -0.21 KCAL/MOL
REMARK 927      BINDING AFFINITY PREDICTED BY RF-SCORE:    0.00 PKD
ROOT
HETATM    1  N   UNL     1      -7.546  12.686  66.607  1.00  0.00    -0.301 NA 
HETATM    2  C   UNL     1      -8.540  13.396  67.183  1.00  0.00    -0.195 C  
HETATM    3  H2  UNL     1      -7.184  11.806  66.976  1.00  0.00     0.000 HD 
HETATM    4  H1  UNL     1      -7.201  13.136  65.759  1.00  0.00     0.000 HD 
HETATM    5  N   UNL     1      -8.995  12.801  68.306  1.00  0.00    -0.245 NA 
HETATM    6  N   UNL     1      -8.906  14.504  66.651  1.00  0.00    -0.412 NA 
HETATM    7  H1  UNL     1      -9.745  13.338  68.740  1.00  0.00     0.000 HD 
HETATM    8  H2  UNL     1      -8.634  11.922  68.674  1.00  0.00     0.000 HD 
HETATM    9  H   UNL     1      -8.517  14.812  65.760  1.00  0.00     0.000 HD 
ENDROOT
BRANCH   6  10
HETATM   10  C   UNL     1      -9.900  15.314  67.362  1.00  0.00    -0.217 C  
BRANCH  10  11
HETATM   11  C   UNL     1      -9.260  16.448  68.165  1.00  0.00    -0.201 C  
HETATM   12  C   UNL     1     -10.197  17.634  68.246  1.00  0.00    -0.374 C  
HETATM   13  O   UNL     1      -9.336  18.753  68.407  1.00  0.00    -0.316 OA 
HETATM   14  C   UNL     1      -8.123  18.393  67.735  1.00  0.00    -0.254 C  
HETATM   15  O   UNL     1      -8.089  16.976  67.518  1.00  0.00    -0.172 OA 
HETATM   16  C   UNL     1      -6.946  18.857  68.597  1.00  0.00    -0.313 C  
HETATM   17  C   UNL     1      -6.897  20.385  68.695  1.00  0.00    -0.205 C  
HETATM   18  C   UNL     1      -6.867  21.042  67.316  1.00  0.00    -0.434 C  
HETATM   19  C   UNL     1      -8.009  20.564  66.425  1.00  0.00    -0.087 C  
HETATM   20  C   UNL     1      -8.060  19.044  66.348  1.00  0.00    -0.308 C  
ENDBRANCH  10  11
ENDBRANCH   6  10
TORSDOF 2
ENDMDL
MODEL      144
REMARK 921   NORMALIZED FREE ENERGY PREDICTED BY IDOCK:   -3.67 KCAL/MOL
REMARK 922        TOTAL FREE ENERGY PREDICTED BY IDOCK:   -4.24 KCAL/MOL
REMARK 923 INTER-LIGAND FREE ENERGY PREDICTED BY IDOCK:   -4.01 KCAL/MOL
REMARK 924 INTRA-LIGAND FREE ENERGY PREDICTED BY IDOCK:   -0.23 KCAL/MOL
REMARK 927      BINDING AFFINITY PREDICTED BY RF-SCORE:    0.00 PKD
ROOT
HETATM    1  N   UNL     1      -7.228   8.376  74.136  1.00  0.00    -0.251 NA 
HETATM    2  C   UNL     1      -8.262   7.772  73.510  1.00  0.00    -0.183 C  
HETATM    3  H2  UNL     1      -6.260   8.325  73.820  1.00  0.00     0.000 HD 
HETATM    4  H1  UNL     1      -7.534   8.888  74.964  1.00  0.00     0.000 HD 
HETATM    5  N   UNL     1      -7.858   7.094  72.416  1.00  0.00    -0.092 NA 
HETATM    6  N   UNL     1      -9.440   7.880  74.004  1.00  0.00    -0.290 NA 
HETATM    7  H1  UNL     1      -8.638   6.639  71.943  1.00  0.00     0.000 HD 
HETATM    8  H2  UNL     1      -6.890   7.043  72.100  1.00  0.00     0.000 HD 
HETATM    9  H   UNL     1      -9.619   8.479  74.810  1.00  0.00     0.000 HD 
ENDROOT
BRANCH   6  10
HETATM   10  C   UNL     1     -10.523   7.117  73.375  1.00  0.00    -0.368 C  
BRANCH  10  11
HETATM   11  C   UNL     1     -11.358   7.972  72.420  1.00  0.00    -0.382 C  
HETATM   12  C   UNL     1     -11.420   7.329  71.051  1.00  0.00    -0.287 C  
HETATM   13  O   UNL     1     -11.620   8.417  70.159  1.00  0.00    -0.084 OA 
HETATM   14  C   UNL     1     -10.984   9.538  70.787  1.00  0.00    -0.321 C  
HETATM   15  O   UNL     1     -10.756   9.254  72.173  1.00  0.00    -0.201 OA 
HETATM   16  C   UNL     1     -11.890  10.760  70.606  1.00  0.00    -0.460 C  
HETATM   17  C   UNL     1     -12.004  11.153  69.129  1.00  0.00    -0.413 C  
HETATM   18  C   UNL     1     -10.633  11.381  68.495  1.00  0.00    -0.225 C  
HETATM   19  C   UNL     1      -9.700  10.190  68.697  1.00  0.00    -0.167 C  
HETATM   20  C   UNL     1      -9.607   9.796  70.164  1.00  0.00    -0.287 C  
ENDBRANCH  10  11
ENDBRANCH   6  10
TORSDOF 2
ENDMDL
MODEL      145
REMARK 921   NORMALIZED FREE ENERGY PREDICTED BY IDOCK:   -3.65 KCAL/MOL
REMARK 922        TOTAL FREE ENERGY PREDICTED BY IDOCK:   -4.21 KCAL/MOL
REMARK 923 INTER-LIGAND FREE ENERGY PREDICTED BY IDOCK:   -3.81 KCAL/MOL
REMARK 924 INTRA-LIGAND FREE ENERGY PREDICTED BY IDOCK:   -0.40 KCAL/MOL
REMARK 927      BINDING AFFINITY PREDICTED BY RF-SCORE:    0.00 PKD
ROOT
HETATM    1  N   UNL     1      -9.040   7.430  66.521  1.00  0.00    -0.157 NA 
HETATM    2  C   UNL     1      -9.908   8.271  67.125  1.00  0.00    -0.217 C  
HETATM    3  H2  UNL     1      -9.300   6.527  66.126  1.00  0.00     0.000 HD 
HETATM    4  H1  UNL     1      -8.093   7.808  66.510  1.00  0.00     0.000 HD 
HETATM    5  N   UNL     1     -11.161   7.770  67.141  1.00  0.00    -0.417 NA 
HETATM    6  N   UNL     1      -9.473   9.375  67.610  1.00  0.00    -0.131 NA 
HETATM    7  H1  UNL     1     -11.816   8.405  67.597  1.00  0.00     0.000 HD 
HETATM    8  H2  UNL     1     -11.421   6.867  66.746  1.00  0.00     0.000 HD 
HETATM    9  H   UNL     1      -8.503   9.663  67.475  1.00  0.00     0.000 HD 
ENDROOT
BRANCH   6  10
HETATM   10  C   UNL     1     -10.410  10.212  68.366  1.00  0.00    -0.183 C  
BRANCH  10  11
HETATM   11  C   UNL     1     -10.406   9.886  69.861  1.00  0.00    -0.258 C  
HETATM   12  C   UNL     1      -9.072   9.301  70.271  1.00  0.00    -0.237 C  
HETATM   13  O   UNL     1      -9.374   8.491  71.400  1.00  0.00    -0.170 OA 
HETATM   14  C   UNL     1     -10.719   8.043  71.191  1.00  0.00    -0.220 C  
HETATM   15  O   UNL     1     -11.352   8.855  70.193  1.00  0.00    -0.217 OA 
HETATM   16  C   UNL     1     -11.458   8.120  72.529  1.00  0.00    -0.470 C  
HETATM   17  C   UNL     1     -10.872   7.133  73.545  1.00  0.00    -0.296 C  
HETATM   18  C   UNL     1     -10.854   5.705  73.003  1.00  0.00    -0.308 C  
HETATM   19  C   UNL     1     -10.155   5.612  71.650  1.00  0.00    -0.245 C  
HETATM   20  C   UNL     1     -10.732   6.608  70.653  1.00  0.00    -0.286 C  
ENDBRANCH  10  11
ENDBRANCH   6  10
TORSDOF 2
ENDMDL
MODEL      146
REMARK 921   NORMALIZED FREE ENERGY PREDICTED BY IDOCK:   -3.64 KCAL/MOL
REMARK 922        TOTAL FREE ENERGY PREDICTED BY IDOCK:   -4.20 KCAL/MOL
REMARK 923 INTER-LIGAND FREE ENERGY PREDICTED BY IDOCK:   -3.93 KCAL/MOL
REMARK 924 INTRA-LIGAND FREE ENERGY PREDICTED BY IDOCK:   -0.26 KCAL/MOL
REMARK 927      BINDING AFFINITY PREDICTED BY RF-SCORE:    0.00 PKD
ROOT
HETATM    1  N   UNL     1      -7.055  10.423  70.363  1.00  0.00    -0.420 NA 
HETATM    2  C   UNL     1      -8.176   9.869  69.854  1.00  0.00    -0.184 C  
HETATM    3  H2  UNL     1      -6.135   9.983  70.334  1.00  0.00     0.000 HD 
HETATM    4  H1  UNL     1      -7.240  11.336  70.780  1.00  0.00     0.000 HD 
HETATM    5  N   UNL     1      -7.932   8.661  69.303  1.00  0.00    -0.101 NA 
HETATM    6  N   UNL     1      -9.289  10.496  69.964  1.00  0.00    -0.293 NA 
HETATM    7  H1  UNL     1      -8.779   8.243  68.919  1.00  0.00     0.000 HD 
HETATM    8  H2  UNL     1      -7.013   8.221  69.274  1.00  0.00     0.000 HD 
HETATM    9  H   UNL     1      -9.324  11.439  70.353  1.00  0.00     0.000 HD 
ENDROOT
BRANCH   6  10
HETATM   10  C   UNL     1     -10.509   9.820  69.513  1.00  0.00    -0.232 C  
BRANCH  10  11
HETATM   11  C   UNL     1     -11.388  10.723  68.645  1.00  0.00    -0.291 C  
HETATM   12  C   UNL     1     -11.246  10.354  67.184  1.00  0.00    -0.007 C  
HETATM   13  O   UNL     1     -11.539  11.557  66.486  1.00  0.00    -0.444 OA 
HETATM   14  C   UNL     1     -11.131  12.610  67.367  1.00  0.00    -0.273 C  
HETATM   15  O   UNL     1     -10.969  12.098  68.696  1.00  0.00    -0.222 OA 
HETATM   16  C   UNL     1     -12.194  13.711  67.316  1.00  0.00    -0.317 C  
HETATM   17  C   UNL     1     -12.253  14.363  65.930  1.00  0.00    -0.354 C  
HETATM   18  C   UNL     1     -10.888  14.890  65.493  1.00  0.00    -0.365 C  
HETATM   19  C   UNL     1      -9.804  13.819  65.573  1.00  0.00    -0.189 C  
HETATM   20  C   UNL     1      -9.765  13.165  66.948  1.00  0.00    -0.243 C  
ENDBRANCH  10  11
ENDBRANCH   6  10
TORSDOF 2
ENDMDL
MODEL      147
REMARK 921   NORMALIZED FREE ENERGY PREDICTED BY IDOCK:   -3.62 KCAL/MOL
REMARK 922        TOTAL FREE ENERGY PREDICTED BY IDOCK:   -4.18 KCAL/MOL
REMARK 923 INTER-LIGAND FREE ENERGY PREDICTED BY IDOCK:   -4.01 KCAL/MOL
REMARK 924 INTRA-LIGAND FREE ENERGY PREDICTED BY IDOCK:   -0.17 KCAL/MOL
REMARK 927      BINDING AFFINITY PREDICTED BY RF-SCORE:    0.00 PKD
ROOT
HETATM    1  N   UNL     1     -11.971  16.296  71.521  1.00  0.00    -0.650 NA 
HETATM    2  C   UNL     1     -12.490  15.202  70.921  1.00  0.00    -0.365 C  
HETATM    3  H2  UNL     1     -12.519  17.110  71.798  1.00  0.00     0.000 HD 
HETATM    4  H1  UNL     1     -10.965  16.208  71.663  1.00  0.00     0.000 HD 
HETATM    5  N   UNL     1     -13.821  15.318  70.733  1.00  0.00    -0.789 NA 
HETATM    6  N   UNL     1     -11.708  14.241  70.591  1.00  0.00    -0.458 NA 
HETATM    7  H1  UNL     1     -14.212  14.493  70.279  1.00  0.00     0.000 HD 
HETATM    8  H2  UNL     1     -14.369  16.132  71.010  1.00  0.00     0.000 HD 
HETATM    9  H   UNL     1     -10.721  14.254  70.849  1.00  0.00     0.000 HD 
ENDROOT
BRANCH   6  10
HETATM   10  C   UNL     1     -12.275  13.121  69.833  1.00  0.00    -0.225 C  
BRANCH  10  11
HETATM   11  C   UNL     1     -11.457  12.792  68.583  1.00  0.00    -0.303 C  
HETATM   12  C   UNL     1     -11.584  11.324  68.239  1.00  0.00    -0.300 C  
HETATM   13  O   UNL     1     -10.380  11.018  67.548  1.00  0.00    -0.185 OA 
HETATM   14  C   UNL     1      -9.398  11.907  68.093  1.00  0.00    -0.191 C  
HETATM   15  O   UNL     1     -10.047  12.977  68.794  1.00  0.00    -0.175 OA 
HETATM   16  C   UNL     1      -8.539  12.432  66.939  1.00  0.00    -0.171 C  
HETATM   17  C   UNL     1      -7.727  11.304  66.294  1.00  0.00    -0.053 C  
HETATM   18  C   UNL     1      -6.879  10.556  67.321  1.00  0.00    -0.082 C  
HETATM   19  C   UNL     1      -7.709  10.057  68.500  1.00  0.00    -0.089 C  
HETATM   20  C   UNL     1      -8.526  11.181  69.123  1.00  0.00     0.029 C  
ENDBRANCH  10  11
ENDBRANCH   6  10
TORSDOF 2
ENDMDL
MODEL      148
REMARK 921   NORMALIZED FREE ENERGY PREDICTED BY IDOCK:   -3.61 KCAL/MOL
REMARK 922        TOTAL FREE ENERGY PREDICTED BY IDOCK:   -4.17 KCAL/MOL
REMARK 923 INTER-LIGAND FREE ENERGY PREDICTED BY IDOCK:   -3.95 KCAL/MOL
REMARK 924 INTRA-LIGAND FREE ENERGY PREDICTED BY IDOCK:   -0.22 KCAL/MOL
REMARK 927      BINDING AFFINITY PREDICTED BY RF-SCORE:    0.00 PKD
ROOT
HETATM    1  N   UNL     1      -5.714  12.982  69.219  1.00  0.00    -0.079 NA 
HETATM    2  C   UNL     1      -6.332  14.180  69.131  1.00  0.00    -0.106 C  
HETATM    3  H2  UNL     1      -5.321  12.604  70.081  1.00  0.00     0.000 HD 
HETATM    4  H1  UNL     1      -5.687  12.503  68.319  1.00  0.00     0.000 HD 
HETATM    5  N   UNL     1      -6.367  14.814  70.322  1.00  0.00    -0.174 NA 
HETATM    6  N   UNL     1      -6.771  14.574  67.993  1.00  0.00    -0.128 NA 
HETATM    7  H1  UNL     1      -6.834  15.718  70.255  1.00  0.00     0.000 HD 
HETATM    8  H2  UNL     1      -5.975  14.436  71.183  1.00  0.00     0.000 HD 
HETATM    9  H   UNL     1      -6.734  13.964  67.176  1.00  0.00     0.000 HD 
ENDROOT
BRANCH   6  10
HETATM   10  C   UNL     1      -7.328  15.927  67.900  1.00  0.00    -0.134 C  
BRANCH  10  11
HETATM   11  C   UNL     1      -8.515  16.003  66.937  1.00  0.00    -0.241 C  
HETATM   12  C   UNL     1      -9.796  16.272  67.696  1.00  0.00    -0.238 C  
HETATM   13  O   UNL     1     -10.814  15.707  66.881  1.00  0.00    -0.315 OA 
HETATM   14  C   UNL     1     -10.185  14.615  66.199  1.00  0.00    -0.301 C  
HETATM   15  O   UNL     1      -8.760  14.748  66.280  1.00  0.00    -0.135 OA 
HETATM   16  C   UNL     1     -10.668  14.622  64.746  1.00  0.00    -0.399 C  
HETATM   17  C   UNL     1     -12.168  14.323  64.657  1.00  0.00    -0.470 C  
HETATM   18  C   UNL     1     -12.528  13.013  65.355  1.00  0.00    -0.531 C  
HETATM   19  C   UNL     1     -12.022  12.968  66.794  1.00  0.00    -0.434 C  
HETATM   20  C   UNL     1     -10.535  13.284  66.873  1.00  0.00    -0.261 C  
ENDBRANCH  10  11
ENDBRANCH   6  10
TORSDOF 2
ENDMDL
MODEL      149
REMARK 921   NORMALIZED FREE ENERGY PREDICTED BY IDOCK:   -3.60 KCAL/MOL
REMARK 922        TOTAL FREE ENERGY PREDICTED BY IDOCK:   -4.16 KCAL/MOL
REMARK 923 INTER-LIGAND FREE ENERGY PREDICTED BY IDOCK:   -4.04 KCAL/MOL
REMARK 924 INTRA-LIGAND FREE ENERGY PREDICTED BY IDOCK:   -0.12 KCAL/MOL
REMARK 927      BINDING AFFINITY PREDICTED BY RF-SCORE:    0.00 PKD
ROOT
HETATM    1  N   UNL     1     -13.975   9.124  72.916  1.00  0.00    -1.053 NA 
HETATM    2  C   UNL     1     -12.875   8.675  72.273  1.00  0.00    -0.383 C  
HETATM    3  H2  UNL     1     -14.580   8.538  73.491  1.00  0.00     0.000 HD 
HETATM    4  H1  UNL     1     -14.126  10.120  72.757  1.00  0.00     0.000 HD 
HETATM    5  N   UNL     1     -12.675   7.357  72.483  1.00  0.00    -0.448 NA 
HETATM    6  N   UNL     1     -12.195   9.491  71.555  1.00  0.00    -0.361 NA 
HETATM    7  H1  UNL     1     -11.845   7.019  71.997  1.00  0.00     0.000 HD 
HETATM    8  H2  UNL     1     -13.279   6.771  73.058  1.00  0.00     0.000 HD 
HETATM    9  H   UNL     1     -12.423  10.485  71.530  1.00  0.00     0.000 HD 
ENDROOT
BRANCH   6  10
HETATM   10  C   UNL     1     -11.078   8.953  70.771  1.00  0.00    -0.261 C  
BRANCH  10  11
HETATM   11  C   UNL     1     -10.369  10.033  69.952  1.00  0.00    -0.272 C  
HETATM   12  C   UNL     1     -10.890  10.047  68.531  1.00  0.00    -0.231 C  
HETATM   13  O   UNL     1      -9.809  10.561  67.764  1.00  0.00    -0.161 OA 
HETATM   14  C   UNL     1      -8.626  10.158  68.466  1.00  0.00    -0.118 C  
HETATM   15  O   UNL     1      -8.964   9.765  69.803  1.00  0.00    -0.192 OA 
HETATM   16  C   UNL     1      -7.645  11.333  68.457  1.00  0.00    -0.123 C  
HETATM   17  C   UNL     1      -7.166  11.647  67.036  1.00  0.00    -0.143 C  
HETATM   18  C   UNL     1      -6.566  10.418  66.355  1.00  0.00    -0.099 C  
HETATM   19  C   UNL     1      -7.513   9.222  66.387  1.00  0.00    -0.093 C  
HETATM   20  C   UNL     1      -7.997   8.929  67.800  1.00  0.00    -0.102 C  
ENDBRANCH  10  11
ENDBRANCH   6  10
TORSDOF 2
ENDMDL
MODEL      150
REMARK 921   NORMALIZED FREE ENERGY PREDICTED BY IDOCK:   -3.56 KCAL/MOL
REMARK 922        TOTAL FREE ENERGY PREDICTED BY IDOCK:   -4.11 KCAL/MOL
REMARK 923 INTER-LIGAND FREE ENERGY PREDICTED BY IDOCK:   -3.65 KCAL/MOL
REMARK 924 INTRA-LIGAND FREE ENERGY PREDICTED BY IDOCK:   -0.46 KCAL/MOL
REMARK 927      BINDING AFFINITY PREDICTED BY RF-SCORE:    0.00 PKD
ROOT
HETATM    1  N   UNL     1      -8.543   8.340  69.381  1.00  0.00    -0.133 NA 
HETATM    2  C   UNL     1      -9.112   8.329  68.155  1.00  0.00    -0.134 C  
HETATM    3  H2  UNL     1      -9.017   8.043  70.233  1.00  0.00     0.000 HD 
HETATM    4  H1  UNL     1      -7.583   8.683  69.349  1.00  0.00     0.000 HD 
HETATM    5  N   UNL     1     -10.382   7.876  68.197  1.00  0.00    -0.212 NA 
HETATM    6  N   UNL     1      -8.436   8.747  67.149  1.00  0.00    -0.110 NA 
HETATM    7  H1  UNL     1     -10.811   7.868  67.272  1.00  0.00     0.000 HD 
HETATM    8  H2  UNL     1     -10.856   7.578  69.049  1.00  0.00     0.000 HD 
HETATM    9  H   UNL     1      -7.454   9.007  67.248  1.00  0.00     0.000 HD 
ENDROOT
BRANCH   6  10
HETATM   10  C   UNL     1      -9.115   8.838  65.853  1.00  0.00    -0.218 C  
BRANCH  10  11
HETATM   11  C   UNL     1      -9.680  10.236  65.590  1.00  0.00    -0.247 C  
HETATM   12  C   UNL     1      -8.695  11.296  66.031  1.00  0.00    -0.164 C  
HETATM   13  O   UNL     1      -9.504  12.422  66.341  1.00  0.00    -0.237 OA 
HETATM   14  C   UNL     1     -10.755  11.876  66.778  1.00  0.00    -0.246 C  
HETATM   15  O   UNL     1     -10.852  10.503  66.378  1.00  0.00    -0.146 OA 
HETATM   16  C   UNL     1     -11.880  12.719  66.171  1.00  0.00    -0.484 C  
HETATM   17  C   UNL     1     -11.864  14.148  66.724  1.00  0.00    -0.449 C  
HETATM   18  C   UNL     1     -11.921  14.166  68.250  1.00  0.00    -0.367 C  
HETATM   19  C   UNL     1     -10.832  13.301  68.877  1.00  0.00    -0.245 C  
HETATM   20  C   UNL     1     -10.844  11.889  68.309  1.00  0.00    -0.261 C  
ENDBRANCH  10  11
ENDBRANCH   6  10
TORSDOF 2
ENDMDL
MODEL      151
REMARK 921   NORMALIZED FREE ENERGY PREDICTED BY IDOCK:   -3.54 KCAL/MOL
REMARK 922        TOTAL FREE ENERGY PREDICTED BY IDOCK:   -4.09 KCAL/MOL
REMARK 923 INTER-LIGAND FREE ENERGY PREDICTED BY IDOCK:   -3.82 KCAL/MOL
REMARK 924 INTRA-LIGAND FREE ENERGY PREDICTED BY IDOCK:   -0.26 KCAL/MOL
REMARK 927      BINDING AFFINITY PREDICTED BY RF-SCORE:    0.00 PKD
ROOT
HETATM    1  N   UNL     1      -6.215  13.564  67.686  1.00  0.00    -0.246 NA 
HETATM    2  C   UNL     1      -7.018  14.260  68.521  1.00  0.00    -0.102 C  
HETATM    3  H2  UNL     1      -5.710  12.719  67.951  1.00  0.00     0.000 HD 
HETATM    4  H1  UNL     1      -6.175  13.988  66.759  1.00  0.00     0.000 HD 
HETATM    5  N   UNL     1      -7.071  13.700  69.747  1.00  0.00    -0.322 NA 
HETATM    6  N   UNL     1      -7.589  15.325  68.094  1.00  0.00    -0.110 NA 
HETATM    7  H1  UNL     1      -7.677  14.225  70.377  1.00  0.00     0.000 HD 
HETATM    8  H2  UNL     1      -6.566  12.854  70.012  1.00  0.00     0.000 HD 
HETATM    9  H   UNL     1      -7.512  15.607  67.117  1.00  0.00     0.000 HD 
ENDROOT
BRANCH   6  10
HETATM   10  C   UNL     1      -8.357  16.127  69.053  1.00  0.00    -0.247 C  
BRANCH  10  11
HETATM   11  C   UNL     1      -9.844  15.767  69.052  1.00  0.00    -0.240 C  
HETATM   12  C   UNL     1     -10.690  17.014  69.193  1.00  0.00    -0.253 C  
HETATM   13  O   UNL     1     -11.891  16.559  69.801  1.00  0.00     0.084 OA 
HETATM   14  C   UNL     1     -11.503  15.434  70.600  1.00  0.00    -0.332 C  
HETATM   15  O   UNL     1     -10.209  14.971  70.193  1.00  0.00    -0.128 OA 
HETATM   16  C   UNL     1     -12.567  14.344  70.433  1.00  0.00    -0.405 C  
HETATM   17  C   UNL     1     -13.913  14.789  71.014  1.00  0.00    -0.231 C  
HETATM   18  C   UNL     1     -13.787  15.222  72.473  1.00  0.00    -0.626 C  
HETATM   19  C   UNL     1     -12.705  16.280  72.669  1.00  0.00    -0.324 C  
HETATM   20  C   UNL     1     -11.376  15.837  72.073  1.00  0.00    -0.341 C  
ENDBRANCH  10  11
ENDBRANCH   6  10
TORSDOF 2
ENDMDL
MODEL      152
REMARK 921   NORMALIZED FREE ENERGY PREDICTED BY IDOCK:   -3.53 KCAL/MOL
REMARK 922        TOTAL FREE ENERGY PREDICTED BY IDOCK:   -4.07 KCAL/MOL
REMARK 923 INTER-LIGAND FREE ENERGY PREDICTED BY IDOCK:   -3.76 KCAL/MOL
REMARK 924 INTRA-LIGAND FREE ENERGY PREDICTED BY IDOCK:   -0.32 KCAL/MOL
REMARK 927      BINDING AFFINITY PREDICTED BY RF-SCORE:    0.00 PKD
ROOT
HETATM    1  N   UNL     1      -5.919  18.086  67.069  1.00  0.00    -0.135 NA 
HETATM    2  C   UNL     1      -6.949  18.033  67.941  1.00  0.00    -0.211 C  
HETATM    3  H2  UNL     1      -4.951  17.880  67.315  1.00  0.00     0.000 HD 
HETATM    4  H1  UNL     1      -6.227  18.356  66.135  1.00  0.00     0.000 HD 
HETATM    5  N   UNL     1      -6.542  17.676  69.177  1.00  0.00    -0.246 NA 
HETATM    6  N   UNL     1      -8.127  18.333  67.534  1.00  0.00    -0.238 NA 
HETATM    7  H1  UNL     1      -7.320  17.637  69.835  1.00  0.00     0.000 HD 
HETATM    8  H2  UNL     1      -5.574  17.471  69.423  1.00  0.00     0.000 HD 
HETATM    9  H   UNL     1      -8.309  18.528  66.549  1.00  0.00     0.000 HD 
ENDROOT
BRANCH   6  10
HETATM   10  C   UNL     1      -9.206  18.386  68.526  1.00  0.00    -0.328 C  
BRANCH  10  11
HETATM   11  C   UNL     1     -10.126  17.166  68.450  1.00  0.00    -0.314 C  
HETATM   12  C   UNL     1      -9.747  16.151  69.507  1.00  0.00    -0.179 C  
HETATM   13  O   UNL     1     -10.170  14.906  68.968  1.00  0.00    -0.232 OA 
HETATM   14  C   UNL     1     -10.070  15.058  67.547  1.00  0.00    -0.228 C  
HETATM   15  O   UNL     1      -9.975  16.449  67.213  1.00  0.00    -0.248 OA 
HETATM   16  C   UNL     1     -11.303  14.410  66.911  1.00  0.00    -0.357 C  
HETATM   17  C   UNL     1     -11.315  12.895  67.140  1.00  0.00    -0.352 C  
HETATM   18  C   UNL     1     -10.027  12.237  66.648  1.00  0.00    -0.229 C  
HETATM   19  C   UNL     1      -8.783  12.892  67.240  1.00  0.00    -0.204 C  
HETATM   20  C   UNL     1      -8.788  14.399  67.023  1.00  0.00    -0.256 C  
ENDBRANCH  10  11
ENDBRANCH   6  10
TORSDOF 2
ENDMDL
MODEL      153
REMARK 921   NORMALIZED FREE ENERGY PREDICTED BY IDOCK:   -3.48 KCAL/MOL
REMARK 922        TOTAL FREE ENERGY PREDICTED BY IDOCK:   -4.02 KCAL/MOL
REMARK 923 INTER-LIGAND FREE ENERGY PREDICTED BY IDOCK:   -3.74 KCAL/MOL
REMARK 924 INTRA-LIGAND FREE ENERGY PREDICTED BY IDOCK:   -0.28 KCAL/MOL
REMARK 927      BINDING AFFINITY PREDICTED BY RF-SCORE:    0.00 PKD
ROOT
HETATM    1  N   UNL     1      -7.117  11.356  70.149  1.00  0.00    -0.399 NA 
HETATM    2  C   UNL     1      -7.998  10.564  69.500  1.00  0.00    -0.109 C  
HETATM    3  H2  UNL     1      -6.150  11.097  70.342  1.00  0.00     0.000 HD 
HETATM    4  H1  UNL     1      -7.536  12.245  70.421  1.00  0.00     0.000 HD 
HETATM    5  N   UNL     1      -7.444   9.388  69.141  1.00  0.00    -0.071 NA 
HETATM    6  N   UNL     1      -9.200  10.977  69.328  1.00  0.00    -0.403 NA 
HETATM    7  H1  UNL     1      -8.110   8.790  68.652  1.00  0.00     0.000 HD 
HETATM    8  H2  UNL     1      -6.477   9.128  69.334  1.00  0.00     0.000 HD 
HETATM    9  H   UNL     1      -9.474  11.922  69.598  1.00  0.00     0.000 HD 
ENDROOT
BRANCH   6  10
HETATM   10  C   UNL     1     -10.167  10.051  68.731  1.00  0.00    -0.186 C  
BRANCH  10  11
HETATM   11  C   UNL     1     -10.760   9.085  69.759  1.00  0.00    -0.225 C  
HETATM   12  C   UNL     1     -11.197   9.836  70.998  1.00  0.00    -0.381 C  
HETATM   13  O   UNL     1     -11.110   8.875  72.042  1.00  0.00    -0.356 OA 
HETATM   14  C   UNL     1     -10.058   7.986  71.646  1.00  0.00    -0.184 C  
HETATM   15  O   UNL     1      -9.783   8.150  70.249  1.00  0.00    -0.174 OA 
HETATM   16  C   UNL     1     -10.500   6.555  71.967  1.00  0.00    -0.227 C  
HETATM   17  C   UNL     1     -10.641   6.343  73.478  1.00  0.00    -0.297 C  
HETATM   18  C   UNL     1      -9.359   6.708  74.224  1.00  0.00    -0.247 C  
HETATM   19  C   UNL     1      -8.879   8.117  73.889  1.00  0.00    -0.206 C  
HETATM   20  C   UNL     1      -8.759   8.324  72.385  1.00  0.00    -0.279 C  
ENDBRANCH  10  11
ENDBRANCH   6  10
TORSDOF 2
ENDMDL
MODEL      154
REMARK 921   NORMALIZED FREE ENERGY PREDICTED BY IDOCK:   -3.47 KCAL/MOL
REMARK 922        TOTAL FREE ENERGY PREDICTED BY IDOCK:   -4.01 KCAL/MOL
REMARK 923 INTER-LIGAND FREE ENERGY PREDICTED BY IDOCK:   -3.71 KCAL/MOL
REMARK 924 INTRA-LIGAND FREE ENERGY PREDICTED BY IDOCK:   -0.30 KCAL/MOL
REMARK 927      BINDING AFFINITY PREDICTED BY RF-SCORE:    0.00 PKD
ROOT
HETATM    1  N   UNL     1      -6.150  11.474  71.027  1.00  0.00    -0.464 NA 
HETATM    2  C   UNL     1      -6.754  10.530  70.272  1.00  0.00    -0.123 C  
HETATM    3  H2  UNL     1      -5.140  11.547  71.150  1.00  0.00     0.000 HD 
HETATM    4  H1  UNL     1      -6.826  12.105  71.457  1.00  0.00     0.000 HD 
HETATM    5  N   UNL     1      -5.860   9.696  69.703  1.00  0.00    -0.033 NA 
HETATM    6  N   UNL     1      -8.034  10.513  70.202  1.00  0.00    -0.384 NA 
HETATM    7  H1  UNL     1      -6.317   8.983  69.134  1.00  0.00     0.000 HD 
HETATM    8  H2  UNL     1      -4.850   9.769  69.826  1.00  0.00     0.000 HD 
HETATM    9  H   UNL     1      -8.595  11.246  70.637  1.00  0.00     0.000 HD 
ENDROOT
BRANCH   6  10
HETATM   10  C   UNL     1      -8.669   9.407  69.478  1.00  0.00    -0.161 C  
BRANCH  10  11
HETATM   11  C   UNL     1      -9.625   9.898  68.388  1.00  0.00    -0.148 C  
HETATM   12  C   UNL     1      -8.868  10.183  67.109  1.00  0.00    -0.132 C  
HETATM   13  O   UNL     1      -9.648  11.171  66.450  1.00  0.00    -0.190 OA 
HETATM   14  C   UNL     1     -10.288  11.906  67.500  1.00  0.00    -0.200 C  
HETATM   15  O   UNL     1     -10.224  11.162  68.724  1.00  0.00    -0.195 OA 
HETATM   16  C   UNL     1     -11.736  12.174  67.080  1.00  0.00    -0.373 C  
HETATM   17  C   UNL     1     -11.798  13.101  65.861  1.00  0.00    -0.453 C  
HETATM   18  C   UNL     1     -11.041  14.405  66.101  1.00  0.00    -0.330 C  
HETATM   19  C   UNL     1      -9.606  14.162  66.559  1.00  0.00    -0.310 C  
HETATM   20  C   UNL     1      -9.553  13.226  67.759  1.00  0.00    -0.214 C  
ENDBRANCH  10  11
ENDBRANCH   6  10
TORSDOF 2
ENDMDL
MODEL      155
REMARK 921   NORMALIZED FREE ENERGY PREDICTED BY IDOCK:   -3.46 KCAL/MOL
REMARK 922        TOTAL FREE ENERGY PREDICTED BY IDOCK:   -4.00 KCAL/MOL
REMARK 923 INTER-LIGAND FREE ENERGY PREDICTED BY IDOCK:   -3.55 KCAL/MOL
REMARK 924 INTRA-LIGAND FREE ENERGY PREDICTED BY IDOCK:   -0.45 KCAL/MOL
REMARK 927      BINDING AFFINITY PREDICTED BY RF-SCORE:    0.00 PKD
ROOT
HETATM    1  N   UNL     1      -9.801   4.509  68.631  1.00  0.00    -0.134 NA 
HETATM    2  C   UNL     1      -9.612   5.788  68.238  1.00  0.00    -0.121 C  
HETATM    3  H2  UNL     1     -10.522   3.896  68.253  1.00  0.00     0.000 HD 
HETATM    4  H1  UNL     1      -9.135   4.233  69.353  1.00  0.00     0.000 HD 
HETATM    5  N   UNL     1     -10.493   6.154  67.284  1.00  0.00    -0.219 NA 
HETATM    6  N   UNL     1      -8.690   6.483  68.796  1.00  0.00    -0.124 NA 
HETATM    7  H1  UNL     1     -10.351   7.119  66.988  1.00  0.00     0.000 HD 
HETATM    8  H2  UNL     1     -11.214   5.540  66.905  1.00  0.00     0.000 HD 
HETATM    9  H   UNL     1      -8.048   6.061  69.468  1.00  0.00     0.000 HD 
ENDROOT
BRANCH   6  10
HETATM   10  C   UNL     1      -8.585   7.901  68.439  1.00  0.00    -0.128 C  
BRANCH  10  11
HETATM   11  C   UNL     1      -9.334   8.805  69.421  1.00  0.00    -0.157 C  
HETATM   12  C   UNL     1      -9.173   8.295  70.836  1.00  0.00    -0.155 C  
HETATM   13  O   UNL     1     -10.336   8.756  71.512  1.00  0.00    -0.247 OA 
HETATM   14  C   UNL     1     -11.355   8.815  70.505  1.00  0.00    -0.227 C  
HETATM   15  O   UNL     1     -10.755   8.780  69.204  1.00  0.00    -0.213 OA 
HETATM   16  C   UNL     1     -12.159  10.101  70.719  1.00  0.00    -0.438 C  
HETATM   17  C   UNL     1     -12.924  10.064  72.046  1.00  0.00    -0.514 C  
HETATM   18  C   UNL     1     -13.816   8.828  72.153  1.00  0.00    -0.513 C  
HETATM   19  C   UNL     1     -13.042   7.537  71.905  1.00  0.00    -0.291 C  
HETATM   20  C   UNL     1     -12.271   7.590  70.593  1.00  0.00    -0.068 C  
ENDBRANCH  10  11
ENDBRANCH   6  10
TORSDOF 2
ENDMDL
MODEL      156
REMARK 921   NORMALIZED FREE ENERGY PREDICTED BY IDOCK:   -3.45 KCAL/MOL
REMARK 922        TOTAL FREE ENERGY PREDICTED BY IDOCK:   -3.99 KCAL/MOL
REMARK 923 INTER-LIGAND FREE ENERGY PREDICTED BY IDOCK:   -3.68 KCAL/MOL
REMARK 924 INTRA-LIGAND FREE ENERGY PREDICTED BY IDOCK:   -0.31 KCAL/MOL
REMARK 927      BINDING AFFINITY PREDICTED BY RF-SCORE:    0.00 PKD
ROOT
HETATM    1  N   UNL     1      -6.760  12.063  70.261  1.00  0.00    -0.421 NA 
HETATM    2  C   UNL     1      -6.524  10.734  70.201  1.00  0.00    -0.155 C  
HETATM    3  H2  UNL     1      -6.385  12.678  70.982  1.00  0.00     0.000 HD 
HETATM    4  H1  UNL     1      -7.360  12.375  69.497  1.00  0.00     0.000 HD 
HETATM    5  N   UNL     1      -5.731  10.320  71.211  1.00  0.00    -0.253 NA 
HETATM    6  N   UNL     1      -7.065  10.045  69.264  1.00  0.00    -0.067 NA 
HETATM    7  H1  UNL     1      -5.553   9.317  71.166  1.00  0.00     0.000 HD 
HETATM    8  H2  UNL     1      -5.355  10.935  71.932  1.00  0.00     0.000 HD 
HETATM    9  H   UNL     1      -7.599  10.497  68.521  1.00  0.00     0.000 HD 
ENDROOT
BRANCH   6  10
HETATM   10  C   UNL     1      -6.892   8.589  69.292  1.00  0.00    -0.050 C  
BRANCH  10  11
HETATM   11  C   UNL     1      -8.225   7.848  69.418  1.00  0.00    -0.130 C  
HETATM   12  C   UNL     1      -9.277   8.502  68.549  1.00  0.00    -0.135 C  
HETATM   13  O   UNL     1     -10.507   8.190  69.190  1.00  0.00    -0.220 OA 
HETATM   14  C   UNL     1     -10.186   8.081  70.583  1.00  0.00    -0.196 C  
HETATM   15  O   UNL     1      -8.769   7.934  70.746  1.00  0.00    -0.130 OA 
HETATM   16  C   UNL     1     -10.944   6.879  71.152  1.00  0.00    -0.284 C  
HETATM   17  C   UNL     1     -12.459   7.110  71.118  1.00  0.00    -0.400 C  
HETATM   18  C   UNL     1     -12.852   8.401  71.832  1.00  0.00    -0.384 C  
HETATM   19  C   UNL     1     -12.080   9.608  71.307  1.00  0.00    -0.457 C  
HETATM   20  C   UNL     1     -10.577   9.362  71.328  1.00  0.00    -0.400 C  
ENDBRANCH  10  11
ENDBRANCH   6  10
TORSDOF 2
ENDMDL
MODEL      157
REMARK 921   NORMALIZED FREE ENERGY PREDICTED BY IDOCK:   -3.40 KCAL/MOL
REMARK 922        TOTAL FREE ENERGY PREDICTED BY IDOCK:   -3.93 KCAL/MOL
REMARK 923 INTER-LIGAND FREE ENERGY PREDICTED BY IDOCK:   -3.77 KCAL/MOL
REMARK 924 INTRA-LIGAND FREE ENERGY PREDICTED BY IDOCK:   -0.16 KCAL/MOL
REMARK 927      BINDING AFFINITY PREDICTED BY RF-SCORE:    0.00 PKD
ROOT
HETATM    1  N   UNL     1      -8.028   6.773  67.444  1.00  0.00    -0.113 NA 
HETATM    2  C   UNL     1      -8.575   7.420  66.391  1.00  0.00    -0.134 C  
HETATM    3  H2  UNL     1      -8.301   5.838  67.745  1.00  0.00     0.000 HD 
HETATM    4  H1  UNL     1      -7.310   7.335  67.900  1.00  0.00     0.000 HD 
HETATM    5  N   UNL     1      -9.526   6.677  65.787  1.00  0.00    -0.377 NA 
HETATM    6  N   UNL     1      -8.176   8.605  66.110  1.00  0.00    -0.116 NA 
HETATM    7  H1  UNL     1      -9.939   7.166  64.993  1.00  0.00     0.000 HD 
HETATM    8  H2  UNL     1      -9.799   5.742  66.088  1.00  0.00     0.000 HD 
HETATM    9  H   UNL     1      -7.399   9.032  66.615  1.00  0.00     0.000 HD 
ENDROOT
BRANCH   6  10
HETATM   10  C   UNL     1      -8.870   9.330  65.040  1.00  0.00    -0.198 C  
BRANCH  10  11
HETATM   11  C   UNL     1     -10.020  10.189  65.571  1.00  0.00    -0.293 C  
HETATM   12  C   UNL     1     -10.648  10.985  64.448  1.00  0.00    -0.325 C  
HETATM   13  O   UNL     1     -11.192  12.131  65.089  1.00  0.00    -0.313 OA 
HETATM   14  C   UNL     1     -10.347  12.363  66.222  1.00  0.00    -0.244 C  
HETATM   15  O   UNL     1      -9.565  11.193  66.495  1.00  0.00    -0.189 OA 
HETATM   16  C   UNL     1     -11.237  12.733  67.412  1.00  0.00    -0.337 C  
HETATM   17  C   UNL     1     -11.951  14.069  67.177  1.00  0.00    -0.465 C  
HETATM   18  C   UNL     1     -10.965  15.190  66.853  1.00  0.00    -0.323 C  
HETATM   19  C   UNL     1     -10.040  14.827  65.695  1.00  0.00    -0.393 C  
HETATM   20  C   UNL     1      -9.350  13.490  65.929  1.00  0.00     0.055 C  
ENDBRANCH  10  11
ENDBRANCH   6  10
TORSDOF 2
ENDMDL
MODEL      158
REMARK 921   NORMALIZED FREE ENERGY PREDICTED BY IDOCK:   -3.39 KCAL/MOL
REMARK 922        TOTAL FREE ENERGY PREDICTED BY IDOCK:   -3.92 KCAL/MOL
REMARK 923 INTER-LIGAND FREE ENERGY PREDICTED BY IDOCK:   -3.76 KCAL/MOL
REMARK 924 INTRA-LIGAND FREE ENERGY PREDICTED BY IDOCK:   -0.16 KCAL/MOL
REMARK 927      BINDING AFFINITY PREDICTED BY RF-SCORE:    0.00 PKD
ROOT
HETATM    1  N   UNL     1     -10.264   1.853  74.267  1.00  0.00    -0.107 NA 
HETATM    2  C   UNL     1      -9.964   3.068  73.757  1.00  0.00    -0.110 C  
HETATM    3  H2  UNL     1      -9.895   1.497  75.149  1.00  0.00     0.000 HD 
HETATM    4  H1  UNL     1     -10.903   1.337  73.664  1.00  0.00     0.000 HD 
HETATM    5  N   UNL     1      -9.117   3.751  74.554  1.00  0.00    -0.089 NA 
HETATM    6  N   UNL     1     -10.464   3.411  72.627  1.00  0.00    -0.137 NA 
HETATM    7  H1  UNL     1      -8.890   4.667  74.168  1.00  0.00     0.000 HD 
HETATM    8  H2  UNL     1      -8.748   3.395  75.436  1.00  0.00     0.000 HD 
HETATM    9  H   UNL     1     -11.145   2.818  72.152  1.00  0.00     0.000 HD 
ENDROOT
BRANCH   6  10
HETATM   10  C   UNL     1     -10.027   4.681  72.038  1.00  0.00    -0.189 C  
BRANCH  10  11
HETATM   11  C   UNL     1     -11.166   5.698  71.939  1.00  0.00    -0.181 C  
HETATM   12  C   UNL     1     -11.496   5.984  70.490  1.00  0.00    -0.157 C  
HETATM   13  O   UNL     1     -12.034   7.299  70.504  1.00  0.00    -0.255 OA 
HETATM   14  C   UNL     1     -11.392   7.955  71.604  1.00  0.00    -0.258 C  
HETATM   15  O   UNL     1     -10.792   6.982  72.468  1.00  0.00    -0.228 OA 
HETATM   16  C   UNL     1     -12.445   8.788  72.341  1.00  0.00    -0.421 C  
HETATM   17  C   UNL     1     -12.970   9.926  71.460  1.00  0.00    -0.523 C  
HETATM   18  C   UNL     1     -11.837  10.806  70.935  1.00  0.00    -0.400 C  
HETATM   19  C   UNL     1     -10.755   9.992  70.230  1.00  0.00    -0.367 C  
HETATM   20  C   UNL     1     -10.253   8.853  71.106  1.00  0.00    -0.336 C  
ENDBRANCH  10  11
ENDBRANCH   6  10
TORSDOF 2
ENDMDL
MODEL      159
REMARK 921   NORMALIZED FREE ENERGY PREDICTED BY IDOCK:   -3.38 KCAL/MOL
REMARK 922        TOTAL FREE ENERGY PREDICTED BY IDOCK:   -3.91 KCAL/MOL
REMARK 923 INTER-LIGAND FREE ENERGY PREDICTED BY IDOCK:   -3.64 KCAL/MOL
REMARK 924 INTRA-LIGAND FREE ENERGY PREDICTED BY IDOCK:   -0.27 KCAL/MOL
REMARK 927      BINDING AFFINITY PREDICTED BY RF-SCORE:    0.00 PKD
ROOT
HETATM    1  N   UNL     1      -8.175   5.891  67.610  1.00  0.00    -0.105 NA 
HETATM    2  C   UNL     1      -8.628   6.859  66.784  1.00  0.00    -0.120 C  
HETATM    3  H2  UNL     1      -8.443   4.909  67.542  1.00  0.00     0.000 HD 
HETATM    4  H1  UNL     1      -7.531   6.261  68.309  1.00  0.00     0.000 HD 
HETATM    5  N   UNL     1      -9.479   6.369  65.858  1.00  0.00    -0.378 NA 
HETATM    6  N   UNL     1      -8.246   8.068  66.970  1.00  0.00    -0.115 NA 
HETATM    7  H1  UNL     1      -9.822   7.100  65.235  1.00  0.00     0.000 HD 
HETATM    8  H2  UNL     1      -9.748   5.388  65.790  1.00  0.00     0.000 HD 
HETATM    9  H   UNL     1      -7.544   8.295  67.675  1.00  0.00     0.000 HD 
ENDROOT
BRANCH   6  10
HETATM   10  C   UNL     1      -8.846   9.116  66.138  1.00  0.00    -0.158 C  
BRANCH  10  11
HETATM   11  C   UNL     1      -9.449  10.247  66.973  1.00  0.00    -0.163 C  
HETATM   12  C   UNL     1      -8.657  10.444  68.247  1.00  0.00    -0.128 C  
HETATM   13  O   UNL     1      -9.596  10.990  69.165  1.00  0.00    -0.166 OA 
HETATM   14  C   UNL     1     -10.864  10.456  68.766  1.00  0.00    -0.232 C  
HETATM   15  O   UNL     1     -10.774   9.932  67.434  1.00  0.00    -0.266 OA 
HETATM   16  C   UNL     1     -11.903  11.578  68.859  1.00  0.00    -0.406 C  
HETATM   17  C   UNL     1     -12.108  12.026  70.310  1.00  0.00    -0.395 C  
HETATM   18  C   UNL     1     -12.474  10.855  71.219  1.00  0.00    -0.493 C  
HETATM   19  C   UNL     1     -11.473   9.708  71.113  1.00  0.00    -0.456 C  
HETATM   20  C   UNL     1     -11.263   9.282  69.667  1.00  0.00    -0.061 C  
ENDBRANCH  10  11
ENDBRANCH   6  10
TORSDOF 2
ENDMDL
MODEL      160
REMARK 921   NORMALIZED FREE ENERGY PREDICTED BY IDOCK:   -3.36 KCAL/MOL
REMARK 922        TOTAL FREE ENERGY PREDICTED BY IDOCK:   -3.89 KCAL/MOL
REMARK 923 INTER-LIGAND FREE ENERGY PREDICTED BY IDOCK:   -3.68 KCAL/MOL
REMARK 924 INTRA-LIGAND FREE ENERGY PREDICTED BY IDOCK:   -0.21 KCAL/MOL
REMARK 927      BINDING AFFINITY PREDICTED BY RF-SCORE:    0.00 PKD
ROOT
HETATM    1  N   UNL     1     -10.673   9.869  70.980  1.00  0.00    -0.319 NA 
HETATM    2  C   UNL     1     -10.723   9.884  69.630  1.00  0.00    -0.252 C  
HETATM    3  H2  UNL     1     -10.233   9.129  71.527  1.00  0.00     0.000 HD 
HETATM    4  H1  UNL     1     -11.129  10.686  71.384  1.00  0.00     0.000 HD 
HETATM    5  N   UNL     1     -10.120   8.802  69.094  1.00  0.00    -0.192 NA 
HETATM    6  N   UNL     1     -11.321  10.851  69.038  1.00  0.00    -0.257 NA 
HETATM    7  H1  UNL     1     -10.158   8.814  68.075  1.00  0.00     0.000 HD 
HETATM    8  H2  UNL     1      -9.680   8.062  69.641  1.00  0.00     0.000 HD 
HETATM    9  H   UNL     1     -11.685  11.645  69.565  1.00  0.00     0.000 HD 
ENDROOT
BRANCH   6  10
HETATM   10  C   UNL     1     -11.467  10.782  67.580  1.00  0.00    -0.151 C  
BRANCH  10  11
HETATM   11  C   UNL     1     -11.270  12.144  66.911  1.00  0.00    -0.320 C  
HETATM   12  C   UNL     1     -10.199  12.061  65.846  1.00  0.00    -0.232 C  
HETATM   13  O   UNL     1      -9.674  13.379  65.770  1.00  0.00    -0.230 OA 
HETATM   14  C   UNL     1      -9.833  13.923  67.086  1.00  0.00    -0.241 C  
HETATM   15  O   UNL     1     -10.769  13.131  67.829  1.00  0.00    -0.233 OA 
HETATM   16  C   UNL     1     -10.308  15.372  66.948  1.00  0.00    -0.277 C  
HETATM   17  C   UNL     1      -9.236  16.248  66.291  1.00  0.00    -0.363 C  
HETATM   18  C   UNL     1      -7.905  16.170  67.037  1.00  0.00    -0.258 C  
HETATM   19  C   UNL     1      -7.431  14.731  67.221  1.00  0.00    -0.173 C  
HETATM   20  C   UNL     1      -8.509  13.865  67.857  1.00  0.00    -0.177 C  
ENDBRANCH  10  11
ENDBRANCH   6  10
TORSDOF 2
ENDMDL
MODEL      161
REMARK 921   NORMALIZED FREE ENERGY PREDICTED BY IDOCK:   -3.33 KCAL/MOL
REMARK 922        TOTAL FREE ENERGY PREDICTED BY IDOCK:   -3.85 KCAL/MOL
REMARK 923 INTER-LIGAND FREE ENERGY PREDICTED BY IDOCK:   -3.68 KCAL/MOL
REMARK 924 INTRA-LIGAND FREE ENERGY PREDICTED BY IDOCK:   -0.17 KCAL/MOL
REMARK 927      BINDING AFFINITY PREDICTED BY RF-SCORE:    0.00 PKD
ROOT
HETATM    1  N   UNL     1      -7.491   8.929  63.833  1.00  0.00    -0.108 NA 
HETATM    2  C   UNL     1      -8.744   9.435  63.840  1.00  0.00    -0.202 C  
HETATM    3  H2  UNL     1      -7.028   8.561  63.003  1.00  0.00     0.000 HD 
HETATM    4  H1  UNL     1      -7.066   8.961  64.760  1.00  0.00     0.000 HD 
HETATM    5  N   UNL     1      -9.308   9.393  62.614  1.00  0.00    -0.565 NA 
HETATM    6  N   UNL     1      -9.244   9.852  64.944  1.00  0.00    -0.228 NA 
HETATM    7  H1  UNL     1     -10.253   9.774  62.619  1.00  0.00     0.000 HD 
HETATM    8  H2  UNL     1      -8.844   9.024  61.784  1.00  0.00     0.000 HD 
HETATM    9  H   UNL     1      -8.683   9.884  65.796  1.00  0.00     0.000 HD 
ENDROOT
BRANCH   6  10
HETATM   10  C   UNL     1     -10.646  10.282  64.947  1.00  0.00     0.261 C  
BRANCH  10  11
HETATM   11  C   UNL     1     -10.791  11.789  65.172  1.00  0.00    -0.297 C  
HETATM   12  C   UNL     1      -9.567  12.340  65.870  1.00  0.00    -0.198 C  
HETATM   13  O   UNL     1     -10.044  13.485  66.565  1.00  0.00    -0.268 OA 
HETATM   14  C   UNL     1     -11.412  13.192  66.876  1.00  0.00    -0.341 C  
HETATM   15  O   UNL     1     -11.871  12.101  66.068  1.00  0.00    -0.522 OA 
HETATM   16  C   UNL     1     -12.236  14.459  66.630  1.00  0.00    -0.340 C  
HETATM   17  C   UNL     1     -11.845  15.575  67.605  1.00  0.00     0.076 C  
HETATM   18  C   UNL     1     -11.949  15.120  69.059  1.00  0.00    -0.295 C  
HETATM   19  C   UNL     1     -11.166  13.836  69.319  1.00  0.00    -0.291 C  
HETATM   20  C   UNL     1     -11.549  12.740  68.334  1.00  0.00    -0.365 C  
ENDBRANCH  10  11
ENDBRANCH   6  10
TORSDOF 2
ENDMDL
MODEL      162
REMARK 921   NORMALIZED FREE ENERGY PREDICTED BY IDOCK:   -3.33 KCAL/MOL
REMARK 922        TOTAL FREE ENERGY PREDICTED BY IDOCK:   -3.85 KCAL/MOL
REMARK 923 INTER-LIGAND FREE ENERGY PREDICTED BY IDOCK:   -3.68 KCAL/MOL
REMARK 924 INTRA-LIGAND FREE ENERGY PREDICTED BY IDOCK:   -0.18 KCAL/MOL
REMARK 927      BINDING AFFINITY PREDICTED BY RF-SCORE:    0.00 PKD
ROOT
HETATM    1  N   UNL     1      -7.052   3.423  73.529  1.00  0.00    -0.048 NA 
HETATM    2  C   UNL     1      -7.370   4.315  72.566  1.00  0.00    -0.072 C  
HETATM    3  H2  UNL     1      -6.113   3.058  73.683  1.00  0.00     0.000 HD 
HETATM    4  H1  UNL     1      -7.866   3.159  74.084  1.00  0.00     0.000 HD 
HETATM    5  N   UNL     1      -6.293   4.665  71.832  1.00  0.00    -0.021 NA 
HETATM    6  N   UNL     1      -8.589   4.693  72.442  1.00  0.00    -0.114 NA 
HETATM    7  H1  UNL     1      -6.534   5.338  71.105  1.00  0.00     0.000 HD 
HETATM    8  H2  UNL     1      -5.353   4.300  71.985  1.00  0.00     0.000 HD 
HETATM    9  H   UNL     1      -9.302   4.395  73.109  1.00  0.00     0.000 HD 
ENDROOT
BRANCH   6  10
HETATM   10  C   UNL     1      -8.928   5.567  71.314  1.00  0.00    -0.142 C  
BRANCH  10  11
HETATM   11  C   UNL     1      -9.624   6.853  71.764  1.00  0.00    -0.159 C  
HETATM   12  C   UNL     1     -10.429   6.608  73.022  1.00  0.00    -0.243 C  
HETATM   13  O   UNL     1     -11.464   7.580  72.974  1.00  0.00    -0.312 OA 
HETATM   14  C   UNL     1     -11.702   7.806  71.579  1.00  0.00    -0.280 C  
HETATM   15  O   UNL     1     -10.602   7.303  70.810  1.00  0.00    -0.218 OA 
HETATM   16  C   UNL     1     -11.893   9.311  71.367  1.00  0.00    -0.428 C  
HETATM   17  C   UNL     1     -13.161   9.813  72.064  1.00  0.00    -0.557 C  
HETATM   18  C   UNL     1     -14.398   9.030  71.627  1.00  0.00    -0.240 C  
HETATM   19  C   UNL     1     -14.215   7.525  71.793  1.00  0.00    -0.548 C  
HETATM   20  C   UNL     1     -12.943   7.038  71.112  1.00  0.00    -0.293 C  
ENDBRANCH  10  11
ENDBRANCH   6  10
TORSDOF 2
ENDMDL
MODEL      163
REMARK 921   NORMALIZED FREE ENERGY PREDICTED BY IDOCK:   -3.31 KCAL/MOL
REMARK 922        TOTAL FREE ENERGY PREDICTED BY IDOCK:   -3.84 KCAL/MOL
REMARK 923 INTER-LIGAND FREE ENERGY PREDICTED BY IDOCK:   -3.55 KCAL/MOL
REMARK 924 INTRA-LIGAND FREE ENERGY PREDICTED BY IDOCK:   -0.28 KCAL/MOL
REMARK 927      BINDING AFFINITY PREDICTED BY RF-SCORE:    0.00 PKD
ROOT
HETATM    1  N   UNL     1     -11.160   6.160  73.422  1.00  0.00    -0.458 NA 
HETATM    2  C   UNL     1     -11.634   6.302  72.165  1.00  0.00    -0.319 C  
HETATM    3  H2  UNL     1     -11.680   6.416  74.261  1.00  0.00     0.000 HD 
HETATM    4  H1  UNL     1     -10.220   5.765  73.429  1.00  0.00     0.000 HD 
HETATM    5  N   UNL     1     -12.879   6.824  72.155  1.00  0.00    -0.556 NA 
HETATM    6  N   UNL     1     -10.890   5.970  71.175  1.00  0.00    -0.266 NA 
HETATM    7  H1  UNL     1     -13.236   6.931  71.206  1.00  0.00     0.000 HD 
HETATM    8  H2  UNL     1     -13.398   7.080  72.994  1.00  0.00     0.000 HD 
HETATM    9  H   UNL     1      -9.984   5.526  71.325  1.00  0.00     0.000 HD 
ENDROOT
BRANCH   6  10
HETATM   10  C   UNL     1     -11.380   6.247  69.821  1.00  0.00    -0.436 C  
BRANCH  10  11
HETATM   11  C   UNL     1     -10.504   7.262  69.082  1.00  0.00    -0.215 C  
HETATM   12  C   UNL     1      -9.118   6.699  68.856  1.00  0.00    -0.132 C  
HETATM   13  O   UNL     1      -8.280   7.844  68.783  1.00  0.00    -0.124 OA 
HETATM   14  C   UNL     1      -8.913   8.826  69.613  1.00  0.00    -0.145 C  
HETATM   15  O   UNL     1     -10.273   8.447  69.863  1.00  0.00    -0.192 OA 
HETATM   16  C   UNL     1      -8.829  10.178  68.900  1.00  0.00    -0.154 C  
HETATM   17  C   UNL     1      -7.376  10.651  68.775  1.00  0.00    -0.100 C  
HETATM   18  C   UNL     1      -6.676  10.696  70.132  1.00  0.00    -0.143 C  
HETATM   19  C   UNL     1      -6.782   9.369  70.879  1.00  0.00    -0.097 C  
HETATM   20  C   UNL     1      -8.226   8.899  70.982  1.00  0.00    -0.217 C  
ENDBRANCH  10  11
ENDBRANCH   6  10
TORSDOF 2
ENDMDL
MODEL      164
REMARK 921   NORMALIZED FREE ENERGY PREDICTED BY IDOCK:   -3.31 KCAL/MOL
REMARK 922        TOTAL FREE ENERGY PREDICTED BY IDOCK:   -3.83 KCAL/MOL
REMARK 923 INTER-LIGAND FREE ENERGY PREDICTED BY IDOCK:   -3.66 KCAL/MOL
REMARK 924 INTRA-LIGAND FREE ENERGY PREDICTED BY IDOCK:   -0.17 KCAL/MOL
REMARK 927      BINDING AFFINITY PREDICTED BY RF-SCORE:    0.00 PKD
ROOT
HETATM    1  N   UNL     1      -6.481  12.744  67.012  1.00  0.00    -0.478 NA 
HETATM    2  C   UNL     1      -6.816  11.457  66.778  1.00  0.00    -0.132 C  
HETATM    3  H2  UNL     1      -5.948  13.323  66.364  1.00  0.00     0.000 HD 
HETATM    4  H1  UNL     1      -6.826  13.067  67.916  1.00  0.00     0.000 HD 
HETATM    5  N   UNL     1      -6.359  11.029  65.583  1.00  0.00    -0.366 NA 
HETATM    6  N   UNL     1      -7.470  10.810  67.672  1.00  0.00    -0.094 NA 
HETATM    7  H1  UNL     1      -6.612  10.057  65.407  1.00  0.00     0.000 HD 
HETATM    8  H2  UNL     1      -5.826  11.607  64.934  1.00  0.00     0.000 HD 
HETATM    9  H   UNL     1      -7.810  11.274  68.514  1.00  0.00     0.000 HD 
ENDROOT
BRANCH   6  10
HETATM   10  C   UNL     1      -7.715   9.381  67.446  1.00  0.00    -0.095 C  
BRANCH  10  11
HETATM   11  C   UNL     1      -8.128   8.653  68.727  1.00  0.00    -0.116 C  
HETATM   12  C   UNL     1      -9.296   7.730  68.458  1.00  0.00    -0.147 C  
HETATM   13  O   UNL     1      -9.963   7.631  69.710  1.00  0.00    -0.180 OA 
HETATM   14  C   UNL     1      -9.716   8.881  70.366  1.00  0.00    -0.191 C  
HETATM   15  O   UNL     1      -8.625   9.557  69.728  1.00  0.00    -0.155 OA 
HETATM   16  C   UNL     1      -9.415   8.593  71.839  1.00  0.00    -0.369 C  
HETATM   17  C   UNL     1     -10.640   8.013  72.554  1.00  0.00    -0.397 C  
HETATM   18  C   UNL     1     -11.864   8.914  72.404  1.00  0.00    -0.292 C  
HETATM   19  C   UNL     1     -12.160   9.246  70.944  1.00  0.00    -0.297 C  
HETATM   20  C   UNL     1     -10.932   9.805  70.238  1.00  0.00    -0.352 C  
ENDBRANCH  10  11
ENDBRANCH   6  10
TORSDOF 2
ENDMDL
MODEL      165
REMARK 921   NORMALIZED FREE ENERGY PREDICTED BY IDOCK:   -3.31 KCAL/MOL
REMARK 922        TOTAL FREE ENERGY PREDICTED BY IDOCK:   -3.83 KCAL/MOL
REMARK 923 INTER-LIGAND FREE ENERGY PREDICTED BY IDOCK:   -3.55 KCAL/MOL
REMARK 924 INTRA-LIGAND FREE ENERGY PREDICTED BY IDOCK:   -0.28 KCAL/MOL
REMARK 927      BINDING AFFINITY PREDICTED BY RF-SCORE:    0.00 PKD
ROOT
HETATM    1  N   UNL     1      -5.234  10.814  68.270  1.00  0.00    -0.037 NA 
HETATM    2  C   UNL     1      -6.214  11.284  67.467  1.00  0.00    -0.064 C  
HETATM    3  H2  UNL     1      -4.296  11.212  68.320  1.00  0.00     0.000 HD 
HETATM    4  H1  UNL     1      -5.546  10.013  68.818  1.00  0.00     0.000 HD 
HETATM    5  N   UNL     1      -5.801  12.344  66.741  1.00  0.00    -0.491 NA 
HETATM    6  N   UNL     1      -7.353  10.696  67.463  1.00  0.00    -0.090 NA 
HETATM    7  H1  UNL     1      -6.541  12.698  66.135  1.00  0.00     0.000 HD 
HETATM    8  H2  UNL     1      -4.864  12.741  66.791  1.00  0.00     0.000 HD 
HETATM    9  H   UNL     1      -7.554   9.935  68.112  1.00  0.00     0.000 HD 
ENDROOT
BRANCH   6  10
HETATM   10  C   UNL     1      -8.358  11.149  66.496  1.00  0.00    -0.166 C  
BRANCH  10  11
HETATM   11  C   UNL     1      -9.375  12.108  67.120  1.00  0.00    -0.193 C  
HETATM   12  C   UNL     1     -10.320  12.637  66.064  1.00  0.00    -0.270 C  
HETATM   13  O   UNL     1     -10.740  13.899  66.567  1.00  0.00    -0.276 OA 
HETATM   14  C   UNL     1      -9.640  14.374  67.353  1.00  0.00    -0.216 C  
HETATM   15  O   UNL     1      -8.750  13.290  67.649  1.00  0.00    -0.171 OA 
HETATM   16  C   UNL     1     -10.205  15.001  68.631  1.00  0.00    -0.231 C  
HETATM   17  C   UNL     1     -11.029  16.254  68.317  1.00  0.00    -0.348 C  
HETATM   18  C   UNL     1     -10.228  17.272  67.507  1.00  0.00    -0.328 C  
HETATM   19  C   UNL     1      -9.623  16.658  66.248  1.00  0.00    -0.325 C  
HETATM   20  C   UNL     1      -8.821  15.404  66.568  1.00  0.00    -0.347 C  
ENDBRANCH  10  11
ENDBRANCH   6  10
TORSDOF 2
ENDMDL
MODEL      166
REMARK 921   NORMALIZED FREE ENERGY PREDICTED BY IDOCK:   -3.30 KCAL/MOL
REMARK 922        TOTAL FREE ENERGY PREDICTED BY IDOCK:   -3.82 KCAL/MOL
REMARK 923 INTER-LIGAND FREE ENERGY PREDICTED BY IDOCK:   -3.68 KCAL/MOL
REMARK 924 INTRA-LIGAND FREE ENERGY PREDICTED BY IDOCK:   -0.15 KCAL/MOL
REMARK 927      BINDING AFFINITY PREDICTED BY RF-SCORE:    0.00 PKD
ROOT
HETATM    1  N   UNL     1      -9.829   2.589  73.012  1.00  0.00    -0.106 NA 
HETATM    2  C   UNL     1      -9.780   3.855  73.481  1.00  0.00    -0.107 C  
HETATM    3  H2  UNL     1      -9.293   1.814  73.402  1.00  0.00     0.000 HD 
HETATM    4  H1  UNL     1     -10.466   2.503  72.220  1.00  0.00     0.000 HD 
HETATM    5  N   UNL     1      -8.937   3.969  74.528  1.00  0.00    -0.099 NA 
HETATM    6  N   UNL     1     -10.478   4.762  72.903  1.00  0.00    -0.191 NA 
HETATM    7  H1  UNL     1      -8.900   4.924  74.882  1.00  0.00     0.000 HD 
HETATM    8  H2  UNL     1      -8.401   3.194  74.918  1.00  0.00     0.000 HD 
HETATM    9  H   UNL     1     -11.127   4.527  72.152  1.00  0.00     0.000 HD 
ENDROOT
BRANCH   6  10
HETATM   10  C   UNL     1     -10.314   6.148  73.354  1.00  0.00    -0.239 C  
BRANCH  10  11
HETATM   11  C   UNL     1      -9.939   7.092  72.209  1.00  0.00    -0.171 C  
HETATM   12  C   UNL     1      -9.580   8.459  72.748  1.00  0.00    -0.238 C  
HETATM   13  O   UNL     1      -9.878   9.348  71.679  1.00  0.00    -0.219 OA 
HETATM   14  C   UNL     1     -10.955   8.729  70.966  1.00  0.00    -0.268 C  
HETATM   15  O   UNL     1     -11.050   7.346  71.332  1.00  0.00    -0.236 OA 
HETATM   16  C   UNL     1     -10.691   8.897  69.467  1.00  0.00    -0.206 C  
HETATM   17  C   UNL     1     -10.747  10.371  69.054  1.00  0.00    -0.260 C  
HETATM   18  C   UNL     1     -12.067  11.025  69.461  1.00  0.00    -0.400 C  
HETATM   19  C   UNL     1     -12.370  10.836  70.944  1.00  0.00    -0.497 C  
HETATM   20  C   UNL     1     -12.294   9.370  71.349  1.00  0.00    -0.439 C  
ENDBRANCH  10  11
ENDBRANCH   6  10
TORSDOF 2
ENDMDL
MODEL      167
REMARK 921   NORMALIZED FREE ENERGY PREDICTED BY IDOCK:   -3.28 KCAL/MOL
REMARK 922        TOTAL FREE ENERGY PREDICTED BY IDOCK:   -3.80 KCAL/MOL
REMARK 923 INTER-LIGAND FREE ENERGY PREDICTED BY IDOCK:   -3.52 KCAL/MOL
REMARK 924 INTRA-LIGAND FREE ENERGY PREDICTED BY IDOCK:   -0.28 KCAL/MOL
REMARK 927      BINDING AFFINITY PREDICTED BY RF-SCORE:    0.00 PKD
ROOT
HETATM    1  N   UNL     1      -7.667   9.269  71.199  1.00  0.00    -0.327 NA 
HETATM    2  C   UNL     1      -8.901   9.080  70.682  1.00  0.00    -0.219 C  
HETATM    3  H2  UNL     1      -7.142   8.554  71.701  1.00  0.00     0.000 HD 
HETATM    4  H1  UNL     1      -7.326  10.214  71.026  1.00  0.00     0.000 HD 
HETATM    5  N   UNL     1      -9.353   7.829  70.912  1.00  0.00    -0.153 NA 
HETATM    6  N   UNL     1      -9.486  10.054  70.088  1.00  0.00    -0.396 NA 
HETATM    7  H1  UNL     1     -10.285   7.687  70.522  1.00  0.00     0.000 HD 
HETATM    8  H2  UNL     1      -8.828   7.114  71.414  1.00  0.00     0.000 HD 
HETATM    9  H   UNL     1      -9.003  10.938  69.929  1.00  0.00     0.000 HD 
ENDROOT
BRANCH   6  10
HETATM   10  C   UNL     1     -10.870   9.859  69.645  1.00  0.00    -0.253 C  
BRANCH  10  11
HETATM   11  C   UNL     1     -10.996   9.851  68.120  1.00  0.00    -0.207 C  
HETATM   12  C   UNL     1     -10.594   8.502  67.563  1.00  0.00    -0.214 C  
HETATM   13  O   UNL     1     -10.142   8.785  66.246  1.00  0.00    -0.291 OA 
HETATM   14  C   UNL     1      -9.617  10.117  66.307  1.00  0.00    -0.193 C  
HETATM   15  O   UNL     1     -10.083  10.769  67.496  1.00  0.00    -0.177 OA 
HETATM   16  C   UNL     1     -10.062  10.863  65.046  1.00  0.00    -0.362 C  
HETATM   17  C   UNL     1      -9.433  10.253  63.789  1.00  0.00    -0.352 C  
HETATM   18  C   UNL     1      -7.910  10.194  63.889  1.00  0.00    -0.149 C  
HETATM   19  C   UNL     1      -7.443   9.488  65.159  1.00  0.00    -0.109 C  
HETATM   20  C   UNL     1      -8.087  10.089  66.401  1.00  0.00    -0.120 C  
ENDBRANCH  10  11
ENDBRANCH   6  10
TORSDOF 2
ENDMDL
MODEL      168
REMARK 921   NORMALIZED FREE ENERGY PREDICTED BY IDOCK:   -3.27 KCAL/MOL
REMARK 922        TOTAL FREE ENERGY PREDICTED BY IDOCK:   -3.79 KCAL/MOL
REMARK 923 INTER-LIGAND FREE ENERGY PREDICTED BY IDOCK:   -3.61 KCAL/MOL
REMARK 924 INTRA-LIGAND FREE ENERGY PREDICTED BY IDOCK:   -0.18 KCAL/MOL
REMARK 927      BINDING AFFINITY PREDICTED BY RF-SCORE:    0.00 PKD
ROOT
HETATM    1  N   UNL     1     -11.044  13.943  66.441  1.00  0.00    -0.306 NA 
HETATM    2  C   UNL     1     -11.382  13.579  67.697  1.00  0.00    -0.296 C  
HETATM    3  H2  UNL     1     -11.447  14.740  65.949  1.00  0.00     0.000 HD 
HETATM    4  H1  UNL     1     -10.337  13.323  66.045  1.00  0.00     0.000 HD 
HETATM    5  N   UNL     1     -12.318  14.398  68.221  1.00  0.00    -0.597 NA 
HETATM    6  N   UNL     1     -10.831  12.544  68.217  1.00  0.00    -0.224 NA 
HETATM    7  H1  UNL     1     -12.572  14.122  69.170  1.00  0.00     0.000 HD 
HETATM    8  H2  UNL     1     -12.721  15.194  67.730  1.00  0.00     0.000 HD 
HETATM    9  H   UNL     1     -10.086  12.045  67.730  1.00  0.00     0.000 HD 
ENDROOT
BRANCH   6  10
HETATM   10  C   UNL     1     -11.303  12.100  69.533  1.00  0.00    -0.207 C  
BRANCH  10  11
HETATM   11  C   UNL     1     -11.545  10.590  69.584  1.00  0.00    -0.271 C  
HETATM   12  C   UNL     1     -11.137  10.035  70.932  1.00  0.00    -0.314 C  
HETATM   13  O   UNL     1     -10.798   8.681  70.668  1.00  0.00    -0.217 OA 
HETATM   14  C   UNL     1     -10.317   8.671  69.318  1.00  0.00    -0.221 C  
HETATM   15  O   UNL     1     -10.715   9.877  68.652  1.00  0.00    -0.215 OA 
HETATM   16  C   UNL     1     -10.884   7.431  68.621  1.00  0.00    -0.073 C  
HETATM   17  C   UNL     1     -10.330   6.144  69.240  1.00  0.00    -0.276 C  
HETATM   18  C   UNL     1      -8.803   6.127  69.245  1.00  0.00    -0.124 C  
HETATM   19  C   UNL     1      -8.216   7.374  69.901  1.00  0.00    -0.132 C  
HETATM   20  C   UNL     1      -8.785   8.647  69.291  1.00  0.00    -0.133 C  
ENDBRANCH  10  11
ENDBRANCH   6  10
TORSDOF 2
ENDMDL
MODEL      169
REMARK 921   NORMALIZED FREE ENERGY PREDICTED BY IDOCK:   -3.27 KCAL/MOL
REMARK 922        TOTAL FREE ENERGY PREDICTED BY IDOCK:   -3.78 KCAL/MOL
REMARK 923 INTER-LIGAND FREE ENERGY PREDICTED BY IDOCK:   -3.61 KCAL/MOL
REMARK 924 INTRA-LIGAND FREE ENERGY PREDICTED BY IDOCK:   -0.17 KCAL/MOL
REMARK 927      BINDING AFFINITY PREDICTED BY RF-SCORE:    0.00 PKD
ROOT
HETATM    1  N   UNL     1      -7.835  16.135  66.318  1.00  0.00    -0.179 NA 
HETATM    2  C   UNL     1      -9.049  15.543  66.358  1.00  0.00    -0.316 C  
HETATM    3  H2  UNL     1      -7.609  16.937  65.730  1.00  0.00     0.000 HD 
HETATM    4  H1  UNL     1      -7.172  15.681  66.947  1.00  0.00     0.000 HD 
HETATM    5  N   UNL     1      -9.926  16.142  65.526  1.00  0.00    -0.498 NA 
HETATM    6  N   UNL     1      -9.221  14.523  67.116  1.00  0.00    -0.213 NA 
HETATM    7  H1  UNL     1     -10.841  15.694  65.556  1.00  0.00     0.000 HD 
HETATM    8  H2  UNL     1      -9.700  16.944  64.938  1.00  0.00     0.000 HD 
HETATM    9  H   UNL     1      -8.485  14.206  67.747  1.00  0.00     0.000 HD 
ENDROOT
BRANCH   6  10
HETATM   10  C   UNL     1     -10.510  13.826  67.050  1.00  0.00    -0.274 C  
BRANCH  10  11
HETATM   11  C   UNL     1     -10.476  12.472  67.762  1.00  0.00    -0.220 C  
HETATM   12  C   UNL     1      -9.047  12.040  68.008  1.00  0.00    -0.188 C  
HETATM   13  O   UNL     1      -9.110  10.621  68.051  1.00  0.00    -0.142 OA 
HETATM   14  C   UNL     1     -10.201  10.268  67.192  1.00  0.00    -0.225 C  
HETATM   15  O   UNL     1     -11.021  11.419  66.949  1.00  0.00    -0.275 OA 
HETATM   16  C   UNL     1     -10.994   9.146  67.867  1.00  0.00    -0.035 C  
HETATM   17  C   UNL     1     -10.159   7.866  67.982  1.00  0.00    -0.235 C  
HETATM   18  C   UNL     1      -9.614   7.421  66.627  1.00  0.00    -0.251 C  
HETATM   19  C   UNL     1      -8.852   8.536  65.917  1.00  0.00    -0.219 C  
HETATM   20  C   UNL     1      -9.683   9.809  65.824  1.00  0.00    -0.340 C  
ENDBRANCH  10  11
ENDBRANCH   6  10
TORSDOF 2
ENDMDL
MODEL      170
REMARK 921   NORMALIZED FREE ENERGY PREDICTED BY IDOCK:   -3.25 KCAL/MOL
REMARK 922        TOTAL FREE ENERGY PREDICTED BY IDOCK:   -3.77 KCAL/MOL
REMARK 923 INTER-LIGAND FREE ENERGY PREDICTED BY IDOCK:   -3.49 KCAL/MOL
REMARK 924 INTRA-LIGAND FREE ENERGY PREDICTED BY IDOCK:   -0.28 KCAL/MOL
REMARK 927      BINDING AFFINITY PREDICTED BY RF-SCORE:    0.00 PKD
ROOT
HETATM    1  N   UNL     1      -7.257  10.294  64.735  1.00  0.00    -0.240 NA 
HETATM    2  C   UNL     1      -8.272   9.830  65.497  1.00  0.00    -0.129 C  
HETATM    3  H2  UNL     1      -7.320  10.443  63.728  1.00  0.00     0.000 HD 
HETATM    4  H1  UNL     1      -6.422  10.478  65.290  1.00  0.00     0.000 HD 
HETATM    5  N   UNL     1      -9.378   9.586  64.763  1.00  0.00    -0.405 NA 
HETATM    6  N   UNL     1      -8.082   9.656  66.752  1.00  0.00    -0.112 NA 
HETATM    7  H1  UNL     1     -10.144   9.235  65.338  1.00  0.00     0.000 HD 
HETATM    8  H2  UNL     1      -9.441   9.735  63.756  1.00  0.00     0.000 HD 
HETATM    9  H   UNL     1      -7.208   9.941  67.195  1.00  0.00     0.000 HD 
ENDROOT
BRANCH   6  10
HETATM   10  C   UNL     1      -9.158   9.037  67.533  1.00  0.00    -0.132 C  
BRANCH  10  11
HETATM   11  C   UNL     1      -9.974  10.068  68.316  1.00  0.00    -0.153 C  
HETATM   12  C   UNL     1     -11.409  10.080  67.837  1.00  0.00     0.051 C  
HETATM   13  O   UNL     1     -11.865  11.396  68.121  1.00  0.00    -0.530 OA 
HETATM   14  C   UNL     1     -10.699  12.224  68.027  1.00  0.00    -0.218 C  
HETATM   15  O   UNL     1      -9.520  11.411  68.081  1.00  0.00    -0.168 OA 
HETATM   16  C   UNL     1     -10.740  13.232  69.179  1.00  0.00    -0.086 C  
HETATM   17  C   UNL     1     -11.918  14.200  69.030  1.00  0.00    -0.376 C  
HETATM   18  C   UNL     1     -11.905  14.906  67.675  1.00  0.00    -0.268 C  
HETATM   19  C   UNL     1     -11.825  13.921  66.513  1.00  0.00    -0.440 C  
HETATM   20  C   UNL     1     -10.662  12.953  66.679  1.00  0.00    -0.280 C  
ENDBRANCH  10  11
ENDBRANCH   6  10
TORSDOF 2
ENDMDL
MODEL      171
REMARK 921   NORMALIZED FREE ENERGY PREDICTED BY IDOCK:   -3.22 KCAL/MOL
REMARK 922        TOTAL FREE ENERGY PREDICTED BY IDOCK:   -3.73 KCAL/MOL
REMARK 923 INTER-LIGAND FREE ENERGY PREDICTED BY IDOCK:   -3.59 KCAL/MOL
REMARK 924 INTRA-LIGAND FREE ENERGY PREDICTED BY IDOCK:   -0.14 KCAL/MOL
REMARK 927      BINDING AFFINITY PREDICTED BY RF-SCORE:    0.00 PKD
ROOT
HETATM    1  N   UNL     1     -11.426   4.755  65.443  1.00  0.00    -1.023 NA 
HETATM    2  C   UNL     1     -10.785   5.085  66.586  1.00  0.00    -0.092 C  
HETATM    3  H2  UNL     1     -11.226   3.917  64.898  1.00  0.00     0.000 HD 
HETATM    4  H1  UNL     1     -12.132   5.447  65.192  1.00  0.00     0.000 HD 
HETATM    5  N   UNL     1      -9.850   4.171  66.919  1.00  0.00    -0.249 NA 
HETATM    6  N   UNL     1     -11.096   6.176  67.184  1.00  0.00    -0.563 NA 
HETATM    7  H1  UNL     1      -9.367   4.421  67.781  1.00  0.00     0.000 HD 
HETATM    8  H2  UNL     1      -9.651   3.332  66.374  1.00  0.00     0.000 HD 
HETATM    9  H   UNL     1     -11.872   6.752  66.856  1.00  0.00     0.000 HD 
ENDROOT
BRANCH   6  10
HETATM   10  C   UNL     1     -10.304   6.571  68.353  1.00  0.00    -0.189 C  
BRANCH  10  11
HETATM   11  C   UNL     1     -10.275   8.089  68.550  1.00  0.00    -0.207 C  
HETATM   12  C   UNL     1      -9.566   8.441  69.839  1.00  0.00    -0.171 C  
HETATM   13  O   UNL     1     -10.131   9.687  70.223  1.00  0.00    -0.243 OA 
HETATM   14  C   UNL     1     -11.469   9.667  69.710  1.00  0.00    -0.052 C  
HETATM   15  O   UNL     1     -11.593   8.638  68.719  1.00  0.00     0.741 OA 
HETATM   16  C   UNL     1     -11.775  11.049  69.126  1.00  0.00    -0.403 C  
HETATM   17  C   UNL     1     -11.795  12.122  70.220  1.00  0.00    -0.339 C  
HETATM   18  C   UNL     1     -12.765  11.768  71.345  1.00  0.00    -0.413 C  
HETATM   19  C   UNL     1     -12.503  10.377  71.916  1.00  0.00    -0.291 C  
HETATM   20  C   UNL     1     -12.468   9.321  70.820  1.00  0.00    -0.099 C  
ENDBRANCH  10  11
ENDBRANCH   6  10
TORSDOF 2
ENDMDL
MODEL      172
REMARK 921   NORMALIZED FREE ENERGY PREDICTED BY IDOCK:   -3.21 KCAL/MOL
REMARK 922        TOTAL FREE ENERGY PREDICTED BY IDOCK:   -3.72 KCAL/MOL
REMARK 923 INTER-LIGAND FREE ENERGY PREDICTED BY IDOCK:   -3.57 KCAL/MOL
REMARK 924 INTRA-LIGAND FREE ENERGY PREDICTED BY IDOCK:   -0.15 KCAL/MOL
REMARK 927      BINDING AFFINITY PREDICTED BY RF-SCORE:    0.00 PKD
ROOT
HETATM    1  N   UNL     1      -9.659   5.085  64.980  1.00  0.00    -0.360 NA 
HETATM    2  C   UNL     1      -8.918   5.636  65.966  1.00  0.00    -0.154 C  
HETATM    3  H2  UNL     1      -9.543   5.300  63.990  1.00  0.00     0.000 HD 
HETATM    4  H1  UNL     1     -10.347   4.427  65.346  1.00  0.00     0.000 HD 
HETATM    5  N   UNL     1      -8.008   6.506  65.482  1.00  0.00    -0.111 NA 
HETATM    6  N   UNL     1      -9.160   5.314  67.183  1.00  0.00    -0.112 NA 
HETATM    7  H1  UNL     1      -7.449   6.923  66.227  1.00  0.00     0.000 HD 
HETATM    8  H2  UNL     1      -7.892   6.722  64.492  1.00  0.00     0.000 HD 
HETATM    9  H   UNL     1      -9.842   4.590  67.410  1.00  0.00     0.000 HD 
ENDROOT
BRANCH   6  10
HETATM   10  C   UNL     1      -8.426   6.017  68.241  1.00  0.00    -0.112 C  
BRANCH  10  11
HETATM   11  C   UNL     1      -9.351   6.541  69.341  1.00  0.00    -0.143 C  
HETATM   12  C   UNL     1     -10.787   6.552  68.863  1.00  0.00    -0.301 C  
HETATM   13  O   UNL     1     -11.405   7.580  69.626  1.00  0.00    -0.081 OA 
HETATM   14  C   UNL     1     -10.361   8.524  69.898  1.00  0.00    -0.210 C  
HETATM   15  O   UNL     1      -9.084   7.917  69.663  1.00  0.00    -0.151 OA 
HETATM   16  C   UNL     1     -10.504   8.985  71.351  1.00  0.00    -0.395 C  
HETATM   17  C   UNL     1     -11.804   9.771  71.559  1.00  0.00    -0.476 C  
HETATM   18  C   UNL     1     -11.917  10.946  70.590  1.00  0.00    -0.467 C  
HETATM   19  C   UNL     1     -11.738  10.515  69.137  1.00  0.00    -0.261 C  
HETATM   20  C   UNL     1     -10.454   9.720  68.944  1.00  0.00    -0.233 C  
ENDBRANCH  10  11
ENDBRANCH   6  10
TORSDOF 2
ENDMDL
MODEL      173
REMARK 921   NORMALIZED FREE ENERGY PREDICTED BY IDOCK:   -3.16 KCAL/MOL
REMARK 922        TOTAL FREE ENERGY PREDICTED BY IDOCK:   -3.67 KCAL/MOL
REMARK 923 INTER-LIGAND FREE ENERGY PREDICTED BY IDOCK:   -3.50 KCAL/MOL
REMARK 924 INTRA-LIGAND FREE ENERGY PREDICTED BY IDOCK:   -0.18 KCAL/MOL
REMARK 927      BINDING AFFINITY PREDICTED BY RF-SCORE:    0.00 PKD
ROOT
HETATM    1  N   UNL     1      -6.654  11.046  65.828  1.00  0.00    -0.357 NA 
HETATM    2  C   UNL     1      -7.760  10.297  65.624  1.00  0.00    -0.148 C  
HETATM    3  H2  UNL     1      -5.876  11.107  65.173  1.00  0.00     0.000 HD 
HETATM    4  H1  UNL     1      -6.694  11.544  66.718  1.00  0.00     0.000 HD 
HETATM    5  N   UNL     1      -7.707   9.638  64.448  1.00  0.00    -0.122 NA 
HETATM    6  N   UNL     1      -8.673  10.272  66.524  1.00  0.00    -0.130 NA 
HETATM    7  H1  UNL     1      -8.541   9.071  64.294  1.00  0.00     0.000 HD 
HETATM    8  H2  UNL     1      -6.928   9.698  63.792  1.00  0.00     0.000 HD 
HETATM    9  H   UNL     1      -8.615  10.871  67.347  1.00  0.00     0.000 HD 
ENDROOT
BRANCH   6  10
HETATM   10  C   UNL     1      -9.803   9.358  66.333  1.00  0.00    -0.269 C  
BRANCH  10  11
HETATM   11  C   UNL     1      -9.608   8.031  67.069  1.00  0.00    -0.196 C  
HETATM   12  C   UNL     1     -10.852   7.176  66.957  1.00  0.00    -0.312 C  
HETATM   13  O   UNL     1     -10.821   6.354  68.116  1.00  0.00    -0.257 OA 
HETATM   14  C   UNL     1     -10.146   7.135  69.111  1.00  0.00    -0.183 C  
HETATM   15  O   UNL     1      -9.443   8.216  68.486  1.00  0.00    -0.142 OA 
HETATM   16  C   UNL     1      -9.192   6.211  69.873  1.00  0.00    -0.156 C  
HETATM   17  C   UNL     1      -9.961   5.149  70.666  1.00  0.00    -0.296 C  
HETATM   18  C   UNL     1     -10.990   5.778  71.604  1.00  0.00    -0.308 C  
HETATM   19  C   UNL     1     -11.928   6.733  70.872  1.00  0.00    -0.437 C  
HETATM   20  C   UNL     1     -11.155   7.772  70.072  1.00  0.00    -0.182 C  
ENDBRANCH  10  11
ENDBRANCH   6  10
TORSDOF 2
ENDMDL
MODEL      174
REMARK 921   NORMALIZED FREE ENERGY PREDICTED BY IDOCK:   -3.16 KCAL/MOL
REMARK 922        TOTAL FREE ENERGY PREDICTED BY IDOCK:   -3.67 KCAL/MOL
REMARK 923 INTER-LIGAND FREE ENERGY PREDICTED BY IDOCK:   -3.50 KCAL/MOL
REMARK 924 INTRA-LIGAND FREE ENERGY PREDICTED BY IDOCK:   -0.16 KCAL/MOL
REMARK 927      BINDING AFFINITY PREDICTED BY RF-SCORE:    0.00 PKD
ROOT
HETATM    1  N   UNL     1     -11.662   9.061  71.985  1.00  0.00    -0.361 NA 
HETATM    2  C   UNL     1     -11.879   8.051  71.115  1.00  0.00    -0.284 C  
HETATM    3  H2  UNL     1     -12.403   9.624  72.402  1.00  0.00     0.000 HD 
HETATM    4  H1  UNL     1     -10.669   9.192  72.172  1.00  0.00     0.000 HD 
HETATM    5  N   UNL     1     -13.194   7.877  70.865  1.00  0.00    -0.497 NA 
HETATM    6  N   UNL     1     -10.875   7.419  70.629  1.00  0.00    -0.237 NA 
HETATM    7  H1  UNL     1     -13.357   7.115  70.208  1.00  0.00     0.000 HD 
HETATM    8  H2  UNL     1     -13.934   8.440  71.283  1.00  0.00     0.000 HD 
HETATM    9  H   UNL     1      -9.926   7.612  70.951  1.00  0.00     0.000 HD 
ENDROOT
BRANCH   6  10
HETATM   10  C   UNL     1     -11.130   6.409  69.596  1.00  0.00    -0.401 C  
BRANCH  10  11
HETATM   11  C   UNL     1     -10.809   6.922  68.190  1.00  0.00    -0.194 C  
HETATM   12  C   UNL     1      -9.484   6.366  67.715  1.00  0.00    -0.115 C  
HETATM   13  O   UNL     1      -9.007   7.333  66.789  1.00  0.00    -0.126 OA 
HETATM   14  C   UNL     1      -9.542   8.583  67.244  1.00  0.00    -0.171 C  
HETATM   15  O   UNL     1     -10.616   8.346  68.164  1.00  0.00    -0.197 OA 
HETATM   16  C   UNL     1     -10.014   9.371  66.020  1.00  0.00    -0.352 C  
HETATM   17  C   UNL     1      -8.837   9.757  65.118  1.00  0.00    -0.213 C  
HETATM   18  C   UNL     1      -7.760  10.520  65.887  1.00  0.00    -0.148 C  
HETATM   19  C   UNL     1      -7.301   9.769  67.134  1.00  0.00    -0.087 C  
HETATM   20  C   UNL     1      -8.479   9.375  68.014  1.00  0.00    -0.120 C  
ENDBRANCH  10  11
ENDBRANCH   6  10
TORSDOF 2
ENDMDL
MODEL      175
REMARK 921   NORMALIZED FREE ENERGY PREDICTED BY IDOCK:   -3.15 KCAL/MOL
REMARK 922        TOTAL FREE ENERGY PREDICTED BY IDOCK:   -3.66 KCAL/MOL
REMARK 923 INTER-LIGAND FREE ENERGY PREDICTED BY IDOCK:   -3.53 KCAL/MOL
REMARK 924 INTRA-LIGAND FREE ENERGY PREDICTED BY IDOCK:   -0.13 KCAL/MOL
REMARK 927      BINDING AFFINITY PREDICTED BY RF-SCORE:    0.00 PKD
ROOT
HETATM    1  N   UNL     1      -7.198   5.747  66.195  1.00  0.00    -0.075 NA 
HETATM    2  C   UNL     1      -8.221   6.586  65.924  1.00  0.00    -0.131 C  
HETATM    3  H2  UNL     1      -7.065   4.844  65.741  1.00  0.00     0.000 HD 
HETATM    4  H1  UNL     1      -6.576   6.127  66.908  1.00  0.00     0.000 HD 
HETATM    5  N   UNL     1      -9.045   6.084  64.981  1.00  0.00    -0.350 NA 
HETATM    6  N   UNL     1      -8.311   7.691  66.569  1.00  0.00    -0.124 NA 
HETATM    7  H1  UNL     1      -9.818   6.717  64.777  1.00  0.00     0.000 HD 
HETATM    8  H2  UNL     1      -8.912   5.180  64.527  1.00  0.00     0.000 HD 
HETATM    9  H   UNL     1      -7.580   7.980  67.219  1.00  0.00     0.000 HD 
ENDROOT
BRANCH   6  10
HETATM   10  C   UNL     1      -9.495   8.526  66.344  1.00  0.00    -0.232 C  
BRANCH  10  11
HETATM   11  C   UNL     1      -9.171  10.021  66.396  1.00  0.00    -0.156 C  
HETATM   12  C   UNL     1      -8.948  10.464  67.825  1.00  0.00    -0.131 C  
HETATM   13  O   UNL     1      -9.291  11.843  67.824  1.00  0.00    -0.173 OA 
HETATM   14  C   UNL     1     -10.289  11.981  66.805  1.00  0.00    -0.207 C  
HETATM   15  O   UNL     1     -10.273  10.830  65.950  1.00  0.00    -0.248 OA 
HETATM   16  C   UNL     1      -9.997  13.265  66.023  1.00  0.00    -0.297 C  
HETATM   17  C   UNL     1     -10.169  14.505  66.907  1.00  0.00    -0.264 C  
HETATM   18  C   UNL     1     -11.553  14.552  67.554  1.00  0.00    -0.403 C  
HETATM   19  C   UNL     1     -11.881  13.266  68.306  1.00  0.00    -0.389 C  
HETATM   20  C   UNL     1     -11.689  12.039  67.425  1.00  0.00    -0.352 C  
ENDBRANCH  10  11
ENDBRANCH   6  10
TORSDOF 2
ENDMDL
MODEL      176
REMARK 921   NORMALIZED FREE ENERGY PREDICTED BY IDOCK:   -3.13 KCAL/MOL
REMARK 922        TOTAL FREE ENERGY PREDICTED BY IDOCK:   -3.64 KCAL/MOL
REMARK 923 INTER-LIGAND FREE ENERGY PREDICTED BY IDOCK:   -3.49 KCAL/MOL
REMARK 924 INTRA-LIGAND FREE ENERGY PREDICTED BY IDOCK:   -0.14 KCAL/MOL
REMARK 927      BINDING AFFINITY PREDICTED BY RF-SCORE:    0.00 PKD
ROOT
HETATM    1  N   UNL     1      -6.071  10.918  62.399  1.00  0.00    -0.289 NA 
HETATM    2  C   UNL     1      -7.065  10.358  63.123  1.00  0.00    -0.061 C  
HETATM    3  H2  UNL     1      -5.949  10.781  61.396  1.00  0.00     0.000 HD 
HETATM    4  H1  UNL     1      -5.460  11.494  62.977  1.00  0.00     0.000 HD 
HETATM    5  N   UNL     1      -7.874   9.596  62.359  1.00  0.00    -0.113 NA 
HETATM    6  N   UNL     1      -7.116  10.576  64.386  1.00  0.00    -0.350 NA 
HETATM    7  H1  UNL     1      -8.624   9.174  62.906  1.00  0.00     0.000 HD 
HETATM    8  H2  UNL     1      -7.752   9.459  61.356  1.00  0.00     0.000 HD 
HETATM    9  H   UNL     1      -6.471  11.228  64.833  1.00  0.00     0.000 HD 
ENDROOT
BRANCH   6  10
HETATM   10  C   UNL     1      -8.130   9.861  65.168  1.00  0.00    -0.138 C  
BRANCH  10  11
HETATM   11  C   UNL     1      -9.036  10.812  65.953  1.00  0.00    -0.184 C  
HETATM   12  C   UNL     1      -8.346  11.275  67.218  1.00  0.00    -0.145 C  
HETATM   13  O   UNL     1      -9.411  11.574  68.111  1.00  0.00    -0.171 OA 
HETATM   14  C   UNL     1     -10.474  10.690  67.735  1.00  0.00    -0.221 C  
HETATM   15  O   UNL     1     -10.225  10.158  66.428  1.00  0.00    -0.230 OA 
HETATM   16  C   UNL     1     -11.786  11.480  67.779  1.00  0.00    -0.299 C  
HETATM   17  C   UNL     1     -12.126  11.913  69.209  1.00  0.00    -0.270 C  
HETATM   18  C   UNL     1     -12.162  10.724  70.169  1.00  0.00    -0.425 C  
HETATM   19  C   UNL     1     -10.879   9.900  70.113  1.00  0.00    -0.356 C  
HETATM   20  C   UNL     1     -10.540   9.490  68.686  1.00  0.00    -0.239 C  
ENDBRANCH  10  11
ENDBRANCH   6  10
TORSDOF 2
ENDMDL
MODEL      177
REMARK 921   NORMALIZED FREE ENERGY PREDICTED BY IDOCK:   -3.09 KCAL/MOL
REMARK 922        TOTAL FREE ENERGY PREDICTED BY IDOCK:   -3.59 KCAL/MOL
REMARK 923 INTER-LIGAND FREE ENERGY PREDICTED BY IDOCK:   -3.69 KCAL/MOL
REMARK 924 INTRA-LIGAND FREE ENERGY PREDICTED BY IDOCK:    0.10 KCAL/MOL
REMARK 927      BINDING AFFINITY PREDICTED BY RF-SCORE:    0.00 PKD
ROOT
HETATM    1  N   UNL     1     -13.811  15.525  72.448  1.00  0.00    -0.542 NA 
HETATM    2  C   UNL     1     -12.822  15.277  71.562  1.00  0.00    -0.398 C  
HETATM    3  H2  UNL     1     -13.810  15.195  73.413  1.00  0.00     0.000 HD 
HETATM    4  H1  UNL     1     -14.559  16.082  72.035  1.00  0.00     0.000 HD 
HETATM    5  N   UNL     1     -11.833  14.540  72.108  1.00  0.00    -0.243 NA 
HETATM    6  N   UNL     1     -12.932  15.720  70.364  1.00  0.00    -0.714 NA 
HETATM    7  H1  UNL     1     -11.087  14.352  71.439  1.00  0.00     0.000 HD 
HETATM    8  H2  UNL     1     -11.832  14.209  73.073  1.00  0.00     0.000 HD 
HETATM    9  H   UNL     1     -13.711  16.322  70.095  1.00  0.00     0.000 HD 
ENDROOT
BRANCH   6  10
HETATM   10  C   UNL     1     -11.906  15.334  69.390  1.00  0.00    -0.343 C  
BRANCH  10  11
HETATM   11  C   UNL     1     -10.525  15.887  69.751  1.00  0.00    -0.311 C  
HETATM   12  C   UNL     1     -10.085  16.917  68.733  1.00  0.00    -0.295 C  
HETATM   13  O   UNL     1      -8.665  16.870  68.776  1.00  0.00    -0.255 OA 
HETATM   14  C   UNL     1      -8.345  15.522  69.141  1.00  0.00    -0.253 C  
HETATM   15  O   UNL     1      -9.503  14.878  69.686  1.00  0.00    -0.075 OA 
HETATM   16  C   UNL     1      -7.197  15.564  70.154  1.00  0.00     0.225 C  
HETATM   17  C   UNL     1      -5.914  16.111  69.518  1.00  0.00    -0.162 C  
HETATM   18  C   UNL     1      -5.522  15.326  68.267  1.00  0.00    -0.118 C  
HETATM   19  C   UNL     1      -6.665  15.238  67.260  1.00  0.00    -0.059 C  
HETATM   20  C   UNL     1      -7.939  14.711  67.905  1.00  0.00    -0.149 C  
ENDBRANCH  10  11
ENDBRANCH   6  10
TORSDOF 2
ENDMDL
MODEL      178
REMARK 921   NORMALIZED FREE ENERGY PREDICTED BY IDOCK:   -3.08 KCAL/MOL
REMARK 922        TOTAL FREE ENERGY PREDICTED BY IDOCK:   -3.58 KCAL/MOL
REMARK 923 INTER-LIGAND FREE ENERGY PREDICTED BY IDOCK:   -3.30 KCAL/MOL
REMARK 924 INTRA-LIGAND FREE ENERGY PREDICTED BY IDOCK:   -0.27 KCAL/MOL
REMARK 927      BINDING AFFINITY PREDICTED BY RF-SCORE:    0.00 PKD
ROOT
HETATM    1  N   UNL     1      -9.505  14.962  65.623  1.00  0.00    -0.486 NA 
HETATM    2  C   UNL     1     -10.459  14.079  65.993  1.00  0.00    -0.304 C  
HETATM    3  H2  UNL     1      -9.575  15.969  65.761  1.00  0.00     0.000 HD 
HETATM    4  H1  UNL     1      -8.708  14.497  65.188  1.00  0.00     0.000 HD 
HETATM    5  N   UNL     1     -11.514  14.694  66.568  1.00  0.00    -0.355 NA 
HETATM    6  N   UNL     1     -10.283  12.832  65.752  1.00  0.00    -0.285 NA 
HETATM    7  H1  UNL     1     -12.234  14.027  66.847  1.00  0.00     0.000 HD 
HETATM    8  H2  UNL     1     -11.583  15.702  66.706  1.00  0.00     0.000 HD 
HETATM    9  H   UNL     1      -9.404  12.491  65.363  1.00  0.00     0.000 HD 
ENDROOT
BRANCH   6  10
HETATM   10  C   UNL     1     -11.384  11.911  66.053  1.00  0.00    -0.316 C  
BRANCH  10  11
HETATM   11  C   UNL     1     -11.003  10.878  67.115  1.00  0.00    -0.272 C  
HETATM   12  C   UNL     1     -10.921  11.527  68.479  1.00  0.00    -0.223 C  
HETATM   13  O   UNL     1      -9.998  10.720  69.199  1.00  0.00    -0.208 OA 
HETATM   14  C   UNL     1      -9.106  10.196  68.208  1.00  0.00    -0.122 C  
HETATM   15  O   UNL     1      -9.684  10.346  66.905  1.00  0.00    -0.171 OA 
HETATM   16  C   UNL     1      -8.839   8.725  68.539  1.00  0.00    -0.138 C  
HETATM   17  C   UNL     1      -8.079   8.582  69.863  1.00  0.00    -0.118 C  
HETATM   18  C   UNL     1      -6.786   9.394  69.865  1.00  0.00    -0.058 C  
HETATM   19  C   UNL     1      -7.023  10.857  69.499  1.00  0.00    -0.131 C  
HETATM   20  C   UNL     1      -7.793  10.988  68.193  1.00  0.00    -0.116 C  
ENDBRANCH  10  11
ENDBRANCH   6  10
TORSDOF 2
ENDMDL
MODEL      179
REMARK 921   NORMALIZED FREE ENERGY PREDICTED BY IDOCK:   -3.04 KCAL/MOL
REMARK 922        TOTAL FREE ENERGY PREDICTED BY IDOCK:   -3.54 KCAL/MOL
REMARK 923 INTER-LIGAND FREE ENERGY PREDICTED BY IDOCK:   -3.37 KCAL/MOL
REMARK 924 INTRA-LIGAND FREE ENERGY PREDICTED BY IDOCK:   -0.16 KCAL/MOL
REMARK 927      BINDING AFFINITY PREDICTED BY RF-SCORE:    0.00 PKD
ROOT
HETATM    1  N   UNL     1     -10.951   7.166  73.631  1.00  0.00    -0.534 NA 
HETATM    2  C   UNL     1     -11.495   7.267  72.398  1.00  0.00    -0.287 C  
HETATM    3  H2  UNL     1     -11.345   7.599  74.466  1.00  0.00     0.000 HD 
HETATM    4  H1  UNL     1     -10.100   6.606  73.624  1.00  0.00     0.000 HD 
HETATM    5  N   UNL     1     -12.622   8.009  72.407  1.00  0.00    -0.546 NA 
HETATM    6  N   UNL     1     -10.907   6.703  71.409  1.00  0.00    -0.236 NA 
HETATM    7  H1  UNL     1     -13.032   8.085  71.477  1.00  0.00     0.000 HD 
HETATM    8  H2  UNL     1     -13.016   8.441  73.242  1.00  0.00     0.000 HD 
HETATM    9  H   UNL     1     -10.086   6.114  71.551  1.00  0.00     0.000 HD 
ENDROOT
BRANCH   6  10
HETATM   10  C   UNL     1     -11.450   6.928  70.065  1.00  0.00    -0.277 C  
BRANCH  10  11
HETATM   11  C   UNL     1     -11.014   5.848  69.073  1.00  0.00    -0.289 C  
HETATM   12  C   UNL     1      -9.796   5.115  69.591  1.00  0.00    -0.216 C  
HETATM   13  O   UNL     1      -9.139   4.651  68.418  1.00  0.00    -0.109 OA 
HETATM   14  C   UNL     1      -9.459   5.613  67.405  1.00  0.00    -0.114 C  
HETATM   15  O   UNL     1     -10.577   6.406  67.822  1.00  0.00    -0.200 OA 
HETATM   16  C   UNL     1      -9.761   4.854  66.109  1.00  0.00    -0.200 C  
HETATM   17  C   UNL     1      -8.515   4.133  65.584  1.00  0.00    -0.110 C  
HETATM   18  C   UNL     1      -7.339   5.091  65.404  1.00  0.00    -0.072 C  
HETATM   19  C   UNL     1      -7.044   5.887  66.672  1.00  0.00    -0.069 C  
HETATM   20  C   UNL     1      -8.292   6.585  67.196  1.00  0.00    -0.113 C  
ENDBRANCH  10  11
ENDBRANCH   6  10
TORSDOF 2
ENDMDL
MODEL      180
REMARK 921   NORMALIZED FREE ENERGY PREDICTED BY IDOCK:   -3.04 KCAL/MOL
REMARK 922        TOTAL FREE ENERGY PREDICTED BY IDOCK:   -3.53 KCAL/MOL
REMARK 923 INTER-LIGAND FREE ENERGY PREDICTED BY IDOCK:   -3.37 KCAL/MOL
REMARK 924 INTRA-LIGAND FREE ENERGY PREDICTED BY IDOCK:   -0.16 KCAL/MOL
REMARK 927      BINDING AFFINITY PREDICTED BY RF-SCORE:    0.00 PKD
ROOT
HETATM    1  N   UNL     1     -10.500   3.277  64.415  1.00  0.00    -0.425 NA 
HETATM    2  C   UNL     1      -9.767   3.787  65.428  1.00  0.00    -0.157 C  
HETATM    3  H2  UNL     1     -10.104   2.793  63.610  1.00  0.00     0.000 HD 
HETATM    4  H1  UNL     1     -11.498   3.437  64.554  1.00  0.00     0.000 HD 
HETATM    5  N   UNL     1      -8.446   3.577  65.245  1.00  0.00    -0.105 NA 
HETATM    6  N   UNL     1     -10.362   4.400  66.384  1.00  0.00    -0.374 NA 
HETATM    7  H1  UNL     1      -7.893   3.962  66.010  1.00  0.00     0.000 HD 
HETATM    8  H2  UNL     1      -8.050   3.092  64.441  1.00  0.00     0.000 HD 
HETATM    9  H   UNL     1     -11.380   4.436  66.432  1.00  0.00     0.000 HD 
ENDROOT
BRANCH   6  10
HETATM   10  C   UNL     1      -9.536   5.049  67.407  1.00  0.00    -0.137 C  
BRANCH  10  11
HETATM   11  C   UNL     1      -9.458   6.566  67.216  1.00  0.00    -0.125 C  
HETATM   12  C   UNL     1      -8.374   7.154  68.093  1.00  0.00    -0.124 C  
HETATM   13  O   UNL     1      -8.796   8.491  68.326  1.00  0.00    -0.141 OA 
HETATM   14  C   UNL     1     -10.228   8.445  68.281  1.00  0.00    -0.205 C  
HETATM   15  O   UNL     1     -10.656   7.228  67.656  1.00  0.00    -0.226 OA 
HETATM   16  C   UNL     1     -10.719   9.675  67.512  1.00  0.00    -0.321 C  
HETATM   17  C   UNL     1     -10.394  10.969  68.266  1.00  0.00    -0.197 C  
HETATM   18  C   UNL     1     -10.946  10.949  69.690  1.00  0.00    -0.311 C  
HETATM   19  C   UNL     1     -10.501   9.711  70.464  1.00  0.00    -0.367 C  
HETATM   20  C   UNL     1     -10.812   8.432  69.698  1.00  0.00    -0.153 C  
ENDBRANCH  10  11
ENDBRANCH   6  10
TORSDOF 2
ENDMDL
MODEL      181
REMARK 921   NORMALIZED FREE ENERGY PREDICTED BY IDOCK:   -3.03 KCAL/MOL
REMARK 922        TOTAL FREE ENERGY PREDICTED BY IDOCK:   -3.53 KCAL/MOL
REMARK 923 INTER-LIGAND FREE ENERGY PREDICTED BY IDOCK:   -3.11 KCAL/MOL
REMARK 924 INTRA-LIGAND FREE ENERGY PREDICTED BY IDOCK:   -0.42 KCAL/MOL
REMARK 927      BINDING AFFINITY PREDICTED BY RF-SCORE:    0.00 PKD
ROOT
HETATM    1  N   UNL     1      -9.576   7.742  66.051  1.00  0.00    -0.433 NA 
HETATM    2  C   UNL     1     -10.323   7.698  67.176  1.00  0.00    -0.315 C  
HETATM    3  H2  UNL     1      -9.752   7.171  65.225  1.00  0.00     0.000 HD 
HETATM    4  H1  UNL     1      -8.814   8.416  66.129  1.00  0.00     0.000 HD 
HETATM    5  N   UNL     1     -11.331   6.807  67.073  1.00  0.00    -0.778 NA 
HETATM    6  N   UNL     1     -10.002   8.443  68.169  1.00  0.00    -0.184 NA 
HETATM    7  H1  UNL     1     -11.895   6.774  67.922  1.00  0.00     0.000 HD 
HETATM    8  H2  UNL     1     -11.508   6.236  66.247  1.00  0.00     0.000 HD 
HETATM    9  H   UNL     1      -9.245   9.123  68.092  1.00  0.00     0.000 HD 
ENDROOT
BRANCH   6  10
HETATM   10  C   UNL     1     -10.754   8.288  69.418  1.00  0.00    -0.151 C  
BRANCH  10  11
HETATM   11  C   UNL     1     -10.047   7.363  70.411  1.00  0.00    -0.192 C  
HETATM   12  C   UNL     1      -8.546   7.450  70.239  1.00  0.00    -0.145 C  
HETATM   13  O   UNL     1      -8.066   6.190  70.687  1.00  0.00    -0.112 OA 
HETATM   14  C   UNL     1      -9.123   5.264  70.405  1.00  0.00    -0.139 C  
HETATM   15  O   UNL     1     -10.344   5.978  70.167  1.00  0.00    -0.193 OA 
HETATM   16  C   UNL     1      -9.253   4.313  71.598  1.00  0.00    -0.186 C  
HETATM   17  C   UNL     1      -8.002   3.441  71.751  1.00  0.00    -0.062 C  
HETATM   18  C   UNL     1      -7.680   2.679  70.467  1.00  0.00    -0.043 C  
HETATM   19  C   UNL     1      -7.585   3.604  69.257  1.00  0.00    -0.052 C  
HETATM   20  C   UNL     1      -8.824   4.478  69.123  1.00  0.00    -0.127 C  
ENDBRANCH  10  11
ENDBRANCH   6  10
TORSDOF 2
ENDMDL
MODEL      182
REMARK 921   NORMALIZED FREE ENERGY PREDICTED BY IDOCK:   -3.02 KCAL/MOL
REMARK 922        TOTAL FREE ENERGY PREDICTED BY IDOCK:   -3.51 KCAL/MOL
REMARK 923 INTER-LIGAND FREE ENERGY PREDICTED BY IDOCK:   -3.24 KCAL/MOL
REMARK 924 INTRA-LIGAND FREE ENERGY PREDICTED BY IDOCK:   -0.28 KCAL/MOL
REMARK 927      BINDING AFFINITY PREDICTED BY RF-SCORE:    0.00 PKD
ROOT
HETATM    1  N   UNL     1      -7.808  10.465  70.190  1.00  0.00    -0.413 NA 
HETATM    2  C   UNL     1      -8.502   9.390  70.622  1.00  0.00    -0.193 C  
HETATM    3  H2  UNL     1      -6.792  10.543  70.229  1.00  0.00     0.000 HD 
HETATM    4  H1  UNL     1      -8.423  11.189  69.821  1.00  0.00     0.000 HD 
HETATM    5  N   UNL     1      -7.688   8.431  71.111  1.00  0.00    -0.090 NA 
HETATM    6  N   UNL     1      -9.782   9.403  70.549  1.00  0.00    -0.256 NA 
HETATM    7  H1  UNL     1      -8.213   7.620  71.437  1.00  0.00     0.000 HD 
HETATM    8  H2  UNL     1      -6.672   8.509  71.151  1.00  0.00     0.000 HD 
HETATM    9  H   UNL     1     -10.275  10.173  70.097  1.00  0.00     0.000 HD 
ENDROOT
BRANCH   6  10
HETATM   10  C   UNL     1     -10.517   8.277  71.135  1.00  0.00    -0.209 C  
BRANCH  10  11
HETATM   11  C   UNL     1     -10.921   7.237  70.087  1.00  0.00    -0.260 C  
HETATM   12  C   UNL     1     -10.201   5.930  70.335  1.00  0.00    -0.213 C  
HETATM   13  O   UNL     1     -10.130   5.318  69.053  1.00  0.00    -0.180 OA 
HETATM   14  C   UNL     1     -10.083   6.405  68.121  1.00  0.00    -0.149 C  
HETATM   15  O   UNL     1     -10.507   7.615  68.763  1.00  0.00    -0.207 OA 
HETATM   16  C   UNL     1     -10.986   6.053  66.935  1.00  0.00    -0.350 C  
HETATM   17  C   UNL     1     -10.439   4.850  66.159  1.00  0.00    -0.346 C  
HETATM   18  C   UNL     1      -8.996   5.072  65.711  1.00  0.00    -0.145 C  
HETATM   19  C   UNL     1      -8.086   5.463  66.871  1.00  0.00    -0.105 C  
HETATM   20  C   UNL     1      -8.646   6.647  67.647  1.00  0.00    -0.120 C  
ENDBRANCH  10  11
ENDBRANCH   6  10
TORSDOF 2
ENDMDL
MODEL      183
REMARK 921   NORMALIZED FREE ENERGY PREDICTED BY IDOCK:   -3.02 KCAL/MOL
REMARK 922        TOTAL FREE ENERGY PREDICTED BY IDOCK:   -3.51 KCAL/MOL
REMARK 923 INTER-LIGAND FREE ENERGY PREDICTED BY IDOCK:   -3.34 KCAL/MOL
REMARK 924 INTRA-LIGAND FREE ENERGY PREDICTED BY IDOCK:   -0.18 KCAL/MOL
REMARK 927      BINDING AFFINITY PREDICTED BY RF-SCORE:    0.00 PKD
ROOT
HETATM    1  N   UNL     1     -11.341   3.645  73.602  1.00  0.00    -0.191 NA 
HETATM    2  C   UNL     1     -10.803   4.840  73.272  1.00  0.00    -0.281 C  
HETATM    3  H2  UNL     1     -11.671   3.405  74.536  1.00  0.00     0.000 HD 
HETATM    4  H1  UNL     1     -11.377   3.013  72.802  1.00  0.00     0.000 HD 
HETATM    5  N   UNL     1     -10.755   5.676  74.331  1.00  0.00    -0.398 NA 
HETATM    6  N   UNL     1     -10.396   5.032  72.072  1.00  0.00    -0.210 NA 
HETATM    7  H1  UNL     1     -10.348   6.577  74.082  1.00  0.00     0.000 HD 
HETATM    8  H2  UNL     1     -11.085   5.436  75.265  1.00  0.00     0.000 HD 
HETATM    9  H   UNL     1     -10.549   4.331  71.347  1.00  0.00     0.000 HD 
ENDROOT
BRANCH   6  10
HETATM   10  C   UNL     1      -9.706   6.291  71.772  1.00  0.00    -0.153 C  
BRANCH  10  11
HETATM   11  C   UNL     1     -10.464   7.139  70.748  1.00  0.00    -0.212 C  
HETATM   12  C   UNL     1     -10.934   6.281  69.594  1.00  0.00    -0.374 C  
HETATM   13  O   UNL     1     -11.018   7.180  68.497  1.00  0.00    -0.138 OA 
HETATM   14  C   UNL     1     -10.020   8.176  68.751  1.00  0.00    -0.189 C  
HETATM   15  O   UNL     1      -9.617   8.121  70.126  1.00  0.00    -0.167 OA 
HETATM   16  C   UNL     1     -10.610   9.543  68.393  1.00  0.00    -0.261 C  
HETATM   17  C   UNL     1     -10.893   9.650  66.891  1.00  0.00    -0.106 C  
HETATM   18  C   UNL     1      -9.650   9.347  66.056  1.00  0.00    -0.328 C  
HETATM   19  C   UNL     1      -9.022   8.005  66.423  1.00  0.00    -0.204 C  
HETATM   20  C   UNL     1      -8.761   7.902  67.920  1.00  0.00    -0.124 C  
ENDBRANCH  10  11
ENDBRANCH   6  10
TORSDOF 2
ENDMDL
MODEL      184
REMARK 921   NORMALIZED FREE ENERGY PREDICTED BY IDOCK:   -3.01 KCAL/MOL
REMARK 922        TOTAL FREE ENERGY PREDICTED BY IDOCK:   -3.50 KCAL/MOL
REMARK 923 INTER-LIGAND FREE ENERGY PREDICTED BY IDOCK:   -3.38 KCAL/MOL
REMARK 924 INTRA-LIGAND FREE ENERGY PREDICTED BY IDOCK:   -0.12 KCAL/MOL
REMARK 927      BINDING AFFINITY PREDICTED BY RF-SCORE:    0.00 PKD
ROOT
HETATM    1  N   UNL     1     -11.307  11.730  64.222  1.00  0.00    -0.340 NA 
HETATM    2  C   UNL     1     -10.672  11.649  65.412  1.00  0.00    -0.287 C  
HETATM    3  H2  UNL     1     -12.005  12.437  63.994  1.00  0.00     0.000 HD 
HETATM    4  H1  UNL     1     -11.002  10.998  63.581  1.00  0.00     0.000 HD 
HETATM    5  N   UNL     1     -11.075  12.618  66.262  1.00  0.00    -0.282 NA 
HETATM    6  N   UNL     1      -9.826  10.706  65.606  1.00  0.00    -0.236 NA 
HETATM    7  H1  UNL     1     -10.597  12.556  67.160  1.00  0.00     0.000 HD 
HETATM    8  H2  UNL     1     -11.773  13.325  66.033  1.00  0.00     0.000 HD 
HETATM    9  H   UNL     1      -9.566  10.070  64.852  1.00  0.00     0.000 HD 
ENDROOT
BRANCH   6  10
HETATM   10  C   UNL     1      -9.243  10.568  66.945  1.00  0.00    -0.155 C  
BRANCH  10  11
HETATM   11  C   UNL     1     -10.124   9.736  67.880  1.00  0.00    -0.173 C  
HETATM   12  C   UNL     1      -9.675   9.901  69.315  1.00  0.00    -0.208 C  
HETATM   13  O   UNL     1     -10.075   8.695  69.951  1.00  0.00    -0.186 OA 
HETATM   14  C   UNL     1     -10.028   7.696  68.924  1.00  0.00    -0.176 C  
HETATM   15  O   UNL     1      -9.992   8.325  67.636  1.00  0.00    -0.166 OA 
HETATM   16  C   UNL     1     -11.260   6.800  69.076  1.00  0.00    -0.214 C  
HETATM   17  C   UNL     1     -11.214   6.010  70.389  1.00  0.00    -0.380 C  
HETATM   18  C   UNL     1      -9.923   5.205  70.522  1.00  0.00    -0.304 C  
HETATM   19  C   UNL     1      -8.681   6.073  70.335  1.00  0.00    -0.144 C  
HETATM   20  C   UNL     1      -8.745   6.866  69.037  1.00  0.00    -0.131 C  
ENDBRANCH  10  11
ENDBRANCH   6  10
TORSDOF 2
ENDMDL
MODEL      185
REMARK 921   NORMALIZED FREE ENERGY PREDICTED BY IDOCK:   -3.00 KCAL/MOL
REMARK 922        TOTAL FREE ENERGY PREDICTED BY IDOCK:   -3.49 KCAL/MOL
REMARK 923 INTER-LIGAND FREE ENERGY PREDICTED BY IDOCK:   -3.27 KCAL/MOL
REMARK 924 INTRA-LIGAND FREE ENERGY PREDICTED BY IDOCK:   -0.22 KCAL/MOL
REMARK 927      BINDING AFFINITY PREDICTED BY RF-SCORE:    0.00 PKD
ROOT
HETATM    1  N   UNL     1     -10.202   6.235  70.709  1.00  0.00    -0.189 NA 
HETATM    2  C   UNL     1     -10.028   7.506  70.285  1.00  0.00    -0.192 C  
HETATM    3  H2  UNL     1     -11.048   5.896  71.165  1.00  0.00     0.000 HD 
HETATM    4  H1  UNL     1      -9.383   5.658  70.519  1.00  0.00     0.000 HD 
HETATM    5  N   UNL     1     -11.110   8.271  70.538  1.00  0.00    -0.251 NA 
HETATM    6  N   UNL     1      -8.913   7.837  69.744  1.00  0.00    -0.146 NA 
HETATM    7  H1  UNL     1     -10.978   9.230  70.218  1.00  0.00     0.000 HD 
HETATM    8  H2  UNL     1     -11.957   7.932  70.994  1.00  0.00     0.000 HD 
HETATM    9  H   UNL     1      -8.193   7.139  69.556  1.00  0.00     0.000 HD 
ENDROOT
BRANCH   6  10
HETATM   10  C   UNL     1      -8.705   9.248  69.404  1.00  0.00    -0.148 C  
BRANCH  10  11
HETATM   11  C   UNL     1      -8.835   9.510  67.902  1.00  0.00    -0.119 C  
HETATM   12  C   UNL     1      -7.823  10.542  67.456  1.00  0.00    -0.106 C  
HETATM   13  O   UNL     1      -8.417  11.147  66.314  1.00  0.00    -0.166 OA 
HETATM   14  C   UNL     1      -9.830  11.060  66.536  1.00  0.00    -0.203 C  
HETATM   15  O   UNL     1     -10.103  10.098  67.563  1.00  0.00    -0.182 OA 
HETATM   16  C   UNL     1     -10.496  10.673  65.213  1.00  0.00    -0.264 C  
HETATM   17  C   UNL     1     -10.333  11.779  64.164  1.00  0.00    -0.376 C  
HETATM   18  C   UNL     1     -10.851  13.123  64.673  1.00  0.00    -0.383 C  
HETATM   19  C   UNL     1     -10.229  13.511  66.011  1.00  0.00    -0.308 C  
HETATM   20  C   UNL     1     -10.379  12.399  67.040  1.00  0.00    -0.235 C  
ENDBRANCH  10  11
ENDBRANCH   6  10
TORSDOF 2
ENDMDL
MODEL      186
REMARK 921   NORMALIZED FREE ENERGY PREDICTED BY IDOCK:   -2.99 KCAL/MOL
REMARK 922        TOTAL FREE ENERGY PREDICTED BY IDOCK:   -3.48 KCAL/MOL
REMARK 923 INTER-LIGAND FREE ENERGY PREDICTED BY IDOCK:   -3.62 KCAL/MOL
REMARK 924 INTRA-LIGAND FREE ENERGY PREDICTED BY IDOCK:    0.15 KCAL/MOL
REMARK 927      BINDING AFFINITY PREDICTED BY RF-SCORE:    0.00 PKD
ROOT
HETATM    1  N   UNL     1      -6.380  15.114  67.947  1.00  0.00    -0.148 NA 
HETATM    2  C   UNL     1      -7.505  14.768  67.284  1.00  0.00    -0.141 C  
HETATM    3  H2  UNL     1      -5.591  14.486  68.102  1.00  0.00     0.000 HD 
HETATM    4  H1  UNL     1      -6.415  16.079  68.274  1.00  0.00     0.000 HD 
HETATM    5  N   UNL     1      -7.458  13.491  66.852  1.00  0.00    -0.270 NA 
HETATM    6  N   UNL     1      -8.449  15.627  67.165  1.00  0.00    -0.189 NA 
HETATM    7  H1  UNL     1      -8.308  13.230  66.352  1.00  0.00     0.000 HD 
HETATM    8  H2  UNL     1      -6.670  12.863  67.006  1.00  0.00     0.000 HD 
HETATM    9  H   UNL     1      -8.330  16.587  67.489  1.00  0.00     0.000 HD 
ENDROOT
BRANCH   6  10
HETATM   10  C   UNL     1      -9.706  15.189  66.549  1.00  0.00    -0.271 C  
BRANCH  10  11
HETATM   11  C   UNL     1     -10.459  14.180  67.419  1.00  0.00    -0.271 C  
HETATM   12  C   UNL     1     -11.943  14.238  67.130  1.00  0.00    -0.417 C  
HETATM   13  O   UNL     1     -12.555  13.802  68.336  1.00  0.00     0.108 OA 
HETATM   14  C   UNL     1     -11.652  14.196  69.377  1.00  0.00    -0.304 C  
HETATM   15  O   UNL     1     -10.367  14.497  68.818  1.00  0.00    -0.234 OA 
HETATM   16  C   UNL     1     -11.569  13.051  70.392  1.00  0.00     0.048 C  
HETATM   17  C   UNL     1     -12.911  12.838  71.100  1.00  0.00    -0.315 C  
HETATM   18  C   UNL     1     -13.418  14.122  71.753  1.00  0.00    -0.471 C  
HETATM   19  C   UNL     1     -13.473  15.286  70.769  1.00  0.00    -0.359 C  
HETATM   20  C   UNL     1     -12.140  15.480  70.058  1.00  0.00    -0.391 C  
ENDBRANCH  10  11
ENDBRANCH   6  10
TORSDOF 2
ENDMDL
MODEL      187
REMARK 921   NORMALIZED FREE ENERGY PREDICTED BY IDOCK:   -2.99 KCAL/MOL
REMARK 922        TOTAL FREE ENERGY PREDICTED BY IDOCK:   -3.47 KCAL/MOL
REMARK 923 INTER-LIGAND FREE ENERGY PREDICTED BY IDOCK:   -3.30 KCAL/MOL
REMARK 924 INTRA-LIGAND FREE ENERGY PREDICTED BY IDOCK:   -0.17 KCAL/MOL
REMARK 927      BINDING AFFINITY PREDICTED BY RF-SCORE:    0.00 PKD
ROOT
HETATM    1  N   UNL     1      -6.358   9.356  70.546  1.00  0.00    -0.063 NA 
HETATM    2  C   UNL     1      -7.479   9.675  69.864  1.00  0.00    -0.127 C  
HETATM    3  H2  UNL     1      -6.097   8.405  70.804  1.00  0.00     0.000 HD 
HETATM    4  H1  UNL     1      -5.804  10.182  70.771  1.00  0.00     0.000 HD 
HETATM    5  N   UNL     1      -8.212   8.581  69.566  1.00  0.00    -0.114 NA 
HETATM    6  N   UNL     1      -7.727  10.907  69.609  1.00  0.00    -0.372 NA 
HETATM    7  H1  UNL     1      -9.059   8.823  69.051  1.00  0.00     0.000 HD 
HETATM    8  H2  UNL     1      -7.951   7.630  69.824  1.00  0.00     0.000 HD 
HETATM    9  H   UNL     1      -7.052  11.636  69.840  1.00  0.00     0.000 HD 
ENDROOT
BRANCH   6  10
HETATM   10  C   UNL     1      -9.008  11.236  68.976  1.00  0.00     0.038 C  
BRANCH  10  11
HETATM   11  C   UNL     1      -8.855  11.558  67.488  1.00  0.00    -0.155 C  
HETATM   12  C   UNL     1      -8.867  13.055  67.267  1.00  0.00    -0.208 C  
HETATM   13  O   UNL     1      -9.353  13.212  65.941  1.00  0.00    -0.090 OA 
HETATM   14  C   UNL     1     -10.221  12.093  65.725  1.00  0.00    -0.254 C  
HETATM   15  O   UNL     1      -9.971  11.086  66.714  1.00  0.00    -0.192 OA 
HETATM   16  C   UNL     1      -9.970  11.564  64.310  1.00  0.00    -0.312 C  
HETATM   17  C   UNL     1     -10.387  12.590  63.251  1.00  0.00     0.000 C  
HETATM   18  C   UNL     1     -11.839  13.031  63.429  1.00  0.00    -0.543 C  
HETATM   19  C   UNL     1     -12.121  13.526  64.844  1.00  0.00    -0.431 C  
HETATM   20  C   UNL     1     -11.687  12.507  65.889  1.00  0.00    -0.480 C  
ENDBRANCH  10  11
ENDBRANCH   6  10
TORSDOF 2
ENDMDL
MODEL      188
REMARK 921   NORMALIZED FREE ENERGY PREDICTED BY IDOCK:   -2.97 KCAL/MOL
REMARK 922        TOTAL FREE ENERGY PREDICTED BY IDOCK:   -3.46 KCAL/MOL
REMARK 923 INTER-LIGAND FREE ENERGY PREDICTED BY IDOCK:   -3.27 KCAL/MOL
REMARK 924 INTRA-LIGAND FREE ENERGY PREDICTED BY IDOCK:   -0.19 KCAL/MOL
REMARK 927      BINDING AFFINITY PREDICTED BY RF-SCORE:    0.00 PKD
ROOT
HETATM    1  N   UNL     1      -9.626  11.519  62.641  1.00  0.00    -0.508 NA 
HETATM    2  C   UNL     1     -10.181  11.925  63.803  1.00  0.00    -0.413 C  
HETATM    3  H2  UNL     1      -9.354  12.148  61.886  1.00  0.00     0.000 HD 
HETATM    4  H1  UNL     1      -9.514  10.505  62.609  1.00  0.00     0.000 HD 
HETATM    5  N   UNL     1     -10.330  13.266  63.845  1.00  0.00    -0.689 NA 
HETATM    6  N   UNL     1     -10.509  11.048  64.679  1.00  0.00    -0.336 NA 
HETATM    7  H1  UNL     1     -10.749  13.572  64.723  1.00  0.00     0.000 HD 
HETATM    8  H2  UNL     1     -10.058  13.896  63.091  1.00  0.00     0.000 HD 
HETATM    9  H   UNL     1     -10.283  10.063  64.546  1.00  0.00     0.000 HD 
ENDROOT
BRANCH   6  10
HETATM   10  C   UNL     1     -11.219  11.505  65.878  1.00  0.00    -0.177 C  
BRANCH  10  11
HETATM   11  C   UNL     1     -10.314  11.541  67.112  1.00  0.00    -0.216 C  
HETATM   12  C   UNL     1     -10.593  12.778  67.937  1.00  0.00    -0.221 C  
HETATM   13  O   UNL     1      -9.369  13.035  68.612  1.00  0.00    -0.123 OA 
HETATM   14  C   UNL     1      -8.347  12.540  67.737  1.00  0.00    -0.170 C  
HETATM   15  O   UNL     1      -8.925  11.665  66.761  1.00  0.00    -0.176 OA 
HETATM   16  C   UNL     1      -7.300  11.818  68.590  1.00  0.00    -0.115 C  
HETATM   17  C   UNL     1      -6.575  12.792  69.524  1.00  0.00    -0.031 C  
HETATM   18  C   UNL     1      -5.956  13.959  68.757  1.00  0.00    -0.085 C  
HETATM   19  C   UNL     1      -6.973  14.670  67.870  1.00  0.00    -0.172 C  
HETATM   20  C   UNL     1      -7.701  13.691  66.958  1.00  0.00     0.159 C  
ENDBRANCH  10  11
ENDBRANCH   6  10
TORSDOF 2
ENDMDL
MODEL      189
REMARK 921   NORMALIZED FREE ENERGY PREDICTED BY IDOCK:   -2.97 KCAL/MOL
REMARK 922        TOTAL FREE ENERGY PREDICTED BY IDOCK:   -3.45 KCAL/MOL
REMARK 923 INTER-LIGAND FREE ENERGY PREDICTED BY IDOCK:   -3.24 KCAL/MOL
REMARK 924 INTRA-LIGAND FREE ENERGY PREDICTED BY IDOCK:   -0.21 KCAL/MOL
REMARK 927      BINDING AFFINITY PREDICTED BY RF-SCORE:    0.00 PKD
ROOT
HETATM    1  N   UNL     1     -10.123   4.140  63.315  1.00  0.00    -0.327 NA 
HETATM    2  C   UNL     1     -10.341   4.260  64.642  1.00  0.00    -0.115 C  
HETATM    3  H2  UNL     1     -10.862   4.130  62.613  1.00  0.00     0.000 HD 
HETATM    4  H1  UNL     1      -9.129   4.059  63.100  1.00  0.00     0.000 HD 
HETATM    5  N   UNL     1     -11.656   4.366  64.926  1.00  0.00    -0.984 NA 
HETATM    6  N   UNL     1      -9.341   4.237  65.444  1.00  0.00    -0.152 NA 
HETATM    7  H1  UNL     1     -11.820   4.457  65.929  1.00  0.00     0.000 HD 
HETATM    8  H2  UNL     1     -12.395   4.357  64.224  1.00  0.00     0.000 HD 
HETATM    9  H   UNL     1      -8.384   4.212  65.090  1.00  0.00     0.000 HD 
ENDROOT
BRANCH   6  10
HETATM   10  C   UNL     1      -9.613   4.246  66.885  1.00  0.00    -0.203 C  
BRANCH  10  11
HETATM   11  C   UNL     1      -9.069   5.501  67.571  1.00  0.00    -0.107 C  
HETATM   12  C   UNL     1     -10.027   5.976  68.642  1.00  0.00    -0.149 C  
HETATM   13  O   UNL     1      -9.786   7.374  68.736  1.00  0.00    -0.147 OA 
HETATM   14  C   UNL     1      -9.365   7.771  67.426  1.00  0.00    -0.141 C  
HETATM   15  O   UNL     1      -8.980   6.616  66.668  1.00  0.00    -0.132 OA 
HETATM   16  C   UNL     1      -8.202   8.756  67.578  1.00  0.00    -0.110 C  
HETATM   17  C   UNL     1      -8.659  10.055  68.251  1.00  0.00    -0.115 C  
HETATM   18  C   UNL     1      -9.834  10.693  67.512  1.00  0.00    -0.194 C  
HETATM   19  C   UNL     1     -10.990   9.717  67.314  1.00  0.00    -0.142 C  
HETATM   20  C   UNL     1     -10.523   8.423  66.662  1.00  0.00    -0.221 C  
ENDBRANCH  10  11
ENDBRANCH   6  10
TORSDOF 2
ENDMDL
MODEL      190
REMARK 921   NORMALIZED FREE ENERGY PREDICTED BY IDOCK:   -2.96 KCAL/MOL
REMARK 922        TOTAL FREE ENERGY PREDICTED BY IDOCK:   -3.44 KCAL/MOL
REMARK 923 INTER-LIGAND FREE ENERGY PREDICTED BY IDOCK:   -3.21 KCAL/MOL
REMARK 924 INTRA-LIGAND FREE ENERGY PREDICTED BY IDOCK:   -0.23 KCAL/MOL
REMARK 927      BINDING AFFINITY PREDICTED BY RF-SCORE:    0.00 PKD
ROOT
HETATM    1  N   UNL     1     -10.912   3.163  73.343  1.00  0.00    -0.206 NA 
HETATM    2  C   UNL     1     -10.448   4.333  73.833  1.00  0.00    -0.224 C  
HETATM    3  H2  UNL     1     -10.432   2.269  73.447  1.00  0.00     0.000 HD 
HETATM    4  H1  UNL     1     -11.800   3.282  72.856  1.00  0.00     0.000 HD 
HETATM    5  N   UNL     1      -9.273   4.176  74.477  1.00  0.00    -0.101 NA 
HETATM    6  N   UNL     1     -11.119   5.406  73.625  1.00  0.00    -0.442 NA 
HETATM    7  H1  UNL     1      -8.923   5.060  74.846  1.00  0.00     0.000 HD 
HETATM    8  H2  UNL     1      -8.793   3.282  74.582  1.00  0.00     0.000 HD 
HETATM    9  H   UNL     1     -12.031   5.376  73.171  1.00  0.00     0.000 HD 
ENDROOT
BRANCH   6  10
HETATM   10  C   UNL     1     -10.534   6.679  74.061  1.00  0.00    -0.284 C  
BRANCH  10  11
HETATM   11  C   UNL     1     -10.506   7.720  72.940  1.00  0.00    -0.350 C  
HETATM   12  C   UNL     1     -11.345   7.259  71.769  1.00  0.00    -0.253 C  
HETATM   13  O   UNL     1     -10.764   7.904  70.643  1.00  0.00    -0.220 OA 
HETATM   14  C   UNL     1      -9.378   8.055  70.972  1.00  0.00    -0.149 C  
HETATM   15  O   UNL     1      -9.190   7.879  72.382  1.00  0.00    -0.149 OA 
HETATM   16  C   UNL     1      -8.931   9.447  70.515  1.00  0.00    -0.303 C  
HETATM   17  C   UNL     1      -8.986   9.576  68.989  1.00  0.00    -0.144 C  
HETATM   18  C   UNL     1      -8.178   8.479  68.298  1.00  0.00    -0.123 C  
HETATM   19  C   UNL     1      -8.580   7.084  68.767  1.00  0.00    -0.125 C  
HETATM   20  C   UNL     1      -8.540   6.971  70.285  1.00  0.00    -0.140 C  
ENDBRANCH  10  11
ENDBRANCH   6  10
TORSDOF 2
ENDMDL
MODEL      191
REMARK 921   NORMALIZED FREE ENERGY PREDICTED BY IDOCK:   -2.95 KCAL/MOL
REMARK 922        TOTAL FREE ENERGY PREDICTED BY IDOCK:   -3.43 KCAL/MOL
REMARK 923 INTER-LIGAND FREE ENERGY PREDICTED BY IDOCK:   -3.13 KCAL/MOL
REMARK 924 INTRA-LIGAND FREE ENERGY PREDICTED BY IDOCK:   -0.30 KCAL/MOL
REMARK 927      BINDING AFFINITY PREDICTED BY RF-SCORE:    0.00 PKD
ROOT
HETATM    1  N   UNL     1      -8.578  14.354  67.189  1.00  0.00    -0.213 NA 
HETATM    2  C   UNL     1      -7.667  13.390  67.448  1.00  0.00    -0.137 C  
HETATM    3  H2  UNL     1      -8.635  15.237  67.694  1.00  0.00     0.000 HD 
HETATM    4  H1  UNL     1      -9.203  14.088  66.427  1.00  0.00     0.000 HD 
HETATM    5  N   UNL     1      -6.841  13.741  68.456  1.00  0.00    -0.088 NA 
HETATM    6  N   UNL     1      -7.697  12.303  66.769  1.00  0.00    -0.377 NA 
HETATM    7  H1  UNL     1      -6.153  13.014  68.651  1.00  0.00     0.000 HD 
HETATM    8  H2  UNL     1      -6.897  14.625  68.961  1.00  0.00     0.000 HD 
HETATM    9  H   UNL     1      -8.341  12.191  65.986  1.00  0.00     0.000 HD 
ENDROOT
BRANCH   6  10
HETATM   10  C   UNL     1      -6.776  11.227  67.150  1.00  0.00    -0.113 C  
BRANCH  10  11
HETATM   11  C   UNL     1      -7.426  10.214  68.095  1.00  0.00    -0.083 C  
HETATM   12  C   UNL     1      -8.528   9.459  67.384  1.00  0.00    -0.125 C  
HETATM   13  O   UNL     1      -9.419   9.074  68.423  1.00  0.00    -0.145 OA 
HETATM   14  C   UNL     1      -9.294  10.095  69.421  1.00  0.00    -0.219 C  
HETATM   15  O   UNL     1      -8.099  10.853  69.194  1.00  0.00    -0.149 OA 
HETATM   16  C   UNL     1      -9.278   9.417  70.794  1.00  0.00    -0.278 C  
HETATM   17  C   UNL     1     -10.618   8.739  71.095  1.00  0.00    -0.310 C  
HETATM   18  C   UNL     1     -11.787   9.715  70.973  1.00  0.00    -0.428 C  
HETATM   19  C   UNL     1     -11.801  10.431  69.626  1.00  0.00    -0.252 C  
HETATM   20  C   UNL     1     -10.460  11.086  69.327  1.00  0.00    -0.210 C  
ENDBRANCH  10  11
ENDBRANCH   6  10
TORSDOF 2
ENDMDL
MODEL      192
REMARK 921   NORMALIZED FREE ENERGY PREDICTED BY IDOCK:   -2.94 KCAL/MOL
REMARK 922        TOTAL FREE ENERGY PREDICTED BY IDOCK:   -3.42 KCAL/MOL
REMARK 923 INTER-LIGAND FREE ENERGY PREDICTED BY IDOCK:   -3.10 KCAL/MOL
REMARK 924 INTRA-LIGAND FREE ENERGY PREDICTED BY IDOCK:   -0.32 KCAL/MOL
REMARK 927      BINDING AFFINITY PREDICTED BY RF-SCORE:    0.00 PKD
ROOT
HETATM    1  N   UNL     1      -5.992  10.444  63.633  1.00  0.00    -0.248 NA 
HETATM    2  C   UNL     1      -6.805   9.548  64.235  1.00  0.00    -0.101 C  
HETATM    3  H2  UNL     1      -6.031  10.674  62.641  1.00  0.00     0.000 HD 
HETATM    4  H1  UNL     1      -5.337  10.863  64.293  1.00  0.00     0.000 HD 
HETATM    5  N   UNL     1      -7.672   8.994  63.362  1.00  0.00    -0.118 NA 
HETATM    6  N   UNL     1      -6.659   9.314  65.487  1.00  0.00    -0.068 NA 
HETATM    7  H1  UNL     1      -8.285   8.317  63.816  1.00  0.00     0.000 HD 
HETATM    8  H2  UNL     1      -7.711   9.224  62.369  1.00  0.00     0.000 HD 
HETATM    9  H   UNL     1      -5.999   9.852  66.048  1.00  0.00     0.000 HD 
ENDROOT
BRANCH   6  10
HETATM   10  C   UNL     1      -7.470   8.251  66.088  1.00  0.00    -0.081 C  
BRANCH  10  11
HETATM   11  C   UNL     1      -8.621   8.804  66.931  1.00  0.00    -0.115 C  
HETATM   12  C   UNL     1      -9.945   8.574  66.234  1.00  0.00    -0.181 C  
HETATM   13  O   UNL     1     -10.784   9.613  66.720  1.00  0.00    -0.180 OA 
HETATM   14  C   UNL     1      -9.901  10.705  67.006  1.00  0.00    -0.185 C  
HETATM   15  O   UNL     1      -8.549  10.233  67.075  1.00  0.00    -0.129 OA 
HETATM   16  C   UNL     1     -10.343  11.340  68.327  1.00  0.00    -0.200 C  
HETATM   17  C   UNL     1     -11.728  11.982  68.200  1.00  0.00    -0.398 C  
HETATM   18  C   UNL     1     -11.783  12.992  67.055  1.00  0.00    -0.441 C  
HETATM   19  C   UNL     1     -11.310  12.391  65.735  1.00  0.00    -0.393 C  
HETATM   20  C   UNL     1      -9.940  11.740  65.875  1.00  0.00    -0.266 C  
ENDBRANCH  10  11
ENDBRANCH   6  10
TORSDOF 2
ENDMDL
MODEL      193
REMARK 921   NORMALIZED FREE ENERGY PREDICTED BY IDOCK:   -2.93 KCAL/MOL
REMARK 922        TOTAL FREE ENERGY PREDICTED BY IDOCK:   -3.41 KCAL/MOL
REMARK 923 INTER-LIGAND FREE ENERGY PREDICTED BY IDOCK:   -3.20 KCAL/MOL
REMARK 924 INTRA-LIGAND FREE ENERGY PREDICTED BY IDOCK:   -0.21 KCAL/MOL
REMARK 927      BINDING AFFINITY PREDICTED BY RF-SCORE:    0.00 PKD
ROOT
HETATM    1  N   UNL     1      -6.765   5.494  73.880  1.00  0.00    -0.078 NA 
HETATM    2  C   UNL     1      -7.789   6.337  73.624  1.00  0.00    -0.093 C  
HETATM    3  H2  UNL     1      -6.067   5.647  74.608  1.00  0.00     0.000 HD 
HETATM    4  H1  UNL     1      -6.775   4.687  73.257  1.00  0.00     0.000 HD 
HETATM    5  N   UNL     1      -7.776   7.406  74.448  1.00  0.00    -0.131 NA 
HETATM    6  N   UNL     1      -8.600   6.063  72.669  1.00  0.00    -0.119 NA 
HETATM    7  H1  UNL     1      -8.549   8.042  74.254  1.00  0.00     0.000 HD 
HETATM    8  H2  UNL     1      -7.078   7.559  75.175  1.00  0.00     0.000 HD 
HETATM    9  H   UNL     1      -8.532   5.182  72.159  1.00  0.00     0.000 HD 
ENDROOT
BRANCH   6  10
HETATM   10  C   UNL     1      -9.629   7.053  72.333  1.00  0.00    -0.145 C  
BRANCH  10  11
HETATM   11  C   UNL     1      -9.386   7.703  70.969  1.00  0.00    -0.152 C  
HETATM   12  C   UNL     1      -8.785   9.081  71.140  1.00  0.00    -0.203 C  
HETATM   13  O   UNL     1      -9.190   9.789  69.976  1.00  0.00    -0.222 OA 
HETATM   14  C   UNL     1     -10.446   9.208  69.602  1.00  0.00    -0.223 C  
HETATM   15  O   UNL     1     -10.613   7.946  70.260  1.00  0.00    -0.222 OA 
HETATM   16  C   UNL     1     -10.463   9.054  68.078  1.00  0.00    -0.270 C  
HETATM   17  C   UNL     1     -10.442  10.419  67.382  1.00  0.00    -0.299 C  
HETATM   18  C   UNL     1     -11.579  11.319  67.861  1.00  0.00    -0.330 C  
HETATM   19  C   UNL     1     -11.605  11.455  69.380  1.00  0.00    -0.391 C  
HETATM   20  C   UNL     1     -11.608  10.095  70.064  1.00  0.00    -0.323 C  
ENDBRANCH  10  11
ENDBRANCH   6  10
TORSDOF 2
ENDMDL
MODEL      194
REMARK 921   NORMALIZED FREE ENERGY PREDICTED BY IDOCK:   -2.92 KCAL/MOL
REMARK 922        TOTAL FREE ENERGY PREDICTED BY IDOCK:   -3.40 KCAL/MOL
REMARK 923 INTER-LIGAND FREE ENERGY PREDICTED BY IDOCK:   -3.37 KCAL/MOL
REMARK 924 INTRA-LIGAND FREE ENERGY PREDICTED BY IDOCK:   -0.02 KCAL/MOL
REMARK 927      BINDING AFFINITY PREDICTED BY RF-SCORE:    0.00 PKD
ROOT
HETATM    1  N   UNL     1     -10.701   3.340  63.828  1.00  0.00    -0.352 NA 
HETATM    2  C   UNL     1      -9.687   3.766  64.612  1.00  0.00    -0.183 C  
HETATM    3  H2  UNL     1     -10.973   3.787  62.953  1.00  0.00     0.000 HD 
HETATM    4  H1  UNL     1     -11.162   2.518  64.218  1.00  0.00     0.000 HD 
HETATM    5  N   UNL     1      -9.078   4.854  64.097  1.00  0.00    -0.331 NA 
HETATM    6  N   UNL     1      -9.441   3.146  65.707  1.00  0.00    -0.332 NA 
HETATM    7  H1  UNL     1      -8.313   5.175  64.689  1.00  0.00     0.000 HD 
HETATM    8  H2  UNL     1      -9.350   5.301  63.221  1.00  0.00     0.000 HD 
HETATM    9  H   UNL     1      -9.944   2.292  65.951  1.00  0.00     0.000 HD 
ENDROOT
BRANCH   6  10
HETATM   10  C   UNL     1      -8.417   3.700  66.598  1.00  0.00    -0.106 C  
BRANCH  10  11
HETATM   11  C   UNL     1      -8.906   4.943  67.344  1.00  0.00    -0.103 C  
HETATM   12  C   UNL     1      -7.841   5.441  68.297  1.00  0.00    -0.088 C  
HETATM   13  O   UNL     1      -8.567   6.110  69.319  1.00  0.00    -0.118 OA 
HETATM   14  C   UNL     1      -9.830   5.436  69.384  1.00  0.00    -0.184 C  
HETATM   15  O   UNL     1     -10.027   4.657  68.197  1.00  0.00    -0.133 OA 
HETATM   16  C   UNL     1     -10.925   6.494  69.549  1.00  0.00    -0.398 C  
HETATM   17  C   UNL     1     -10.801   7.218  70.893  1.00  0.00    -0.262 C  
HETATM   18  C   UNL     1     -10.795   6.240  72.066  1.00  0.00    -0.286 C  
HETATM   19  C   UNL     1      -9.736   5.153  71.904  1.00  0.00    -0.211 C  
HETATM   20  C   UNL     1      -9.857   4.452  70.558  1.00  0.00    -0.285 C  
ENDBRANCH  10  11
ENDBRANCH   6  10
TORSDOF 2
ENDMDL
MODEL      195
REMARK 921   NORMALIZED FREE ENERGY PREDICTED BY IDOCK:   -2.91 KCAL/MOL
REMARK 922        TOTAL FREE ENERGY PREDICTED BY IDOCK:   -3.39 KCAL/MOL
REMARK 923 INTER-LIGAND FREE ENERGY PREDICTED BY IDOCK:   -3.23 KCAL/MOL
REMARK 924 INTRA-LIGAND FREE ENERGY PREDICTED BY IDOCK:   -0.16 KCAL/MOL
REMARK 927      BINDING AFFINITY PREDICTED BY RF-SCORE:    0.00 PKD
ROOT
HETATM    1  N   UNL     1      -9.305  20.408  67.063  1.00  0.00    -0.511 NA 
HETATM    2  C   UNL     1      -9.557  19.331  67.839  1.00  0.00    -0.333 C  
HETATM    3  H2  UNL     1      -9.486  21.370  67.346  1.00  0.00     0.000 HD 
HETATM    4  H1  UNL     1      -8.913  20.140  66.161  1.00  0.00     0.000 HD 
HETATM    5  N   UNL     1     -10.078  19.684  69.033  1.00  0.00    -0.586 NA 
HETATM    6  N   UNL     1      -9.315  18.159  67.379  1.00  0.00    -0.253 NA 
HETATM    7  H1  UNL     1     -10.268  18.871  69.618  1.00  0.00     0.000 HD 
HETATM    8  H2  UNL     1     -10.259  20.647  69.315  1.00  0.00     0.000 HD 
HETATM    9  H   UNL     1      -8.860  18.034  66.474  1.00  0.00     0.000 HD 
ENDROOT
BRANCH   6  10
HETATM   10  C   UNL     1      -9.710  17.004  68.192  1.00  0.00    -0.268 C  
BRANCH  10  11
HETATM   11  C   UNL     1      -8.562  16.010  68.387  1.00  0.00    -0.185 C  
HETATM   12  C   UNL     1      -7.826  15.790  67.083  1.00  0.00    -0.212 C  
HETATM   13  O   UNL     1      -7.278  14.485  67.204  1.00  0.00    -0.132 OA 
HETATM   14  C   UNL     1      -8.188  13.773  68.052  1.00  0.00    -0.164 C  
HETATM   15  O   UNL     1      -9.036  14.700  68.742  1.00  0.00    -0.185 OA 
HETATM   16  C   UNL     1      -7.365  12.928  69.029  1.00  0.00     0.057 C  
HETATM   17  C   UNL     1      -6.581  11.836  68.295  1.00  0.00    -0.056 C  
HETATM   18  C   UNL     1      -7.493  10.960  67.438  1.00  0.00    -0.100 C  
HETATM   19  C   UNL     1      -8.351  11.784  66.483  1.00  0.00    -0.093 C  
HETATM   20  C   UNL     1      -9.113  12.878  67.219  1.00  0.00    -0.208 C  
ENDBRANCH  10  11
ENDBRANCH   6  10
TORSDOF 2
ENDMDL
MODEL      196
REMARK 921   NORMALIZED FREE ENERGY PREDICTED BY IDOCK:   -2.91 KCAL/MOL
REMARK 922        TOTAL FREE ENERGY PREDICTED BY IDOCK:   -3.39 KCAL/MOL
REMARK 923 INTER-LIGAND FREE ENERGY PREDICTED BY IDOCK:   -3.16 KCAL/MOL
REMARK 924 INTRA-LIGAND FREE ENERGY PREDICTED BY IDOCK:   -0.23 KCAL/MOL
REMARK 927      BINDING AFFINITY PREDICTED BY RF-SCORE:    0.00 PKD
ROOT
HETATM    1  N   UNL     1      -6.905   6.741  73.183  1.00  0.00    -0.075 NA 
HETATM    2  C   UNL     1      -7.952   7.545  72.897  1.00  0.00    -0.105 C  
HETATM    3  H2  UNL     1      -6.153   6.989  73.825  1.00  0.00     0.000 HD 
HETATM    4  H1  UNL     1      -6.958   5.856  72.679  1.00  0.00     0.000 HD 
HETATM    5  N   UNL     1      -7.882   8.716  73.563  1.00  0.00    -0.415 NA 
HETATM    6  N   UNL     1      -8.834   7.146  72.055  1.00  0.00    -0.126 NA 
HETATM    7  H1  UNL     1      -8.672   9.323  73.347  1.00  0.00     0.000 HD 
HETATM    8  H2  UNL     1      -7.130   8.964  74.206  1.00  0.00     0.000 HD 
HETATM    9  H   UNL     1      -8.800   6.204  71.665  1.00  0.00     0.000 HD 
ENDROOT
BRANCH   6  10
HETATM   10  C   UNL     1      -9.893   8.085  71.670  1.00  0.00    -0.170 C  
BRANCH  10  11
HETATM   11  C   UNL     1     -10.519   7.732  70.319  1.00  0.00    -0.225 C  
HETATM   12  C   UNL     1     -11.404   6.511  70.449  1.00  0.00    -0.383 C  
HETATM   13  O   UNL     1     -11.393   5.929  69.153  1.00  0.00    -0.298 OA 
HETATM   14  C   UNL     1     -10.117   6.271  68.599  1.00  0.00    -0.157 C  
HETATM   15  O   UNL     1      -9.532   7.343  69.350  1.00  0.00    -0.155 OA 
HETATM   16  C   UNL     1     -10.325   6.661  67.132  1.00  0.00    -0.319 C  
HETATM   17  C   UNL     1     -10.802   5.465  66.301  1.00  0.00    -0.161 C  
HETATM   18  C   UNL     1      -9.857   4.272  66.429  1.00  0.00    -0.236 C  
HETATM   19  C   UNL     1      -9.605   3.890  67.885  1.00  0.00    -0.193 C  
HETATM   20  C   UNL     1      -9.148   5.088  68.706  1.00  0.00    -0.140 C  
ENDBRANCH  10  11
ENDBRANCH   6  10
TORSDOF 2
ENDMDL
MODEL      197
REMARK 921   NORMALIZED FREE ENERGY PREDICTED BY IDOCK:   -2.90 KCAL/MOL
REMARK 922        TOTAL FREE ENERGY PREDICTED BY IDOCK:   -3.38 KCAL/MOL
REMARK 923 INTER-LIGAND FREE ENERGY PREDICTED BY IDOCK:   -2.93 KCAL/MOL
REMARK 924 INTRA-LIGAND FREE ENERGY PREDICTED BY IDOCK:   -0.44 KCAL/MOL
REMARK 927      BINDING AFFINITY PREDICTED BY RF-SCORE:    0.00 PKD
ROOT
HETATM    1  N   UNL     1      -7.450  12.488  69.280  1.00  0.00    -0.321 NA 
HETATM    2  C   UNL     1      -7.332  11.652  68.225  1.00  0.00    -0.093 C  
HETATM    3  H2  UNL     1      -6.897  12.413  70.133  1.00  0.00     0.000 HD 
HETATM    4  H1  UNL     1      -8.158  13.204  69.118  1.00  0.00     0.000 HD 
HETATM    5  N   UNL     1      -6.395  10.705  68.439  1.00  0.00    -0.054 NA 
HETATM    6  N   UNL     1      -8.093  11.820  67.207  1.00  0.00    -0.156 NA 
HETATM    7  H1  UNL     1      -6.307  10.073  67.644  1.00  0.00     0.000 HD 
HETATM    8  H2  UNL     1      -5.843  10.629  69.293  1.00  0.00     0.000 HD 
HETATM    9  H   UNL     1      -8.722  12.621  67.148  1.00  0.00     0.000 HD 
ENDROOT
BRANCH   6  10
HETATM   10  C   UNL     1      -8.031  10.827  66.129  1.00  0.00    -0.157 C  
BRANCH  10  11
HETATM   11  C   UNL     1      -9.021   9.680  66.338  1.00  0.00    -0.152 C  
HETATM   12  C   UNL     1     -10.346  10.210  66.840  1.00  0.00    -0.236 C  
HETATM   13  O   UNL     1     -10.905   9.126  67.570  1.00  0.00    -0.242 OA 
HETATM   14  C   UNL     1      -9.781   8.398  68.081  1.00  0.00    -0.155 C  
HETATM   15  O   UNL     1      -8.594   8.777  67.373  1.00  0.00    -0.124 OA 
HETATM   16  C   UNL     1     -10.073   6.903  67.927  1.00  0.00    -0.195 C  
HETATM   17  C   UNL     1     -11.250   6.472  68.810  1.00  0.00    -0.319 C  
HETATM   18  C   UNL     1     -11.026   6.846  70.274  1.00  0.00    -0.322 C  
HETATM   19  C   UNL     1     -10.695   8.325  70.447  1.00  0.00    -0.239 C  
HETATM   20  C   UNL     1      -9.537   8.747  69.553  1.00  0.00    -0.167 C  
ENDBRANCH  10  11
ENDBRANCH   6  10
TORSDOF 2
ENDMDL
MODEL      198
REMARK 921   NORMALIZED FREE ENERGY PREDICTED BY IDOCK:   -2.85 KCAL/MOL
REMARK 922        TOTAL FREE ENERGY PREDICTED BY IDOCK:   -3.32 KCAL/MOL
REMARK 923 INTER-LIGAND FREE ENERGY PREDICTED BY IDOCK:   -3.12 KCAL/MOL
REMARK 924 INTRA-LIGAND FREE ENERGY PREDICTED BY IDOCK:   -0.19 KCAL/MOL
REMARK 927      BINDING AFFINITY PREDICTED BY RF-SCORE:    0.00 PKD
ROOT
HETATM    1  N   UNL     1      -9.358   3.640  64.995  1.00  0.00    -0.148 NA 
HETATM    2  C   UNL     1     -10.276   4.511  65.466  1.00  0.00    -0.231 C  
HETATM    3  H2  UNL     1      -9.529   2.987  64.230  1.00  0.00     0.000 HD 
HETATM    4  H1  UNL     1      -8.473   3.714  65.497  1.00  0.00     0.000 HD 
HETATM    5  N   UNL     1     -11.447   4.413  64.802  1.00  0.00    -1.021 NA 
HETATM    6  N   UNL     1      -9.967   5.274  66.449  1.00  0.00    -0.184 NA 
HETATM    7  H1  UNL     1     -12.140   5.070  65.158  1.00  0.00     0.000 HD 
HETATM    8  H2  UNL     1     -11.618   3.760  64.037  1.00  0.00     0.000 HD 
HETATM    9  H   UNL     1      -9.018   5.290  66.823  1.00  0.00     0.000 HD 
ENDROOT
BRANCH   6  10
HETATM   10  C   UNL     1     -11.017   6.123  67.020  1.00  0.00    -0.330 C  
BRANCH  10  11
HETATM   11  C   UNL     1     -10.548   6.866  68.272  1.00  0.00    -0.215 C  
HETATM   12  C   UNL     1     -10.547   8.360  68.031  1.00  0.00    -0.130 C  
HETATM   13  O   UNL     1      -9.557   8.860  68.920  1.00  0.00    -0.157 OA 
HETATM   14  C   UNL     1      -8.605   7.798  69.057  1.00  0.00    -0.135 C  
HETATM   15  O   UNL     1      -9.180   6.567  68.598  1.00  0.00    -0.128 OA 
HETATM   16  C   UNL     1      -8.197   7.713  70.530  1.00  0.00    -0.121 C  
HETATM   17  C   UNL     1      -7.442   8.971  70.972  1.00  0.00    -0.132 C  
HETATM   18  C   UNL     1      -6.236   9.253  70.078  1.00  0.00    -0.043 C  
HETATM   19  C   UNL     1      -6.613   9.303  68.600  1.00  0.00    -0.053 C  
HETATM   20  C   UNL     1      -7.378   8.057  68.175  1.00  0.00    -0.096 C  
ENDBRANCH  10  11
ENDBRANCH   6  10
TORSDOF 2
ENDMDL
MODEL      199
REMARK 921   NORMALIZED FREE ENERGY PREDICTED BY IDOCK:   -2.84 KCAL/MOL
REMARK 922        TOTAL FREE ENERGY PREDICTED BY IDOCK:   -3.31 KCAL/MOL
REMARK 923 INTER-LIGAND FREE ENERGY PREDICTED BY IDOCK:   -3.14 KCAL/MOL
REMARK 924 INTRA-LIGAND FREE ENERGY PREDICTED BY IDOCK:   -0.17 KCAL/MOL
REMARK 927      BINDING AFFINITY PREDICTED BY RF-SCORE:    0.00 PKD
ROOT
HETATM    1  N   UNL     1      -7.055   6.600  73.034  1.00  0.00    -0.076 NA 
HETATM    2  C   UNL     1      -7.921   7.632  72.934  1.00  0.00    -0.109 C  
HETATM    3  H2  UNL     1      -6.234   6.601  73.639  1.00  0.00     0.000 HD 
HETATM    4  H1  UNL     1      -7.322   5.822  72.432  1.00  0.00     0.000 HD 
HETATM    5  N   UNL     1      -7.568   8.662  73.730  1.00  0.00    -0.406 NA 
HETATM    6  N   UNL     1      -8.912   7.539  72.125  1.00  0.00    -0.126 NA 
HETATM    7  H1  UNL     1      -8.222   9.441  73.654  1.00  0.00     0.000 HD 
HETATM    8  H2  UNL     1      -6.746   8.663  74.335  1.00  0.00     0.000 HD 
HETATM    9  H   UNL     1      -9.100   6.672  71.622  1.00  0.00     0.000 HD 
ENDROOT
BRANCH   6  10
HETATM   10  C   UNL     1      -9.766   8.717  71.945  1.00  0.00    -0.316 C  
BRANCH  10  11
HETATM   11  C   UNL     1     -10.298   8.836  70.515  1.00  0.00    -0.203 C  
HETATM   12  C   UNL     1      -9.308   8.250  69.532  1.00  0.00    -0.158 C  
HETATM   13  O   UNL     1      -9.559   8.949  68.320  1.00  0.00    -0.143 OA 
HETATM   14  C   UNL     1     -10.029  10.241  68.722  1.00  0.00    -0.179 C  
HETATM   15  O   UNL     1     -10.429  10.206  70.098  1.00  0.00    -0.271 OA 
HETATM   16  C   UNL     1     -11.195  10.629  67.808  1.00  0.00    -0.383 C  
HETATM   17  C   UNL     1     -10.727  10.817  66.361  1.00  0.00    -0.228 C  
HETATM   18  C   UNL     1      -9.585  11.827  66.261  1.00  0.00    -0.242 C  
HETATM   19  C   UNL     1      -8.427  11.481  67.193  1.00  0.00    -0.158 C  
HETATM   20  C   UNL     1      -8.904  11.278  68.625  1.00  0.00    -0.141 C  
ENDBRANCH  10  11
ENDBRANCH   6  10
TORSDOF 2
ENDMDL
MODEL      200
REMARK 921   NORMALIZED FREE ENERGY PREDICTED BY IDOCK:   -2.84 KCAL/MOL
REMARK 922        TOTAL FREE ENERGY PREDICTED BY IDOCK:   -3.31 KCAL/MOL
REMARK 923 INTER-LIGAND FREE ENERGY PREDICTED BY IDOCK:   -3.12 KCAL/MOL
REMARK 924 INTRA-LIGAND FREE ENERGY PREDICTED BY IDOCK:   -0.19 KCAL/MOL
REMARK 927      BINDING AFFINITY PREDICTED BY RF-SCORE:    0.00 PKD
ROOT
HETATM    1  N   UNL     1      -7.705   4.790  68.419  1.00  0.00    -0.080 NA 
HETATM    2  C   UNL     1      -7.693   5.626  67.357  1.00  0.00    -0.100 C  
HETATM    3  H2  UNL     1      -7.975   3.808  68.370  1.00  0.00     0.000 HD 
HETATM    4  H1  UNL     1      -7.411   5.261  69.274  1.00  0.00     0.000 HD 
HETATM    5  N   UNL     1      -8.083   5.003  66.225  1.00  0.00    -0.107 NA 
HETATM    6  N   UNL     1      -7.359   6.851  67.530  1.00  0.00    -0.093 NA 
HETATM    7  H1  UNL     1      -8.074   5.634  65.424  1.00  0.00     0.000 HD 
HETATM    8  H2  UNL     1      -8.353   4.021  66.176  1.00  0.00     0.000 HD 
HETATM    9  H   UNL     1      -7.024   7.181  68.436  1.00  0.00     0.000 HD 
ENDROOT
BRANCH   6  10
HETATM   10  C   UNL     1      -7.471   7.764  66.388  1.00  0.00    -0.084 C  
BRANCH  10  11
HETATM   11  C   UNL     1      -8.348   8.979  66.700  1.00  0.00    -0.118 C  
HETATM   12  C   UNL     1      -9.791   8.695  66.345  1.00  0.00    -0.270 C  
HETATM   13  O   UNL     1     -10.343   9.974  66.062  1.00  0.00    -0.231 OA 
HETATM   14  C   UNL     1      -9.250  10.751  65.556  1.00  0.00    -0.202 C  
HETATM   15  O   UNL     1      -8.008  10.115  65.885  1.00  0.00    -0.123 OA 
HETATM   16  C   UNL     1      -9.342  12.153  66.165  1.00  0.00    -0.198 C  
HETATM   17  C   UNL     1     -10.598  12.887  65.683  1.00  0.00    -0.295 C  
HETATM   18  C   UNL     1     -10.675  12.939  64.159  1.00  0.00    -0.443 C  
HETATM   19  C   UNL     1     -10.547  11.555  63.528  1.00  0.00    -0.487 C  
HETATM   20  C   UNL     1      -9.306  10.827  64.026  1.00  0.00    -0.285 C  
ENDBRANCH  10  11
ENDBRANCH   6  10
TORSDOF 2
ENDMDL
MODEL      201
REMARK 921   NORMALIZED FREE ENERGY PREDICTED BY IDOCK:   -2.82 KCAL/MOL
REMARK 922        TOTAL FREE ENERGY PREDICTED BY IDOCK:   -3.29 KCAL/MOL
REMARK 923 INTER-LIGAND FREE ENERGY PREDICTED BY IDOCK:   -3.06 KCAL/MOL
REMARK 924 INTRA-LIGAND FREE ENERGY PREDICTED BY IDOCK:   -0.22 KCAL/MOL
REMARK 927      BINDING AFFINITY PREDICTED BY RF-SCORE:    0.00 PKD
ROOT
HETATM    1  N   UNL     1      -5.125  12.858  68.528  1.00  0.00    -0.060 NA 
HETATM    2  C   UNL     1      -6.331  12.494  69.019  1.00  0.00    -0.092 C  
HETATM    3  H2  UNL     1      -4.593  13.663  68.859  1.00  0.00     0.000 HD 
HETATM    4  H1  UNL     1      -4.813  12.231  67.788  1.00  0.00     0.000 HD 
HETATM    5  N   UNL     1      -6.745  13.325  69.998  1.00  0.00    -0.351 NA 
HETATM    6  N   UNL     1      -6.928  11.477  68.516  1.00  0.00    -0.076 NA 
HETATM    7  H1  UNL     1      -7.654  13.050  70.368  1.00  0.00     0.000 HD 
HETATM    8  H2  UNL     1      -6.213  14.130  70.329  1.00  0.00     0.000 HD 
HETATM    9  H   UNL     1      -6.472  10.894  67.814  1.00  0.00     0.000 HD 
ENDROOT
BRANCH   6  10
HETATM   10  C   UNL     1      -8.286  11.177  68.981  1.00  0.00    -0.062 C  
BRANCH  10  11
HETATM   11  C   UNL     1      -9.338  11.414  67.896  1.00  0.00    -0.164 C  
HETATM   12  C   UNL     1     -10.025  10.116  67.532  1.00  0.00    -0.191 C  
HETATM   13  O   UNL     1     -10.451  10.307  66.189  1.00  0.00    -0.210 OA 
HETATM   14  C   UNL     1      -9.494  11.207  65.617  1.00  0.00    -0.224 C  
HETATM   15  O   UNL     1      -8.751  11.853  66.659  1.00  0.00    -0.192 OA 
HETATM   16  C   UNL     1     -10.252  12.221  64.756  1.00  0.00    -0.308 C  
HETATM   17  C   UNL     1     -10.916  11.543  63.553  1.00  0.00    -0.453 C  
HETATM   18  C   UNL     1      -9.909  10.752  62.721  1.00  0.00    -0.239 C  
HETATM   19  C   UNL     1      -9.114   9.761  63.566  1.00  0.00    -0.263 C  
HETATM   20  C   UNL     1      -8.473  10.441  64.768  1.00  0.00    -0.176 C  
ENDBRANCH  10  11
ENDBRANCH   6  10
TORSDOF 2
ENDMDL
MODEL      202
REMARK 921   NORMALIZED FREE ENERGY PREDICTED BY IDOCK:   -2.81 KCAL/MOL
REMARK 922        TOTAL FREE ENERGY PREDICTED BY IDOCK:   -3.27 KCAL/MOL
REMARK 923 INTER-LIGAND FREE ENERGY PREDICTED BY IDOCK:   -3.15 KCAL/MOL
REMARK 924 INTRA-LIGAND FREE ENERGY PREDICTED BY IDOCK:   -0.12 KCAL/MOL
REMARK 927      BINDING AFFINITY PREDICTED BY RF-SCORE:    0.00 PKD
ROOT
HETATM    1  N   UNL     1      -9.825   3.337  64.805  1.00  0.00    -0.299 NA 
HETATM    2  C   UNL     1      -9.135   3.910  65.815  1.00  0.00    -0.145 C  
HETATM    3  H2  UNL     1      -9.417   3.085  63.905  1.00  0.00     0.000 HD 
HETATM    4  H1  UNL     1     -10.803   3.187  65.051  1.00  0.00     0.000 HD 
HETATM    5  N   UNL     1      -7.841   4.108  65.489  1.00  0.00    -0.089 NA 
HETATM    6  N   UNL     1      -9.750   4.209  66.900  1.00  0.00    -0.212 NA 
HETATM    7  H1  UNL     1      -7.321   4.541  66.252  1.00  0.00     0.000 HD 
HETATM    8  H2  UNL     1      -7.433   3.856  64.589  1.00  0.00     0.000 HD 
HETATM    9  H   UNL     1     -10.726   3.947  67.040  1.00  0.00     0.000 HD 
ENDROOT
BRANCH   6  10
HETATM   10  C   UNL     1      -9.008   4.940  67.933  1.00  0.00    -0.109 C  
BRANCH  10  11
HETATM   11  C   UNL     1      -9.906   5.885  68.734  1.00  0.00    -0.140 C  
HETATM   12  C   UNL     1      -9.184   7.185  69.018  1.00  0.00    -0.135 C  
HETATM   13  O   UNL     1      -9.782   7.666  70.214  1.00  0.00    -0.179 OA 
HETATM   14  C   UNL     1     -10.192   6.492  70.927  1.00  0.00    -0.190 C  
HETATM   15  O   UNL     1     -10.210   5.366  70.040  1.00  0.00    -0.231 OA 
HETATM   16  C   UNL     1     -11.576   6.758  71.526  1.00  0.00    -0.344 C  
HETATM   17  C   UNL     1     -11.519   7.860  72.589  1.00  0.00    -0.454 C  
HETATM   18  C   UNL     1     -10.496   7.545  73.678  1.00  0.00    -0.285 C  
HETATM   19  C   UNL     1      -9.117   7.238  73.102  1.00  0.00    -0.193 C  
HETATM   20  C   UNL     1      -9.186   6.155  72.034  1.00  0.00    -0.148 C  
ENDBRANCH  10  11
ENDBRANCH   6  10
TORSDOF 2
ENDMDL
MODEL      203
REMARK 921   NORMALIZED FREE ENERGY PREDICTED BY IDOCK:   -2.80 KCAL/MOL
REMARK 922        TOTAL FREE ENERGY PREDICTED BY IDOCK:   -3.27 KCAL/MOL
REMARK 923 INTER-LIGAND FREE ENERGY PREDICTED BY IDOCK:   -3.17 KCAL/MOL
REMARK 924 INTRA-LIGAND FREE ENERGY PREDICTED BY IDOCK:   -0.09 KCAL/MOL
REMARK 927      BINDING AFFINITY PREDICTED BY RF-SCORE:    0.00 PKD
ROOT
HETATM    1  N   UNL     1      -9.271   7.876  65.910  1.00  0.00    -0.377 NA 
HETATM    2  C   UNL     1      -9.950   7.358  66.957  1.00  0.00    -0.231 C  
HETATM    3  H2  UNL     1      -9.300   7.494  64.965  1.00  0.00     0.000 HD 
HETATM    4  H1  UNL     1      -8.726   8.695  66.180  1.00  0.00     0.000 HD 
HETATM    5  N   UNL     1     -10.670   6.275  66.600  1.00  0.00    -0.500 NA 
HETATM    6  N   UNL     1      -9.826   7.902  68.112  1.00  0.00    -0.163 NA 
HETATM    7  H1  UNL     1     -11.182   5.884  67.391  1.00  0.00     0.000 HD 
HETATM    8  H2  UNL     1     -10.699   5.893  65.655  1.00  0.00     0.000 HD 
HETATM    9  H   UNL     1      -9.292   8.762  68.233  1.00  0.00     0.000 HD 
ENDROOT
BRANCH   6  10
HETATM   10  C   UNL     1     -10.476   7.249  69.253  1.00  0.00    -0.216 C  
BRANCH  10  11
HETATM   11  C   UNL     1      -9.603   6.156  69.872  1.00  0.00    -0.159 C  
HETATM   12  C   UNL     1     -10.241   4.797  69.679  1.00  0.00    -0.130 C  
HETATM   13  O   UNL     1      -9.749   4.019  70.763  1.00  0.00    -0.180 OA 
HETATM   14  C   UNL     1      -9.527   4.955  71.825  1.00  0.00    -0.151 C  
HETATM   15  O   UNL     1      -9.499   6.289  71.300  1.00  0.00    -0.159 OA 
HETATM   16  C   UNL     1      -8.205   4.593  72.508  1.00  0.00    -0.114 C  
HETATM   17  C   UNL     1      -8.294   3.229  73.202  1.00  0.00    -0.078 C  
HETATM   18  C   UNL     1      -9.462   3.168  74.185  1.00  0.00    -0.113 C  
HETATM   19  C   UNL     1     -10.784   3.564  73.535  1.00  0.00    -0.307 C  
HETATM   20  C   UNL     1     -10.681   4.911  72.833  1.00  0.00    -0.297 C  
ENDBRANCH  10  11
ENDBRANCH   6  10
TORSDOF 2
ENDMDL
MODEL      204
REMARK 921   NORMALIZED FREE ENERGY PREDICTED BY IDOCK:   -2.75 KCAL/MOL
REMARK 922        TOTAL FREE ENERGY PREDICTED BY IDOCK:   -3.21 KCAL/MOL
REMARK 923 INTER-LIGAND FREE ENERGY PREDICTED BY IDOCK:   -3.87 KCAL/MOL
REMARK 924 INTRA-LIGAND FREE ENERGY PREDICTED BY IDOCK:    0.66 KCAL/MOL
REMARK 927      BINDING AFFINITY PREDICTED BY RF-SCORE:    0.00 PKD
ROOT
HETATM    1  N   UNL     1     -11.030  14.962  71.012  1.00  0.00    -0.549 NA 
HETATM    2  C   UNL     1     -10.305  15.219  69.901  1.00  0.00    -0.243 C  
HETATM    3  H2  UNL     1     -11.201  14.026  71.378  1.00  0.00     0.000 HD 
HETATM    4  H1  UNL     1     -11.384  15.818  71.439  1.00  0.00     0.000 HD 
HETATM    5  N   UNL     1      -9.837  14.087  69.335  1.00  0.00    -0.332 NA 
HETATM    6  N   UNL     1     -10.170  16.433  69.511  1.00  0.00    -0.265 NA 
HETATM    7  H1  UNL     1      -9.291  14.282  68.496  1.00  0.00     0.000 HD 
HETATM    8  H2  UNL     1     -10.008  13.151  69.702  1.00  0.00     0.000 HD 
HETATM    9  H   UNL     1     -10.528  17.208  70.070  1.00  0.00     0.000 HD 
ENDROOT
BRANCH   6  10
HETATM   10  C   UNL     1      -9.483  16.675  68.238  1.00  0.00    -0.230 C  
BRANCH  10  11
HETATM   11  C   UNL     1     -10.375  16.375  67.031  1.00  0.00    -0.293 C  
HETATM   12  C   UNL     1     -11.725  15.866  67.485  1.00  0.00     0.226 C  
HETATM   13  O   UNL     1     -12.180  15.062  66.404  1.00  0.00    -0.008 OA 
HETATM   14  C   UNL     1     -10.990  14.543  65.797  1.00  0.00    -0.319 C  
HETATM   15  O   UNL     1      -9.854  15.304  66.226  1.00  0.00    -0.257 OA 
HETATM   16  C   UNL     1     -11.167  14.606  64.277  1.00  0.00    -0.057 C  
HETATM   17  C   UNL     1     -12.284  13.668  63.808  1.00  0.00    -0.413 C  
HETATM   18  C   UNL     1     -12.057  12.233  64.281  1.00  0.00    -0.499 C  
HETATM   19  C   UNL     1     -11.839  12.151  65.789  1.00  0.00    -0.342 C  
HETATM   20  C   UNL     1     -10.740  13.100  66.248  1.00  0.00    -0.295 C  
ENDBRANCH  10  11
ENDBRANCH   6  10
TORSDOF 2
ENDMDL
MODEL      205
REMARK 921   NORMALIZED FREE ENERGY PREDICTED BY IDOCK:   -2.74 KCAL/MOL
REMARK 922        TOTAL FREE ENERGY PREDICTED BY IDOCK:   -3.20 KCAL/MOL
REMARK 923 INTER-LIGAND FREE ENERGY PREDICTED BY IDOCK:   -2.97 KCAL/MOL
REMARK 924 INTRA-LIGAND FREE ENERGY PREDICTED BY IDOCK:   -0.23 KCAL/MOL
REMARK 927      BINDING AFFINITY PREDICTED BY RF-SCORE:    0.00 PKD
ROOT
HETATM    1  N   UNL     1      -9.047  15.402  69.637  1.00  0.00    -0.389 NA 
HETATM    2  C   UNL     1      -8.824  14.152  69.175  1.00  0.00     0.238 C  
HETATM    3  H2  UNL     1      -8.315  16.098  69.778  1.00  0.00     0.000 HD 
HETATM    4  H1  UNL     1     -10.035  15.564  69.827  1.00  0.00     0.000 HD 
HETATM    5  N   UNL     1      -7.515  13.937  68.924  1.00  0.00    -0.203 NA 
HETATM    6  N   UNL     1      -9.813  13.345  69.056  1.00  0.00    -0.404 NA 
HETATM    7  H1  UNL     1      -7.348  12.994  68.575  1.00  0.00     0.000 HD 
HETATM    8  H2  UNL     1      -6.784  14.633  69.065  1.00  0.00     0.000 HD 
HETATM    9  H   UNL     1     -10.769  13.658  69.224  1.00  0.00     0.000 HD 
ENDROOT
BRANCH   6  10
HETATM   10  C   UNL     1      -9.528  11.960  68.669  1.00  0.00    -0.080 C  
BRANCH  10  11
HETATM   11  C   UNL     1     -10.027  11.635  67.259  1.00  0.00    -0.191 C  
HETATM   12  C   UNL     1      -9.123  12.262  66.221  1.00  0.00    -0.125 C  
HETATM   13  O   UNL     1      -9.964  12.454  65.091  1.00  0.00    -0.259 OA 
HETATM   14  C   UNL     1     -11.275  12.658  65.630  1.00  0.00    -0.309 C  
HETATM   15  O   UNL     1     -11.315  12.217  66.993  1.00  0.00    -0.293 OA 
HETATM   16  C   UNL     1     -12.272  11.886  64.761  1.00  0.00    -0.109 C  
HETATM   17  C   UNL     1     -12.339  12.465  63.344  1.00  0.00    -0.603 C  
HETATM   18  C   UNL     1     -12.655  13.960  63.356  1.00  0.00     0.370 C  
HETATM   19  C   UNL     1     -11.698  14.744  64.247  1.00  0.00    -0.272 C  
HETATM   20  C   UNL     1     -11.624  14.151  65.648  1.00  0.00    -0.339 C  
ENDBRANCH  10  11
ENDBRANCH   6  10
TORSDOF 2
ENDMDL
MODEL      206
REMARK 921   NORMALIZED FREE ENERGY PREDICTED BY IDOCK:   -2.73 KCAL/MOL
REMARK 922        TOTAL FREE ENERGY PREDICTED BY IDOCK:   -3.19 KCAL/MOL
REMARK 923 INTER-LIGAND FREE ENERGY PREDICTED BY IDOCK:   -2.97 KCAL/MOL
REMARK 924 INTRA-LIGAND FREE ENERGY PREDICTED BY IDOCK:   -0.22 KCAL/MOL
REMARK 927      BINDING AFFINITY PREDICTED BY RF-SCORE:    0.00 PKD
ROOT
HETATM    1  N   UNL     1      -9.330  11.938  65.881  1.00  0.00    -0.327 NA 
HETATM    2  C   UNL     1     -10.478  11.807  66.581  1.00  0.00    -0.224 C  
HETATM    3  H2  UNL     1      -9.287  12.224  64.903  1.00  0.00     0.000 HD 
HETATM    4  H1  UNL     1      -8.513  11.717  66.450  1.00  0.00     0.000 HD 
HETATM    5  N   UNL     1     -11.560  12.099  65.828  1.00  0.00    -0.373 NA 
HETATM    6  N   UNL     1     -10.425  11.418  67.801  1.00  0.00    -0.180 NA 
HETATM    7  H1  UNL     1     -12.426  11.999  66.357  1.00  0.00     0.000 HD 
HETATM    8  H2  UNL     1     -11.516  12.385  64.851  1.00  0.00     0.000 HD 
HETATM    9  H   UNL     1      -9.529  11.289  68.273  1.00  0.00     0.000 HD 
ENDROOT
BRANCH   6  10
HETATM   10  C   UNL     1     -11.689  11.167  68.501  1.00  0.00    -0.298 C  
BRANCH  10  11
HETATM   11  C   UNL     1     -11.603   9.963  69.442  1.00  0.00     0.053 C  
HETATM   12  C   UNL     1     -11.553  10.421  70.883  1.00  0.00    -0.337 C  
HETATM   13  O   UNL     1     -10.863   9.380  71.560  1.00  0.00    -0.348 OA 
HETATM   14  C   UNL     1      -9.975   8.822  70.584  1.00  0.00    -0.198 C  
HETATM   15  O   UNL     1     -10.380   9.227  69.270  1.00  0.00    -0.202 OA 
HETATM   16  C   UNL     1      -9.999   7.298  70.734  1.00  0.00    -0.187 C  
HETATM   17  C   UNL     1      -9.418   6.864  72.084  1.00  0.00    -0.148 C  
HETATM   18  C   UNL     1      -8.011   7.419  72.301  1.00  0.00    -0.110 C  
HETATM   19  C   UNL     1      -7.955   8.933  72.117  1.00  0.00     0.114 C  
HETATM   20  C   UNL     1      -8.552   9.356  70.782  1.00  0.00    -0.201 C  
ENDBRANCH  10  11
ENDBRANCH   6  10
TORSDOF 2
ENDMDL
MODEL      207
REMARK 921   NORMALIZED FREE ENERGY PREDICTED BY IDOCK:   -2.72 KCAL/MOL
REMARK 922        TOTAL FREE ENERGY PREDICTED BY IDOCK:   -3.17 KCAL/MOL
REMARK 923 INTER-LIGAND FREE ENERGY PREDICTED BY IDOCK:   -3.04 KCAL/MOL
REMARK 924 INTRA-LIGAND FREE ENERGY PREDICTED BY IDOCK:   -0.13 KCAL/MOL
REMARK 927      BINDING AFFINITY PREDICTED BY RF-SCORE:    0.00 PKD
ROOT
HETATM    1  N   UNL     1      -8.820  13.040  66.172  1.00  0.00    -0.399 NA 
HETATM    2  C   UNL     1      -9.639  11.975  66.316  1.00  0.00    -0.231 C  
HETATM    3  H2  UNL     1      -8.893  13.717  65.414  1.00  0.00     0.000 HD 
HETATM    4  H1  UNL     1      -8.122  13.083  66.914  1.00  0.00     0.000 HD 
HETATM    5  N   UNL     1     -10.564  11.917  65.335  1.00  0.00    -0.261 NA 
HETATM    6  N   UNL     1      -9.448  11.168  67.294  1.00  0.00    -0.164 NA 
HETATM    7  H1  UNL     1     -11.181  11.113  65.444  1.00  0.00     0.000 HD 
HETATM    8  H2  UNL     1     -10.636  12.595  64.576  1.00  0.00     0.000 HD 
HETATM    9  H   UNL     1      -8.745  11.363  68.007  1.00  0.00     0.000 HD 
ENDROOT
BRANCH   6  10
HETATM   10  C   UNL     1     -10.272   9.956  67.359  1.00  0.00    -0.222 C  
BRANCH  10  11
HETATM   11  C   UNL     1      -9.786   8.979  68.432  1.00  0.00    -0.166 C  
HETATM   12  C   UNL     1      -8.507   8.302  67.990  1.00  0.00    -0.132 C  
HETATM   13  O   UNL     1      -8.512   7.057  68.676  1.00  0.00    -0.121 OA 
HETATM   14  C   UNL     1      -9.896   6.726  68.841  1.00  0.00    -0.145 C  
HETATM   15  O   UNL     1     -10.704   7.890  68.628  1.00  0.00    -0.152 OA 
HETATM   16  C   UNL     1     -10.084   6.161  70.252  1.00  0.00    -0.237 C  
HETATM   17  C   UNL     1      -9.342   4.832  70.422  1.00  0.00    -0.216 C  
HETATM   18  C   UNL     1      -9.750   3.814  69.359  1.00  0.00    -0.131 C  
HETATM   19  C   UNL     1      -9.607   4.369  67.945  1.00  0.00    -0.205 C  
HETATM   20  C   UNL     1     -10.333   5.698  67.791  1.00  0.00    -0.260 C  
ENDBRANCH  10  11
ENDBRANCH   6  10
TORSDOF 2
ENDMDL
MODEL      208
REMARK 921   NORMALIZED FREE ENERGY PREDICTED BY IDOCK:   -2.71 KCAL/MOL
REMARK 922        TOTAL FREE ENERGY PREDICTED BY IDOCK:   -3.16 KCAL/MOL
REMARK 923 INTER-LIGAND FREE ENERGY PREDICTED BY IDOCK:   -2.90 KCAL/MOL
REMARK 924 INTRA-LIGAND FREE ENERGY PREDICTED BY IDOCK:   -0.26 KCAL/MOL
REMARK 927      BINDING AFFINITY PREDICTED BY RF-SCORE:    0.00 PKD
ROOT
HETATM    1  N   UNL     1     -11.153   7.942  67.687  1.00  0.00    -0.466 NA 
HETATM    2  C   UNL     1     -10.560   9.136  67.465  1.00  0.00    -0.249 C  
HETATM    3  H2  UNL     1     -10.687   7.144  68.118  1.00  0.00     0.000 HD 
HETATM    4  H1  UNL     1     -12.122   7.936  67.370  1.00  0.00     0.000 HD 
HETATM    5  N   UNL     1      -9.277   9.143  67.884  1.00  0.00    -0.134 NA 
HETATM    6  N   UNL     1     -11.229  10.069  66.894  1.00  0.00    -0.068 NA 
HETATM    7  H1  UNL     1      -8.831  10.044  67.716  1.00  0.00     0.000 HD 
HETATM    8  H2  UNL     1      -8.812   8.346  68.315  1.00  0.00     0.000 HD 
HETATM    9  H   UNL     1     -12.220   9.950  66.682  1.00  0.00     0.000 HD 
ENDROOT
BRANCH   6  10
HETATM   10  C   UNL     1     -10.528  11.311  66.556  1.00  0.00    -0.253 C  
BRANCH  10  11
HETATM   11  C   UNL     1     -10.877  12.455  67.510  1.00  0.00    -0.236 C  
HETATM   12  C   UNL     1      -9.937  12.460  68.696  1.00  0.00    -0.107 C  
HETATM   13  O   UNL     1     -10.689  13.064  69.740  1.00  0.00     0.287 OA 
HETATM   14  C   UNL     1     -12.054  12.731  69.459  1.00  0.00    -0.205 C  
HETATM   15  O   UNL     1     -12.178  12.289  68.101  1.00  0.00    -0.349 OA 
HETATM   16  C   UNL     1     -12.911  13.972  69.726  1.00  0.00     0.225 C  
HETATM   17  C   UNL     1     -12.899  14.347  71.212  1.00  0.00    -0.412 C  
HETATM   18  C   UNL     1     -13.328  13.177  72.095  1.00  0.00    -0.621 C  
HETATM   19  C   UNL     1     -12.513  11.917  71.819  1.00  0.00     0.007 C  
HETATM   20  C   UNL     1     -12.516  11.563  70.338  1.00  0.00    -0.324 C  
ENDBRANCH  10  11
ENDBRANCH   6  10
TORSDOF 2
ENDMDL
MODEL      209
REMARK 921   NORMALIZED FREE ENERGY PREDICTED BY IDOCK:   -2.70 KCAL/MOL
REMARK 922        TOTAL FREE ENERGY PREDICTED BY IDOCK:   -3.15 KCAL/MOL
REMARK 923 INTER-LIGAND FREE ENERGY PREDICTED BY IDOCK:   -2.88 KCAL/MOL
REMARK 924 INTRA-LIGAND FREE ENERGY PREDICTED BY IDOCK:   -0.27 KCAL/MOL
REMARK 927      BINDING AFFINITY PREDICTED BY RF-SCORE:    0.00 PKD
ROOT
HETATM    1  N   UNL     1      -8.755  12.918  66.205  1.00  0.00    -0.404 NA 
HETATM    2  C   UNL     1      -9.918  12.306  66.520  1.00  0.00    -0.220 C  
HETATM    3  H2  UNL     1      -8.581  13.395  65.321  1.00  0.00     0.000 HD 
HETATM    4  H1  UNL     1      -8.072  12.844  66.959  1.00  0.00     0.000 HD 
HETATM    5  N   UNL     1     -10.821  12.404  65.522  1.00  0.00    -0.273 NA 
HETATM    6  N   UNL     1     -10.025  11.714  67.652  1.00  0.00    -0.186 NA 
HETATM    7  H1  UNL     1     -11.698  11.942  65.760  1.00  0.00     0.000 HD 
HETATM    8  H2  UNL     1     -10.648  12.881  64.638  1.00  0.00     0.000 HD 
HETATM    9  H   UNL     1      -9.280  11.768  68.346  1.00  0.00     0.000 HD 
ENDROOT
BRANCH   6  10
HETATM   10  C   UNL     1     -11.252  10.955  67.919  1.00  0.00    -0.321 C  
BRANCH  10  11
HETATM   11  C   UNL     1     -10.964   9.508  68.325  1.00  0.00    -0.079 C  
HETATM   12  C   UNL     1      -9.618   9.408  69.008  1.00  0.00    -0.164 C  
HETATM   13  O   UNL     1      -9.193   8.075  68.758  1.00  0.00    -0.144 OA 
HETATM   14  C   UNL     1      -9.783   7.724  67.500  1.00  0.00    -0.158 C  
HETATM   15  O   UNL     1     -10.838   8.641  67.185  1.00  0.00    -0.212 OA 
HETATM   16  C   UNL     1     -10.300   6.286  67.603  1.00  0.00    -0.243 C  
HETATM   17  C   UNL     1      -9.148   5.292  67.784  1.00  0.00    -0.115 C  
HETATM   18  C   UNL     1      -8.103   5.428  66.678  1.00  0.00    -0.105 C  
HETATM   19  C   UNL     1      -7.601   6.861  66.532  1.00  0.00    -0.089 C  
HETATM   20  C   UNL     1      -8.754   7.843  66.370  1.00  0.00    -0.170 C  
ENDBRANCH  10  11
ENDBRANCH   6  10
TORSDOF 2
ENDMDL
MODEL      210
REMARK 921   NORMALIZED FREE ENERGY PREDICTED BY IDOCK:   -2.68 KCAL/MOL
REMARK 922        TOTAL FREE ENERGY PREDICTED BY IDOCK:   -3.13 KCAL/MOL
REMARK 923 INTER-LIGAND FREE ENERGY PREDICTED BY IDOCK:   -3.01 KCAL/MOL
REMARK 924 INTRA-LIGAND FREE ENERGY PREDICTED BY IDOCK:   -0.12 KCAL/MOL
REMARK 927      BINDING AFFINITY PREDICTED BY RF-SCORE:    0.00 PKD
ROOT
HETATM    1  N   UNL     1     -11.580   4.541  65.006  1.00  0.00    -1.039 NA 
HETATM    2  C   UNL     1     -10.429   4.788  65.670  1.00  0.00    -0.191 C  
HETATM    3  H2  UNL     1     -11.693   4.650  63.999  1.00  0.00     0.000 HD 
HETATM    4  H1  UNL     1     -12.321   4.234  65.636  1.00  0.00     0.000 HD 
HETATM    5  N   UNL     1      -9.448   5.195  64.837  1.00  0.00    -0.359 NA 
HETATM    6  N   UNL     1     -10.398   4.642  66.943  1.00  0.00    -0.166 NA 
HETATM    7  H1  UNL     1      -8.580   5.381  65.338  1.00  0.00     0.000 HD 
HETATM    8  H2  UNL     1      -9.562   5.304  63.829  1.00  0.00     0.000 HD 
HETATM    9  H   UNL     1     -11.201   4.265  67.448  1.00  0.00     0.000 HD 
ENDROOT
BRANCH   6  10
HETATM   10  C   UNL     1      -9.175   5.032  67.652  1.00  0.00    -0.120 C  
BRANCH  10  11
HETATM   11  C   UNL     1      -9.471   5.719  68.987  1.00  0.00    -0.124 C  
HETATM   12  C   UNL     1      -8.602   6.947  69.153  1.00  0.00    -0.128 C  
HETATM   13  O   UNL     1      -8.479   7.104  70.561  1.00  0.00    -0.135 OA 
HETATM   14  C   UNL     1      -8.570   5.778  71.095  1.00  0.00    -0.128 C  
HETATM   15  O   UNL     1      -9.121   4.893  70.111  1.00  0.00    -0.102 OA 
HETATM   16  C   UNL     1      -9.442   5.831  72.353  1.00  0.00    -0.155 C  
HETATM   17  C   UNL     1      -8.771   6.652  73.460  1.00  0.00    -0.138 C  
HETATM   18  C   UNL     1      -7.369   6.136  73.778  1.00  0.00    -0.091 C  
HETATM   19  C   UNL     1      -6.494   6.037  72.532  1.00  0.00    -0.059 C  
HETATM   20  C   UNL     1      -7.177   5.235  71.432  1.00  0.00    -0.074 C  
ENDBRANCH  10  11
ENDBRANCH   6  10
TORSDOF 2
ENDMDL
MODEL      211
REMARK 921   NORMALIZED FREE ENERGY PREDICTED BY IDOCK:   -2.68 KCAL/MOL
REMARK 922        TOTAL FREE ENERGY PREDICTED BY IDOCK:   -3.13 KCAL/MOL
REMARK 923 INTER-LIGAND FREE ENERGY PREDICTED BY IDOCK:   -2.91 KCAL/MOL
REMARK 924 INTRA-LIGAND FREE ENERGY PREDICTED BY IDOCK:   -0.22 KCAL/MOL
REMARK 927      BINDING AFFINITY PREDICTED BY RF-SCORE:    0.00 PKD
ROOT
HETATM    1  N   UNL     1      -8.236   2.784  72.307  1.00  0.00    -0.055 NA 
HETATM    2  C   UNL     1      -8.062   3.399  71.116  1.00  0.00    -0.062 C  
HETATM    3  H2  UNL     1      -8.422   1.788  72.413  1.00  0.00     0.000 HD 
HETATM    4  H1  UNL     1      -8.159   3.439  73.085  1.00  0.00     0.000 HD 
HETATM    5  N   UNL     1      -8.164   2.534  70.086  1.00  0.00    -0.041 NA 
HETATM    6  N   UNL     1      -7.855   4.665  71.091  1.00  0.00    -0.080 NA 
HETATM    7  H1  UNL     1      -8.033   2.999  69.188  1.00  0.00     0.000 HD 
HETATM    8  H2  UNL     1      -8.351   1.538  70.192  1.00  0.00     0.000 HD 
HETATM    9  H   UNL     1      -7.739   5.195  71.955  1.00  0.00     0.000 HD 
ENDROOT
BRANCH   6  10
HETATM   10  C   UNL     1      -7.791   5.326  69.784  1.00  0.00    -0.073 C  
BRANCH  10  11
HETATM   11  C   UNL     1      -8.296   6.770  69.838  1.00  0.00    -0.135 C  
HETATM   12  C   UNL     1      -8.000   7.384  71.189  1.00  0.00    -0.100 C  
HETATM   13  O   UNL     1      -9.002   8.378  71.352  1.00  0.00    -0.153 OA 
HETATM   14  C   UNL     1     -10.137   7.889  70.625  1.00  0.00    -0.194 C  
HETATM   15  O   UNL     1      -9.728   6.847  69.730  1.00  0.00    -0.164 OA 
HETATM   16  C   UNL     1     -10.760   9.066  69.870  1.00  0.00    -0.240 C  
HETATM   17  C   UNL     1     -11.336  10.106  70.838  1.00  0.00    -0.420 C  
HETATM   18  C   UNL     1     -12.333   9.482  71.812  1.00  0.00    -0.474 C  
HETATM   19  C   UNL     1     -11.745   8.282  72.549  1.00  0.00    -0.451 C  
HETATM   20  C   UNL     1     -11.160   7.264  71.580  1.00  0.00    -0.264 C  
ENDBRANCH  10  11
ENDBRANCH   6  10
TORSDOF 2
ENDMDL
MODEL      212
REMARK 921   NORMALIZED FREE ENERGY PREDICTED BY IDOCK:   -2.65 KCAL/MOL
REMARK 922        TOTAL FREE ENERGY PREDICTED BY IDOCK:   -3.10 KCAL/MOL
REMARK 923 INTER-LIGAND FREE ENERGY PREDICTED BY IDOCK:   -2.83 KCAL/MOL
REMARK 924 INTRA-LIGAND FREE ENERGY PREDICTED BY IDOCK:   -0.27 KCAL/MOL
REMARK 927      BINDING AFFINITY PREDICTED BY RF-SCORE:    0.00 PKD
ROOT
HETATM    1  N   UNL     1     -10.450   5.281  71.867  1.00  0.00    -0.217 NA 
HETATM    2  C   UNL     1      -9.888   5.583  70.676  1.00  0.00    -0.192 C  
HETATM    3  H2  UNL     1     -11.422   4.995  71.984  1.00  0.00     0.000 HD 
HETATM    4  H1  UNL     1      -9.784   5.375  72.634  1.00  0.00     0.000 HD 
HETATM    5  N   UNL     1     -10.769   5.460  69.661  1.00  0.00    -0.273 NA 
HETATM    6  N   UNL     1      -8.662   5.956  70.640  1.00  0.00    -0.136 NA 
HETATM    7  H1  UNL     1     -10.344   5.688  68.762  1.00  0.00     0.000 HD 
HETATM    8  H2  UNL     1     -11.740   5.174  69.778  1.00  0.00     0.000 HD 
HETATM    9  H   UNL     1      -8.086   5.947  71.482  1.00  0.00     0.000 HD 
ENDROOT
BRANCH   6  10
HETATM   10  C   UNL     1      -8.111   6.393  69.354  1.00  0.00    -0.118 C  
BRANCH  10  11
HETATM   11  C   UNL     1      -8.183   7.912  69.177  1.00  0.00    -0.132 C  
HETATM   12  C   UNL     1      -8.395   8.590  70.513  1.00  0.00    -0.135 C  
HETATM   13  O   UNL     1      -9.057   9.806  70.190  1.00  0.00    -0.227 OA 
HETATM   14  C   UNL     1      -9.809   9.520  69.004  1.00  0.00    -0.176 C  
HETATM   15  O   UNL     1      -9.324   8.314  68.400  1.00  0.00    -0.136 OA 
HETATM   16  C   UNL     1      -9.676  10.716  68.057  1.00  0.00    -0.170 C  
HETATM   17  C   UNL     1     -10.337  11.967  68.645  1.00  0.00    -0.218 C  
HETATM   18  C   UNL     1     -11.797  11.715  69.019  1.00  0.00    -0.391 C  
HETATM   19  C   UNL     1     -11.957  10.503  69.932  1.00  0.00    -0.339 C  
HETATM   20  C   UNL     1     -11.282   9.270  69.347  1.00  0.00     0.030 C  
ENDBRANCH  10  11
ENDBRANCH   6  10
TORSDOF 2
ENDMDL
MODEL      213
REMARK 921   NORMALIZED FREE ENERGY PREDICTED BY IDOCK:   -2.64 KCAL/MOL
REMARK 922        TOTAL FREE ENERGY PREDICTED BY IDOCK:   -3.08 KCAL/MOL
REMARK 923 INTER-LIGAND FREE ENERGY PREDICTED BY IDOCK:   -3.04 KCAL/MOL
REMARK 924 INTRA-LIGAND FREE ENERGY PREDICTED BY IDOCK:   -0.04 KCAL/MOL
REMARK 927      BINDING AFFINITY PREDICTED BY RF-SCORE:    0.00 PKD
ROOT
HETATM    1  N   UNL     1     -10.220  12.031  63.539  1.00  0.00    -0.438 NA 
HETATM    2  C   UNL     1      -9.482  11.706  64.623  1.00  0.00    -0.046 C  
HETATM    3  H2  UNL     1     -10.926  12.766  63.528  1.00  0.00     0.000 HD 
HETATM    4  H1  UNL     1      -9.984  11.452  62.733  1.00  0.00     0.000 HD 
HETATM    5  N   UNL     1      -9.795  12.471  65.689  1.00  0.00    -0.355 NA 
HETATM    6  N   UNL     1      -8.635  10.748  64.537  1.00  0.00    -0.339 NA 
HETATM    7  H1  UNL     1      -9.238  12.225  66.508  1.00  0.00     0.000 HD 
HETATM    8  H2  UNL     1     -10.502  13.206  65.679  1.00  0.00     0.000 HD 
HETATM    9  H   UNL     1      -8.451  10.287  63.646  1.00  0.00     0.000 HD 
ENDROOT
BRANCH   6  10
HETATM   10  C   UNL     1      -7.936  10.335  65.758  1.00  0.00    -0.144 C  
BRANCH  10  11
HETATM   11  C   UNL     1      -8.823   9.496  66.681  1.00  0.00    -0.135 C  
HETATM   12  C   UNL     1      -8.054   9.074  67.914  1.00  0.00    -0.106 C  
HETATM   13  O   UNL     1      -8.684   7.868  68.326  1.00  0.00    -0.130 OA 
HETATM   14  C   UNL     1      -9.182   7.274  67.121  1.00  0.00    -0.135 C  
HETATM   15  O   UNL     1      -9.213   8.253  66.073  1.00  0.00    -0.192 OA 
HETATM   16  C   UNL     1     -10.578   6.715  67.409  1.00  0.00    -0.370 C  
HETATM   17  C   UNL     1     -10.518   5.562  68.415  1.00  0.00    -0.227 C  
HETATM   18  C   UNL     1      -9.563   4.460  67.960  1.00  0.00    -0.204 C  
HETATM   19  C   UNL     1      -8.175   5.001  67.630  1.00  0.00    -0.105 C  
HETATM   20  C   UNL     1      -8.246   6.158  66.643  1.00  0.00    -0.110 C  
ENDBRANCH  10  11
ENDBRANCH   6  10
TORSDOF 2
ENDMDL
MODEL      214
REMARK 921   NORMALIZED FREE ENERGY PREDICTED BY IDOCK:   -2.60 KCAL/MOL
REMARK 922        TOTAL FREE ENERGY PREDICTED BY IDOCK:   -3.04 KCAL/MOL
REMARK 923 INTER-LIGAND FREE ENERGY PREDICTED BY IDOCK:   -2.80 KCAL/MOL
REMARK 924 INTRA-LIGAND FREE ENERGY PREDICTED BY IDOCK:   -0.24 KCAL/MOL
REMARK 927      BINDING AFFINITY PREDICTED BY RF-SCORE:    0.00 PKD
ROOT
HETATM    1  N   UNL     1      -6.802  12.866  66.957  1.00  0.00    -0.423 NA 
HETATM    2  C   UNL     1      -6.702  12.435  68.234  1.00  0.00    -0.070 C  
HETATM    3  H2  UNL     1      -6.724  13.843  66.676  1.00  0.00     0.000 HD 
HETATM    4  H1  UNL     1      -6.966  12.095  66.310  1.00  0.00     0.000 HD 
HETATM    5  N   UNL     1      -6.486  13.455  69.091  1.00  0.00    -0.102 NA 
HETATM    6  N   UNL     1      -6.839  11.185  68.484  1.00  0.00    -0.062 NA 
HETATM    7  H1  UNL     1      -6.410  13.129  70.054  1.00  0.00     0.000 HD 
HETATM    8  H2  UNL     1      -6.407  14.432  68.810  1.00  0.00     0.000 HD 
HETATM    9  H   UNL     1      -6.939  10.507  67.729  1.00  0.00     0.000 HD 
ENDROOT
BRANCH   6  10
HETATM   10  C   UNL     1      -6.847  10.760  69.887  1.00  0.00    -0.146 C  
BRANCH  10  11
HETATM   11  C   UNL     1      -7.855   9.639  70.149  1.00  0.00    -0.174 C  
HETATM   12  C   UNL     1      -7.258   8.296  69.787  1.00  0.00    -0.060 C  
HETATM   13  O   UNL     1      -8.380   7.489  69.457  1.00  0.00    -0.128 OA 
HETATM   14  C   UNL     1      -9.358   8.400  68.939  1.00  0.00    -0.147 C  
HETATM   15  O   UNL     1      -9.013   9.743  69.303  1.00  0.00    -0.150 OA 
HETATM   16  C   UNL     1     -10.725   8.000  69.502  1.00  0.00    -0.185 C  
HETATM   17  C   UNL     1     -11.159   6.625  68.982  1.00  0.00    -0.318 C  
HETATM   18  C   UNL     1     -11.149   6.566  67.456  1.00  0.00    -0.396 C  
HETATM   19  C   UNL     1      -9.808   6.999  66.871  1.00  0.00    -0.259 C  
HETATM   20  C   UNL     1      -9.377   8.357  67.407  1.00  0.00    -0.178 C  
ENDBRANCH  10  11
ENDBRANCH   6  10
TORSDOF 2
ENDMDL
MODEL      215
REMARK 921   NORMALIZED FREE ENERGY PREDICTED BY IDOCK:   -2.59 KCAL/MOL
REMARK 922        TOTAL FREE ENERGY PREDICTED BY IDOCK:   -3.03 KCAL/MOL
REMARK 923 INTER-LIGAND FREE ENERGY PREDICTED BY IDOCK:   -2.72 KCAL/MOL
REMARK 924 INTRA-LIGAND FREE ENERGY PREDICTED BY IDOCK:   -0.31 KCAL/MOL
REMARK 927      BINDING AFFINITY PREDICTED BY RF-SCORE:    0.00 PKD
ROOT
HETATM    1  N   UNL     1      -7.159   7.264  63.960  1.00  0.00    -0.066 NA 
HETATM    2  C   UNL     1      -7.206   7.905  65.148  1.00  0.00    -0.061 C  
HETATM    3  H2  UNL     1      -7.532   6.329  63.801  1.00  0.00     0.000 HD 
HETATM    4  H1  UNL     1      -6.704   7.829  63.243  1.00  0.00     0.000 HD 
HETATM    5  N   UNL     1      -7.807   7.158  66.098  1.00  0.00    -0.101 NA 
HETATM    6  N   UNL     1      -6.685   9.073  65.249  1.00  0.00    -0.068 NA 
HETATM    7  H1  UNL     1      -7.842   7.642  66.994  1.00  0.00     0.000 HD 
HETATM    8  H2  UNL     1      -8.180   6.223  65.938  1.00  0.00     0.000 HD 
HETATM    9  H   UNL     1      -6.313   9.554  64.430  1.00  0.00     0.000 HD 
ENDROOT
BRANCH   6  10
HETATM   10  C   UNL     1      -6.642   9.695  66.576  1.00  0.00    -0.071 C  
BRANCH  10  11
HETATM   11  C   UNL     1      -7.811  10.654  66.807  1.00  0.00    -0.126 C  
HETATM   12  C   UNL     1      -7.629  11.407  68.107  1.00  0.00    -0.114 C  
HETATM   13  O   UNL     1      -8.952  11.728  68.517  1.00  0.00    -0.180 OA 
HETATM   14  C   UNL     1      -9.772  10.675  67.997  1.00  0.00    -0.157 C  
HETATM   15  O   UNL     1      -9.057   9.957  66.983  1.00  0.00    -0.137 OA 
HETATM   16  C   UNL     1     -11.055  11.300  67.444  1.00  0.00    -0.358 C  
HETATM   17  C   UNL     1     -11.893  11.931  68.561  1.00  0.00    -0.357 C  
HETATM   18  C   UNL     1     -12.199  10.930  69.674  1.00  0.00    -0.354 C  
HETATM   19  C   UNL     1     -10.937  10.265  70.214  1.00  0.00    -0.375 C  
HETATM   20  C   UNL     1     -10.103   9.657  69.095  1.00  0.00    -0.196 C  
ENDBRANCH  10  11
ENDBRANCH   6  10
TORSDOF 2
ENDMDL
MODEL      216
REMARK 921   NORMALIZED FREE ENERGY PREDICTED BY IDOCK:   -2.59 KCAL/MOL
REMARK 922        TOTAL FREE ENERGY PREDICTED BY IDOCK:   -3.03 KCAL/MOL
REMARK 923 INTER-LIGAND FREE ENERGY PREDICTED BY IDOCK:   -2.85 KCAL/MOL
REMARK 924 INTRA-LIGAND FREE ENERGY PREDICTED BY IDOCK:   -0.18 KCAL/MOL
REMARK 927      BINDING AFFINITY PREDICTED BY RF-SCORE:    0.00 PKD
ROOT
HETATM    1  N   UNL     1     -10.210   8.413  66.435  1.00  0.00    -0.433 NA 
HETATM    2  C   UNL     1      -9.594   9.545  66.029  1.00  0.00    -0.251 C  
HETATM    3  H2  UNL     1     -11.073   8.054  66.027  1.00  0.00     0.000 HD 
HETATM    4  H1  UNL     1      -9.707   7.962  67.199  1.00  0.00     0.000 HD 
HETATM    5  N   UNL     1     -10.260  10.143  65.019  1.00  0.00    -0.259 NA 
HETATM    6  N   UNL     1      -8.524   9.922  66.625  1.00  0.00    -0.124 NA 
HETATM    7  H1  UNL     1      -9.796  10.997  64.713  1.00  0.00     0.000 HD 
HETATM    8  H2  UNL     1     -11.123   9.784  64.611  1.00  0.00     0.000 HD 
HETATM    9  H   UNL     1      -8.088   9.339  67.341  1.00  0.00     0.000 HD 
ENDROOT
BRANCH   6  10
HETATM   10  C   UNL     1      -7.943  11.214  66.248  1.00  0.00    -0.125 C  
BRANCH  10  11
HETATM   11  C   UNL     1      -7.726  12.129  67.455  1.00  0.00    -0.159 C  
HETATM   12  C   UNL     1      -9.050  12.653  67.967  1.00  0.00    -0.207 C  
HETATM   13  O   UNL     1      -8.724  13.890  68.586  1.00  0.00    -0.158 OA 
HETATM   14  C   UNL     1      -7.586  14.381  67.867  1.00  0.00    -0.151 C  
HETATM   15  O   UNL     1      -6.994  13.318  67.109  1.00  0.00    -0.074 OA 
HETATM   16  C   UNL     1      -6.599  14.964  68.882  1.00  0.00    -0.090 C  
HETATM   17  C   UNL     1      -7.181  16.198  69.579  1.00  0.00    -0.136 C  
HETATM   18  C   UNL     1      -7.633  17.256  68.574  1.00  0.00    -0.251 C  
HETATM   19  C   UNL     1      -8.588  16.688  67.528  1.00  0.00    -0.199 C  
HETATM   20  C   UNL     1      -8.008  15.451  66.855  1.00  0.00    -0.230 C  
ENDBRANCH  10  11
ENDBRANCH   6  10
TORSDOF 2
ENDMDL
MODEL      217
REMARK 921   NORMALIZED FREE ENERGY PREDICTED BY IDOCK:   -2.59 KCAL/MOL
REMARK 922        TOTAL FREE ENERGY PREDICTED BY IDOCK:   -3.03 KCAL/MOL
REMARK 923 INTER-LIGAND FREE ENERGY PREDICTED BY IDOCK:   -2.77 KCAL/MOL
REMARK 924 INTRA-LIGAND FREE ENERGY PREDICTED BY IDOCK:   -0.25 KCAL/MOL
REMARK 927      BINDING AFFINITY PREDICTED BY RF-SCORE:    0.00 PKD
ROOT
HETATM    1  N   UNL     1     -11.435   6.380  67.590  1.00  0.00    -0.654 NA 
HETATM    2  C   UNL     1     -10.891   7.615  67.528  1.00  0.00    -0.135 C  
HETATM    3  H2  UNL     1     -11.734   5.930  68.455  1.00  0.00     0.000 HD 
HETATM    4  H1  UNL     1     -11.509   5.953  66.667  1.00  0.00     0.000 HD 
HETATM    5  N   UNL     1     -10.792   8.180  68.750  1.00  0.00    -0.421 NA 
HETATM    6  N   UNL     1     -10.526   8.081  66.391  1.00  0.00    -0.363 NA 
HETATM    7  H1  UNL     1     -10.381   9.112  68.703  1.00  0.00     0.000 HD 
HETATM    8  H2  UNL     1     -11.091   7.730  69.614  1.00  0.00     0.000 HD 
HETATM    9  H   UNL     1     -10.715   7.569  65.529  1.00  0.00     0.000 HD 
ENDROOT
BRANCH   6  10
HETATM   10  C   UNL     1      -9.828   9.370  66.366  1.00  0.00    -0.269 C  
BRANCH  10  11
HETATM   11  C   UNL     1      -8.553   9.326  65.521  1.00  0.00    -0.152 C  
HETATM   12  C   UNL     1      -8.887   9.478  64.053  1.00  0.00    -0.212 C  
HETATM   13  O   UNL     1      -7.827   8.813  63.379  1.00  0.00    -0.132 OA 
HETATM   14  C   UNL     1      -7.402   7.780  64.278  1.00  0.00    -0.089 C  
HETATM   15  O   UNL     1      -7.898   8.048  65.596  1.00  0.00    -0.093 OA 
HETATM   16  C   UNL     1      -5.872   7.730  64.253  1.00  0.00    -0.052 C  
HETATM   17  C   UNL     1      -5.352   7.290  62.881  1.00  0.00    -0.034 C  
HETATM   18  C   UNL     1      -5.957   5.957  62.445  1.00  0.00    -0.025 C  
HETATM   19  C   UNL     1      -7.482   5.972  62.499  1.00  0.00    -0.060 C  
HETATM   20  C   UNL     1      -7.989   6.427  63.860  1.00  0.00    -0.085 C  
ENDBRANCH  10  11
ENDBRANCH   6  10
TORSDOF 2
ENDMDL
MODEL      218
REMARK 921   NORMALIZED FREE ENERGY PREDICTED BY IDOCK:   -2.56 KCAL/MOL
REMARK 922        TOTAL FREE ENERGY PREDICTED BY IDOCK:   -2.99 KCAL/MOL
REMARK 923 INTER-LIGAND FREE ENERGY PREDICTED BY IDOCK:   -2.79 KCAL/MOL
REMARK 924 INTRA-LIGAND FREE ENERGY PREDICTED BY IDOCK:   -0.21 KCAL/MOL
REMARK 927      BINDING AFFINITY PREDICTED BY RF-SCORE:    0.00 PKD
ROOT
HETATM    1  N   UNL     1      -6.563  10.557  63.638  1.00  0.00    -0.349 NA 
HETATM    2  C   UNL     1      -6.995   9.528  64.398  1.00  0.00    -0.107 C  
HETATM    3  H2  UNL     1      -6.959  10.804  62.731  1.00  0.00     0.000 HD 
HETATM    4  H1  UNL     1      -5.793  11.058  64.081  1.00  0.00     0.000 HD 
HETATM    5  N   UNL     1      -8.013   8.865  63.811  1.00  0.00    -0.146 NA 
HETATM    6  N   UNL     1      -6.412   9.288  65.514  1.00  0.00    -0.067 NA 
HETATM    7  H1  UNL     1      -8.339   8.087  64.385  1.00  0.00     0.000 HD 
HETATM    8  H2  UNL     1      -8.409   9.111  62.905  1.00  0.00     0.000 HD 
HETATM    9  H   UNL     1      -5.687   9.910  65.873  1.00  0.00     0.000 HD 
ENDROOT
BRANCH   6  10
HETATM   10  C   UNL     1      -6.818   8.093  66.261  1.00  0.00    -0.058 C  
BRANCH  10  11
HETATM   11  C   UNL     1      -7.511   8.441  67.581  1.00  0.00    -0.094 C  
HETATM   12  C   UNL     1      -7.166   7.420  68.644  1.00  0.00    -0.090 C  
HETATM   13  O   UNL     1      -8.275   7.448  69.532  1.00  0.00    -0.127 OA 
HETATM   14  C   UNL     1      -9.398   7.806  68.718  1.00  0.00    -0.146 C  
HETATM   15  O   UNL     1      -8.943   8.362  67.478  1.00  0.00    -0.134 OA 
HETATM   16  C   UNL     1     -10.253   8.806  69.502  1.00  0.00    -0.208 C  
HETATM   17  C   UNL     1     -10.866   8.157  70.748  1.00  0.00    -0.247 C  
HETATM   18  C   UNL     1     -11.662   6.900  70.400  1.00  0.00    -0.377 C  
HETATM   19  C   UNL     1     -10.841   5.906  69.585  1.00  0.00    -0.444 C  
HETATM   20  C   UNL     1     -10.222   6.564  68.359  1.00  0.00    -0.192 C  
ENDBRANCH  10  11
ENDBRANCH   6  10
TORSDOF 2
ENDMDL
MODEL      219
REMARK 921   NORMALIZED FREE ENERGY PREDICTED BY IDOCK:   -2.53 KCAL/MOL
REMARK 922        TOTAL FREE ENERGY PREDICTED BY IDOCK:   -2.96 KCAL/MOL
REMARK 923 INTER-LIGAND FREE ENERGY PREDICTED BY IDOCK:   -2.79 KCAL/MOL
REMARK 924 INTRA-LIGAND FREE ENERGY PREDICTED BY IDOCK:   -0.17 KCAL/MOL
REMARK 927      BINDING AFFINITY PREDICTED BY RF-SCORE:    0.00 PKD
ROOT
HETATM    1  N   UNL     1      -6.061   6.276  69.849  1.00  0.00    -0.025 NA 
HETATM    2  C   UNL     1      -6.914   6.694  68.888  1.00  0.00    -0.079 C  
HETATM    3  H2  UNL     1      -5.868   5.296  70.054  1.00  0.00     0.000 HD 
HETATM    4  H1  UNL     1      -5.635   7.059  70.343  1.00  0.00     0.000 HD 
HETATM    5  N   UNL     1      -7.479   5.658  68.233  1.00  0.00    -0.076 NA 
HETATM    6  N   UNL     1      -7.104   7.952  68.725  1.00  0.00    -0.070 NA 
HETATM    7  H1  UNL     1      -8.122   5.974  67.509  1.00  0.00     0.000 HD 
HETATM    8  H2  UNL     1      -7.285   4.678  68.439  1.00  0.00     0.000 HD 
HETATM    9  H   UNL     1      -6.562   8.637  69.252  1.00  0.00     0.000 HD 
ENDROOT
BRANCH   6  10
HETATM   10  C   UNL     1      -8.123   8.375  67.760  1.00  0.00    -0.122 C  
BRANCH  10  11
HETATM   11  C   UNL     1      -9.465   8.684  68.429  1.00  0.00    -0.138 C  
HETATM   12  C   UNL     1     -10.443   9.243  67.419  1.00  0.00    -0.273 C  
HETATM   13  O   UNL     1     -11.328  10.044  68.191  1.00  0.00    -0.195 OA 
HETATM   14  C   UNL     1     -10.542  10.515  69.293  1.00  0.00    -0.236 C  
HETATM   15  O   UNL     1      -9.352   9.725  69.414  1.00  0.00    -0.176 OA 
HETATM   16  C   UNL     1     -11.401  10.433  70.558  1.00  0.00    -0.424 C  
HETATM   17  C   UNL     1     -12.589  11.399  70.486  1.00  0.00    -0.309 C  
HETATM   18  C   UNL     1     -12.139  12.833  70.212  1.00  0.00    -0.373 C  
HETATM   19  C   UNL     1     -11.249  12.931  68.977  1.00  0.00    -0.320 C  
HETATM   20  C   UNL     1     -10.082  11.956  69.050  1.00  0.00     0.032 C  
ENDBRANCH  10  11
ENDBRANCH   6  10
TORSDOF 2
ENDMDL
MODEL      220
REMARK 921   NORMALIZED FREE ENERGY PREDICTED BY IDOCK:   -2.52 KCAL/MOL
REMARK 922        TOTAL FREE ENERGY PREDICTED BY IDOCK:   -2.95 KCAL/MOL
REMARK 923 INTER-LIGAND FREE ENERGY PREDICTED BY IDOCK:   -2.98 KCAL/MOL
REMARK 924 INTRA-LIGAND FREE ENERGY PREDICTED BY IDOCK:    0.03 KCAL/MOL
REMARK 927      BINDING AFFINITY PREDICTED BY RF-SCORE:    0.00 PKD
ROOT
HETATM    1  N   UNL     1      -5.329   6.257  71.594  1.00  0.00    -0.025 NA 
HETATM    2  C   UNL     1      -6.278   6.407  70.644  1.00  0.00    -0.039 C  
HETATM    3  H2  UNL     1      -5.310   5.491  72.267  1.00  0.00     0.000 HD 
HETATM    4  H1  UNL     1      -4.634   7.002  71.556  1.00  0.00     0.000 HD 
HETATM    5  N   UNL     1      -7.197   5.420  70.695  1.00  0.00    -0.067 NA 
HETATM    6  N   UNL     1      -6.223   7.420  69.861  1.00  0.00    -0.027 NA 
HETATM    7  H1  UNL     1      -7.914   5.534  69.978  1.00  0.00     0.000 HD 
HETATM    8  H2  UNL     1      -7.179   4.654  71.368  1.00  0.00     0.000 HD 
HETATM    9  H   UNL     1      -5.432   8.064  69.890  1.00  0.00     0.000 HD 
ENDROOT
BRANCH   6  10
HETATM   10  C   UNL     1      -7.329   7.625  68.921  1.00  0.00    -0.090 C  
BRANCH  10  11
HETATM   11  C   UNL     1      -8.357   8.632  69.443  1.00  0.00    -0.114 C  
HETATM   12  C   UNL     1      -8.045   9.011  70.874  1.00  0.00    -0.169 C  
HETATM   13  O   UNL     1      -9.304   9.379  71.423  1.00  0.00    -0.265 OA 
HETATM   14  C   UNL     1     -10.268   8.595  70.710  1.00  0.00    -0.204 C  
HETATM   15  O   UNL     1      -9.678   8.070  69.513  1.00  0.00    -0.167 OA 
HETATM   16  C   UNL     1     -11.471   9.489  70.397  1.00  0.00    -0.297 C  
HETATM   17  C   UNL     1     -12.191   9.920  71.680  1.00  0.00    -0.482 C  
HETATM   18  C   UNL     1     -12.599   8.720  72.532  1.00  0.00    -0.375 C  
HETATM   19  C   UNL     1     -11.423   7.793  72.823  1.00  0.00    -0.415 C  
HETATM   20  C   UNL     1     -10.703   7.385  71.545  1.00  0.00    -0.243 C  
ENDBRANCH  10  11
ENDBRANCH   6  10
TORSDOF 2
ENDMDL
MODEL      221
REMARK 921   NORMALIZED FREE ENERGY PREDICTED BY IDOCK:   -2.43 KCAL/MOL
REMARK 922        TOTAL FREE ENERGY PREDICTED BY IDOCK:   -2.85 KCAL/MOL
REMARK 923 INTER-LIGAND FREE ENERGY PREDICTED BY IDOCK:   -2.71 KCAL/MOL
REMARK 924 INTRA-LIGAND FREE ENERGY PREDICTED BY IDOCK:   -0.13 KCAL/MOL
REMARK 927      BINDING AFFINITY PREDICTED BY RF-SCORE:    0.00 PKD
ROOT
HETATM    1  N   UNL     1     -11.300   4.010  64.719  1.00  0.00    -0.855 NA 
HETATM    2  C   UNL     1     -10.069   4.341  65.169  1.00  0.00    -0.207 C  
HETATM    3  H2  UNL     1     -11.638   3.052  64.631  1.00  0.00     0.000 HD 
HETATM    4  H1  UNL     1     -11.848   4.835  64.478  1.00  0.00     0.000 HD 
HETATM    5  N   UNL     1      -9.343   3.249  65.488  1.00  0.00    -0.199 NA 
HETATM    6  N   UNL     1      -9.734   5.577  65.219  1.00  0.00    -0.334 NA 
HETATM    7  H1  UNL     1      -8.414   3.499  65.827  1.00  0.00     0.000 HD 
HETATM    8  H2  UNL     1      -9.681   2.291  65.400  1.00  0.00     0.000 HD 
HETATM    9  H   UNL     1     -10.407   6.313  65.004  1.00  0.00     0.000 HD 
ENDROOT
BRANCH   6  10
HETATM   10  C   UNL     1      -8.354   5.902  65.594  1.00  0.00    -0.143 C  
BRANCH  10  11
HETATM   11  C   UNL     1      -8.162   7.396  65.867  1.00  0.00    -0.134 C  
HETATM   12  C   UNL     1      -6.690   7.730  65.967  1.00  0.00    -0.049 C  
HETATM   13  O   UNL     1      -6.645   8.877  66.806  1.00  0.00    -0.063 OA 
HETATM   14  C   UNL     1      -7.775   8.748  67.678  1.00  0.00    -0.101 C  
HETATM   15  O   UNL     1      -8.694   7.786  67.145  1.00  0.00    -0.122 OA 
HETATM   16  C   UNL     1      -8.425  10.127  67.820  1.00  0.00    -0.114 C  
HETATM   17  C   UNL     1      -7.492  11.111  68.534  1.00  0.00    -0.112 C  
HETATM   18  C   UNL     1      -7.029  10.574  69.887  1.00  0.00    -0.151 C  
HETATM   19  C   UNL     1      -6.412   9.183  69.775  1.00  0.00    -0.039 C  
HETATM   20  C   UNL     1      -7.339   8.218  69.049  1.00  0.00    -0.089 C  
ENDBRANCH  10  11
ENDBRANCH   6  10
TORSDOF 2
ENDMDL
MODEL      222
REMARK 921   NORMALIZED FREE ENERGY PREDICTED BY IDOCK:   -2.42 KCAL/MOL
REMARK 922        TOTAL FREE ENERGY PREDICTED BY IDOCK:   -2.84 KCAL/MOL
REMARK 923 INTER-LIGAND FREE ENERGY PREDICTED BY IDOCK:   -2.67 KCAL/MOL
REMARK 924 INTRA-LIGAND FREE ENERGY PREDICTED BY IDOCK:   -0.17 KCAL/MOL
REMARK 927      BINDING AFFINITY PREDICTED BY RF-SCORE:    0.00 PKD
ROOT
HETATM    1  N   UNL     1      -5.530  10.085  63.103  1.00  0.00    -0.099 NA 
HETATM    2  C   UNL     1      -6.754  10.435  63.556  1.00  0.00    -0.028 C  
HETATM    3  H2  UNL     1      -5.223  10.200  62.138  1.00  0.00     0.000 HD 
HETATM    4  H1  UNL     1      -4.950   9.693  63.845  1.00  0.00     0.000 HD 
HETATM    5  N   UNL     1      -7.521  10.954  62.574  1.00  0.00    -0.368 NA 
HETATM    6  N   UNL     1      -7.048  10.227  64.786  1.00  0.00    -0.243 NA 
HETATM    7  H1  UNL     1      -8.445  11.217  62.916  1.00  0.00     0.000 HD 
HETATM    8  H2  UNL     1      -7.215  11.068  61.608  1.00  0.00     0.000 HD 
HETATM    9  H   UNL     1      -6.348   9.881  65.442  1.00  0.00     0.000 HD 
ENDROOT
BRANCH   6  10
HETATM   10  C   UNL     1      -8.421  10.502  65.222  1.00  0.00    -0.171 C  
BRANCH  10  11
HETATM   11  C   UNL     1      -9.124   9.251  65.752  1.00  0.00    -0.209 C  
HETATM   12  C   UNL     1     -10.400   9.627  66.474  1.00  0.00    -0.194 C  
HETATM   13  O   UNL     1     -10.598   8.577  67.411  1.00  0.00    -0.277 OA 
HETATM   14  C   UNL     1      -9.282   8.113  67.737  1.00  0.00    -0.134 C  
HETATM   15  O   UNL     1      -8.346   8.576  66.756  1.00  0.00    -0.106 OA 
HETATM   16  C   UNL     1      -9.320   6.583  67.799  1.00  0.00    -0.118 C  
HETATM   17  C   UNL     1     -10.202   6.095  68.953  1.00  0.00    -0.232 C  
HETATM   18  C   UNL     1      -9.769   6.694  70.290  1.00  0.00    -0.182 C  
HETATM   19  C   UNL     1      -9.687   8.217  70.240  1.00  0.00    -0.175 C  
HETATM   20  C   UNL     1      -8.823   8.692  69.080  1.00  0.00    -0.137 C  
ENDBRANCH  10  11
ENDBRANCH   6  10
TORSDOF 2
ENDMDL
MODEL      223
REMARK 921   NORMALIZED FREE ENERGY PREDICTED BY IDOCK:   -2.40 KCAL/MOL
REMARK 922        TOTAL FREE ENERGY PREDICTED BY IDOCK:   -2.82 KCAL/MOL
REMARK 923 INTER-LIGAND FREE ENERGY PREDICTED BY IDOCK:   -2.53 KCAL/MOL
REMARK 924 INTRA-LIGAND FREE ENERGY PREDICTED BY IDOCK:   -0.29 KCAL/MOL
REMARK 927      BINDING AFFINITY PREDICTED BY RF-SCORE:    0.00 PKD
ROOT
HETATM    1  N   UNL     1     -10.032   4.362  63.295  1.00  0.00    -0.363 NA 
HETATM    2  C   UNL     1     -10.078   4.418  64.645  1.00  0.00    -0.049 C  
HETATM    3  H2  UNL     1     -10.855   4.380  62.694  1.00  0.00     0.000 HD 
HETATM    4  H1  UNL     1      -9.074   4.299  62.952  1.00  0.00     0.000 HD 
HETATM    5  N   UNL     1     -11.346   4.501  65.099  1.00  0.00    -1.113 NA 
HETATM    6  N   UNL     1      -8.983   4.365  65.309  1.00  0.00    -0.134 NA 
HETATM    7  H1  UNL     1     -11.380   4.543  66.118  1.00  0.00     0.000 HD 
HETATM    8  H2  UNL     1     -12.169   4.519  64.498  1.00  0.00     0.000 HD 
HETATM    9  H   UNL     1      -8.080   4.365  64.835  1.00  0.00     0.000 HD 
ENDROOT
BRANCH   6  10
HETATM   10  C   UNL     1      -9.068   4.306  66.772  1.00  0.00    -0.134 C  
BRANCH  10  11
HETATM   11  C   UNL     1      -8.353   5.480  67.444  1.00  0.00    -0.103 C  
HETATM   12  C   UNL     1      -9.178   6.742  67.323  1.00  0.00    -0.133 C  
HETATM   13  O   UNL     1      -8.224   7.794  67.371  1.00  0.00    -0.120 OA 
HETATM   14  C   UNL     1      -7.027   7.240  66.809  1.00  0.00    -0.074 C  
HETATM   15  O   UNL     1      -7.117   5.810  66.787  1.00  0.00    -0.067 OA 
HETATM   16  C   UNL     1      -5.842   7.715  67.655  1.00  0.00    -0.036 C  
HETATM   17  C   UNL     1      -5.656   9.232  67.549  1.00  0.00    -0.041 C  
HETATM   18  C   UNL     1      -5.519   9.687  66.097  1.00  0.00    -0.047 C  
HETATM   19  C   UNL     1      -6.671   9.192  65.227  1.00  0.00    -0.069 C  
HETATM   20  C   UNL     1      -6.859   7.686  65.352  1.00  0.00    -0.045 C  
ENDBRANCH  10  11
ENDBRANCH   6  10
TORSDOF 2
ENDMDL
MODEL      224
REMARK 921   NORMALIZED FREE ENERGY PREDICTED BY IDOCK:   -2.39 KCAL/MOL
REMARK 922        TOTAL FREE ENERGY PREDICTED BY IDOCK:   -2.80 KCAL/MOL
REMARK 923 INTER-LIGAND FREE ENERGY PREDICTED BY IDOCK:   -2.63 KCAL/MOL
REMARK 924 INTRA-LIGAND FREE ENERGY PREDICTED BY IDOCK:   -0.17 KCAL/MOL
REMARK 927      BINDING AFFINITY PREDICTED BY RF-SCORE:    0.00 PKD
ROOT
HETATM    1  N   UNL     1      -6.087  10.571  64.249  1.00  0.00    -0.338 NA 
HETATM    2  C   UNL     1      -7.322  10.417  64.775  1.00  0.00    -0.038 C  
HETATM    3  H2  UNL     1      -5.888  11.111  63.408  1.00  0.00     0.000 HD 
HETATM    4  H1  UNL     1      -5.380  10.081  64.796  1.00  0.00     0.000 HD 
HETATM    5  N   UNL     1      -8.259  11.065  64.052  1.00  0.00    -0.344 NA 
HETATM    6  N   UNL     1      -7.468   9.696  65.826  1.00  0.00    -0.097 NA 
HETATM    7  H1  UNL     1      -9.191  10.948  64.449  1.00  0.00     0.000 HD 
HETATM    8  H2  UNL     1      -8.060  11.606  63.210  1.00  0.00     0.000 HD 
HETATM    9  H   UNL     1      -6.661   9.309  66.314  1.00  0.00     0.000 HD 
ENDROOT
BRANCH   6  10
HETATM   10  C   UNL     1      -8.832   9.446  66.305  1.00  0.00    -0.147 C  
BRANCH  10  11
HETATM   11  C   UNL     1      -9.269   7.997  66.081  1.00  0.00    -0.163 C  
HETATM   12  C   UNL     1     -10.582   7.726  66.785  1.00  0.00    -0.177 C  
HETATM   13  O   UNL     1     -10.556   6.331  67.055  1.00  0.00    -0.239 OA 
HETATM   14  C   UNL     1      -9.170   6.006  67.215  1.00  0.00    -0.114 C  
HETATM   15  O   UNL     1      -8.358   7.058  66.677  1.00  0.00    -0.112 OA 
HETATM   16  C   UNL     1      -8.908   4.675  66.505  1.00  0.00    -0.111 C  
HETATM   17  C   UNL     1      -9.659   3.525  67.184  1.00  0.00    -0.160 C  
HETATM   18  C   UNL     1      -9.329   3.433  68.673  1.00  0.00    -0.232 C  
HETATM   19  C   UNL     1      -9.545   4.760  69.394  1.00  0.00    -0.249 C  
HETATM   20  C   UNL     1      -8.809   5.899  68.701  1.00  0.00    -0.111 C  
ENDBRANCH  10  11
ENDBRANCH   6  10
TORSDOF 2
ENDMDL
MODEL      225
REMARK 921   NORMALIZED FREE ENERGY PREDICTED BY IDOCK:   -2.39 KCAL/MOL
REMARK 922        TOTAL FREE ENERGY PREDICTED BY IDOCK:   -2.80 KCAL/MOL
REMARK 923 INTER-LIGAND FREE ENERGY PREDICTED BY IDOCK:   -2.52 KCAL/MOL
REMARK 924 INTRA-LIGAND FREE ENERGY PREDICTED BY IDOCK:   -0.29 KCAL/MOL
REMARK 927      BINDING AFFINITY PREDICTED BY RF-SCORE:    0.00 PKD
ROOT
HETATM    1  N   UNL     1      -7.670  13.521  69.010  1.00  0.00    -0.326 NA 
HETATM    2  C   UNL     1      -6.683  12.821  68.409  1.00  0.00    -0.087 C  
HETATM    3  H2  UNL     1      -7.635  13.844  69.976  1.00  0.00     0.000 HD 
HETATM    4  H1  UNL     1      -8.454  13.687  68.379  1.00  0.00     0.000 HD 
HETATM    5  N   UNL     1      -5.645  12.601  69.243  1.00  0.00    -0.072 NA 
HETATM    6  N   UNL     1      -6.837  12.441  67.194  1.00  0.00    -0.308 NA 
HETATM    7  H1  UNL     1      -4.901  12.072  68.789  1.00  0.00     0.000 HD 
HETATM    8  H2  UNL     1      -5.610  12.924  70.209  1.00  0.00     0.000 HD 
HETATM    9  H   UNL     1      -7.652  12.730  66.653  1.00  0.00     0.000 HD 
ENDROOT
BRANCH   6  10
HETATM   10  C   UNL     1      -5.806  11.581  66.605  1.00  0.00    -0.137 C  
BRANCH  10  11
HETATM   11  C   UNL     1      -6.332  10.180  66.285  1.00  0.00    -0.084 C  
HETATM   12  C   UNL     1      -7.443  10.253  65.260  1.00  0.00    -0.141 C  
HETATM   13  O   UNL     1      -8.234   9.099  65.514  1.00  0.00    -0.113 OA 
HETATM   14  C   UNL     1      -8.088   8.847  66.917  1.00  0.00    -0.109 C  
HETATM   15  O   UNL     1      -6.953   9.561  67.425  1.00  0.00    -0.082 OA 
HETATM   16  C   UNL     1      -7.935   7.336  67.115  1.00  0.00    -0.110 C  
HETATM   17  C   UNL     1      -9.213   6.591  66.716  1.00  0.00    -0.163 C  
HETATM   18  C   UNL     1     -10.437   7.126  67.458  1.00  0.00    -0.331 C  
HETATM   19  C   UNL     1     -10.587   8.637  67.307  1.00  0.00    -0.308 C  
HETATM   20  C   UNL     1      -9.306   9.367  67.688  1.00  0.00    -0.146 C  
ENDBRANCH  10  11
ENDBRANCH   6  10
TORSDOF 2
ENDMDL
MODEL      226
REMARK 921   NORMALIZED FREE ENERGY PREDICTED BY IDOCK:   -2.38 KCAL/MOL
REMARK 922        TOTAL FREE ENERGY PREDICTED BY IDOCK:   -2.79 KCAL/MOL
REMARK 923 INTER-LIGAND FREE ENERGY PREDICTED BY IDOCK:   -3.48 KCAL/MOL
REMARK 924 INTRA-LIGAND FREE ENERGY PREDICTED BY IDOCK:    0.69 KCAL/MOL
REMARK 927      BINDING AFFINITY PREDICTED BY RF-SCORE:    0.00 PKD
ROOT
HETATM    1  N   UNL     1      -6.631  17.941  67.152  1.00  0.00    -0.169 NA 
HETATM    2  C   UNL     1      -6.841  16.726  67.705  1.00  0.00    -0.137 C  
HETATM    3  H2  UNL     1      -5.766  18.216  66.688  1.00  0.00     0.000 HD 
HETATM    4  H1  UNL     1      -7.444  18.549  67.256  1.00  0.00     0.000 HD 
HETATM    5  N   UNL     1      -5.766  15.922  67.568  1.00  0.00    -0.244 NA 
HETATM    6  N   UNL     1      -7.958  16.488  68.286  1.00  0.00    -0.171 NA 
HETATM    7  H1  UNL     1      -5.924  15.005  67.985  1.00  0.00     0.000 HD 
HETATM    8  H2  UNL     1      -4.901  16.197  67.104  1.00  0.00     0.000 HD 
HETATM    9  H   UNL     1      -8.717  17.170  68.265  1.00  0.00     0.000 HD 
ENDROOT
BRANCH   6  10
HETATM   10  C   UNL     1      -8.114  15.207  68.982  1.00  0.00    -0.191 C  
BRANCH  10  11
HETATM   11  C   UNL     1      -8.569  14.087  68.044  1.00  0.00    -0.179 C  
HETATM   12  C   UNL     1      -8.475  14.535  66.602  1.00  0.00     0.029 C  
HETATM   13  O   UNL     1      -9.454  13.757  65.927  1.00  0.00    -0.177 OA 
HETATM   14  C   UNL     1     -10.471  13.504  66.904  1.00  0.00    -0.271 C  
HETATM   15  O   UNL     1      -9.960  13.767  68.217  1.00  0.00    -0.231 OA 
HETATM   16  C   UNL     1     -10.920  12.047  66.757  1.00  0.00    -0.329 C  
HETATM   17  C   UNL     1     -11.608  11.811  65.409  1.00  0.00    -0.190 C  
HETATM   18  C   UNL     1     -12.773  12.775  65.190  1.00  0.00    -0.402 C  
HETATM   19  C   UNL     1     -12.357  14.232  65.369  1.00  0.00    -0.421 C  
HETATM   20  C   UNL     1     -11.659  14.453  66.704  1.00  0.00    -0.396 C  
ENDBRANCH  10  11
ENDBRANCH   6  10
TORSDOF 2
ENDMDL
MODEL      227
REMARK 921   NORMALIZED FREE ENERGY PREDICTED BY IDOCK:   -2.36 KCAL/MOL
REMARK 922        TOTAL FREE ENERGY PREDICTED BY IDOCK:   -2.77 KCAL/MOL
REMARK 923 INTER-LIGAND FREE ENERGY PREDICTED BY IDOCK:   -2.46 KCAL/MOL
REMARK 924 INTRA-LIGAND FREE ENERGY PREDICTED BY IDOCK:   -0.32 KCAL/MOL
REMARK 927      BINDING AFFINITY PREDICTED BY RF-SCORE:    0.00 PKD
ROOT
HETATM    1  N   UNL     1      -5.429   7.163  73.958  1.00  0.00    -0.050 NA 
HETATM    2  C   UNL     1      -6.606   7.796  74.158  1.00  0.00    -0.099 C  
HETATM    3  H2  UNL     1      -4.525   7.634  73.929  1.00  0.00     0.000 HD 
HETATM    4  H1  UNL     1      -5.555   6.158  73.840  1.00  0.00     0.000 HD 
HETATM    5  N   UNL     1      -6.440   9.126  74.314  1.00  0.00    -0.348 NA 
HETATM    6  N   UNL     1      -7.691   7.112  74.153  1.00  0.00    -0.107 NA 
HETATM    7  H1  UNL     1      -7.329   9.602  74.464  1.00  0.00     0.000 HD 
HETATM    8  H2  UNL     1      -5.536   9.597  74.285  1.00  0.00     0.000 HD 
HETATM    9  H   UNL     1      -7.670   6.094  74.085  1.00  0.00     0.000 HD 
ENDROOT
BRANCH   6  10
HETATM   10  C   UNL     1      -8.962   7.836  74.250  1.00  0.00    -0.056 C  
BRANCH  10  11
HETATM   11  C   UNL     1      -9.801   7.712  72.976  1.00  0.00    -0.261 C  
HETATM   12  C   UNL     1      -9.626   6.341  72.360  1.00  0.00    -0.150 C  
HETATM   13  O   UNL     1      -9.878   6.542  70.976  1.00  0.00    -0.179 OA 
HETATM   14  C   UNL     1      -9.476   7.892  70.713  1.00  0.00    -0.158 C  
HETATM   15  O   UNL     1      -9.359   8.613  71.947  1.00  0.00    -0.244 OA 
HETATM   16  C   UNL     1     -10.518   8.527  69.788  1.00  0.00    -0.220 C  
HETATM   17  C   UNL     1     -10.527   7.849  68.414  1.00  0.00    -0.207 C  
HETATM   18  C   UNL     1      -9.141   7.850  67.771  1.00  0.00    -0.138 C  
HETATM   19  C   UNL     1      -8.079   7.256  68.692  1.00  0.00    -0.125 C  
HETATM   20  C   UNL     1      -8.090   7.924  70.060  1.00  0.00    -0.117 C  
ENDBRANCH  10  11
ENDBRANCH   6  10
TORSDOF 2
ENDMDL
MODEL      228
REMARK 921   NORMALIZED FREE ENERGY PREDICTED BY IDOCK:   -2.35 KCAL/MOL
REMARK 922        TOTAL FREE ENERGY PREDICTED BY IDOCK:   -2.76 KCAL/MOL
REMARK 923 INTER-LIGAND FREE ENERGY PREDICTED BY IDOCK:   -2.51 KCAL/MOL
REMARK 924 INTRA-LIGAND FREE ENERGY PREDICTED BY IDOCK:   -0.25 KCAL/MOL
REMARK 927      BINDING AFFINITY PREDICTED BY RF-SCORE:    0.00 PKD
ROOT
HETATM    1  N   UNL     1      -5.977  11.222  62.360  1.00  0.00    -0.343 NA 
HETATM    2  C   UNL     1      -6.126  10.285  63.322  1.00  0.00    -0.143 C  
HETATM    3  H2  UNL     1      -6.363  11.142  61.420  1.00  0.00     0.000 HD 
HETATM    4  H1  UNL     1      -5.432  12.019  62.690  1.00  0.00     0.000 HD 
HETATM    5  N   UNL     1      -6.847   9.230  62.886  1.00  0.00    -0.093 NA 
HETATM    6  N   UNL     1      -5.581  10.472  64.467  1.00  0.00    -0.226 NA 
HETATM    7  H1  UNL     1      -6.959   8.523  63.612  1.00  0.00     0.000 HD 
HETATM    8  H2  UNL     1      -7.232   9.150  61.945  1.00  0.00     0.000 HD 
HETATM    9  H   UNL     1      -5.110  11.350  64.687  1.00  0.00     0.000 HD 
ENDROOT
BRANCH   6  10
HETATM   10  C   UNL     1      -5.654   9.388  65.451  1.00  0.00    -0.052 C  
BRANCH  10  11
HETATM   11  C   UNL     1      -6.961   9.412  66.247  1.00  0.00    -0.087 C  
HETATM   12  C   UNL     1      -6.801   8.657  67.548  1.00  0.00    -0.071 C  
HETATM   13  O   UNL     1      -8.114   8.207  67.858  1.00  0.00    -0.124 OA 
HETATM   14  C   UNL     1      -8.758   8.030  66.591  1.00  0.00    -0.140 C  
HETATM   15  O   UNL     1      -8.021   8.715  65.570  1.00  0.00    -0.098 OA 
HETATM   16  C   UNL     1     -10.188   8.565  66.706  1.00  0.00    -0.370 C  
HETATM   17  C   UNL     1     -11.018   7.728  67.685  1.00  0.00    -0.020 C  
HETATM   18  C   UNL     1     -11.008   6.246  67.314  1.00  0.00    -0.455 C  
HETATM   19  C   UNL     1      -9.592   5.701  67.156  1.00  0.00    -0.137 C  
HETATM   20  C   UNL     1      -8.771   6.549  66.195  1.00  0.00    -0.153 C  
ENDBRANCH  10  11
ENDBRANCH   6  10
TORSDOF 2
ENDMDL
MODEL      229
REMARK 921   NORMALIZED FREE ENERGY PREDICTED BY IDOCK:   -2.31 KCAL/MOL
REMARK 922        TOTAL FREE ENERGY PREDICTED BY IDOCK:   -2.72 KCAL/MOL
REMARK 923 INTER-LIGAND FREE ENERGY PREDICTED BY IDOCK:   -2.52 KCAL/MOL
REMARK 924 INTRA-LIGAND FREE ENERGY PREDICTED BY IDOCK:   -0.20 KCAL/MOL
REMARK 927      BINDING AFFINITY PREDICTED BY RF-SCORE:    0.00 PKD
ROOT
HETATM    1  N   UNL     1      -6.326  12.965  67.177  1.00  0.00    -0.476 NA 
HETATM    2  C   UNL     1      -7.438  12.200  67.218  1.00  0.00    -0.152 C  
HETATM    3  H2  UNL     1      -6.073  13.646  67.892  1.00  0.00     0.000 HD 
HETATM    4  H1  UNL     1      -5.770  12.779  66.342  1.00  0.00     0.000 HD 
HETATM    5  N   UNL     1      -8.174  12.446  68.322  1.00  0.00    -0.168 NA 
HETATM    6  N   UNL     1      -7.676  11.390  66.253  1.00  0.00    -0.356 NA 
HETATM    7  H1  UNL     1      -9.014  11.868  68.353  1.00  0.00     0.000 HD 
HETATM    8  H2  UNL     1      -7.922  13.126  69.038  1.00  0.00     0.000 HD 
HETATM    9  H   UNL     1      -6.999  11.256  65.502  1.00  0.00     0.000 HD 
ENDROOT
BRANCH   6  10
HETATM   10  C   UNL     1      -8.948  10.661  66.263  1.00  0.00    -0.165 C  
BRANCH  10  11
HETATM   11  C   UNL     1      -8.768   9.173  65.954  1.00  0.00    -0.158 C  
HETATM   12  C   UNL     1      -9.905   8.368  66.546  1.00  0.00    -0.268 C  
HETATM   13  O   UNL     1      -9.348   7.079  66.767  1.00  0.00    -0.145 OA 
HETATM   14  C   UNL     1      -7.956   7.311  67.019  1.00  0.00    -0.109 C  
HETATM   15  O   UNL     1      -7.595   8.627  66.582  1.00  0.00    -0.088 OA 
HETATM   16  C   UNL     1      -7.154   6.234  66.282  1.00  0.00    -0.068 C  
HETATM   17  C   UNL     1      -7.429   4.842  66.861  1.00  0.00    -0.087 C  
HETATM   18  C   UNL     1      -7.171   4.793  68.365  1.00  0.00    -0.061 C  
HETATM   19  C   UNL     1      -7.931   5.882  69.117  1.00  0.00    -0.099 C  
HETATM   20  C   UNL     1      -7.665   7.259  68.523  1.00  0.00    -0.120 C  
ENDBRANCH  10  11
ENDBRANCH   6  10
TORSDOF 2
ENDMDL
MODEL      230
REMARK 921   NORMALIZED FREE ENERGY PREDICTED BY IDOCK:   -2.28 KCAL/MOL
REMARK 922        TOTAL FREE ENERGY PREDICTED BY IDOCK:   -2.68 KCAL/MOL
REMARK 923 INTER-LIGAND FREE ENERGY PREDICTED BY IDOCK:   -2.54 KCAL/MOL
REMARK 924 INTRA-LIGAND FREE ENERGY PREDICTED BY IDOCK:   -0.14 KCAL/MOL
REMARK 927      BINDING AFFINITY PREDICTED BY RF-SCORE:    0.00 PKD
ROOT
HETATM    1  N   UNL     1      -8.855  16.418  65.708  1.00  0.00    -0.424 NA 
HETATM    2  C   UNL     1      -8.915  15.412  66.608  1.00  0.00    -0.286 C  
HETATM    3  H2  UNL     1      -8.804  17.405  65.958  1.00  0.00     0.000 HD 
HETATM    4  H1  UNL     1      -8.866  16.069  64.750  1.00  0.00     0.000 HD 
HETATM    5  N   UNL     1      -8.901  15.873  67.876  1.00  0.00    -0.178 NA 
HETATM    6  N   UNL     1      -9.000  14.203  66.189  1.00  0.00    -0.471 NA 
HETATM    7  H1  UNL     1      -8.948  15.113  68.555  1.00  0.00     0.000 HD 
HETATM    8  H2  UNL     1      -8.851  16.860  68.126  1.00  0.00     0.000 HD 
HETATM    9  H   UNL     1      -8.939  13.987  65.194  1.00  0.00     0.000 HD 
ENDROOT
BRANCH   6  10
HETATM   10  C   UNL     1      -9.187  13.141  67.183  1.00  0.00    -0.227 C  
BRANCH  10  11
HETATM   11  C   UNL     1      -8.231  11.966  66.965  1.00  0.00    -0.170 C  
HETATM   12  C   UNL     1      -9.006  10.705  66.650  1.00  0.00    -0.150 C  
HETATM   13  O   UNL     1      -8.160   9.652  67.092  1.00  0.00    -0.109 OA 
HETATM   14  C   UNL     1      -7.413  10.204  68.183  1.00  0.00    -0.083 C  
HETATM   15  O   UNL     1      -7.501  11.634  68.158  1.00  0.00    -0.091 OA 
HETATM   16  C   UNL     1      -5.963   9.728  68.056  1.00  0.00    -0.043 C  
HETATM   17  C   UNL     1      -5.858   8.210  68.240  1.00  0.00    -0.037 C  
HETATM   18  C   UNL     1      -6.477   7.755  69.560  1.00  0.00    -0.035 C  
HETATM   19  C   UNL     1      -7.910   8.251  69.726  1.00  0.00    -0.100 C  
HETATM   20  C   UNL     1      -8.007   9.757  69.524  1.00  0.00    -0.137 C  
ENDBRANCH  10  11
ENDBRANCH   6  10
TORSDOF 2
ENDMDL
MODEL      231
REMARK 921   NORMALIZED FREE ENERGY PREDICTED BY IDOCK:   -2.26 KCAL/MOL
REMARK 922        TOTAL FREE ENERGY PREDICTED BY IDOCK:   -2.67 KCAL/MOL
REMARK 923 INTER-LIGAND FREE ENERGY PREDICTED BY IDOCK:   -2.50 KCAL/MOL
REMARK 924 INTRA-LIGAND FREE ENERGY PREDICTED BY IDOCK:   -0.17 KCAL/MOL
REMARK 927      BINDING AFFINITY PREDICTED BY RF-SCORE:    0.00 PKD
ROOT
HETATM    1  N   UNL     1     -11.535   6.543  67.642  1.00  0.00    -0.688 NA 
HETATM    2  C   UNL     1     -10.253   6.941  67.489  1.00  0.00    -0.194 C  
HETATM    3  H2  UNL     1     -11.937   6.243  68.530  1.00  0.00     0.000 HD 
HETATM    4  H1  UNL     1     -12.050   6.580  66.763  1.00  0.00     0.000 HD 
HETATM    5  N   UNL     1      -9.570   6.892  68.652  1.00  0.00    -0.133 NA 
HETATM    6  N   UNL     1      -9.839   7.278  66.323  1.00  0.00    -0.437 NA 
HETATM    7  H1  UNL     1      -8.603   7.192  68.536  1.00  0.00     0.000 HD 
HETATM    8  H2  UNL     1      -9.973   6.591  69.539  1.00  0.00     0.000 HD 
HETATM    9  H   UNL     1     -10.481   7.329  65.532  1.00  0.00     0.000 HD 
ENDROOT
BRANCH   6  10
HETATM   10  C   UNL     1      -8.414   7.588  66.161  1.00  0.00    -0.144 C  
BRANCH  10  11
HETATM   11  C   UNL     1      -7.642   6.446  65.498  1.00  0.00    -0.087 C  
HETATM   12  C   UNL     1      -7.754   6.537  63.991  1.00  0.00    -0.105 C  
HETATM   13  O   UNL     1      -7.595   5.197  63.544  1.00  0.00    -0.058 OA 
HETATM   14  C   UNL     1      -8.107   4.384  64.608  1.00  0.00    -0.099 C  
HETATM   15  O   UNL     1      -8.204   5.160  65.809  1.00  0.00    -0.111 OA 
HETATM   16  C   UNL     1      -7.167   3.189  64.786  1.00  0.00    -0.066 C  
HETATM   17  C   UNL     1      -7.187   2.277  63.554  1.00  0.00    -0.044 C  
HETATM   18  C   UNL     1      -8.603   1.822  63.208  1.00  0.00    -0.076 C  
HETATM   19  C   UNL     1      -9.567   2.996  63.064  1.00  0.00    -0.093 C  
HETATM   20  C   UNL     1      -9.526   3.905  64.285  1.00  0.00    -0.161 C  
ENDBRANCH  10  11
ENDBRANCH   6  10
TORSDOF 2
ENDMDL
MODEL      232
REMARK 921   NORMALIZED FREE ENERGY PREDICTED BY IDOCK:   -2.26 KCAL/MOL
REMARK 922        TOTAL FREE ENERGY PREDICTED BY IDOCK:   -2.66 KCAL/MOL
REMARK 923 INTER-LIGAND FREE ENERGY PREDICTED BY IDOCK:   -2.46 KCAL/MOL
REMARK 924 INTRA-LIGAND FREE ENERGY PREDICTED BY IDOCK:   -0.20 KCAL/MOL
REMARK 927      BINDING AFFINITY PREDICTED BY RF-SCORE:    0.00 PKD
ROOT
HETATM    1  N   UNL     1      -7.450  10.378  70.368  1.00  0.00    -0.445 NA 
HETATM    2  C   UNL     1      -7.742   9.179  70.919  1.00  0.00    -0.126 C  
HETATM    3  H2  UNL     1      -6.956  11.125  70.855  1.00  0.00     0.000 HD 
HETATM    4  H1  UNL     1      -7.784  10.443  69.407  1.00  0.00     0.000 HD 
HETATM    5  N   UNL     1      -7.301   9.092  72.192  1.00  0.00    -0.300 NA 
HETATM    6  N   UNL     1      -8.389   8.315  70.227  1.00  0.00    -0.120 NA 
HETATM    7  H1  UNL     1      -7.523   8.188  72.607  1.00  0.00     0.000 HD 
HETATM    8  H2  UNL     1      -6.808   9.840  72.678  1.00  0.00     0.000 HD 
HETATM    9  H   UNL     1      -8.611   8.486  69.247  1.00  0.00     0.000 HD 
ENDROOT
BRANCH   6  10
HETATM   10  C   UNL     1      -8.799   7.071  70.888  1.00  0.00    -0.148 C  
BRANCH  10  11
HETATM   11  C   UNL     1      -8.545   5.839  70.017  1.00  0.00    -0.128 C  
HETATM   12  C   UNL     1      -7.351   6.066  69.115  1.00  0.00    -0.084 C  
HETATM   13  O   UNL     1      -7.592   5.227  67.993  1.00  0.00    -0.079 OA 
HETATM   14  C   UNL     1      -9.019   5.152  67.881  1.00  0.00    -0.110 C  
HETATM   15  O   UNL     1      -9.627   5.590  69.103  1.00  0.00    -0.129 OA 
HETATM   16  C   UNL     1      -9.394   3.703  67.555  1.00  0.00    -0.244 C  
HETATM   17  C   UNL     1      -8.873   3.291  66.174  1.00  0.00    -0.139 C  
HETATM   18  C   UNL     1      -9.347   4.246  65.080  1.00  0.00    -0.165 C  
HETATM   19  C   UNL     1      -9.017   5.700  65.403  1.00  0.00    -0.079 C  
HETATM   20  C   UNL     1      -9.524   6.095  66.783  1.00  0.00    -0.164 C  
ENDBRANCH  10  11
ENDBRANCH   6  10
TORSDOF 2
ENDMDL
MODEL      233
REMARK 921   NORMALIZED FREE ENERGY PREDICTED BY IDOCK:   -2.19 KCAL/MOL
REMARK 922        TOTAL FREE ENERGY PREDICTED BY IDOCK:   -2.58 KCAL/MOL
REMARK 923 INTER-LIGAND FREE ENERGY PREDICTED BY IDOCK:   -2.29 KCAL/MOL
REMARK 924 INTRA-LIGAND FREE ENERGY PREDICTED BY IDOCK:   -0.29 KCAL/MOL
REMARK 927      BINDING AFFINITY PREDICTED BY RF-SCORE:    0.00 PKD
ROOT
HETATM    1  N   UNL     1      -5.868   9.677  62.476  1.00  0.00    -0.089 NA 
HETATM    2  C   UNL     1      -6.953   9.245  63.154  1.00  0.00    -0.089 C  
HETATM    3  H2  UNL     1      -5.816  10.572  61.990  1.00  0.00     0.000 HD 
HETATM    4  H1  UNL     1      -5.106   8.999  62.511  1.00  0.00     0.000 HD 
HETATM    5  N   UNL     1      -7.962  10.141  63.108  1.00  0.00    -0.150 NA 
HETATM    6  N   UNL     1      -6.923   8.091  63.713  1.00  0.00    -0.074 NA 
HETATM    7  H1  UNL     1      -8.781   9.814  63.620  1.00  0.00     0.000 HD 
HETATM    8  H2  UNL     1      -7.910  11.035  62.622  1.00  0.00     0.000 HD 
HETATM    9  H   UNL     1      -6.068   7.535  63.723  1.00  0.00     0.000 HD 
ENDROOT
BRANCH   6  10
HETATM   10  C   UNL     1      -8.154   7.595  64.337  1.00  0.00    -0.084 C  
BRANCH  10  11
HETATM   11  C   UNL     1      -8.132   7.739  65.860  1.00  0.00    -0.121 C  
HETATM   12  C   UNL     1      -9.363   7.105  66.469  1.00  0.00    -0.164 C  
HETATM   13  O   UNL     1      -9.560   7.813  67.685  1.00  0.00    -0.141 OA 
HETATM   14  C   UNL     1      -9.043   9.127  67.441  1.00  0.00    -0.127 C  
HETATM   15  O   UNL     1      -8.209   9.113  66.276  1.00  0.00    -0.109 OA 
HETATM   16  C   UNL     1      -8.265   9.570  68.684  1.00  0.00    -0.112 C  
HETATM   17  C   UNL     1      -9.194   9.735  69.891  1.00  0.00    -0.263 C  
HETATM   18  C   UNL     1     -10.350  10.688  69.592  1.00  0.00    -0.185 C  
HETATM   19  C   UNL     1     -11.116  10.288  68.335  1.00  0.00    -0.302 C  
HETATM   20  C   UNL     1     -10.183  10.109  67.145  1.00  0.00    -0.278 C  
ENDBRANCH  10  11
ENDBRANCH   6  10
TORSDOF 2
ENDMDL
MODEL      234
REMARK 921   NORMALIZED FREE ENERGY PREDICTED BY IDOCK:   -2.14 KCAL/MOL
REMARK 922        TOTAL FREE ENERGY PREDICTED BY IDOCK:   -2.53 KCAL/MOL
REMARK 923 INTER-LIGAND FREE ENERGY PREDICTED BY IDOCK:   -2.21 KCAL/MOL
REMARK 924 INTRA-LIGAND FREE ENERGY PREDICTED BY IDOCK:   -0.32 KCAL/MOL
REMARK 927      BINDING AFFINITY PREDICTED BY RF-SCORE:    0.00 PKD
ROOT
HETATM    1  N   UNL     1      -7.639   4.968  68.481  1.00  0.00    -0.077 NA 
HETATM    2  C   UNL     1      -8.731   5.637  68.912  1.00  0.00    -0.107 C  
HETATM    3  H2  UNL     1      -6.929   4.573  69.098  1.00  0.00     0.000 HD 
HETATM    4  H1  UNL     1      -7.610   4.907  67.463  1.00  0.00     0.000 HD 
HETATM    5  N   UNL     1      -8.768   5.718  70.259  1.00  0.00    -0.135 NA 
HETATM    6  N   UNL     1      -9.551   6.115  68.051  1.00  0.00    -0.115 NA 
HETATM    7  H1  UNL     1      -9.592   6.223  70.584  1.00  0.00     0.000 HD 
HETATM    8  H2  UNL     1      -8.059   5.323  70.876  1.00  0.00     0.000 HD 
HETATM    9  H   UNL     1      -9.435   5.927  67.055  1.00  0.00     0.000 HD 
ENDROOT
BRANCH   6  10
HETATM   10  C   UNL     1     -10.661   6.939  68.540  1.00  0.00    -0.212 C  
BRANCH  10  11
HETATM   11  C   UNL     1     -10.530   8.403  68.114  1.00  0.00    -0.174 C  
HETATM   12  C   UNL     1     -10.151   8.497  66.652  1.00  0.00    -0.294 C  
HETATM   13  O   UNL     1      -9.463   9.736  66.545  1.00  0.00    -0.160 OA 
HETATM   14  C   UNL     1      -8.848   9.935  67.824  1.00  0.00    -0.129 C  
HETATM   15  O   UNL     1      -9.452   9.070  68.794  1.00  0.00    -0.146 OA 
HETATM   16  C   UNL     1      -9.013  11.409  68.205  1.00  0.00    -0.175 C  
HETATM   17  C   UNL     1      -8.233  12.321  67.252  1.00  0.00    -0.182 C  
HETATM   18  C   UNL     1      -6.759  11.930  67.173  1.00  0.00    -0.142 C  
HETATM   19  C   UNL     1      -6.571  10.455  66.831  1.00  0.00    -0.078 C  
HETATM   20  C   UNL     1      -7.363   9.558  67.773  1.00  0.00    -0.083 C  
ENDBRANCH  10  11
ENDBRANCH   6  10
TORSDOF 2
ENDMDL
MODEL      235
REMARK 921   NORMALIZED FREE ENERGY PREDICTED BY IDOCK:   -2.06 KCAL/MOL
REMARK 922        TOTAL FREE ENERGY PREDICTED BY IDOCK:   -2.44 KCAL/MOL
REMARK 923 INTER-LIGAND FREE ENERGY PREDICTED BY IDOCK:   -2.29 KCAL/MOL
REMARK 924 INTRA-LIGAND FREE ENERGY PREDICTED BY IDOCK:   -0.15 KCAL/MOL
REMARK 927      BINDING AFFINITY PREDICTED BY RF-SCORE:    0.00 PKD
ROOT
HETATM    1  N   UNL     1      -9.410  14.432  68.868  1.00  0.00    -0.354 NA 
HETATM    2  C   UNL     1      -9.139  13.332  68.131  1.00  0.00    -0.207 C  
HETATM    3  H2  UNL     1      -9.359  15.385  68.510  1.00  0.00     0.000 HD 
HETATM    4  H1  UNL     1      -9.670  14.192  69.824  1.00  0.00     0.000 HD 
HETATM    5  N   UNL     1      -8.794  13.649  66.866  1.00  0.00    -0.354 NA 
HETATM    6  N   UNL     1      -9.210  12.177  68.684  1.00  0.00    -0.386 NA 
HETATM    7  H1  UNL     1      -8.589  12.818  66.311  1.00  0.00     0.000 HD 
HETATM    8  H2  UNL     1      -8.744  14.602  66.508  1.00  0.00     0.000 HD 
HETATM    9  H   UNL     1      -9.545  12.073  69.642  1.00  0.00     0.000 HD 
ENDROOT
BRANCH   6  10
HETATM   10  C   UNL     1      -8.794  11.011  67.899  1.00  0.00    -0.134 C  
BRANCH  10  11
HETATM   11  C   UNL     1      -8.980   9.699  68.663  1.00  0.00    -0.129 C  
HETATM   12  C   UNL     1      -8.749   9.911  70.144  1.00  0.00    -0.103 C  
HETATM   13  O   UNL     1      -8.322   8.642  70.620  1.00  0.00    -0.118 OA 
HETATM   14  C   UNL     1      -7.653   8.031  69.509  1.00  0.00    -0.101 C  
HETATM   15  O   UNL     1      -7.998   8.714  68.298  1.00  0.00    -0.107 OA 
HETATM   16  C   UNL     1      -8.065   6.557  69.460  1.00  0.00    -0.118 C  
HETATM   17  C   UNL     1      -7.555   5.796  70.688  1.00  0.00    -0.091 C  
HETATM   18  C   UNL     1      -6.045   5.944  70.861  1.00  0.00    -0.034 C  
HETATM   19  C   UNL     1      -5.607   7.405  70.875  1.00  0.00    -0.027 C  
HETATM   20  C   UNL     1      -6.133   8.157  69.660  1.00  0.00    -0.029 C  
ENDBRANCH  10  11
ENDBRANCH   6  10
TORSDOF 2
ENDMDL
MODEL      236
REMARK 921   NORMALIZED FREE ENERGY PREDICTED BY IDOCK:   -1.93 KCAL/MOL
REMARK 922        TOTAL FREE ENERGY PREDICTED BY IDOCK:   -2.29 KCAL/MOL
REMARK 923 INTER-LIGAND FREE ENERGY PREDICTED BY IDOCK:   -2.22 KCAL/MOL
REMARK 924 INTRA-LIGAND FREE ENERGY PREDICTED BY IDOCK:   -0.08 KCAL/MOL
REMARK 927      BINDING AFFINITY PREDICTED BY RF-SCORE:    0.00 PKD
ROOT
HETATM    1  N   UNL     1      -7.062   3.400  69.304  1.00  0.00    -0.045 NA 
HETATM    2  C   UNL     1      -8.189   4.107  69.069  1.00  0.00    -0.070 C  
HETATM    3  H2  UNL     1      -6.664   3.250  70.230  1.00  0.00     0.000 HD 
HETATM    4  H1  UNL     1      -6.658   3.034  68.441  1.00  0.00     0.000 HD 
HETATM    5  N   UNL     1      -8.723   4.592  70.210  1.00  0.00    -0.081 NA 
HETATM    6  N   UNL     1      -8.593   4.256  67.861  1.00  0.00    -0.098 NA 
HETATM    7  H1  UNL     1      -9.573   5.126  70.032  1.00  0.00     0.000 HD 
HETATM    8  H2  UNL     1      -8.325   4.443  71.136  1.00  0.00     0.000 HD 
HETATM    9  H   UNL     1      -8.125   3.781  67.089  1.00  0.00     0.000 HD 
ENDROOT
BRANCH   6  10
HETATM   10  C   UNL     1      -9.747   5.128  67.623  1.00  0.00    -0.148 C  
BRANCH  10  11
HETATM   11  C   UNL     1      -9.400   6.321  66.730  1.00  0.00    -0.142 C  
HETATM   12  C   UNL     1      -8.000   6.813  67.025  1.00  0.00    -0.109 C  
HETATM   13  O   UNL     1      -8.027   8.189  66.669  1.00  0.00    -0.099 OA 
HETATM   14  C   UNL     1      -9.377   8.608  66.897  1.00  0.00    -0.170 C  
HETATM   15  O   UNL     1     -10.232   7.462  67.003  1.00  0.00    -0.231 OA 
HETATM   16  C   UNL     1      -9.796   9.515  65.736  1.00  0.00    -0.363 C  
HETATM   17  C   UNL     1      -8.981  10.813  65.722  1.00  0.00    -0.203 C  
HETATM   18  C   UNL     1      -9.065  11.549  67.058  1.00  0.00    -0.175 C  
HETATM   19  C   UNL     1      -8.690  10.653  68.235  1.00  0.00    -0.135 C  
HETATM   20  C   UNL     1      -9.491   9.358  68.229  1.00  0.00    -0.147 C  
ENDBRANCH  10  11
ENDBRANCH   6  10
TORSDOF 2
ENDMDL
MODEL      237
REMARK 921   NORMALIZED FREE ENERGY PREDICTED BY IDOCK:   -1.91 KCAL/MOL
REMARK 922        TOTAL FREE ENERGY PREDICTED BY IDOCK:   -2.28 KCAL/MOL
REMARK 923 INTER-LIGAND FREE ENERGY PREDICTED BY IDOCK:   -2.13 KCAL/MOL
REMARK 924 INTRA-LIGAND FREE ENERGY PREDICTED BY IDOCK:   -0.15 KCAL/MOL
REMARK 927      BINDING AFFINITY PREDICTED BY RF-SCORE:    0.00 PKD
ROOT
HETATM    1  N   UNL     1      -6.986  10.134  68.913  1.00  0.00    -0.061 NA 
HETATM    2  C   UNL     1      -8.046   9.305  69.034  1.00  0.00    -0.106 C  
HETATM    3  H2  UNL     1      -6.942  11.069  69.318  1.00  0.00     0.000 HD 
HETATM    4  H1  UNL     1      -6.236   9.711  68.368  1.00  0.00     0.000 HD 
HETATM    5  N   UNL     1      -9.040   9.865  69.756  1.00  0.00    -0.235 NA 
HETATM    6  N   UNL     1      -8.010   8.157  68.465  1.00  0.00    -0.124 NA 
HETATM    7  H1  UNL     1      -9.840   9.240  69.846  1.00  0.00     0.000 HD 
HETATM    8  H2  UNL     1      -8.996  10.800  70.161  1.00  0.00     0.000 HD 
HETATM    9  H   UNL     1      -7.165   7.830  67.997  1.00  0.00     0.000 HD 
ENDROOT
BRANCH   6  10
HETATM   10  C   UNL     1      -9.218   7.328  68.509  1.00  0.00    -0.138 C  
BRANCH  10  11
HETATM   11  C   UNL     1      -9.614   6.803  67.127  1.00  0.00    -0.144 C  
HETATM   12  C   UNL     1     -10.752   5.813  67.243  1.00  0.00    -0.261 C  
HETATM   13  O   UNL     1     -10.602   4.969  66.109  1.00  0.00    -0.301 OA 
HETATM   14  C   UNL     1      -9.195   4.954  65.837  1.00  0.00    -0.155 C  
HETATM   15  O   UNL     1      -8.557   6.045  66.513  1.00  0.00    -0.118 OA 
HETATM   16  C   UNL     1      -9.004   5.043  64.320  1.00  0.00    -0.015 C  
HETATM   17  C   UNL     1      -9.551   3.797  63.616  1.00  0.00    -0.152 C  
HETATM   18  C   UNL     1      -8.939   2.515  64.177  1.00  0.00    -0.105 C  
HETATM   19  C   UNL     1      -9.083   2.422  65.693  1.00  0.00    -0.096 C  
HETATM   20  C   UNL     1      -8.554   3.673  66.382  1.00  0.00    -0.115 C  
ENDBRANCH  10  11
ENDBRANCH   6  10
TORSDOF 2
ENDMDL
MODEL      238
REMARK 921   NORMALIZED FREE ENERGY PREDICTED BY IDOCK:   -0.19 KCAL/MOL
REMARK 922        TOTAL FREE ENERGY PREDICTED BY IDOCK:   -0.35 KCAL/MOL
REMARK 923 INTER-LIGAND FREE ENERGY PREDICTED BY IDOCK:   -0.13 KCAL/MOL
REMARK 924 INTRA-LIGAND FREE ENERGY PREDICTED BY IDOCK:   -0.22 KCAL/MOL
REMARK 927      BINDING AFFINITY PREDICTED BY RF-SCORE:    0.00 PKD
ROOT
HETATM    1  N   UNL     1     -14.398  13.548  71.292  1.00  0.00     0.725 NA 
HETATM    2  C   UNL     1     -13.086  13.698  71.580  1.00  0.00    -0.350 C  
HETATM    3  H2  UNL     1     -14.974  12.780  71.635  1.00  0.00     0.000 HD 
HETATM    4  H1  UNL     1     -14.741  14.297  70.691  1.00  0.00     0.000 HD 
HETATM    5  N   UNL     1     -12.631  12.708  72.375  1.00  0.00     0.253 NA 
HETATM    6  N   UNL     1     -12.446  14.689  71.078  1.00  0.00    -0.305 NA 
HETATM    7  H1  UNL     1     -11.641  12.821  72.592  1.00  0.00     0.000 HD 
HETATM    8  H2  UNL     1     -13.207  11.939  72.718  1.00  0.00     0.000 HD 
HETATM    9  H   UNL     1     -12.929  15.407  70.536  1.00  0.00     0.000 HD 
ENDROOT
BRANCH   6  10
HETATM   10  C   UNL     1     -10.999  14.761  71.305  1.00  0.00     0.282 C  
BRANCH  10  11
HETATM   11  C   UNL     1     -10.203  14.729  69.999  1.00  0.00     0.177 C  
HETATM   12  C   UNL     1      -9.261  15.910  69.924  1.00  0.00     0.230 C  
HETATM   13  O   UNL     1      -9.087  16.135  68.532  1.00  0.00    -0.192 OA 
HETATM   14  C   UNL     1     -10.313  15.705  67.927  1.00  0.00    -0.259 C  
HETATM   15  O   UNL     1     -11.047  14.886  68.846  1.00  0.00    -0.235 OA 
HETATM   16  C   UNL     1      -9.967  14.940  66.646  1.00  0.00    -0.267 C  
HETATM   17  C   UNL     1      -9.322  15.861  65.605  1.00  0.00    -0.165 C  
HETATM   18  C   UNL     1     -10.195  17.078  65.306  1.00  0.00     0.141 C  
HETATM   19  C   UNL     1     -10.584  17.834  66.573  1.00  0.00    -0.220 C  
HETATM   20  C   UNL     1     -11.208  16.907  67.607  1.00  0.00     0.055 C  
ENDBRANCH  10  11
ENDBRANCH   6  10
TORSDOF 2
ENDMDL
MODEL      239
REMARK 921   NORMALIZED FREE ENERGY PREDICTED BY IDOCK:    0.16 KCAL/MOL
REMARK 922        TOTAL FREE ENERGY PREDICTED BY IDOCK:    0.04 KCAL/MOL
REMARK 923 INTER-LIGAND FREE ENERGY PREDICTED BY IDOCK:   -1.32 KCAL/MOL
REMARK 924 INTRA-LIGAND FREE ENERGY PREDICTED BY IDOCK:    1.35 KCAL/MOL
REMARK 927      BINDING AFFINITY PREDICTED BY RF-SCORE:    0.00 PKD
ROOT
HETATM    1  N   UNL     1      -7.426  13.989  67.193  1.00  0.00    -0.333 NA 
HETATM    2  C   UNL     1      -7.550  12.833  67.881  1.00  0.00    -0.138 C  
HETATM    3  H2  UNL     1      -7.835  14.153  66.273  1.00  0.00     0.000 HD 
HETATM    4  H1  UNL     1      -6.874  14.677  67.705  1.00  0.00     0.000 HD 
HETATM    5  N   UNL     1      -8.280  11.922  67.204  1.00  0.00    -0.165 NA 
HETATM    6  N   UNL     1      -6.975  12.721  69.022  1.00  0.00    -0.197 NA 
HETATM    7  H1  UNL     1      -8.373  11.050  67.724  1.00  0.00     0.000 HD 
HETATM    8  H2  UNL     1      -8.689  12.086  66.285  1.00  0.00     0.000 HD 
HETATM    9  H   UNL     1      -6.500  13.515  69.451  1.00  0.00     0.000 HD 
ENDROOT
BRANCH   6  10
HETATM   10  C   UNL     1      -7.023  11.418  69.693  1.00  0.00    -0.020 C  
BRANCH  10  11
HETATM   11  C   UNL     1      -6.661  10.266  68.752  1.00  0.00    -0.053 C  
HETATM   12  C   UNL     1      -7.892   9.453  68.413  1.00  0.00    -0.090 C  
HETATM   13  O   UNL     1      -7.388   8.156  68.121  1.00  0.00    -0.091 OA 
HETATM   14  C   UNL     1      -6.205   8.025  68.919  1.00  0.00    -0.040 C  
HETATM   15  O   UNL     1      -5.779   9.316  69.373  1.00  0.00    -0.035 OA 
HETATM   16  C   UNL     1      -5.129   7.346  68.067  1.00  0.00    -0.024 C  
HETATM   17  C   UNL     1      -5.525   5.907  67.716  1.00  0.00    -0.005 C  
HETATM   18  C   UNL     1      -5.843   5.086  68.964  1.00  0.00    -0.020 C  
HETATM   19  C   UNL     1      -6.885   5.764  69.849  1.00  0.00    -0.064 C  
HETATM   20  C   UNL     1      -6.493   7.198  70.177  1.00  0.00    -0.042 C  
ENDBRANCH  10  11
ENDBRANCH   6  10
TORSDOF 2
ENDMDL
MODEL      240
REMARK 921   NORMALIZED FREE ENERGY PREDICTED BY IDOCK:    3.84 KCAL/MOL
REMARK 922        TOTAL FREE ENERGY PREDICTED BY IDOCK:    4.15 KCAL/MOL
REMARK 923 INTER-LIGAND FREE ENERGY PREDICTED BY IDOCK:   -1.78 KCAL/MOL
REMARK 924 INTRA-LIGAND FREE ENERGY PREDICTED BY IDOCK:    5.93 KCAL/MOL
REMARK 927      BINDING AFFINITY PREDICTED BY RF-SCORE:    0.00 PKD
ROOT
HETATM    1  N   UNL     1      -8.024  12.894  67.238  1.00  0.00    -0.271 NA 
HETATM    2  C   UNL     1      -8.191  11.792  68.001  1.00  0.00    -0.152 C  
HETATM    3  H2  UNL     1      -8.394  12.996  66.293  1.00  0.00     0.000 HD 
HETATM    4  H1  UNL     1      -7.483  13.611  67.721  1.00  0.00     0.000 HD 
HETATM    5  N   UNL     1      -8.906  10.843  67.362  1.00  0.00    -0.133 NA 
HETATM    6  N   UNL     1      -7.664  11.757  69.169  1.00  0.00    -0.344 NA 
HETATM    7  H1  UNL     1      -9.031  10.012  67.938  1.00  0.00     0.000 HD 
HETATM    8  H2  UNL     1      -9.276  10.945  66.417  1.00  0.00     0.000 HD 
HETATM    9  H   UNL     1      -7.195  12.574  69.560  1.00  0.00     0.000 HD 
ENDROOT
BRANCH   6  10
HETATM   10  C   UNL     1      -7.756  10.505  69.929  1.00  0.00    -0.001 C  
BRANCH  10  11
HETATM   11  C   UNL     1      -7.390   9.284  69.082  1.00  0.00    -0.071 C  
HETATM   12  C   UNL     1      -6.098   9.527  68.333  1.00  0.00    -0.044 C  
HETATM   13  O   UNL     1      -6.196   8.698  67.183  1.00  0.00    -0.054 OA 
HETATM   14  C   UNL     1      -7.599   8.616  66.898  1.00  0.00    -0.084 C  
HETATM   15  O   UNL     1      -8.352   9.038  68.042  1.00  0.00    -0.116 OA 
HETATM   16  C   UNL     1      -7.922   7.169  66.515  1.00  0.00    -0.112 C  
HETATM   17  C   UNL     1      -7.235   6.774  65.204  1.00  0.00    -0.074 C  
HETATM   18  C   UNL     1      -7.580   7.738  64.070  1.00  0.00    -0.113 C  
HETATM   19  C   UNL     1      -7.302   9.191  64.444  1.00  0.00    -0.100 C  
HETATM   20  C   UNL     1      -7.974   9.568  65.757  1.00  0.00    -0.111 C  
ENDBRANCH  10  11
ENDBRANCH   6  10
TORSDOF 2
ENDMDL
