MODEL        1
REMARK 921   NORMALIZED FREE ENERGY PREDICTED BY IDOCK:   -6.63 KCAL/MOL
REMARK 922        TOTAL FREE ENERGY PREDICTED BY IDOCK:   -7.54 KCAL/MOL
REMARK 923 INTER-LIGAND FREE ENERGY PREDICTED BY IDOCK:   -7.40 KCAL/MOL
REMARK 924 INTRA-LIGAND FREE ENERGY PREDICTED BY IDOCK:   -0.14 KCAL/MOL
REMARK 927      BINDING AFFINITY PREDICTED BY RF-SCORE:    0.00 PKD
ROOT
HETATM    1  N   UNL     1     -11.476  16.398  63.914  1.00  0.00    -1.618 NA 
HETATM    2  C   UNL     1     -11.771  15.322  64.666  1.00  0.00    -0.308 C  
HETATM    3  H2  UNL     1     -11.824  16.434  62.955  1.00  0.00     0.000 HD 
HETATM    4  H1  UNL     1     -10.920  17.178  64.263  1.00  0.00     0.000 HD 
HETATM    5  N   UNL     1     -12.471  14.340  64.227  1.00  0.00    -0.692 NA 
HETATM    6  N   UNL     1     -11.218  15.363  65.897  1.00  0.00    -0.243 NA 
HETATM    7  H1  UNL     1     -12.695  13.525  64.797  1.00  0.00     0.000 HD 
HETATM    8  H2  UNL     1     -12.819  14.376  63.269  1.00  0.00     0.000 HD 
HETATM    9  H   UNL     1     -10.566  16.112  66.130  1.00  0.00     0.000 HD 
ENDROOT
BRANCH   6  10
HETATM   10  C   UNL     1     -11.539  14.351  66.898  1.00  0.00    -0.388 C  
BRANCH  10  11
HETATM   11  C   UNL     1     -11.885  15.016  68.235  1.00  0.00    -0.268 C  
HETATM   12  C   UNL     1     -10.686  15.786  68.778  1.00  0.00    -0.253 C  
HETATM   13  O   UNL     1     -11.052  16.505  69.964  1.00  0.00    -0.345 OA 
HETATM   14  C   UNL     1     -11.786  15.724  70.821  1.00  0.00    -0.404 A  
HETATM   15  C   UNL     1     -12.349  14.500  70.450  1.00  0.00    -0.338 A  
HETATM   16  O   UNL     1     -12.262  13.990  69.178  1.00  0.00    -0.346 OA 
HETATM   17  C   UNL     1     -13.038  13.737  71.389  1.00  0.00    -0.413 A  
HETATM   18  C   UNL     1     -13.206  14.219  72.689  1.00  0.00    -0.601 A  
HETATM   19  C   UNL     1     -12.681  15.463  73.048  1.00  0.00    -0.561 A  
HETATM   20  C   UNL     1     -11.967  16.214  72.113  1.00  0.00    -0.623 A  
ENDBRANCH  10  11
ENDBRANCH   6  10
TORSDOF 2
ENDMDL
MODEL        2
REMARK 921   NORMALIZED FREE ENERGY PREDICTED BY IDOCK:   -6.62 KCAL/MOL
REMARK 922        TOTAL FREE ENERGY PREDICTED BY IDOCK:   -7.53 KCAL/MOL
REMARK 923 INTER-LIGAND FREE ENERGY PREDICTED BY IDOCK:   -7.35 KCAL/MOL
REMARK 924 INTRA-LIGAND FREE ENERGY PREDICTED BY IDOCK:   -0.19 KCAL/MOL
REMARK 927      BINDING AFFINITY PREDICTED BY RF-SCORE:    0.00 PKD
ROOT
HETATM    1  N   UNL     1     -11.430  16.462  63.834  1.00  0.00    -1.618 NA 
HETATM    2  C   UNL     1     -11.693  15.281  64.420  1.00  0.00    -0.285 C  
HETATM    3  H2  UNL     1     -11.864  16.668  62.934  1.00  0.00     0.000 HD 
HETATM    4  H1  UNL     1     -10.814  17.160  64.251  1.00  0.00     0.000 HD 
HETATM    5  N   UNL     1     -12.467  14.403  63.896  1.00  0.00    -1.005 NA 
HETATM    6  N   UNL     1     -11.024  15.101  65.580  1.00  0.00    -0.345 NA 
HETATM    7  H1  UNL     1     -12.667  13.507  64.341  1.00  0.00     0.000 HD 
HETATM    8  H2  UNL     1     -12.901  14.608  62.996  1.00  0.00     0.000 HD 
HETATM    9  H   UNL     1     -10.326  15.785  65.869  1.00  0.00     0.000 HD 
ENDROOT
BRANCH   6  10
HETATM   10  C   UNL     1     -11.288  13.940  66.425  1.00  0.00    -0.328 C  
BRANCH  10  11
HETATM   11  C   UNL     1     -12.011  14.367  67.707  1.00  0.00    -0.333 C  
HETATM   12  C   UNL     1     -11.375  15.626  68.288  1.00  0.00    -0.356 C  
HETATM   13  O   UNL     1     -12.131  16.090  69.415  1.00  0.00    -0.279 OA 
HETATM   14  C   UNL     1     -12.462  15.059  70.259  1.00  0.00    -0.337 A  
HETATM   15  C   UNL     1     -12.336  13.712  69.909  1.00  0.00    -0.249 A  
HETATM   16  O   UNL     1     -11.919  13.295  68.670  1.00  0.00    -0.339 OA 
HETATM   17  C   UNL     1     -12.643  12.720  70.838  1.00  0.00    -0.342 A  
HETATM   18  C   UNL     1     -13.120  13.073  72.101  1.00  0.00    -0.465 A  
HETATM   19  C   UNL     1     -13.287  14.419  72.436  1.00  0.00    -0.546 A  
HETATM   20  C   UNL     1     -12.953  15.413  71.514  1.00  0.00    -0.521 A  
ENDBRANCH  10  11
ENDBRANCH   6  10
TORSDOF 2
ENDMDL
MODEL        3
REMARK 921   NORMALIZED FREE ENERGY PREDICTED BY IDOCK:   -6.57 KCAL/MOL
REMARK 922        TOTAL FREE ENERGY PREDICTED BY IDOCK:   -7.48 KCAL/MOL
REMARK 923 INTER-LIGAND FREE ENERGY PREDICTED BY IDOCK:   -7.33 KCAL/MOL
REMARK 924 INTRA-LIGAND FREE ENERGY PREDICTED BY IDOCK:   -0.14 KCAL/MOL
REMARK 927      BINDING AFFINITY PREDICTED BY RF-SCORE:    0.00 PKD
ROOT
HETATM    1  N   UNL     1     -12.390  14.139  63.211  1.00  0.00    -1.133 NA 
HETATM    2  C   UNL     1     -11.913  14.910  64.205  1.00  0.00    -0.338 C  
HETATM    3  H2  UNL     1     -12.557  14.566  62.300  1.00  0.00     0.000 HD 
HETATM    4  H1  UNL     1     -12.592  13.147  63.331  1.00  0.00     0.000 HD 
HETATM    5  N   UNL     1     -11.659  16.159  64.055  1.00  0.00    -1.417 NA 
HETATM    6  N   UNL     1     -11.779  14.249  65.375  1.00  0.00    -0.344 NA 
HETATM    7  H1  UNL     1     -11.297  16.743  64.808  1.00  0.00     0.000 HD 
HETATM    8  H2  UNL     1     -11.826  16.585  63.143  1.00  0.00     0.000 HD 
HETATM    9  H   UNL     1     -12.124  13.293  65.455  1.00  0.00     0.000 HD 
ENDROOT
BRANCH   6  10
HETATM   10  C   UNL     1     -11.148  14.884  66.528  1.00  0.00    -0.341 C  
BRANCH  10  11
HETATM   11  C   UNL     1     -11.944  14.587  67.803  1.00  0.00    -0.310 C  
HETATM   12  C   UNL     1     -11.620  15.607  68.889  1.00  0.00    -0.383 C  
HETATM   13  O   UNL     1     -12.457  15.397  70.034  1.00  0.00    -0.345 OA 
HETATM   14  C   UNL     1     -12.530  14.068  70.368  1.00  0.00    -0.350 A  
HETATM   15  C   UNL     1     -12.092  13.041  69.528  1.00  0.00    -0.230 A  
HETATM   16  O   UNL     1     -11.596  13.265  68.268  1.00  0.00    -0.290 OA 
HETATM   17  C   UNL     1     -12.151  11.717  69.957  1.00  0.00    -0.387 A  
HETATM   18  C   UNL     1     -12.690  11.415  71.208  1.00  0.00    -0.498 A  
HETATM   19  C   UNL     1     -13.169  12.438  72.031  1.00  0.00    -0.514 A  
HETATM   20  C   UNL     1     -13.084  13.767  71.612  1.00  0.00    -0.456 A  
ENDBRANCH  10  11
ENDBRANCH   6  10
TORSDOF 2
ENDMDL
MODEL        4
REMARK 921   NORMALIZED FREE ENERGY PREDICTED BY IDOCK:   -6.55 KCAL/MOL
REMARK 922        TOTAL FREE ENERGY PREDICTED BY IDOCK:   -7.46 KCAL/MOL
REMARK 923 INTER-LIGAND FREE ENERGY PREDICTED BY IDOCK:   -7.29 KCAL/MOL
REMARK 924 INTRA-LIGAND FREE ENERGY PREDICTED BY IDOCK:   -0.17 KCAL/MOL
REMARK 927      BINDING AFFINITY PREDICTED BY RF-SCORE:    0.00 PKD
ROOT
HETATM    1  N   UNL     1     -12.318  14.420  63.569  1.00  0.00    -1.114 NA 
HETATM    2  C   UNL     1     -11.739  15.237  64.467  1.00  0.00    -0.305 C  
HETATM    3  H2  UNL     1     -12.445  14.756  62.614  1.00  0.00     0.000 HD 
HETATM    4  H1  UNL     1     -12.636  13.480  63.803  1.00  0.00     0.000 HD 
HETATM    5  N   UNL     1     -11.339  16.420  64.172  1.00  0.00    -1.422 NA 
HETATM    6  N   UNL     1     -11.670  14.705  65.706  1.00  0.00    -0.335 NA 
HETATM    7  H1  UNL     1     -10.899  17.039  64.853  1.00  0.00     0.000 HD 
HETATM    8  H2  UNL     1     -11.466  16.756  63.217  1.00  0.00     0.000 HD 
HETATM    9  H   UNL     1     -12.126  13.812  65.895  1.00  0.00     0.000 HD 
ENDROOT
BRANCH   6  10
HETATM   10  C   UNL     1     -10.951  15.387  66.777  1.00  0.00    -0.282 C  
BRANCH  10  11
HETATM   11  C   UNL     1     -11.165  14.661  68.109  1.00  0.00    -0.289 C  
HETATM   12  C   UNL     1     -11.699  13.252  67.874  1.00  0.00    -0.357 C  
HETATM   13  O   UNL     1     -11.780  12.537  69.114  1.00  0.00    -0.289 OA 
HETATM   14  C   UNL     1     -12.339  13.306  70.104  1.00  0.00    -0.236 A  
HETATM   15  C   UNL     1     -12.524  14.686  69.990  1.00  0.00    -0.284 A  
HETATM   16  O   UNL     1     -12.116  15.409  68.897  1.00  0.00    -0.300 OA 
HETATM   17  C   UNL     1     -13.147  15.392  71.016  1.00  0.00    -0.565 A  
HETATM   18  C   UNL     1     -13.544  14.727  72.177  1.00  0.00    -0.518 A  
HETATM   19  C   UNL     1     -13.319  13.354  72.310  1.00  0.00    -0.641 A  
HETATM   20  C   UNL     1     -12.720  12.642  71.269  1.00  0.00    -0.354 A  
ENDBRANCH  10  11
ENDBRANCH   6  10
TORSDOF 2
ENDMDL
MODEL        5
REMARK 921   NORMALIZED FREE ENERGY PREDICTED BY IDOCK:   -6.37 KCAL/MOL
REMARK 922        TOTAL FREE ENERGY PREDICTED BY IDOCK:   -7.26 KCAL/MOL
REMARK 923 INTER-LIGAND FREE ENERGY PREDICTED BY IDOCK:   -7.05 KCAL/MOL
REMARK 924 INTRA-LIGAND FREE ENERGY PREDICTED BY IDOCK:   -0.21 KCAL/MOL
REMARK 927      BINDING AFFINITY PREDICTED BY RF-SCORE:    0.00 PKD
ROOT
HETATM    1  N   UNL     1     -13.272  12.618  64.783  1.00  0.00    -0.780 NA 
HETATM    2  C   UNL     1     -12.328  13.477  64.361  1.00  0.00    -0.337 C  
HETATM    3  H2  UNL     1     -14.072  12.434  64.176  1.00  0.00     0.000 HD 
HETATM    4  H1  UNL     1     -13.222  12.143  65.683  1.00  0.00     0.000 HD 
HETATM    5  N   UNL     1     -12.390  14.076  63.227  1.00  0.00    -1.145 NA 
HETATM    6  N   UNL     1     -11.346  13.679  65.266  1.00  0.00    -0.292 NA 
HETATM    7  H1  UNL     1     -11.674  14.727  62.907  1.00  0.00     0.000 HD 
HETATM    8  H2  UNL     1     -13.189  13.892  62.620  1.00  0.00     0.000 HD 
HETATM    9  H   UNL     1     -11.431  13.272  66.197  1.00  0.00     0.000 HD 
ENDROOT
BRANCH   6  10
HETATM   10  C   UNL     1     -10.167  14.471  64.931  1.00  0.00    -0.304 C  
BRANCH  10  11
HETATM   11  C   UNL     1      -9.913  15.531  66.008  1.00  0.00    -0.330 C  
HETATM   12  C   UNL     1     -10.790  15.276  67.230  1.00  0.00    -0.318 C  
HETATM   13  O   UNL     1     -10.460  16.195  68.280  1.00  0.00    -0.255 OA 
HETATM   14  C   UNL     1     -10.333  17.477  67.806  1.00  0.00    -0.367 A  
HETATM   15  C   UNL     1     -10.242  17.786  66.446  1.00  0.00    -0.365 A  
HETATM   16  O   UNL     1     -10.220  16.831  65.460  1.00  0.00    -0.567 OA 
HETATM   17  C   UNL     1     -10.167  19.115  66.037  1.00  0.00    -0.494 A  
HETATM   18  C   UNL     1     -10.135  20.135  66.989  1.00  0.00    -0.599 A  
HETATM   19  C   UNL     1     -10.181  19.824  68.351  1.00  0.00    -0.568 A  
HETATM   20  C   UNL     1     -10.284  18.493  68.759  1.00  0.00    -0.326 A  
ENDBRANCH  10  11
ENDBRANCH   6  10
TORSDOF 2
ENDMDL
MODEL        6
REMARK 921   NORMALIZED FREE ENERGY PREDICTED BY IDOCK:   -6.29 KCAL/MOL
REMARK 922        TOTAL FREE ENERGY PREDICTED BY IDOCK:   -7.16 KCAL/MOL
REMARK 923 INTER-LIGAND FREE ENERGY PREDICTED BY IDOCK:   -6.96 KCAL/MOL
REMARK 924 INTRA-LIGAND FREE ENERGY PREDICTED BY IDOCK:   -0.20 KCAL/MOL
REMARK 927      BINDING AFFINITY PREDICTED BY RF-SCORE:    0.00 PKD
ROOT
HETATM    1  N   UNL     1     -11.558  16.380  63.920  1.00  0.00    -1.602 NA 
HETATM    2  C   UNL     1     -11.580  15.057  64.162  1.00  0.00    -0.050 C  
HETATM    3  H2  UNL     1     -12.222  16.765  63.248  1.00  0.00     0.000 HD 
HETATM    4  H1  UNL     1     -10.905  17.014  64.380  1.00  0.00     0.000 HD 
HETATM    5  N   UNL     1     -12.401  14.259  63.584  1.00  0.00    -1.109 NA 
HETATM    6  N   UNL     1     -10.625  14.658  65.030  1.00  0.00    -0.418 NA 
HETATM    7  H1  UNL     1     -12.418  13.256  63.767  1.00  0.00     0.000 HD 
HETATM    8  H2  UNL     1     -13.065  14.643  62.911  1.00  0.00     0.000 HD 
HETATM    9  H   UNL     1      -9.924  15.327  65.348  1.00  0.00     0.000 HD 
ENDROOT
BRANCH   6  10
HETATM   10  C   UNL     1     -10.582  13.283  65.518  1.00  0.00    -0.287 C  
BRANCH  10  11
HETATM   11  C   UNL     1     -10.775  13.250  67.038  1.00  0.00    -0.260 C  
HETATM   12  C   UNL     1     -11.760  12.155  67.430  1.00  0.00    -0.304 C  
HETATM   13  O   UNL     1     -11.843  12.048  68.858  1.00  0.00    -0.295 OA 
HETATM   14  C   UNL     1     -11.946  13.282  69.451  1.00  0.00    -0.301 A  
HETATM   15  C   UNL     1     -11.702  14.480  68.774  1.00  0.00    -0.327 A  
HETATM   16  O   UNL     1     -11.286  14.531  67.467  1.00  0.00    -0.309 OA 
HETATM   17  C   UNL     1     -11.878  15.697  69.428  1.00  0.00    -0.391 A  
HETATM   18  C   UNL     1     -12.253  15.717  70.772  1.00  0.00    -0.463 A  
HETATM   19  C   UNL     1     -12.454  14.517  71.461  1.00  0.00    -0.424 A  
HETATM   20  C   UNL     1     -12.304  13.299  70.798  1.00  0.00    -0.425 A  
ENDBRANCH  10  11
ENDBRANCH   6  10
TORSDOF 2
ENDMDL
MODEL        7
REMARK 921   NORMALIZED FREE ENERGY PREDICTED BY IDOCK:   -6.18 KCAL/MOL
REMARK 922        TOTAL FREE ENERGY PREDICTED BY IDOCK:   -7.04 KCAL/MOL
REMARK 923 INTER-LIGAND FREE ENERGY PREDICTED BY IDOCK:   -6.92 KCAL/MOL
REMARK 924 INTRA-LIGAND FREE ENERGY PREDICTED BY IDOCK:   -0.12 KCAL/MOL
REMARK 927      BINDING AFFINITY PREDICTED BY RF-SCORE:    0.00 PKD
ROOT
HETATM    1  N   UNL     1      -9.459  11.609  63.279  1.00  0.00    -0.541 NA 
HETATM    2  C   UNL     1     -10.476  12.438  63.573  1.00  0.00    -0.393 C  
HETATM    3  H2  UNL     1      -9.671  10.714  62.836  1.00  0.00     0.000 HD 
HETATM    4  H1  UNL     1      -8.486  11.837  63.479  1.00  0.00     0.000 HD 
HETATM    5  N   UNL     1     -11.702  12.152  63.320  1.00  0.00    -0.723 NA 
HETATM    6  N   UNL     1     -10.080  13.567  64.199  1.00  0.00    -0.761 NA 
HETATM    7  H1  UNL     1     -12.473  12.781  63.543  1.00  0.00     0.000 HD 
HETATM    8  H2  UNL     1     -11.913  11.257  62.878  1.00  0.00     0.000 HD 
HETATM    9  H   UNL     1      -9.107  13.668  64.485  1.00  0.00     0.000 HD 
ENDROOT
BRANCH   6  10
HETATM   10  C   UNL     1     -11.026  14.645  64.472  1.00  0.00    -0.231 C  
BRANCH  10  11
HETATM   11  C   UNL     1     -10.476  15.573  65.561  1.00  0.00    -0.386 C  
HETATM   12  C   UNL     1     -11.123  15.263  66.907  1.00  0.00    -0.288 C  
HETATM   13  O   UNL     1     -10.517  16.048  67.943  1.00  0.00    -0.274 OA 
HETATM   14  C   UNL     1     -10.367  17.358  67.561  1.00  0.00    -0.351 A  
HETATM   15  C   UNL     1     -10.511  17.792  66.240  1.00  0.00    -0.307 A  
HETATM   16  O   UNL     1     -10.765  16.939  65.195  1.00  0.00    -0.663 OA 
HETATM   17  C   UNL     1     -10.397  19.146  65.936  1.00  0.00    -0.463 A  
HETATM   18  C   UNL     1     -10.091  20.062  66.944  1.00  0.00    -0.601 A  
HETATM   19  C   UNL     1      -9.904  19.622  68.258  1.00  0.00    -0.521 A  
HETATM   20  C   UNL     1     -10.047  18.268  68.566  1.00  0.00    -0.419 A  
ENDBRANCH  10  11
ENDBRANCH   6  10
TORSDOF 2
ENDMDL
MODEL        8
REMARK 921   NORMALIZED FREE ENERGY PREDICTED BY IDOCK:   -6.17 KCAL/MOL
REMARK 922        TOTAL FREE ENERGY PREDICTED BY IDOCK:   -7.03 KCAL/MOL
REMARK 923 INTER-LIGAND FREE ENERGY PREDICTED BY IDOCK:   -6.93 KCAL/MOL
REMARK 924 INTRA-LIGAND FREE ENERGY PREDICTED BY IDOCK:   -0.10 KCAL/MOL
REMARK 927      BINDING AFFINITY PREDICTED BY RF-SCORE:    0.00 PKD
ROOT
HETATM    1  N   UNL     1     -11.712  12.700  62.989  1.00  0.00    -0.759 NA 
HETATM    2  C   UNL     1     -11.915  13.000  64.284  1.00  0.00    -0.402 C  
HETATM    3  H2  UNL     1     -12.467  12.256  62.466  1.00  0.00     0.000 HD 
HETATM    4  H1  UNL     1     -10.834  12.897  62.508  1.00  0.00     0.000 HD 
HETATM    5  N   UNL     1     -13.019  12.752  64.889  1.00  0.00    -0.853 NA 
HETATM    6  N   UNL     1     -10.831  13.537  64.884  1.00  0.00    -0.341 NA 
HETATM    7  H1  UNL     1     -13.174  12.980  65.871  1.00  0.00     0.000 HD 
HETATM    8  H2  UNL     1     -13.775  12.308  64.366  1.00  0.00     0.000 HD 
HETATM    9  H   UNL     1      -9.948  13.584  64.377  1.00  0.00     0.000 HD 
ENDROOT
BRANCH   6  10
HETATM   10  C   UNL     1     -10.906  14.052  66.247  1.00  0.00    -0.291 C  
BRANCH  10  11
HETATM   11  C   UNL     1     -11.051  15.578  66.234  1.00  0.00    -0.177 C  
HETATM   12  C   UNL     1     -10.666  16.142  64.871  1.00  0.00    -0.274 C  
HETATM   13  O   UNL     1     -10.921  17.553  64.826  1.00  0.00    -0.950 OA 
HETATM   14  C   UNL     1     -10.471  18.182  65.960  1.00  0.00    -0.335 A  
HETATM   15  C   UNL     1     -10.093  17.498  67.118  1.00  0.00    -0.321 A  
HETATM   16  O   UNL     1     -10.184  16.134  67.246  1.00  0.00    -0.265 OA 
HETATM   17  C   UNL     1      -9.597  18.202  68.212  1.00  0.00    -0.324 A  
HETATM   18  C   UNL     1      -9.523  19.595  68.168  1.00  0.00    -0.449 A  
HETATM   19  C   UNL     1      -9.943  20.283  67.025  1.00  0.00    -0.601 A  
HETATM   20  C   UNL     1     -10.414  19.574  65.919  1.00  0.00    -0.585 A  
ENDBRANCH  10  11
ENDBRANCH   6  10
TORSDOF 2
ENDMDL
MODEL        9
REMARK 921   NORMALIZED FREE ENERGY PREDICTED BY IDOCK:   -6.16 KCAL/MOL
REMARK 922        TOTAL FREE ENERGY PREDICTED BY IDOCK:   -7.02 KCAL/MOL
REMARK 923 INTER-LIGAND FREE ENERGY PREDICTED BY IDOCK:   -6.83 KCAL/MOL
REMARK 924 INTRA-LIGAND FREE ENERGY PREDICTED BY IDOCK:   -0.19 KCAL/MOL
REMARK 927      BINDING AFFINITY PREDICTED BY RF-SCORE:    0.00 PKD
ROOT
HETATM    1  N   UNL     1     -10.635  17.777  65.462  1.00  0.00    -0.615 NA 
HETATM    2  C   UNL     1     -10.947  16.577  64.941  1.00  0.00    -0.209 C  
HETATM    3  H2  UNL     1     -10.961  18.617  64.982  1.00  0.00     0.000 HD 
HETATM    4  H1  UNL     1     -10.087  17.882  66.315  1.00  0.00     0.000 HD 
HETATM    5  N   UNL     1     -11.637  16.444  63.867  1.00  0.00    -1.602 NA 
HETATM    6  N   UNL     1     -10.421  15.543  65.631  1.00  0.00    -0.347 NA 
HETATM    7  H1  UNL     1     -11.874  15.534  63.472  1.00  0.00     0.000 HD 
HETATM    8  H2  UNL     1     -11.963  17.284  63.388  1.00  0.00     0.000 HD 
HETATM    9  H   UNL     1      -9.774  15.727  66.398  1.00  0.00     0.000 HD 
ENDROOT
BRANCH   6  10
HETATM   10  C   UNL     1     -10.765  14.164  65.296  1.00  0.00    -0.364 C  
BRANCH  10  11
HETATM   11  C   UNL     1     -10.823  13.306  66.564  1.00  0.00    -0.281 C  
HETATM   12  C   UNL     1     -11.548  11.992  66.291  1.00  0.00    -0.310 C  
HETATM   13  O   UNL     1     -11.491  11.143  67.445  1.00  0.00    -0.466 OA 
HETATM   14  C   UNL     1     -11.777  11.836  68.595  1.00  0.00    -0.330 A  
HETATM   15  C   UNL     1     -11.820  13.232  68.659  1.00  0.00    -0.345 A  
HETATM   16  O   UNL     1     -11.530  14.040  67.588  1.00  0.00    -0.299 OA 
HETATM   17  C   UNL     1     -12.169  13.864  69.850  1.00  0.00    -0.393 A  
HETATM   18  C   UNL     1     -12.428  13.104  70.991  1.00  0.00    -0.406 A  
HETATM   19  C   UNL     1     -12.342  11.710  70.939  1.00  0.00    -0.436 A  
HETATM   20  C   UNL     1     -12.020  11.076  69.738  1.00  0.00    -0.428 A  
ENDBRANCH  10  11
ENDBRANCH   6  10
TORSDOF 2
ENDMDL
MODEL       10
REMARK 921   NORMALIZED FREE ENERGY PREDICTED BY IDOCK:   -6.15 KCAL/MOL
REMARK 922        TOTAL FREE ENERGY PREDICTED BY IDOCK:   -7.00 KCAL/MOL
REMARK 923 INTER-LIGAND FREE ENERGY PREDICTED BY IDOCK:   -6.83 KCAL/MOL
REMARK 924 INTRA-LIGAND FREE ENERGY PREDICTED BY IDOCK:   -0.18 KCAL/MOL
REMARK 927      BINDING AFFINITY PREDICTED BY RF-SCORE:    0.00 PKD
ROOT
HETATM    1  N   UNL     1     -12.337  11.596  62.960  1.00  0.00    -0.956 NA 
HETATM    2  C   UNL     1     -11.966  12.732  63.576  1.00  0.00    -0.555 C  
HETATM    3  H2  UNL     1     -12.981  11.656  62.171  1.00  0.00     0.000 HD 
HETATM    4  H1  UNL     1     -12.001  10.677  63.249  1.00  0.00     0.000 HD 
HETATM    5  N   UNL     1     -12.388  13.889  63.213  1.00  0.00    -1.148 NA 
HETATM    6  N   UNL     1     -11.153  12.525  64.634  1.00  0.00    -0.293 NA 
HETATM    7  H1  UNL     1     -12.106  14.750  63.679  1.00  0.00     0.000 HD 
HETATM    8  H2  UNL     1     -13.032  13.949  62.424  1.00  0.00     0.000 HD 
HETATM    9  H   UNL     1     -10.965  11.572  64.944  1.00  0.00     0.000 HD 
ENDROOT
BRANCH   6  10
HETATM   10  C   UNL     1     -10.539  13.645  65.340  1.00  0.00    -0.317 C  
BRANCH  10  11
HETATM   11  C   UNL     1     -10.723  13.487  66.853  1.00  0.00    -0.274 C  
HETATM   12  C   UNL     1     -11.672  12.335  67.161  1.00  0.00    -0.326 C  
HETATM   13  O   UNL     1     -11.744  12.114  68.576  1.00  0.00    -0.295 OA 
HETATM   14  C   UNL     1     -11.881  13.294  69.264  1.00  0.00    -0.331 A  
HETATM   15  C   UNL     1     -11.677  14.548  68.683  1.00  0.00    -0.329 A  
HETATM   16  O   UNL     1     -11.269  14.714  67.383  1.00  0.00    -0.317 OA 
HETATM   17  C   UNL     1     -11.885  15.704  69.431  1.00  0.00    -0.391 A  
HETATM   18  C   UNL     1     -12.253  15.607  70.774  1.00  0.00    -0.463 A  
HETATM   19  C   UNL     1     -12.415  14.351  71.368  1.00  0.00    -0.433 A  
HETATM   20  C   UNL     1     -12.232  13.194  70.609  1.00  0.00    -0.402 A  
ENDBRANCH  10  11
ENDBRANCH   6  10
TORSDOF 2
ENDMDL
MODEL       11
REMARK 921   NORMALIZED FREE ENERGY PREDICTED BY IDOCK:   -6.14 KCAL/MOL
REMARK 922        TOTAL FREE ENERGY PREDICTED BY IDOCK:   -6.99 KCAL/MOL
REMARK 923 INTER-LIGAND FREE ENERGY PREDICTED BY IDOCK:   -6.82 KCAL/MOL
REMARK 924 INTRA-LIGAND FREE ENERGY PREDICTED BY IDOCK:   -0.18 KCAL/MOL
REMARK 927      BINDING AFFINITY PREDICTED BY RF-SCORE:    0.00 PKD
ROOT
HETATM    1  N   UNL     1     -12.199  11.681  63.152  1.00  0.00    -0.966 NA 
HETATM    2  C   UNL     1     -12.048  12.852  63.796  1.00  0.00    -0.508 C  
HETATM    3  H2  UNL     1     -12.601  11.688  62.214  1.00  0.00     0.000 HD 
HETATM    4  H1  UNL     1     -11.929  10.788  63.562  1.00  0.00     0.000 HD 
HETATM    5  N   UNL     1     -12.388  13.977  63.281  1.00  0.00    -1.145 NA 
HETATM    6  N   UNL     1     -11.554  12.714  65.045  1.00  0.00    -0.330 NA 
HETATM    7  H1  UNL     1     -12.273  14.865  63.769  1.00  0.00     0.000 HD 
HETATM    8  H2  UNL     1     -12.790  13.984  62.343  1.00  0.00     0.000 HD 
HETATM    9  H   UNL     1     -11.431  11.780  65.437  1.00  0.00     0.000 HD 
ENDROOT
BRANCH   6  10
HETATM   10  C   UNL     1     -11.194  13.882  65.844  1.00  0.00    -0.297 C  
BRANCH  10  11
HETATM   11  C   UNL     1     -11.902  13.838  67.202  1.00  0.00    -0.406 C  
HETATM   12  C   UNL     1     -11.424  14.978  68.094  1.00  0.00    -0.339 C  
HETATM   13  O   UNL     1     -12.178  15.006  69.314  1.00  0.00    -0.261 OA 
HETATM   14  C   UNL     1     -12.314  13.750  69.851  1.00  0.00    -0.275 A  
HETATM   15  C   UNL     1     -12.016  12.579  69.148  1.00  0.00    -0.236 A  
HETATM   16  O   UNL     1     -11.609  12.575  67.837  1.00  0.00    -0.305 OA 
HETATM   17  C   UNL     1     -12.129  11.342  69.777  1.00  0.00    -0.394 A  
HETATM   18  C   UNL     1     -12.585  11.270  71.094  1.00  0.00    -0.501 A  
HETATM   19  C   UNL     1     -12.925  12.438  71.783  1.00  0.00    -0.422 A  
HETATM   20  C   UNL     1     -12.785  13.679  71.161  1.00  0.00    -0.432 A  
ENDBRANCH  10  11
ENDBRANCH   6  10
TORSDOF 2
ENDMDL
MODEL       12
REMARK 921   NORMALIZED FREE ENERGY PREDICTED BY IDOCK:   -6.09 KCAL/MOL
REMARK 922        TOTAL FREE ENERGY PREDICTED BY IDOCK:   -6.95 KCAL/MOL
REMARK 923 INTER-LIGAND FREE ENERGY PREDICTED BY IDOCK:   -6.56 KCAL/MOL
REMARK 924 INTRA-LIGAND FREE ENERGY PREDICTED BY IDOCK:   -0.38 KCAL/MOL
REMARK 927      BINDING AFFINITY PREDICTED BY RF-SCORE:    0.00 PKD
ROOT
HETATM    1  N   UNL     1      -8.855  11.544  62.628  1.00  0.00    -0.605 NA 
HETATM    2  C   UNL     1      -9.978  11.308  63.329  1.00  0.00    -0.393 C  
HETATM    3  H2  UNL     1      -8.058  10.918  62.757  1.00  0.00     0.000 HD 
HETATM    4  H1  UNL     1      -8.766  12.320  61.974  1.00  0.00     0.000 HD 
HETATM    5  N   UNL     1     -10.090  10.330  64.152  1.00  0.00    -0.440 NA 
HETATM    6  N   UNL     1     -10.944  12.227  63.114  1.00  0.00    -0.654 NA 
HETATM    7  H1  UNL     1     -10.942  10.151  64.684  1.00  0.00     0.000 HD 
HETATM    8  H2  UNL     1      -9.294   9.705  64.281  1.00  0.00     0.000 HD 
HETATM    9  H   UNL     1     -10.737  13.050  62.547  1.00  0.00     0.000 HD 
ENDROOT
BRANCH   6  10
HETATM   10  C   UNL     1     -12.278  12.060  63.681  1.00  0.00    -0.538 C  
BRANCH  10  11
HETATM   11  C   UNL     1     -12.412  12.867  64.976  1.00  0.00    -0.492 C  
HETATM   12  C   UNL     1     -11.521  14.104  64.933  1.00  0.00    -0.366 C  
HETATM   13  O   UNL     1     -11.743  14.918  66.093  1.00  0.00    -0.299 OA 
HETATM   14  C   UNL     1     -11.782  14.163  67.239  1.00  0.00    -0.392 A  
HETATM   15  C   UNL     1     -11.889  12.770  67.235  1.00  0.00    -0.350 A  
HETATM   16  O   UNL     1     -12.019  12.031  66.086  1.00  0.00    -0.581 OA 
HETATM   17  C   UNL     1     -11.870  12.067  68.437  1.00  0.00    -0.360 A  
HETATM   18  C   UNL     1     -11.790  12.759  69.647  1.00  0.00    -0.384 A  
HETATM   19  C   UNL     1     -11.726  14.155  69.652  1.00  0.00    -0.372 A  
HETATM   20  C   UNL     1     -11.718  14.857  68.446  1.00  0.00    -0.336 A  
ENDBRANCH  10  11
ENDBRANCH   6  10
TORSDOF 2
ENDMDL
MODEL       13
REMARK 921   NORMALIZED FREE ENERGY PREDICTED BY IDOCK:   -6.04 KCAL/MOL
REMARK 922        TOTAL FREE ENERGY PREDICTED BY IDOCK:   -6.88 KCAL/MOL
REMARK 923 INTER-LIGAND FREE ENERGY PREDICTED BY IDOCK:   -6.75 KCAL/MOL
REMARK 924 INTRA-LIGAND FREE ENERGY PREDICTED BY IDOCK:   -0.13 KCAL/MOL
REMARK 927      BINDING AFFINITY PREDICTED BY RF-SCORE:    0.00 PKD
ROOT
HETATM    1  N   UNL     1     -11.655  16.113  63.947  1.00  0.00    -1.469 NA 
HETATM    2  C   UNL     1     -12.047  14.838  64.115  1.00  0.00    -0.299 C  
HETATM    3  H2  UNL     1     -11.719  16.525  63.015  1.00  0.00     0.000 HD 
HETATM    4  H1  UNL     1     -11.297  16.686  64.711  1.00  0.00     0.000 HD 
HETATM    5  N   UNL     1     -12.498  14.118  63.154  1.00  0.00    -1.037 NA 
HETATM    6  N   UNL     1     -11.871  14.388  65.376  1.00  0.00    -0.360 NA 
HETATM    7  H1  UNL     1     -12.796  13.151  63.282  1.00  0.00     0.000 HD 
HETATM    8  H2  UNL     1     -12.562  14.529  62.223  1.00  0.00     0.000 HD 
HETATM    9  H   UNL     1     -11.385  14.973  66.056  1.00  0.00     0.000 HD 
ENDROOT
BRANCH   6  10
HETATM   10  C   UNL     1     -12.365  13.075  65.781  1.00  0.00    -0.416 C  
BRANCH  10  11
HETATM   11  C   UNL     1     -11.448  12.466  66.847  1.00  0.00    -0.360 C  
HETATM   12  C   UNL     1     -10.512  11.436  66.226  1.00  0.00    -0.255 C  
HETATM   13  O   UNL     1      -9.576  10.961  67.203  1.00  0.00    -0.163 OA 
HETATM   14  C   UNL     1     -10.195  10.668  68.393  1.00  0.00    -0.173 A  
HETATM   15  C   UNL     1     -11.500  11.064  68.695  1.00  0.00    -0.308 A  
HETATM   16  O   UNL     1     -12.267  11.827  67.850  1.00  0.00    -0.538 OA 
HETATM   17  C   UNL     1     -12.080  10.684  69.903  1.00  0.00    -0.372 A  
HETATM   18  C   UNL     1     -11.340   9.949  70.830  1.00  0.00    -0.446 A  
HETATM   19  C   UNL     1     -10.019   9.591  70.546  1.00  0.00    -0.335 A  
HETATM   20  C   UNL     1      -9.448   9.948  69.323  1.00  0.00    -0.218 A  
ENDBRANCH  10  11
ENDBRANCH   6  10
TORSDOF 2
ENDMDL
MODEL       14
REMARK 921   NORMALIZED FREE ENERGY PREDICTED BY IDOCK:   -5.94 KCAL/MOL
REMARK 922        TOTAL FREE ENERGY PREDICTED BY IDOCK:   -6.77 KCAL/MOL
REMARK 923 INTER-LIGAND FREE ENERGY PREDICTED BY IDOCK:   -6.59 KCAL/MOL
REMARK 924 INTRA-LIGAND FREE ENERGY PREDICTED BY IDOCK:   -0.18 KCAL/MOL
REMARK 927      BINDING AFFINITY PREDICTED BY RF-SCORE:    0.00 PKD
ROOT
HETATM    1  N   UNL     1     -12.712  11.525  62.958  1.00  0.00    -0.864 NA 
HETATM    2  C   UNL     1     -12.450  12.570  63.762  1.00  0.00    -0.455 C  
HETATM    3  H2  UNL     1     -12.845  11.697  61.961  1.00  0.00     0.000 HD 
HETATM    4  H1  UNL     1     -12.784  10.568  63.303  1.00  0.00     0.000 HD 
HETATM    5  N   UNL     1     -12.359  13.774  63.329  1.00  0.00    -1.124 NA 
HETATM    6  N   UNL     1     -12.344  12.228  65.064  1.00  0.00    -0.504 NA 
HETATM    7  H1  UNL     1     -12.160  14.567  63.938  1.00  0.00     0.000 HD 
HETATM    8  H2  UNL     1     -12.492  13.946  62.331  1.00  0.00     0.000 HD 
HETATM    9  H   UNL     1     -12.559  11.274  65.352  1.00  0.00     0.000 HD 
ENDROOT
BRANCH   6  10
HETATM   10  C   UNL     1     -11.927  13.205  66.066  1.00  0.00    -0.433 C  
BRANCH  10  11
HETATM   11  C   UNL     1     -11.214  12.506  67.228  1.00  0.00    -0.295 C  
HETATM   12  C   UNL     1     -10.285  11.414  66.708  1.00  0.00    -0.223 C  
HETATM   13  O   UNL     1      -9.529  10.849  67.788  1.00  0.00    -0.154 OA 
HETATM   14  C   UNL     1     -10.324  10.587  68.877  1.00  0.00    -0.208 A  
HETATM   15  C   UNL     1     -11.623  11.082  69.013  1.00  0.00    -0.323 A  
HETATM   16  O   UNL     1     -12.207  11.919  68.095  1.00  0.00    -0.470 OA 
HETATM   17  C   UNL     1     -12.389  10.732  70.123  1.00  0.00    -0.401 A  
HETATM   18  C   UNL     1     -11.840   9.924  71.120  1.00  0.00    -0.472 A  
HETATM   19  C   UNL     1     -10.524   9.464  71.004  1.00  0.00    -0.392 A  
HETATM   20  C   UNL     1      -9.767   9.794  69.879  1.00  0.00    -0.273 A  
ENDBRANCH  10  11
ENDBRANCH   6  10
TORSDOF 2
ENDMDL
MODEL       15
REMARK 921   NORMALIZED FREE ENERGY PREDICTED BY IDOCK:   -5.90 KCAL/MOL
REMARK 922        TOTAL FREE ENERGY PREDICTED BY IDOCK:   -6.74 KCAL/MOL
REMARK 923 INTER-LIGAND FREE ENERGY PREDICTED BY IDOCK:   -6.59 KCAL/MOL
REMARK 924 INTRA-LIGAND FREE ENERGY PREDICTED BY IDOCK:   -0.15 KCAL/MOL
REMARK 927      BINDING AFFINITY PREDICTED BY RF-SCORE:    0.00 PKD
ROOT
HETATM    1  N   UNL     1     -11.562   6.352  70.025  1.00  0.00    -0.495 NA 
HETATM    2  C   UNL     1     -12.178   7.031  71.008  1.00  0.00    -0.374 C  
HETATM    3  H2  UNL     1     -11.387   5.355  70.155  1.00  0.00     0.000 HD 
HETATM    4  H1  UNL     1     -11.264   6.791  69.154  1.00  0.00     0.000 HD 
HETATM    5  N   UNL     1     -12.554   6.479  72.104  1.00  0.00    -0.550 NA 
HETATM    6  N   UNL     1     -12.310   8.349  70.745  1.00  0.00    -0.495 NA 
HETATM    7  H1  UNL     1     -13.021   6.994  72.850  1.00  0.00     0.000 HD 
HETATM    8  H2  UNL     1     -12.379   5.482  72.234  1.00  0.00     0.000 HD 
HETATM    9  H   UNL     1     -11.870   8.742  69.912  1.00  0.00     0.000 HD 
ENDROOT
BRANCH   6  10
HETATM   10  C   UNL     1     -13.074   9.219  71.634  1.00  0.00    -0.382 C  
BRANCH  10  11
HETATM   11  C   UNL     1     -13.108  10.648  71.080  1.00  0.00    -0.322 C  
HETATM   12  C   UNL     1     -11.761  11.020  70.469  1.00  0.00    -0.318 C  
HETATM   13  O   UNL     1     -11.837  12.308  69.844  1.00  0.00    -0.321 OA 
HETATM   14  C   UNL     1     -12.480  13.219  70.645  1.00  0.00    -0.298 A  
HETATM   15  C   UNL     1     -13.218  12.859  71.776  1.00  0.00    -0.384 A  
HETATM   16  O   UNL     1     -13.411  11.556  72.162  1.00  0.00    -0.477 OA 
HETATM   17  C   UNL     1     -13.800  13.844  72.570  1.00  0.00    -0.620 A  
HETATM   18  C   UNL     1     -13.685  15.187  72.209  1.00  0.00    -0.596 A  
HETATM   19  C   UNL     1     -12.984  15.545  71.053  1.00  0.00    -0.550 A  
HETATM   20  C   UNL     1     -12.378  14.559  70.273  1.00  0.00    -0.408 A  
ENDBRANCH  10  11
ENDBRANCH   6  10
TORSDOF 2
ENDMDL
MODEL       16
REMARK 921   NORMALIZED FREE ENERGY PREDICTED BY IDOCK:   -5.87 KCAL/MOL
REMARK 922        TOTAL FREE ENERGY PREDICTED BY IDOCK:   -6.70 KCAL/MOL
REMARK 923 INTER-LIGAND FREE ENERGY PREDICTED BY IDOCK:   -6.58 KCAL/MOL
REMARK 924 INTRA-LIGAND FREE ENERGY PREDICTED BY IDOCK:   -0.12 KCAL/MOL
REMARK 927      BINDING AFFINITY PREDICTED BY RF-SCORE:    0.00 PKD
ROOT
HETATM    1  N   UNL     1     -12.171  13.256  63.242  1.00  0.00    -0.886 NA 
HETATM    2  C   UNL     1     -11.259  13.326  64.228  1.00  0.00    -0.387 C  
HETATM    3  H2  UNL     1     -11.878  12.906  62.330  1.00  0.00     0.000 HD 
HETATM    4  H1  UNL     1     -13.142  13.539  63.369  1.00  0.00     0.000 HD 
HETATM    5  N   UNL     1     -10.036  12.970  64.069  1.00  0.00    -0.734 NA 
HETATM    6  N   UNL     1     -11.748  13.851  65.372  1.00  0.00    -0.328 NA 
HETATM    7  H1  UNL     1      -9.344  13.023  64.817  1.00  0.00     0.000 HD 
HETATM    8  H2  UNL     1      -9.743  12.620  63.157  1.00  0.00     0.000 HD 
HETATM    9  H   UNL     1     -12.694  14.233  65.385  1.00  0.00     0.000 HD 
ENDROOT
BRANCH   6  10
HETATM   10  C   UNL     1     -10.944  13.878  66.590  1.00  0.00    -0.301 C  
BRANCH  10  11
HETATM   11  C   UNL     1     -11.819  14.227  67.799  1.00  0.00    -0.379 C  
HETATM   12  C   UNL     1     -11.378  15.549  68.417  1.00  0.00    -0.354 C  
HETATM   13  O   UNL     1     -12.276  15.931  69.468  1.00  0.00    -0.294 OA 
HETATM   14  C   UNL     1     -12.565  14.873  70.293  1.00  0.00    -0.313 A  
HETATM   15  C   UNL     1     -12.263  13.546  69.973  1.00  0.00    -0.312 A  
HETATM   16  O   UNL     1     -11.696  13.174  68.779  1.00  0.00    -0.284 OA 
HETATM   17  C   UNL     1     -12.540  12.530  70.883  1.00  0.00    -0.331 A  
HETATM   18  C   UNL     1     -13.162  12.832  72.096  1.00  0.00    -0.546 A  
HETATM   19  C   UNL     1     -13.503  14.153  72.398  1.00  0.00    -0.616 A  
HETATM   20  C   UNL     1     -13.201  15.175  71.496  1.00  0.00    -0.512 A  
ENDBRANCH  10  11
ENDBRANCH   6  10
TORSDOF 2
ENDMDL
MODEL       17
REMARK 921   NORMALIZED FREE ENERGY PREDICTED BY IDOCK:   -5.83 KCAL/MOL
REMARK 922        TOTAL FREE ENERGY PREDICTED BY IDOCK:   -6.65 KCAL/MOL
REMARK 923 INTER-LIGAND FREE ENERGY PREDICTED BY IDOCK:   -6.47 KCAL/MOL
REMARK 924 INTRA-LIGAND FREE ENERGY PREDICTED BY IDOCK:   -0.18 KCAL/MOL
REMARK 927      BINDING AFFINITY PREDICTED BY RF-SCORE:    0.00 PKD
ROOT
HETATM    1  N   UNL     1     -14.277   8.857  73.212  1.00  0.00    -1.237 NA 
HETATM    2  C   UNL     1     -13.648   8.691  72.035  1.00  0.00    -0.412 C  
HETATM    3  H2  UNL     1     -15.072   8.257  73.430  1.00  0.00     0.000 HD 
HETATM    4  H1  UNL     1     -13.991   9.558  73.896  1.00  0.00     0.000 HD 
HETATM    5  N   UNL     1     -14.007   7.809  71.174  1.00  0.00    -0.638 NA 
HETATM    6  N   UNL     1     -12.645   9.573  71.837  1.00  0.00    -0.386 NA 
HETATM    7  H1  UNL     1     -13.531   7.683  70.282  1.00  0.00     0.000 HD 
HETATM    8  H2  UNL     1     -14.803   7.209  71.392  1.00  0.00     0.000 HD 
HETATM    9  H   UNL     1     -12.502  10.330  72.505  1.00  0.00     0.000 HD 
ENDROOT
BRANCH   6  10
HETATM   10  C   UNL     1     -11.763   9.459  70.679  1.00  0.00    -0.240 C  
BRANCH  10  11
HETATM   11  C   UNL     1     -11.502  10.840  70.070  1.00  0.00    -0.331 C  
HETATM   12  C   UNL     1     -12.382  11.895  70.732  1.00  0.00    -0.320 C  
HETATM   13  O   UNL     1     -12.045  13.201  70.245  1.00  0.00    -0.349 OA 
HETATM   14  C   UNL     1     -11.906  13.209  68.879  1.00  0.00    -0.320 A  
HETATM   15  C   UNL     1     -11.812  12.046  68.111  1.00  0.00    -0.286 A  
HETATM   16  O   UNL     1     -11.797  10.786  68.657  1.00  0.00    -0.404 OA 
HETATM   17  C   UNL     1     -11.725  12.132  66.724  1.00  0.00    -0.377 A  
HETATM   18  C   UNL     1     -11.685  13.383  66.106  1.00  0.00    -0.405 A  
HETATM   19  C   UNL     1     -11.736  14.548  66.878  1.00  0.00    -0.399 A  
HETATM   20  C   UNL     1     -11.851  14.460  68.266  1.00  0.00    -0.361 A  
ENDBRANCH  10  11
ENDBRANCH   6  10
TORSDOF 2
ENDMDL
MODEL       18
REMARK 921   NORMALIZED FREE ENERGY PREDICTED BY IDOCK:   -5.82 KCAL/MOL
REMARK 922        TOTAL FREE ENERGY PREDICTED BY IDOCK:   -6.64 KCAL/MOL
REMARK 923 INTER-LIGAND FREE ENERGY PREDICTED BY IDOCK:   -6.48 KCAL/MOL
REMARK 924 INTRA-LIGAND FREE ENERGY PREDICTED BY IDOCK:   -0.16 KCAL/MOL
REMARK 927      BINDING AFFINITY PREDICTED BY RF-SCORE:    0.00 PKD
ROOT
HETATM    1  N   UNL     1     -11.786  12.221  70.108  1.00  0.00    -0.529 NA 
HETATM    2  C   UNL     1     -11.722  12.356  68.772  1.00  0.00    -0.332 C  
HETATM    3  H2  UNL     1     -12.039  11.312  70.496  1.00  0.00     0.000 HD 
HETATM    4  H1  UNL     1     -11.591  12.989  70.750  1.00  0.00     0.000 HD 
HETATM    5  N   UNL     1     -11.966  11.389  67.964  1.00  0.00    -0.640 NA 
HETATM    6  N   UNL     1     -11.427  13.613  68.376  1.00  0.00    -0.288 NA 
HETATM    7  H1  UNL     1     -11.918  11.491  66.951  1.00  0.00     0.000 HD 
HETATM    8  H2  UNL     1     -12.219  10.480  68.352  1.00  0.00     0.000 HD 
HETATM    9  H   UNL     1     -11.376  14.359  69.069  1.00  0.00     0.000 HD 
ENDROOT
BRANCH   6  10
HETATM   10  C   UNL     1     -11.181  13.918  66.970  1.00  0.00    -0.313 C  
BRANCH  10  11
HETATM   11  C   UNL     1     -11.259  15.430  66.731  1.00  0.00    -0.197 C  
HETATM   12  C   UNL     1     -10.600  15.799  65.406  1.00  0.00    -0.421 C  
HETATM   13  O   UNL     1     -10.785  17.194  65.131  1.00  0.00    -0.680 OA 
HETATM   14  C   UNL     1     -10.534  17.965  66.239  1.00  0.00    -0.320 A  
HETATM   15  C   UNL     1     -10.409  17.437  67.527  1.00  0.00    -0.351 A  
HETATM   16  O   UNL     1     -10.578  16.105  67.811  1.00  0.00    -0.293 OA 
HETATM   17  C   UNL     1     -10.102  18.275  68.596  1.00  0.00    -0.407 A  
HETATM   18  C   UNL     1      -9.965  19.649  68.386  1.00  0.00    -0.543 A  
HETATM   19  C   UNL     1     -10.133  20.182  67.105  1.00  0.00    -0.590 A  
HETATM   20  C   UNL     1     -10.414  19.338  66.030  1.00  0.00    -0.573 A  
ENDBRANCH  10  11
ENDBRANCH   6  10
TORSDOF 2
ENDMDL
MODEL       19
REMARK 921   NORMALIZED FREE ENERGY PREDICTED BY IDOCK:   -5.81 KCAL/MOL
REMARK 922        TOTAL FREE ENERGY PREDICTED BY IDOCK:   -6.63 KCAL/MOL
REMARK 923 INTER-LIGAND FREE ENERGY PREDICTED BY IDOCK:   -6.31 KCAL/MOL
REMARK 924 INTRA-LIGAND FREE ENERGY PREDICTED BY IDOCK:   -0.32 KCAL/MOL
REMARK 927      BINDING AFFINITY PREDICTED BY RF-SCORE:    0.00 PKD
ROOT
HETATM    1  N   UNL     1     -14.375  15.465  71.890  1.00  0.00    -0.545 NA 
HETATM    2  C   UNL     1     -13.102  15.525  71.460  1.00  0.00    -0.496 C  
HETATM    3  H2  UNL     1     -14.642  16.019  72.704  1.00  0.00     0.000 HD 
HETATM    4  H1  UNL     1     -15.084  14.888  71.437  1.00  0.00     0.000 HD 
HETATM    5  N   UNL     1     -12.210  16.250  72.030  1.00  0.00    -0.597 NA 
HETATM    6  N   UNL     1     -12.855  14.712  70.410  1.00  0.00    -0.521 NA 
HETATM    7  H1  UNL     1     -11.245  16.296  71.704  1.00  0.00     0.000 HD 
HETATM    8  H2  UNL     1     -12.477  16.805  72.844  1.00  0.00     0.000 HD 
HETATM    9  H   UNL     1     -13.578  14.067  70.093  1.00  0.00     0.000 HD 
ENDROOT
BRANCH   6  10
HETATM   10  C   UNL     1     -11.568  14.745  69.722  1.00  0.00    -0.297 C  
BRANCH  10  11
HETATM   11  C   UNL     1     -11.536  15.892  68.707  1.00  0.00    -0.393 C  
HETATM   12  C   UNL     1     -10.932  15.424  67.386  1.00  0.00    -0.312 C  
HETATM   13  O   UNL     1     -11.018  16.465  66.404  1.00  0.00    -0.137 OA 
HETATM   14  C   UNL     1     -10.635  17.678  66.919  1.00  0.00    -0.235 A  
HETATM   15  C   UNL     1     -10.474  17.913  68.287  1.00  0.00    -0.354 A  
HETATM   16  O   UNL     1     -10.735  16.966  69.246  1.00  0.00    -0.335 OA 
HETATM   17  C   UNL     1     -10.032  19.156  68.733  1.00  0.00    -0.493 A  
HETATM   18  C   UNL     1      -9.795  20.181  67.815  1.00  0.00    -0.547 A  
HETATM   19  C   UNL     1      -9.998  19.959  66.450  1.00  0.00    -0.593 A  
HETATM   20  C   UNL     1     -10.415  18.704  66.002  1.00  0.00    -0.456 A  
ENDBRANCH  10  11
ENDBRANCH   6  10
TORSDOF 2
ENDMDL
MODEL       20
REMARK 921   NORMALIZED FREE ENERGY PREDICTED BY IDOCK:   -5.80 KCAL/MOL
REMARK 922        TOTAL FREE ENERGY PREDICTED BY IDOCK:   -6.62 KCAL/MOL
REMARK 923 INTER-LIGAND FREE ENERGY PREDICTED BY IDOCK:   -6.43 KCAL/MOL
REMARK 924 INTRA-LIGAND FREE ENERGY PREDICTED BY IDOCK:   -0.19 KCAL/MOL
REMARK 927      BINDING AFFINITY PREDICTED BY RF-SCORE:    0.00 PKD
ROOT
HETATM    1  N   UNL     1     -13.117  11.738  62.926  1.00  0.00    -0.703 NA 
HETATM    2  C   UNL     1     -12.130  12.184  63.724  1.00  0.00    -0.525 C  
HETATM    3  H2  UNL     1     -12.870  11.164  62.119  1.00  0.00     0.000 HD 
HETATM    4  H1  UNL     1     -14.100  11.949  63.094  1.00  0.00     0.000 HD 
HETATM    5  N   UNL     1     -10.893  11.918  63.513  1.00  0.00    -0.501 NA 
HETATM    6  N   UNL     1     -12.571  12.972  64.728  1.00  0.00    -0.650 NA 
HETATM    7  H1  UNL     1     -10.145  12.257  64.118  1.00  0.00     0.000 HD 
HETATM    8  H2  UNL     1     -10.646  11.345  62.706  1.00  0.00     0.000 HD 
HETATM    9  H   UNL     1     -13.553  13.247  64.757  1.00  0.00     0.000 HD 
ENDROOT
BRANCH   6  10
HETATM   10  C   UNL     1     -11.663  13.436  65.772  1.00  0.00    -0.349 C  
BRANCH  10  11
HETATM   11  C   UNL     1     -11.661  14.967  65.836  1.00  0.00    -0.175 C  
HETATM   12  C   UNL     1     -10.911  15.553  64.645  1.00  0.00    -0.254 C  
HETATM   13  O   UNL     1     -11.018  16.983  64.643  1.00  0.00    -0.968 OA 
HETATM   14  C   UNL     1     -10.798  17.506  65.893  1.00  0.00     0.014 A  
HETATM   15  C   UNL     1     -10.772  16.730  67.055  1.00  0.00    -0.161 A  
HETATM   16  O   UNL     1     -11.015  15.379  67.060  1.00  0.00    -0.321 OA 
HETATM   17  C   UNL     1     -10.490  17.324  68.283  1.00  0.00    -0.385 A  
HETATM   18  C   UNL     1     -10.282  18.702  68.358  1.00  0.00    -0.415 A  
HETATM   19  C   UNL     1     -10.351  19.485  67.202  1.00  0.00    -0.568 A  
HETATM   20  C   UNL     1     -10.606  18.884  65.968  1.00  0.00    -0.470 A  
ENDBRANCH  10  11
ENDBRANCH   6  10
TORSDOF 2
ENDMDL
MODEL       21
REMARK 921   NORMALIZED FREE ENERGY PREDICTED BY IDOCK:   -5.77 KCAL/MOL
REMARK 922        TOTAL FREE ENERGY PREDICTED BY IDOCK:   -6.59 KCAL/MOL
REMARK 923 INTER-LIGAND FREE ENERGY PREDICTED BY IDOCK:   -6.39 KCAL/MOL
REMARK 924 INTRA-LIGAND FREE ENERGY PREDICTED BY IDOCK:   -0.20 KCAL/MOL
REMARK 927      BINDING AFFINITY PREDICTED BY RF-SCORE:    0.00 PKD
ROOT
HETATM    1  N   UNL     1     -11.614  16.453  63.858  1.00  0.00    -1.602 NA 
HETATM    2  C   UNL     1     -10.861  15.910  64.832  1.00  0.00    -0.400 C  
HETATM    3  H2  UNL     1     -11.560  17.460  63.703  1.00  0.00     0.000 HD 
HETATM    4  H1  UNL     1     -12.236  15.900  63.269  1.00  0.00     0.000 HD 
HETATM    5  N   UNL     1     -10.078  16.606  65.573  1.00  0.00    -0.590 NA 
HETATM    6  N   UNL     1     -11.053  14.581  64.976  1.00  0.00    -0.365 NA 
HETATM    7  H1  UNL     1      -9.507  16.194  66.311  1.00  0.00     0.000 HD 
HETATM    8  H2  UNL     1     -10.024  17.613  65.418  1.00  0.00     0.000 HD 
HETATM    9  H   UNL     1     -11.787  14.118  64.441  1.00  0.00     0.000 HD 
ENDROOT
BRANCH   6  10
HETATM   10  C   UNL     1     -10.224  13.798  65.888  1.00  0.00    -0.313 C  
BRANCH  10  11
HETATM   11  C   UNL     1     -11.071  13.249  67.040  1.00  0.00    -0.282 C  
HETATM   12  C   UNL     1     -11.203  14.286  68.151  1.00  0.00    -0.275 C  
HETATM   13  O   UNL     1     -12.097  13.814  69.169  1.00  0.00    -0.346 OA 
HETATM   14  C   UNL     1     -11.836  12.508  69.502  1.00  0.00    -0.310 A  
HETATM   15  C   UNL     1     -11.014  11.672  68.742  1.00  0.00    -0.226 A  
HETATM   16  O   UNL     1     -10.431  12.065  67.563  1.00  0.00    -0.207 OA 
HETATM   17  C   UNL     1     -10.754  10.373  69.171  1.00  0.00    -0.266 A  
HETATM   18  C   UNL     1     -11.353   9.893  70.337  1.00  0.00    -0.376 A  
HETATM   19  C   UNL     1     -12.211  10.714  71.074  1.00  0.00    -0.498 A  
HETATM   20  C   UNL     1     -12.449  12.025  70.657  1.00  0.00    -0.335 A  
ENDBRANCH  10  11
ENDBRANCH   6  10
TORSDOF 2
ENDMDL
MODEL       22
REMARK 921   NORMALIZED FREE ENERGY PREDICTED BY IDOCK:   -5.77 KCAL/MOL
REMARK 922        TOTAL FREE ENERGY PREDICTED BY IDOCK:   -6.58 KCAL/MOL
REMARK 923 INTER-LIGAND FREE ENERGY PREDICTED BY IDOCK:   -6.40 KCAL/MOL
REMARK 924 INTRA-LIGAND FREE ENERGY PREDICTED BY IDOCK:   -0.18 KCAL/MOL
REMARK 927      BINDING AFFINITY PREDICTED BY RF-SCORE:    0.00 PKD
ROOT
HETATM    1  N   UNL     1     -12.429  13.357  63.102  1.00  0.00    -0.904 NA 
HETATM    2  C   UNL     1     -11.430  13.573  63.976  1.00  0.00    -0.320 C  
HETATM    3  H2  UNL     1     -12.243  12.779  62.281  1.00  0.00     0.000 HD 
HETATM    4  H1  UNL     1     -13.363  13.745  63.226  1.00  0.00     0.000 HD 
HETATM    5  N   UNL     1     -10.254  13.083  63.821  1.00  0.00    -0.716 NA 
HETATM    6  N   UNL     1     -11.778  14.389  64.994  1.00  0.00    -0.372 NA 
HETATM    7  H1  UNL     1      -9.496  13.247  64.484  1.00  0.00     0.000 HD 
HETATM    8  H2  UNL     1     -10.068  12.506  63.000  1.00  0.00     0.000 HD 
HETATM    9  H   UNL     1     -12.690  14.846  64.982  1.00  0.00     0.000 HD 
ENDROOT
BRANCH   6  10
HETATM   10  C   UNL     1     -10.869  14.627  66.110  1.00  0.00    -0.321 C  
BRANCH  10  11
HETATM   11  C   UNL     1     -10.172  15.983  65.951  1.00  0.00    -0.365 C  
HETATM   12  C   UNL     1      -8.686  15.863  66.270  1.00  0.00    -0.337 C  
HETATM   13  O   UNL     1      -8.018  17.103  65.999  1.00  0.00    -0.451 OA 
HETATM   14  C   UNL     1      -8.722  18.173  66.493  1.00  0.00    -0.268 A  
HETATM   15  C   UNL     1     -10.046  18.083  66.929  1.00  0.00    -0.348 A  
HETATM   16  O   UNL     1     -10.783  16.927  66.857  1.00  0.00    -0.253 OA 
HETATM   17  C   UNL     1     -10.680  19.201  67.467  1.00  0.00    -0.555 A  
HETATM   18  C   UNL     1     -10.006  20.421  67.525  1.00  0.00    -0.537 A  
HETATM   19  C   UNL     1      -8.696  20.522  67.049  1.00  0.00    -0.340 A  
HETATM   20  C   UNL     1      -8.052  19.395  66.535  1.00  0.00    -0.315 A  
ENDBRANCH  10  11
ENDBRANCH   6  10
TORSDOF 2
ENDMDL
MODEL       23
REMARK 921   NORMALIZED FREE ENERGY PREDICTED BY IDOCK:   -5.76 KCAL/MOL
REMARK 922        TOTAL FREE ENERGY PREDICTED BY IDOCK:   -6.57 KCAL/MOL
REMARK 923 INTER-LIGAND FREE ENERGY PREDICTED BY IDOCK:   -6.43 KCAL/MOL
REMARK 924 INTRA-LIGAND FREE ENERGY PREDICTED BY IDOCK:   -0.14 KCAL/MOL
REMARK 927      BINDING AFFINITY PREDICTED BY RF-SCORE:    0.00 PKD
ROOT
HETATM    1  N   UNL     1     -14.242   7.207  71.762  1.00  0.00    -0.535 NA 
HETATM    2  C   UNL     1     -13.751   8.424  72.057  1.00  0.00    -0.374 C  
HETATM    3  H2  UNL     1     -14.916   6.784  72.401  1.00  0.00     0.000 HD 
HETATM    4  H1  UNL     1     -13.970   6.690  70.927  1.00  0.00     0.000 HD 
HETATM    5  N   UNL     1     -14.094   9.075  73.109  1.00  0.00    -1.223 NA 
HETATM    6  N   UNL     1     -12.834   8.859  71.167  1.00  0.00    -0.501 NA 
HETATM    7  H1  UNL     1     -13.722   9.998  73.332  1.00  0.00     0.000 HD 
HETATM    8  H2  UNL     1     -14.768   8.652  73.748  1.00  0.00     0.000 HD 
HETATM    9  H   UNL     1     -12.513   8.233  70.429  1.00  0.00     0.000 HD 
ENDROOT
BRANCH   6  10
HETATM   10  C   UNL     1     -12.293  10.213  71.247  1.00  0.00    -0.400 C  
BRANCH  10  11
HETATM   11  C   UNL     1     -12.389  10.906  69.884  1.00  0.00    -0.285 C  
HETATM   12  C   UNL     1     -11.482  10.221  68.868  1.00  0.00    -0.127 C  
HETATM   13  O   UNL     1     -11.669  10.795  67.567  1.00  0.00    -0.510 OA 
HETATM   14  C   UNL     1     -11.694  12.167  67.621  1.00  0.00    -0.316 A  
HETATM   15  C   UNL     1     -11.820  12.885  68.813  1.00  0.00    -0.315 A  
HETATM   16  O   UNL     1     -11.983  12.284  70.036  1.00  0.00    -0.327 OA 
HETATM   17  C   UNL     1     -11.784  14.277  68.794  1.00  0.00    -0.378 A  
HETATM   18  C   UNL     1     -11.670  14.954  67.579  1.00  0.00    -0.328 A  
HETATM   19  C   UNL     1     -11.588  14.236  66.382  1.00  0.00    -0.381 A  
HETATM   20  C   UNL     1     -11.595  12.840  66.405  1.00  0.00    -0.435 A  
ENDBRANCH  10  11
ENDBRANCH   6  10
TORSDOF 2
ENDMDL
MODEL       24
REMARK 921   NORMALIZED FREE ENERGY PREDICTED BY IDOCK:   -5.73 KCAL/MOL
REMARK 922        TOTAL FREE ENERGY PREDICTED BY IDOCK:   -6.54 KCAL/MOL
REMARK 923 INTER-LIGAND FREE ENERGY PREDICTED BY IDOCK:   -6.39 KCAL/MOL
REMARK 924 INTRA-LIGAND FREE ENERGY PREDICTED BY IDOCK:   -0.15 KCAL/MOL
REMARK 927      BINDING AFFINITY PREDICTED BY RF-SCORE:    0.00 PKD
ROOT
HETATM    1  N   UNL     1     -13.963  13.589  72.401  1.00  0.00    -0.703 NA 
HETATM    2  C   UNL     1     -13.606  14.378  71.372  1.00  0.00    -0.360 C  
HETATM    3  H2  UNL     1     -14.777  13.850  72.957  1.00  0.00     0.000 HD 
HETATM    4  H1  UNL     1     -13.453  12.741  72.648  1.00  0.00     0.000 HD 
HETATM    5  N   UNL     1     -14.248  15.445  71.060  1.00  0.00    -0.846 NA 
HETATM    6  N   UNL     1     -12.487  13.960  70.742  1.00  0.00    -0.357 NA 
HETATM    7  H1  UNL     1     -13.978  16.043  70.280  1.00  0.00     0.000 HD 
HETATM    8  H2  UNL     1     -15.062  15.706  71.616  1.00  0.00     0.000 HD 
HETATM    9  H   UNL     1     -11.956  13.179  71.126  1.00  0.00     0.000 HD 
ENDROOT
BRANCH   6  10
HETATM   10  C   UNL     1     -12.027  14.611  69.519  1.00  0.00    -0.319 C  
BRANCH  10  11
HETATM   11  C   UNL     1     -11.923  13.593  68.379  1.00  0.00    -0.356 C  
HETATM   12  C   UNL     1     -10.540  12.952  68.354  1.00  0.00    -0.253 C  
HETATM   13  O   UNL     1     -10.489  11.914  67.367  1.00  0.00    -0.210 OA 
HETATM   14  C   UNL     1     -11.060  12.315  66.184  1.00  0.00    -0.311 A  
HETATM   15  C   UNL     1     -11.844  13.465  66.063  1.00  0.00    -0.383 A  
HETATM   16  O   UNL     1     -12.160  14.273  67.128  1.00  0.00    -0.423 OA 
HETATM   17  C   UNL     1     -12.347  13.837  64.819  1.00  0.00    -0.420 A  
HETATM   18  C   UNL     1     -12.106  13.034  63.703  1.00  0.00    -0.604 A  
HETATM   19  C   UNL     1     -11.358  11.861  63.832  1.00  0.00    -0.509 A  
HETATM   20  C   UNL     1     -10.831  11.503  65.074  1.00  0.00    -0.336 A  
ENDBRANCH  10  11
ENDBRANCH   6  10
TORSDOF 2
ENDMDL
MODEL       25
REMARK 921   NORMALIZED FREE ENERGY PREDICTED BY IDOCK:   -5.70 KCAL/MOL
REMARK 922        TOTAL FREE ENERGY PREDICTED BY IDOCK:   -6.51 KCAL/MOL
REMARK 923 INTER-LIGAND FREE ENERGY PREDICTED BY IDOCK:   -6.23 KCAL/MOL
REMARK 924 INTRA-LIGAND FREE ENERGY PREDICTED BY IDOCK:   -0.28 KCAL/MOL
REMARK 927      BINDING AFFINITY PREDICTED BY RF-SCORE:    0.00 PKD
ROOT
HETATM    1  N   UNL     1     -12.454  16.425  74.363  1.00  0.00    -0.768 NA 
HETATM    2  C   UNL     1     -12.982  15.962  73.216  1.00  0.00    -0.570 C  
HETATM    3  H2  UNL     1     -12.979  16.297  75.229  1.00  0.00     0.000 HD 
HETATM    4  H1  UNL     1     -11.552  16.899  74.403  1.00  0.00     0.000 HD 
HETATM    5  N   UNL     1     -14.117  15.366  73.165  1.00  0.00    -0.425 NA 
HETATM    6  N   UNL     1     -12.224  16.233  72.132  1.00  0.00    -0.574 NA 
HETATM    7  H1  UNL     1     -14.518  15.014  72.295  1.00  0.00     0.000 HD 
HETATM    8  H2  UNL     1     -14.642  15.238  74.031  1.00  0.00     0.000 HD 
HETATM    9  H   UNL     1     -11.399  16.825  72.230  1.00  0.00     0.000 HD 
ENDROOT
BRANCH   6  10
HETATM   10  C   UNL     1     -12.567  15.690  70.821  1.00  0.00    -0.431 C  
BRANCH  10  11
HETATM   11  C   UNL     1     -11.985  14.281  70.659  1.00  0.00    -0.322 C  
HETATM   12  C   UNL     1     -11.831  13.931  69.183  1.00  0.00    -0.358 C  
HETATM   13  O   UNL     1     -11.173  12.664  69.038  1.00  0.00    -0.256 OA 
HETATM   14  C   UNL     1     -11.692  11.726  69.896  1.00  0.00    -0.323 A  
HETATM   15  C   UNL     1     -12.534  12.047  70.964  1.00  0.00    -0.276 A  
HETATM   16  O   UNL     1     -12.879  13.336  71.285  1.00  0.00    -0.353 OA 
HETATM   17  C   UNL     1     -13.064  11.035  71.761  1.00  0.00    -0.554 A  
HETATM   18  C   UNL     1     -12.714   9.705  71.521  1.00  0.00    -0.480 A  
HETATM   19  C   UNL     1     -11.837   9.388  70.480  1.00  0.00    -0.207 A  
HETATM   20  C   UNL     1     -11.329  10.401  69.664  1.00  0.00    -0.333 A  
ENDBRANCH  10  11
ENDBRANCH   6  10
TORSDOF 2
ENDMDL
MODEL       26
REMARK 921   NORMALIZED FREE ENERGY PREDICTED BY IDOCK:   -5.70 KCAL/MOL
REMARK 922        TOTAL FREE ENERGY PREDICTED BY IDOCK:   -6.51 KCAL/MOL
REMARK 923 INTER-LIGAND FREE ENERGY PREDICTED BY IDOCK:   -6.32 KCAL/MOL
REMARK 924 INTRA-LIGAND FREE ENERGY PREDICTED BY IDOCK:   -0.19 KCAL/MOL
REMARK 927      BINDING AFFINITY PREDICTED BY RF-SCORE:    0.00 PKD
ROOT
HETATM    1  N   UNL     1      -8.914  11.773  62.996  1.00  0.00    -0.654 NA 
HETATM    2  C   UNL     1     -10.215  11.992  63.258  1.00  0.00    -0.361 C  
HETATM    3  H2  UNL     1      -8.646  10.896  62.550  1.00  0.00     0.000 HD 
HETATM    4  H1  UNL     1      -8.185  12.448  63.224  1.00  0.00     0.000 HD 
HETATM    5  N   UNL     1     -11.133  11.142  62.971  1.00  0.00    -0.801 NA 
HETATM    6  N   UNL     1     -10.442  13.162  63.892  1.00  0.00    -0.567 NA 
HETATM    7  H1  UNL     1     -12.120  11.308  63.170  1.00  0.00     0.000 HD 
HETATM    8  H2  UNL     1     -10.865  10.265  62.525  1.00  0.00     0.000 HD 
HETATM    9  H   UNL     1      -9.652  13.725  64.206  1.00  0.00     0.000 HD 
ENDROOT
BRANCH   6  10
HETATM   10  C   UNL     1     -11.803  13.632  64.135  1.00  0.00    -0.422 C  
BRANCH  10  11
HETATM   11  C   UNL     1     -11.842  14.531  65.376  1.00  0.00    -0.344 C  
HETATM   12  C   UNL     1     -10.611  15.429  65.428  1.00  0.00    -0.410 C  
HETATM   13  O   UNL     1     -10.714  16.352  66.521  1.00  0.00    -0.270 OA 
HETATM   14  C   UNL     1     -11.134  15.728  67.669  1.00  0.00    -0.283 A  
HETATM   15  C   UNL     1     -11.672  14.438  67.688  1.00  0.00    -0.391 A  
HETATM   16  O   UNL     1     -11.877  13.695  66.552  1.00  0.00    -0.360 OA 
HETATM   17  C   UNL     1     -12.028  13.850  68.899  1.00  0.00    -0.393 A  
HETATM   18  C   UNL     1     -11.892  14.569  70.088  1.00  0.00    -0.371 A  
HETATM   19  C   UNL     1     -11.395  15.875  70.065  1.00  0.00    -0.358 A  
HETATM   20  C   UNL     1     -11.012  16.453  68.853  1.00  0.00    -0.332 A  
ENDBRANCH  10  11
ENDBRANCH   6  10
TORSDOF 2
ENDMDL
MODEL       27
REMARK 921   NORMALIZED FREE ENERGY PREDICTED BY IDOCK:   -5.69 KCAL/MOL
REMARK 922        TOTAL FREE ENERGY PREDICTED BY IDOCK:   -6.50 KCAL/MOL
REMARK 923 INTER-LIGAND FREE ENERGY PREDICTED BY IDOCK:   -6.41 KCAL/MOL
REMARK 924 INTRA-LIGAND FREE ENERGY PREDICTED BY IDOCK:   -0.09 KCAL/MOL
REMARK 927      BINDING AFFINITY PREDICTED BY RF-SCORE:    0.00 PKD
ROOT
HETATM    1  N   UNL     1     -10.958  17.585  65.073  1.00  0.00    -0.749 NA 
HETATM    2  C   UNL     1     -10.071  17.447  66.074  1.00  0.00    -0.262 C  
HETATM    3  H2  UNL     1     -10.630  17.484  64.112  1.00  0.00     0.000 HD 
HETATM    4  H1  UNL     1     -11.944  17.788  65.234  1.00  0.00     0.000 HD 
HETATM    5  N   UNL     1      -8.830  17.192  65.871  1.00  0.00    -0.534 NA 
HETATM    6  N   UNL     1     -10.609  17.651  67.295  1.00  0.00    -0.330 NA 
HETATM    7  H1  UNL     1      -8.157  17.086  66.630  1.00  0.00     0.000 HD 
HETATM    8  H2  UNL     1      -8.501  17.091  64.910  1.00  0.00     0.000 HD 
HETATM    9  H   UNL     1     -11.572  17.979  67.372  1.00  0.00     0.000 HD 
ENDROOT
BRANCH   6  10
HETATM   10  C   UNL     1      -9.833  17.408  68.507  1.00  0.00    -0.320 C  
BRANCH  10  11
HETATM   11  C   UNL     1     -10.458  16.272  69.323  1.00  0.00    -0.285 C  
HETATM   12  C   UNL     1     -11.555  15.577  68.523  1.00  0.00    -0.368 C  
HETATM   13  O   UNL     1     -12.050  14.439  69.241  1.00  0.00    -0.322 OA 
HETATM   14  C   UNL     1     -12.274  14.735  70.563  1.00  0.00    -0.322 A  
HETATM   15  C   UNL     1     -11.801  15.897  71.178  1.00  0.00    -0.438 A  
HETATM   16  O   UNL     1     -11.023  16.825  70.531  1.00  0.00    -0.148 OA 
HETATM   17  C   UNL     1     -12.113  16.156  72.511  1.00  0.00    -0.644 A  
HETATM   18  C   UNL     1     -12.859  15.230  73.243  1.00  0.00    -0.634 A  
HETATM   19  C   UNL     1     -13.295  14.047  72.639  1.00  0.00    -0.643 A  
HETATM   20  C   UNL     1     -13.006  13.802  71.296  1.00  0.00    -0.409 A  
ENDBRANCH  10  11
ENDBRANCH   6  10
TORSDOF 2
ENDMDL
MODEL       28
REMARK 921   NORMALIZED FREE ENERGY PREDICTED BY IDOCK:   -5.67 KCAL/MOL
REMARK 922        TOTAL FREE ENERGY PREDICTED BY IDOCK:   -6.47 KCAL/MOL
REMARK 923 INTER-LIGAND FREE ENERGY PREDICTED BY IDOCK:   -6.18 KCAL/MOL
REMARK 924 INTRA-LIGAND FREE ENERGY PREDICTED BY IDOCK:   -0.29 KCAL/MOL
REMARK 927      BINDING AFFINITY PREDICTED BY RF-SCORE:    0.00 PKD
ROOT
HETATM    1  N   UNL     1     -13.737  15.431  70.741  1.00  0.00    -0.845 NA 
HETATM    2  C   UNL     1     -12.622  14.795  70.340  1.00  0.00    -0.346 C  
HETATM    3  H2  UNL     1     -14.058  15.297  71.700  1.00  0.00     0.000 HD 
HETATM    4  H1  UNL     1     -14.275  16.041  70.126  1.00  0.00     0.000 HD 
HETATM    5  N   UNL     1     -11.944  14.028  71.114  1.00  0.00    -0.469 NA 
HETATM    6  N   UNL     1     -12.323  15.009  69.041  1.00  0.00    -0.590 NA 
HETATM    7  H1  UNL     1     -11.098  13.546  70.810  1.00  0.00     0.000 HD 
HETATM    8  H2  UNL     1     -12.265  13.893  72.073  1.00  0.00     0.000 HD 
HETATM    9  H   UNL     1     -12.979  15.524  68.453  1.00  0.00     0.000 HD 
ENDROOT
BRANCH   6  10
HETATM   10  C   UNL     1     -11.077  14.513  68.465  1.00  0.00    -0.256 C  
BRANCH  10  11
HETATM   11  C   UNL     1     -10.148  15.682  68.119  1.00  0.00    -0.222 C  
HETATM   12  C   UNL     1      -9.207  15.983  69.281  1.00  0.00    -0.243 C  
HETATM   13  O   UNL     1      -8.260  16.993  68.906  1.00  0.00    -0.254 OA 
HETATM   14  C   UNL     1      -8.868  18.036  68.253  1.00  0.00    -0.286 A  
HETATM   15  C   UNL     1     -10.175  17.975  67.761  1.00  0.00    -0.378 A  
HETATM   16  O   UNL     1     -10.954  16.847  67.841  1.00  0.00    -0.342 OA 
HETATM   17  C   UNL     1     -10.743  19.092  67.154  1.00  0.00    -0.567 A  
HETATM   18  C   UNL     1      -9.990  20.257  66.996  1.00  0.00    -0.601 A  
HETATM   19  C   UNL     1      -8.668  20.303  67.449  1.00  0.00    -0.428 A  
HETATM   20  C   UNL     1      -8.109  19.192  68.082  1.00  0.00    -0.351 A  
ENDBRANCH  10  11
ENDBRANCH   6  10
TORSDOF 2
ENDMDL
MODEL       29
REMARK 921   NORMALIZED FREE ENERGY PREDICTED BY IDOCK:   -5.66 KCAL/MOL
REMARK 922        TOTAL FREE ENERGY PREDICTED BY IDOCK:   -6.46 KCAL/MOL
REMARK 923 INTER-LIGAND FREE ENERGY PREDICTED BY IDOCK:   -6.24 KCAL/MOL
REMARK 924 INTRA-LIGAND FREE ENERGY PREDICTED BY IDOCK:   -0.23 KCAL/MOL
REMARK 927      BINDING AFFINITY PREDICTED BY RF-SCORE:    0.00 PKD
ROOT
HETATM    1  N   UNL     1      -9.535   9.617  63.181  1.00  0.00    -0.523 NA 
HETATM    2  C   UNL     1      -9.826  10.926  63.086  1.00  0.00    -0.351 C  
HETATM    3  H2  UNL     1      -8.580   9.313  62.990  1.00  0.00     0.000 HD 
HETATM    4  H1  UNL     1     -10.230   8.915  63.437  1.00  0.00     0.000 HD 
HETATM    5  N   UNL     1      -8.952  11.810  62.765  1.00  0.00    -0.588 NA 
HETATM    6  N   UNL     1     -11.128  11.202  63.312  1.00  0.00    -0.789 NA 
HETATM    7  H1  UNL     1      -9.172  12.803  62.693  1.00  0.00     0.000 HD 
HETATM    8  H2  UNL     1      -7.997  11.506  62.574  1.00  0.00     0.000 HD 
HETATM    9  H   UNL     1     -11.790  10.436  63.432  1.00  0.00     0.000 HD 
ENDROOT
BRANCH   6  10
HETATM   10  C   UNL     1     -11.602  12.581  63.387  1.00  0.00    -0.473 C  
BRANCH  10  11
HETATM   11  C   UNL     1     -11.334  13.161  64.780  1.00  0.00    -0.324 C  
HETATM   12  C   UNL     1     -12.626  13.677  65.404  1.00  0.00    -0.491 C  
HETATM   13  O   UNL     1     -12.391  14.105  66.752  1.00  0.00    -0.438 OA 
HETATM   14  C   UNL     1     -11.253  14.867  66.849  1.00  0.00    -0.343 A  
HETATM   15  C   UNL     1     -10.302  14.956  65.828  1.00  0.00    -0.332 A  
HETATM   16  O   UNL     1     -10.393  14.249  64.655  1.00  0.00    -0.417 OA 
HETATM   17  C   UNL     1      -9.197  15.791  65.977  1.00  0.00    -0.379 A  
HETATM   18  C   UNL     1      -9.017  16.501  67.166  1.00  0.00    -0.221 A  
HETATM   19  C   UNL     1      -9.945  16.377  68.203  1.00  0.00    -0.242 A  
HETATM   20  C   UNL     1     -11.067  15.562  68.042  1.00  0.00    -0.322 A  
ENDBRANCH  10  11
ENDBRANCH   6  10
TORSDOF 2
ENDMDL
MODEL       30
REMARK 921   NORMALIZED FREE ENERGY PREDICTED BY IDOCK:   -5.64 KCAL/MOL
REMARK 922        TOTAL FREE ENERGY PREDICTED BY IDOCK:   -6.44 KCAL/MOL
REMARK 923 INTER-LIGAND FREE ENERGY PREDICTED BY IDOCK:   -6.26 KCAL/MOL
REMARK 924 INTRA-LIGAND FREE ENERGY PREDICTED BY IDOCK:   -0.18 KCAL/MOL
REMARK 927      BINDING AFFINITY PREDICTED BY RF-SCORE:    0.00 PKD
ROOT
HETATM    1  N   UNL     1     -12.486  13.775  63.132  1.00  0.00    -1.074 NA 
HETATM    2  C   UNL     1     -11.815  12.724  63.634  1.00  0.00    -0.532 C  
HETATM    3  H2  UNL     1     -13.031  13.645  62.279  1.00  0.00     0.000 HD 
HETATM    4  H1  UNL     1     -12.473  14.697  63.568  1.00  0.00     0.000 HD 
HETATM    5  N   UNL     1     -11.831  11.563  63.086  1.00  0.00    -0.908 NA 
HETATM    6  N   UNL     1     -11.092  13.028  64.733  1.00  0.00    -0.309 NA 
HETATM    7  H1  UNL     1     -11.323  10.766  63.467  1.00  0.00     0.000 HD 
HETATM    8  H2  UNL     1     -12.376  11.433  62.233  1.00  0.00     0.000 HD 
HETATM    9  H   UNL     1     -11.021  13.999  65.035  1.00  0.00     0.000 HD 
ENDROOT
BRANCH   6  10
HETATM   10  C   UNL     1     -10.409  11.986  65.494  1.00  0.00    -0.263 C  
BRANCH  10  11
HETATM   11  C   UNL     1     -11.169  11.689  66.791  1.00  0.00    -0.308 C  
HETATM   12  C   UNL     1     -11.310  12.952  67.634  1.00  0.00    -0.303 C  
HETATM   13  O   UNL     1     -12.127  12.695  68.784  1.00  0.00    -0.269 OA 
HETATM   14  C   UNL     1     -11.776  11.519  69.398  1.00  0.00    -0.346 A  
HETATM   15  C   UNL     1     -10.942  10.565  68.809  1.00  0.00    -0.251 A  
HETATM   16  O   UNL     1     -10.438  10.693  67.538  1.00  0.00    -0.201 OA 
HETATM   17  C   UNL     1     -10.587   9.418  69.515  1.00  0.00    -0.237 A  
HETATM   18  C   UNL     1     -11.103   9.201  70.794  1.00  0.00    -0.336 A  
HETATM   19  C   UNL     1     -11.973  10.134  71.366  1.00  0.00    -0.447 A  
HETATM   20  C   UNL     1     -12.305  11.296  70.668  1.00  0.00    -0.477 A  
ENDBRANCH  10  11
ENDBRANCH   6  10
TORSDOF 2
ENDMDL
MODEL       31
REMARK 921   NORMALIZED FREE ENERGY PREDICTED BY IDOCK:   -5.63 KCAL/MOL
REMARK 922        TOTAL FREE ENERGY PREDICTED BY IDOCK:   -6.43 KCAL/MOL
REMARK 923 INTER-LIGAND FREE ENERGY PREDICTED BY IDOCK:   -6.27 KCAL/MOL
REMARK 924 INTRA-LIGAND FREE ENERGY PREDICTED BY IDOCK:   -0.15 KCAL/MOL
REMARK 927      BINDING AFFINITY PREDICTED BY RF-SCORE:    0.00 PKD
ROOT
HETATM    1  N   UNL     1     -14.040   8.856  73.267  1.00  0.00    -1.248 NA 
HETATM    2  C   UNL     1     -13.827   9.068  71.956  1.00  0.00    -0.444 C  
HETATM    3  H2  UNL     1     -14.652   8.089  73.544  1.00  0.00     0.000 HD 
HETATM    4  H1  UNL     1     -13.615   9.431  73.994  1.00  0.00     0.000 HD 
HETATM    5  N   UNL     1     -14.361   8.345  71.040  1.00  0.00    -0.652 NA 
HETATM    6  N   UNL     1     -13.042  10.139  71.709  1.00  0.00    -0.436 NA 
HETATM    7  H1  UNL     1     -14.199   8.506  70.046  1.00  0.00     0.000 HD 
HETATM    8  H2  UNL     1     -14.973   7.577  71.317  1.00  0.00     0.000 HD 
HETATM    9  H   UNL     1     -12.762  10.745  72.480  1.00  0.00     0.000 HD 
ENDROOT
BRANCH   6  10
HETATM   10  C   UNL     1     -12.591  10.442  70.354  1.00  0.00    -0.254 C  
BRANCH  10  11
HETATM   11  C   UNL     1     -12.010  11.859  70.291  1.00  0.00    -0.330 C  
HETATM   12  C   UNL     1     -12.768  12.793  71.228  1.00  0.00    -0.269 C  
HETATM   13  O   UNL     1     -12.144  14.084  71.256  1.00  0.00    -0.336 OA 
HETATM   14  C   UNL     1     -11.827  14.518  69.993  1.00  0.00    -0.313 A  
HETATM   15  C   UNL     1     -11.841  13.687  68.871  1.00  0.00    -0.364 A  
HETATM   16  O   UNL     1     -12.122  12.345  68.935  1.00  0.00    -0.265 OA 
HETATM   17  C   UNL     1     -11.558  14.212  67.612  1.00  0.00    -0.394 A  
HETATM   18  C   UNL     1     -11.216  15.558  67.480  1.00  0.00    -0.272 A  
HETATM   19  C   UNL     1     -11.159  16.380  68.609  1.00  0.00    -0.352 A  
HETATM   20  C   UNL     1     -11.470  15.860  69.867  1.00  0.00    -0.344 A  
ENDBRANCH  10  11
ENDBRANCH   6  10
TORSDOF 2
ENDMDL
MODEL       32
REMARK 921   NORMALIZED FREE ENERGY PREDICTED BY IDOCK:   -5.58 KCAL/MOL
REMARK 922        TOTAL FREE ENERGY PREDICTED BY IDOCK:   -6.37 KCAL/MOL
REMARK 923 INTER-LIGAND FREE ENERGY PREDICTED BY IDOCK:   -6.24 KCAL/MOL
REMARK 924 INTRA-LIGAND FREE ENERGY PREDICTED BY IDOCK:   -0.13 KCAL/MOL
REMARK 927      BINDING AFFINITY PREDICTED BY RF-SCORE:    0.00 PKD
ROOT
HETATM    1  N   UNL     1     -14.411   8.766  73.014  1.00  0.00    -1.133 NA 
HETATM    2  C   UNL     1     -13.214   8.824  72.404  1.00  0.00    -0.394 C  
HETATM    3  H2  UNL     1     -14.503   8.195  73.855  1.00  0.00     0.000 HD 
HETATM    4  H1  UNL     1     -15.229   9.268  72.671  1.00  0.00     0.000 HD 
HETATM    5  N   UNL     1     -12.183   8.192  72.835  1.00  0.00    -0.636 NA 
HETATM    6  N   UNL     1     -13.225   9.567  71.277  1.00  0.00    -0.472 NA 
HETATM    7  H1  UNL     1     -11.275   8.236  72.373  1.00  0.00     0.000 HD 
HETATM    8  H2  UNL     1     -12.275   7.621  73.676  1.00  0.00     0.000 HD 
HETATM    9  H   UNL     1     -14.109   9.931  70.923  1.00  0.00     0.000 HD 
ENDROOT
BRANCH   6  10
HETATM   10  C   UNL     1     -11.989   9.857  70.556  1.00  0.00    -0.239 C  
BRANCH  10  11
HETATM   11  C   UNL     1     -12.220  10.968  69.527  1.00  0.00    -0.282 C  
HETATM   12  C   UNL     1     -11.469  10.667  68.234  1.00  0.00    -0.245 C  
HETATM   13  O   UNL     1     -11.787  11.645  67.235  1.00  0.00    -0.609 OA 
HETATM   14  C   UNL     1     -11.751  12.919  67.746  1.00  0.00    -0.362 A  
HETATM   15  C   UNL     1     -11.706  13.193  69.115  1.00  0.00    -0.325 A  
HETATM   16  O   UNL     1     -11.745  12.215  70.078  1.00  0.00    -0.308 OA 
HETATM   17  C   UNL     1     -11.618  14.511  69.559  1.00  0.00    -0.350 A  
HETATM   18  C   UNL     1     -11.623  15.557  68.635  1.00  0.00    -0.379 A  
HETATM   19  C   UNL     1     -11.713  15.284  67.267  1.00  0.00    -0.088 A  
HETATM   20  C   UNL     1     -11.773  13.962  66.823  1.00  0.00    -0.423 A  
ENDBRANCH  10  11
ENDBRANCH   6  10
TORSDOF 2
ENDMDL
MODEL       33
REMARK 921   NORMALIZED FREE ENERGY PREDICTED BY IDOCK:   -5.54 KCAL/MOL
REMARK 922        TOTAL FREE ENERGY PREDICTED BY IDOCK:   -6.33 KCAL/MOL
REMARK 923 INTER-LIGAND FREE ENERGY PREDICTED BY IDOCK:   -6.16 KCAL/MOL
REMARK 924 INTRA-LIGAND FREE ENERGY PREDICTED BY IDOCK:   -0.17 KCAL/MOL
REMARK 927      BINDING AFFINITY PREDICTED BY RF-SCORE:    0.00 PKD
ROOT
HETATM    1  N   UNL     1     -11.956  11.723  66.925  1.00  0.00    -0.561 NA 
HETATM    2  C   UNL     1     -11.941  12.643  65.945  1.00  0.00    -0.438 C  
HETATM    3  H2  UNL     1     -12.655  10.981  66.888  1.00  0.00     0.000 HD 
HETATM    4  H1  UNL     1     -11.298  11.736  67.704  1.00  0.00     0.000 HD 
HETATM    5  N   UNL     1     -12.768  12.627  64.964  1.00  0.00    -0.771 NA 
HETATM    6  N   UNL     1     -11.007  13.602  66.127  1.00  0.00    -0.283 NA 
HETATM    7  H1  UNL     1     -12.756  13.325  64.221  1.00  0.00     0.000 HD 
HETATM    8  H2  UNL     1     -13.467  11.885  64.927  1.00  0.00     0.000 HD 
HETATM    9  H   UNL     1     -10.473  13.624  66.996  1.00  0.00     0.000 HD 
ENDROOT
BRANCH   6  10
HETATM   10  C   UNL     1     -10.750  14.605  65.099  1.00  0.00    -0.414 C  
BRANCH  10  11
HETATM   11  C   UNL     1      -9.904  15.748  65.669  1.00  0.00    -0.322 C  
HETATM   12  C   UNL     1      -9.564  15.487  67.132  1.00  0.00    -0.222 C  
HETATM   13  O   UNL     1      -8.671  16.496  67.624  1.00  0.00    -0.188 OA 
HETATM   14  C   UNL     1      -9.075  17.753  67.246  1.00  0.00    -0.246 A  
HETATM   15  C   UNL     1     -10.048  17.985  66.271  1.00  0.00    -0.363 A  
HETATM   16  O   UNL     1     -10.654  16.977  65.563  1.00  0.00    -0.542 OA 
HETATM   17  C   UNL     1     -10.444  19.288  65.978  1.00  0.00    -0.573 A  
HETATM   18  C   UNL     1      -9.833  20.362  66.626  1.00  0.00    -0.496 A  
HETATM   19  C   UNL     1      -8.828  20.132  67.570  1.00  0.00    -0.431 A  
HETATM   20  C   UNL     1      -8.452  18.825  67.883  1.00  0.00    -0.316 A  
ENDBRANCH  10  11
ENDBRANCH   6  10
TORSDOF 2
ENDMDL
MODEL       34
REMARK 921   NORMALIZED FREE ENERGY PREDICTED BY IDOCK:   -5.53 KCAL/MOL
REMARK 922        TOTAL FREE ENERGY PREDICTED BY IDOCK:   -6.32 KCAL/MOL
REMARK 923 INTER-LIGAND FREE ENERGY PREDICTED BY IDOCK:   -6.14 KCAL/MOL
REMARK 924 INTRA-LIGAND FREE ENERGY PREDICTED BY IDOCK:   -0.17 KCAL/MOL
REMARK 927      BINDING AFFINITY PREDICTED BY RF-SCORE:    0.00 PKD
ROOT
HETATM    1  N   UNL     1     -13.410  11.442  72.244  1.00  0.00    -0.540 NA 
HETATM    2  C   UNL     1     -13.341  12.761  71.991  1.00  0.00    -0.466 C  
HETATM    3  H2  UNL     1     -14.100  11.110  72.918  1.00  0.00     0.000 HD 
HETATM    4  H1  UNL     1     -12.801  10.761  71.791  1.00  0.00     0.000 HD 
HETATM    5  N   UNL     1     -14.107  13.619  72.561  1.00  0.00    -0.754 NA 
HETATM    6  N   UNL     1     -12.360  13.087  71.123  1.00  0.00    -0.357 NA 
HETATM    7  H1  UNL     1     -14.055  14.619  72.369  1.00  0.00     0.000 HD 
HETATM    8  H2  UNL     1     -14.797  13.286  73.235  1.00  0.00     0.000 HD 
HETATM    9  H   UNL     1     -11.705  12.369  70.811  1.00  0.00     0.000 HD 
ENDROOT
BRANCH   6  10
HETATM   10  C   UNL     1     -12.222  14.451  70.623  1.00  0.00    -0.344 C  
BRANCH  10  11
HETATM   11  C   UNL     1     -11.504  14.454  69.269  1.00  0.00    -0.285 C  
HETATM   12  C   UNL     1     -11.596  15.828  68.614  1.00  0.00    -0.386 C  
HETATM   13  O   UNL     1     -10.820  15.858  67.409  1.00  0.00    -0.316 OA 
HETATM   14  C   UNL     1     -11.033  14.738  66.644  1.00  0.00    -0.326 A  
HETATM   15  C   UNL     1     -11.685  13.597  67.120  1.00  0.00    -0.383 A  
HETATM   16  O   UNL     1     -12.126  13.471  68.414  1.00  0.00    -0.352 OA 
HETATM   17  C   UNL     1     -11.911  12.519  66.269  1.00  0.00    -0.453 A  
HETATM   18  C   UNL     1     -11.444  12.560  64.954  1.00  0.00    -0.367 A  
HETATM   19  C   UNL     1     -10.753  13.684  64.490  1.00  0.00    -0.420 A  
HETATM   20  C   UNL     1     -10.552  14.776  65.336  1.00  0.00    -0.395 A  
ENDBRANCH  10  11
ENDBRANCH   6  10
TORSDOF 2
ENDMDL
MODEL       35
REMARK 921   NORMALIZED FREE ENERGY PREDICTED BY IDOCK:   -5.45 KCAL/MOL
REMARK 922        TOTAL FREE ENERGY PREDICTED BY IDOCK:   -6.22 KCAL/MOL
REMARK 923 INTER-LIGAND FREE ENERGY PREDICTED BY IDOCK:   -6.21 KCAL/MOL
REMARK 924 INTRA-LIGAND FREE ENERGY PREDICTED BY IDOCK:   -0.02 KCAL/MOL
REMARK 927      BINDING AFFINITY PREDICTED BY RF-SCORE:    0.00 PKD
ROOT
HETATM    1  N   UNL     1     -11.680   9.254  70.045  1.00  0.00    -0.456 NA 
HETATM    2  C   UNL     1     -11.158  10.291  69.366  1.00  0.00    -0.252 C  
HETATM    3  H2  UNL     1     -11.066   8.705  70.647  1.00  0.00     0.000 HD 
HETATM    4  H1  UNL     1     -12.664   8.995  69.984  1.00  0.00     0.000 HD 
HETATM    5  N   UNL     1      -9.919  10.618  69.443  1.00  0.00    -0.363 NA 
HETATM    6  N   UNL     1     -12.052  10.911  68.567  1.00  0.00    -0.812 NA 
HETATM    7  H1  UNL     1      -9.523  11.404  68.928  1.00  0.00     0.000 HD 
HETATM    8  H2  UNL     1      -9.304  10.068  70.044  1.00  0.00     0.000 HD 
HETATM    9  H   UNL     1     -12.986  10.515  68.457  1.00  0.00     0.000 HD 
ENDROOT
BRANCH   6  10
HETATM   10  C   UNL     1     -11.703  12.139  67.860  1.00  0.00    -0.336 C  
BRANCH  10  11
HETATM   11  C   UNL     1     -11.931  13.357  68.761  1.00  0.00    -0.324 C  
HETATM   12  C   UNL     1     -10.635  14.139  68.947  1.00  0.00    -0.239 C  
HETATM   13  O   UNL     1     -10.882  15.342  69.688  1.00  0.00    -0.255 OA 
HETATM   14  C   UNL     1     -11.681  15.107  70.779  1.00  0.00    -0.325 A  
HETATM   15  C   UNL     1     -12.395  13.920  70.964  1.00  0.00    -0.376 A  
HETATM   16  O   UNL     1     -12.404  12.899  70.047  1.00  0.00    -0.234 OA 
HETATM   17  C   UNL     1     -13.146  13.733  72.123  1.00  0.00    -0.497 A  
HETATM   18  C   UNL     1     -13.221  14.751  73.075  1.00  0.00    -0.592 A  
HETATM   19  C   UNL     1     -12.542  15.955  72.869  1.00  0.00    -0.581 A  
HETATM   20  C   UNL     1     -11.768  16.131  71.720  1.00  0.00    -0.568 A  
ENDBRANCH  10  11
ENDBRANCH   6  10
TORSDOF 2
ENDMDL
MODEL       36
REMARK 921   NORMALIZED FREE ENERGY PREDICTED BY IDOCK:   -5.44 KCAL/MOL
REMARK 922        TOTAL FREE ENERGY PREDICTED BY IDOCK:   -6.21 KCAL/MOL
REMARK 923 INTER-LIGAND FREE ENERGY PREDICTED BY IDOCK:   -5.98 KCAL/MOL
REMARK 924 INTRA-LIGAND FREE ENERGY PREDICTED BY IDOCK:   -0.23 KCAL/MOL
REMARK 927      BINDING AFFINITY PREDICTED BY RF-SCORE:    0.00 PKD
ROOT
HETATM    1  N   UNL     1     -10.795  11.189  62.880  1.00  0.00    -0.806 NA 
HETATM    2  C   UNL     1     -11.688  11.913  63.577  1.00  0.00    -0.452 C  
HETATM    3  H2  UNL     1     -11.081  10.792  61.984  1.00  0.00     0.000 HD 
HETATM    4  H1  UNL     1      -9.845  11.020  63.209  1.00  0.00     0.000 HD 
HETATM    5  N   UNL     1     -12.884  12.126  63.163  1.00  0.00    -0.796 NA 
HETATM    6  N   UNL     1     -11.215  12.344  64.766  1.00  0.00    -0.301 NA 
HETATM    7  H1  UNL     1     -13.562  12.676  63.691  1.00  0.00     0.000 HD 
HETATM    8  H2  UNL     1     -13.170  11.729  62.267  1.00  0.00     0.000 HD 
HETATM    9  H   UNL     1     -10.301  12.026  65.087  1.00  0.00     0.000 HD 
ENDROOT
BRANCH   6  10
HETATM   10  C   UNL     1     -11.992  13.258  65.597  1.00  0.00    -0.412 C  
BRANCH  10  11
HETATM   11  C   UNL     1     -11.131  14.450  66.028  1.00  0.00    -0.324 C  
HETATM   12  C   UNL     1     -10.976  15.444  64.882  1.00  0.00    -0.437 C  
HETATM   13  O   UNL     1     -10.275  16.613  65.328  1.00  0.00    -0.600 OA 
HETATM   14  C   UNL     1      -9.173  16.284  66.079  1.00  0.00    -0.316 A  
HETATM   15  C   UNL     1      -8.946  15.000  66.583  1.00  0.00    -0.281 A  
HETATM   16  O   UNL     1      -9.829  13.963  66.419  1.00  0.00    -0.278 OA 
HETATM   17  C   UNL     1      -7.778  14.729  67.293  1.00  0.00    -0.214 A  
HETATM   18  C   UNL     1      -6.860  15.751  67.539  1.00  0.00    -0.219 A  
HETATM   19  C   UNL     1      -7.109  17.044  67.072  1.00  0.00    -0.228 A  
HETATM   20  C   UNL     1      -8.266  17.309  66.337  1.00  0.00    -0.317 A  
ENDBRANCH  10  11
ENDBRANCH   6  10
TORSDOF 2
ENDMDL
MODEL       37
REMARK 921   NORMALIZED FREE ENERGY PREDICTED BY IDOCK:   -5.39 KCAL/MOL
REMARK 922        TOTAL FREE ENERGY PREDICTED BY IDOCK:   -6.16 KCAL/MOL
REMARK 923 INTER-LIGAND FREE ENERGY PREDICTED BY IDOCK:   -6.00 KCAL/MOL
REMARK 924 INTRA-LIGAND FREE ENERGY PREDICTED BY IDOCK:   -0.17 KCAL/MOL
REMARK 927      BINDING AFFINITY PREDICTED BY RF-SCORE:    0.00 PKD
ROOT
HETATM    1  N   UNL     1     -14.051   8.998  73.086  1.00  0.00    -1.223 NA 
HETATM    2  C   UNL     1     -13.024   8.602  72.314  1.00  0.00    -0.381 C  
HETATM    3  H2  UNL     1     -14.716   8.296  73.412  1.00  0.00     0.000 HD 
HETATM    4  H1  UNL     1     -14.193   9.970  73.360  1.00  0.00     0.000 HD 
HETATM    5  N   UNL     1     -12.845   7.378  71.970  1.00  0.00    -0.494 NA 
HETATM    6  N   UNL     1     -12.241   9.622  71.904  1.00  0.00    -0.368 NA 
HETATM    7  H1  UNL     1     -12.066   7.078  71.385  1.00  0.00     0.000 HD 
HETATM    8  H2  UNL     1     -13.510   6.676  72.296  1.00  0.00     0.000 HD 
HETATM    9  H   UNL     1     -12.519  10.582  72.107  1.00  0.00     0.000 HD 
ENDROOT
BRANCH   6  10
HETATM   10  C   UNL     1     -11.002   9.371  71.173  1.00  0.00    -0.360 C  
BRANCH  10  11
HETATM   11  C   UNL     1     -10.918  10.277  69.940  1.00  0.00    -0.303 C  
HETATM   12  C   UNL     1     -12.276  10.901  69.637  1.00  0.00    -0.283 C  
HETATM   13  O   UNL     1     -12.163  11.841  68.560  1.00  0.00    -0.430 OA 
HETATM   14  C   UNL     1     -11.415  11.335  67.526  1.00  0.00    -0.246 A  
HETATM   15  C   UNL     1     -10.629  10.186  67.639  1.00  0.00    -0.265 A  
HETATM   16  O   UNL     1     -10.491   9.485  68.811  1.00  0.00    -0.209 OA 
HETATM   17  C   UNL     1      -9.938   9.703  66.531  1.00  0.00    -0.313 A  
HETATM   18  C   UNL     1      -9.995  10.395  65.320  1.00  0.00    -0.376 A  
HETATM   19  C   UNL     1     -10.746  11.569  65.218  1.00  0.00    -0.337 A  
HETATM   20  C   UNL     1     -11.461  12.037  66.322  1.00  0.00    -0.408 A  
ENDBRANCH  10  11
ENDBRANCH   6  10
TORSDOF 2
ENDMDL
MODEL       38
REMARK 921   NORMALIZED FREE ENERGY PREDICTED BY IDOCK:   -5.36 KCAL/MOL
REMARK 922        TOTAL FREE ENERGY PREDICTED BY IDOCK:   -6.13 KCAL/MOL
REMARK 923 INTER-LIGAND FREE ENERGY PREDICTED BY IDOCK:   -5.85 KCAL/MOL
REMARK 924 INTRA-LIGAND FREE ENERGY PREDICTED BY IDOCK:   -0.28 KCAL/MOL
REMARK 927      BINDING AFFINITY PREDICTED BY RF-SCORE:    0.00 PKD
ROOT
HETATM    1  N   UNL     1      -7.641  12.548  66.731  1.00  0.00    -0.381 NA 
HETATM    2  C   UNL     1      -8.730  13.064  67.327  1.00  0.00    -0.209 C  
HETATM    3  H2  UNL     1      -6.876  12.212  67.316  1.00  0.00     0.000 HD 
HETATM    4  H1  UNL     1      -7.548  12.478  65.718  1.00  0.00     0.000 HD 
HETATM    5  N   UNL     1      -8.847  13.151  68.602  1.00  0.00    -0.373 NA 
HETATM    6  N   UNL     1      -9.652  13.520  66.453  1.00  0.00    -0.321 NA 
HETATM    7  H1  UNL     1      -9.673  13.542  69.055  1.00  0.00     0.000 HD 
HETATM    8  H2  UNL     1      -8.082  12.815  69.188  1.00  0.00     0.000 HD 
HETATM    9  H   UNL     1      -9.434  13.538  65.456  1.00  0.00     0.000 HD 
ENDROOT
BRANCH   6  10
HETATM   10  C   UNL     1     -10.956  13.987  66.912  1.00  0.00    -0.298 C  
BRANCH  10  11
HETATM   11  C   UNL     1     -11.103  15.491  66.658  1.00  0.00    -0.193 C  
HETATM   12  C   UNL     1     -10.497  15.870  65.310  1.00  0.00    -0.377 C  
HETATM   13  O   UNL     1     -10.747  17.252  65.023  1.00  0.00    -0.708 OA 
HETATM   14  C   UNL     1     -10.497  18.047  66.114  1.00  0.00    -0.331 A  
HETATM   15  C   UNL     1     -10.314  17.542  67.404  1.00  0.00    -0.351 A  
HETATM   16  O   UNL     1     -10.420  16.208  67.709  1.00  0.00    -0.279 OA 
HETATM   17  C   UNL     1     -10.011  18.406  68.454  1.00  0.00    -0.406 A  
HETATM   18  C   UNL     1      -9.937  19.781  68.224  1.00  0.00    -0.557 A  
HETATM   19  C   UNL     1     -10.163  20.290  66.942  1.00  0.00    -0.504 A  
HETATM   20  C   UNL     1     -10.439  19.421  65.885  1.00  0.00    -0.561 A  
ENDBRANCH  10  11
ENDBRANCH   6  10
TORSDOF 2
ENDMDL
MODEL       39
REMARK 921   NORMALIZED FREE ENERGY PREDICTED BY IDOCK:   -5.36 KCAL/MOL
REMARK 922        TOTAL FREE ENERGY PREDICTED BY IDOCK:   -6.12 KCAL/MOL
REMARK 923 INTER-LIGAND FREE ENERGY PREDICTED BY IDOCK:   -6.00 KCAL/MOL
REMARK 924 INTRA-LIGAND FREE ENERGY PREDICTED BY IDOCK:   -0.12 KCAL/MOL
REMARK 927      BINDING AFFINITY PREDICTED BY RF-SCORE:    0.00 PKD
ROOT
HETATM    1  N   UNL     1     -12.113  14.867  74.394  1.00  0.00    -0.705 NA 
HETATM    2  C   UNL     1     -12.726  15.351  73.299  1.00  0.00    -0.508 C  
HETATM    3  H2  UNL     1     -12.430  15.184  75.311  1.00  0.00     0.000 HD 
HETATM    4  H1  UNL     1     -11.347  14.196  74.346  1.00  0.00     0.000 HD 
HETATM    5  N   UNL     1     -13.691  16.195  73.359  1.00  0.00    -0.815 NA 
HETATM    6  N   UNL     1     -12.191  14.899  72.145  1.00  0.00    -0.349 NA 
HETATM    7  H1  UNL     1     -14.156  16.562  72.529  1.00  0.00     0.000 HD 
HETATM    8  H2  UNL     1     -14.007  16.512  74.276  1.00  0.00     0.000 HD 
HETATM    9  H   UNL     1     -11.342  14.334  72.171  1.00  0.00     0.000 HD 
ENDROOT
BRANCH   6  10
HETATM   10  C   UNL     1     -12.810  15.207  70.859  1.00  0.00    -0.419 C  
BRANCH  10  11
HETATM   11  C   UNL     1     -11.805  15.000  69.721  1.00  0.00    -0.321 C  
HETATM   12  C   UNL     1     -11.448  16.333  69.070  1.00  0.00    -0.268 C  
HETATM   13  O   UNL     1     -10.418  16.148  68.091  1.00  0.00    -0.259 OA 
HETATM   14  C   UNL     1     -10.672  15.062  67.290  1.00  0.00    -0.298 A  
HETATM   15  C   UNL     1     -11.643  14.102  67.587  1.00  0.00    -0.365 A  
HETATM   16  O   UNL     1     -12.397  14.128  68.734  1.00  0.00    -0.272 OA 
HETATM   17  C   UNL     1     -11.880  13.055  66.700  1.00  0.00    -0.455 A  
HETATM   18  C   UNL     1     -11.115  12.940  65.539  1.00  0.00    -0.306 A  
HETATM   19  C   UNL     1     -10.114  13.876  65.263  1.00  0.00    -0.328 A  
HETATM   20  C   UNL     1      -9.896  14.940  66.139  1.00  0.00    -0.332 A  
ENDBRANCH  10  11
ENDBRANCH   6  10
TORSDOF 2
ENDMDL
MODEL       40
REMARK 921   NORMALIZED FREE ENERGY PREDICTED BY IDOCK:   -5.30 KCAL/MOL
REMARK 922        TOTAL FREE ENERGY PREDICTED BY IDOCK:   -6.06 KCAL/MOL
REMARK 923 INTER-LIGAND FREE ENERGY PREDICTED BY IDOCK:   -5.91 KCAL/MOL
REMARK 924 INTRA-LIGAND FREE ENERGY PREDICTED BY IDOCK:   -0.15 KCAL/MOL
REMARK 927      BINDING AFFINITY PREDICTED BY RF-SCORE:    0.00 PKD
ROOT
HETATM    1  N   UNL     1     -10.920  19.408  67.285  1.00  0.00    -0.451 NA 
HETATM    2  C   UNL     1     -10.739  18.115  66.963  1.00  0.00    -0.253 C  
HETATM    3  H2  UNL     1     -10.890  20.106  66.540  1.00  0.00     0.000 HD 
HETATM    4  H1  UNL     1     -11.085  19.721  68.241  1.00  0.00     0.000 HD 
HETATM    5  N   UNL     1     -10.531  17.721  65.760  1.00  0.00    -0.583 NA 
HETATM    6  N   UNL     1     -10.750  17.293  68.034  1.00  0.00    -0.389 NA 
HETATM    7  H1  UNL     1     -10.395  16.740  65.516  1.00  0.00     0.000 HD 
HETATM    8  H2  UNL     1     -10.501  18.418  65.015  1.00  0.00     0.000 HD 
HETATM    9  H   UNL     1     -10.789  17.690  68.973  1.00  0.00     0.000 HD 
ENDROOT
BRANCH   6  10
HETATM   10  C   UNL     1     -10.707  15.843  67.868  1.00  0.00    -0.312 C  
BRANCH  10  11
HETATM   11  C   UNL     1     -11.632  15.163  68.883  1.00  0.00    -0.341 C  
HETATM   12  C   UNL     1     -11.477  15.797  70.261  1.00  0.00    -0.359 C  
HETATM   13  O   UNL     1     -12.431  15.241  71.175  1.00  0.00    -0.314 OA 
HETATM   14  C   UNL     1     -12.489  13.873  71.073  1.00  0.00    -0.377 A  
HETATM   15  C   UNL     1     -11.915  13.159  70.018  1.00  0.00    -0.321 A  
HETATM   16  O   UNL     1     -11.287  13.763  68.958  1.00  0.00    -0.258 OA 
HETATM   17  C   UNL     1     -11.969  11.767  70.009  1.00  0.00    -0.421 A  
HETATM   18  C   UNL     1     -12.637  11.090  71.031  1.00  0.00    -0.512 A  
HETATM   19  C   UNL     1     -13.248  11.807  72.064  1.00  0.00    -0.460 A  
HETATM   20  C   UNL     1     -13.169  13.200  72.086  1.00  0.00    -0.561 A  
ENDBRANCH  10  11
ENDBRANCH   6  10
TORSDOF 2
ENDMDL
MODEL       41
REMARK 921   NORMALIZED FREE ENERGY PREDICTED BY IDOCK:   -5.28 KCAL/MOL
REMARK 922        TOTAL FREE ENERGY PREDICTED BY IDOCK:   -6.03 KCAL/MOL
REMARK 923 INTER-LIGAND FREE ENERGY PREDICTED BY IDOCK:   -5.81 KCAL/MOL
REMARK 924 INTRA-LIGAND FREE ENERGY PREDICTED BY IDOCK:   -0.22 KCAL/MOL
REMARK 927      BINDING AFFINITY PREDICTED BY RF-SCORE:    0.00 PKD
ROOT
HETATM    1  N   UNL     1     -13.342  11.795  71.995  1.00  0.00    -0.486 NA 
HETATM    2  C   UNL     1     -12.830  10.903  71.128  1.00  0.00    -0.409 C  
HETATM    3  H2  UNL     1     -14.172  11.536  72.529  1.00  0.00     0.000 HD 
HETATM    4  H1  UNL     1     -12.935  12.718  72.140  1.00  0.00     0.000 HD 
HETATM    5  N   UNL     1     -13.341   9.740  70.945  1.00  0.00    -0.588 NA 
HETATM    6  N   UNL     1     -11.765  11.374  70.445  1.00  0.00    -0.459 NA 
HETATM    7  H1  UNL     1     -12.952   9.063  70.289  1.00  0.00     0.000 HD 
HETATM    8  H2  UNL     1     -14.171   9.481  71.479  1.00  0.00     0.000 HD 
HETATM    9  H   UNL     1     -11.495  12.352  70.547  1.00  0.00     0.000 HD 
ENDROOT
BRANCH   6  10
HETATM   10  C   UNL     1     -10.994  10.503  69.562  1.00  0.00    -0.264 C  
BRANCH  10  11
HETATM   11  C   UNL     1     -11.325  10.803  68.096  1.00  0.00    -0.308 C  
HETATM   12  C   UNL     1     -10.166  10.401  67.191  1.00  0.00    -0.222 C  
HETATM   13  O   UNL     1     -10.528  10.569  65.814  1.00  0.00    -0.223 OA 
HETATM   14  C   UNL     1     -11.156  11.771  65.600  1.00  0.00    -0.285 A  
HETATM   15  C   UNL     1     -11.638  12.578  66.635  1.00  0.00    -0.380 A  
HETATM   16  O   UNL     1     -11.574  12.218  67.958  1.00  0.00    -0.306 OA 
HETATM   17  C   UNL     1     -12.217  13.811  66.343  1.00  0.00    -0.480 A  
HETATM   18  C   UNL     1     -12.359  14.217  65.016  1.00  0.00    -0.452 A  
HETATM   19  C   UNL     1     -11.917  13.390  63.979  1.00  0.00    -0.520 A  
HETATM   20  C   UNL     1     -11.311  12.167  64.273  1.00  0.00    -0.426 A  
ENDBRANCH  10  11
ENDBRANCH   6  10
TORSDOF 2
ENDMDL
MODEL       42
REMARK 921   NORMALIZED FREE ENERGY PREDICTED BY IDOCK:   -5.27 KCAL/MOL
REMARK 922        TOTAL FREE ENERGY PREDICTED BY IDOCK:   -6.03 KCAL/MOL
REMARK 923 INTER-LIGAND FREE ENERGY PREDICTED BY IDOCK:   -5.61 KCAL/MOL
REMARK 924 INTRA-LIGAND FREE ENERGY PREDICTED BY IDOCK:   -0.42 KCAL/MOL
REMARK 927      BINDING AFFINITY PREDICTED BY RF-SCORE:    0.00 PKD
ROOT
HETATM    1  N   UNL     1     -13.020  12.197  63.508  1.00  0.00    -0.784 NA 
HETATM    2  C   UNL     1     -11.871  12.276  64.202  1.00  0.00    -0.419 C  
HETATM    3  H2  UNL     1     -12.992  12.339  62.498  1.00  0.00     0.000 HD 
HETATM    4  H1  UNL     1     -13.919  12.001  63.949  1.00  0.00     0.000 HD 
HETATM    5  N   UNL     1     -10.741  12.523  63.648  1.00  0.00    -0.443 NA 
HETATM    6  N   UNL     1     -12.040  12.121  65.533  1.00  0.00    -0.514 NA 
HETATM    7  H1  UNL     1      -9.869  12.583  64.174  1.00  0.00     0.000 HD 
HETATM    8  H2  UNL     1     -10.712  12.665  62.638  1.00  0.00     0.000 HD 
HETATM    9  H   UNL     1     -12.983  12.059  65.916  1.00  0.00     0.000 HD 
ENDROOT
BRANCH   6  10
HETATM   10  C   UNL     1     -10.892  12.039  66.431  1.00  0.00    -0.278 C  
BRANCH  10  11
HETATM   11  C   UNL     1     -10.663  13.384  67.128  1.00  0.00    -0.264 C  
HETATM   12  C   UNL     1     -11.994  14.022  67.513  1.00  0.00    -0.395 C  
HETATM   13  O   UNL     1     -11.771  15.218  68.273  1.00  0.00    -0.343 OA 
HETATM   14  C   UNL     1     -10.794  16.000  67.707  1.00  0.00    -0.324 A  
HETATM   15  C   UNL     1      -9.935  15.546  66.703  1.00  0.00    -0.261 A  
HETATM   16  O   UNL     1      -9.955  14.259  66.225  1.00  0.00    -0.284 OA 
HETATM   17  C   UNL     1      -9.002  16.414  66.140  1.00  0.00    -0.367 A  
HETATM   18  C   UNL     1      -8.896  17.722  66.614  1.00  0.00    -0.282 A  
HETATM   19  C   UNL     1      -9.725  18.163  67.649  1.00  0.00    -0.293 A  
HETATM   20  C   UNL     1     -10.679  17.301  68.193  1.00  0.00    -0.363 A  
ENDBRANCH  10  11
ENDBRANCH   6  10
TORSDOF 2
ENDMDL
MODEL       43
REMARK 921   NORMALIZED FREE ENERGY PREDICTED BY IDOCK:   -5.27 KCAL/MOL
REMARK 922        TOTAL FREE ENERGY PREDICTED BY IDOCK:   -6.02 KCAL/MOL
REMARK 923 INTER-LIGAND FREE ENERGY PREDICTED BY IDOCK:   -5.86 KCAL/MOL
REMARK 924 INTRA-LIGAND FREE ENERGY PREDICTED BY IDOCK:   -0.16 KCAL/MOL
REMARK 927      BINDING AFFINITY PREDICTED BY RF-SCORE:    0.00 PKD
ROOT
HETATM    1  N   UNL     1     -11.229  11.337  70.112  1.00  0.00    -0.490 NA 
HETATM    2  C   UNL     1     -11.315  11.958  68.922  1.00  0.00    -0.278 C  
HETATM    3  H2  UNL     1     -11.791  10.499  70.268  1.00  0.00     0.000 HD 
HETATM    4  H1  UNL     1     -10.627  11.669  70.865  1.00  0.00     0.000 HD 
HETATM    5  N   UNL     1     -12.073  11.540  67.974  1.00  0.00    -0.598 NA 
HETATM    6  N   UNL     1     -10.567  13.079  68.850  1.00  0.00    -0.399 NA 
HETATM    7  H1  UNL     1     -12.138  12.010  67.072  1.00  0.00     0.000 HD 
HETATM    8  H2  UNL     1     -12.634  10.702  68.130  1.00  0.00     0.000 HD 
HETATM    9  H   UNL     1     -10.093  13.422  69.686  1.00  0.00     0.000 HD 
ENDROOT
BRANCH   6  10
HETATM   10  C   UNL     1     -10.427  13.809  67.594  1.00  0.00    -0.242 C  
BRANCH  10  11
HETATM   11  C   UNL     1     -10.058  15.271  67.865  1.00  0.00    -0.233 C  
HETATM   12  C   UNL     1     -10.732  15.768  69.140  1.00  0.00    -0.246 C  
HETATM   13  O   UNL     1     -10.286  17.094  69.454  1.00  0.00    -0.290 OA 
HETATM   14  C   UNL     1     -10.283  17.901  68.343  1.00  0.00    -0.394 A  
HETATM   15  C   UNL     1     -10.409  17.412  67.040  1.00  0.00    -0.318 A  
HETATM   16  O   UNL     1     -10.496  16.074  66.747  1.00  0.00    -0.303 OA 
HETATM   17  C   UNL     1     -10.449  18.297  65.965  1.00  0.00    -0.380 A  
HETATM   18  C   UNL     1     -10.317  19.668  66.188  1.00  0.00    -0.627 A  
HETATM   19  C   UNL     1     -10.146  20.154  67.487  1.00  0.00    -0.549 A  
HETATM   20  C   UNL     1     -10.134  19.269  68.567  1.00  0.00    -0.513 A  
ENDBRANCH  10  11
ENDBRANCH   6  10
TORSDOF 2
ENDMDL
MODEL       44
REMARK 921   NORMALIZED FREE ENERGY PREDICTED BY IDOCK:   -5.26 KCAL/MOL
REMARK 922        TOTAL FREE ENERGY PREDICTED BY IDOCK:   -6.02 KCAL/MOL
REMARK 923 INTER-LIGAND FREE ENERGY PREDICTED BY IDOCK:   -5.85 KCAL/MOL
REMARK 924 INTRA-LIGAND FREE ENERGY PREDICTED BY IDOCK:   -0.17 KCAL/MOL
REMARK 927      BINDING AFFINITY PREDICTED BY RF-SCORE:    0.00 PKD
ROOT
HETATM    1  N   UNL     1     -14.019  15.371  70.721  1.00  0.00    -0.859 NA 
HETATM    2  C   UNL     1     -12.699  15.195  70.529  1.00  0.00    -0.368 C  
HETATM    3  H2  UNL     1     -14.334  15.777  71.602  1.00  0.00     0.000 HD 
HETATM    4  H1  UNL     1     -14.716  15.115  70.023  1.00  0.00     0.000 HD 
HETATM    5  N   UNL     1     -11.821  15.517  71.407  1.00  0.00    -0.357 NA 
HETATM    6  N   UNL     1     -12.405  14.605  69.350  1.00  0.00    -0.551 NA 
HETATM    7  H1  UNL     1     -10.820  15.384  71.262  1.00  0.00     0.000 HD 
HETATM    8  H2  UNL     1     -12.136  15.923  72.288  1.00  0.00     0.000 HD 
HETATM    9  H   UNL     1     -13.161  14.257  68.760  1.00  0.00     0.000 HD 
ENDROOT
BRANCH   6  10
HETATM   10  C   UNL     1     -11.022  14.459  68.909  1.00  0.00    -0.255 C  
BRANCH  10  11
HETATM   11  C   UNL     1     -10.973  14.109  67.417  1.00  0.00    -0.299 C  
HETATM   12  C   UNL     1     -12.368  14.173  66.804  1.00  0.00    -0.298 C  
HETATM   13  O   UNL     1     -12.298  13.967  65.387  1.00  0.00    -0.427 OA 
HETATM   14  C   UNL     1     -11.478  12.913  65.070  1.00  0.00    -0.315 A  
HETATM   15  C   UNL     1     -10.603  12.321  65.986  1.00  0.00    -0.254 A  
HETATM   16  O   UNL     1     -10.446  12.773  67.272  1.00  0.00    -0.231 OA 
HETATM   17  C   UNL     1      -9.839  11.219  65.606  1.00  0.00    -0.277 A  
HETATM   18  C   UNL     1      -9.914  10.738  64.298  1.00  0.00    -0.403 A  
HETATM   19  C   UNL     1     -10.756  11.358  63.371  1.00  0.00    -0.405 A  
HETATM   20  C   UNL     1     -11.542  12.444  63.759  1.00  0.00    -0.553 A  
ENDBRANCH  10  11
ENDBRANCH   6  10
TORSDOF 2
ENDMDL
MODEL       45
REMARK 921   NORMALIZED FREE ENERGY PREDICTED BY IDOCK:   -5.26 KCAL/MOL
REMARK 922        TOTAL FREE ENERGY PREDICTED BY IDOCK:   -6.02 KCAL/MOL
REMARK 923 INTER-LIGAND FREE ENERGY PREDICTED BY IDOCK:   -5.88 KCAL/MOL
REMARK 924 INTRA-LIGAND FREE ENERGY PREDICTED BY IDOCK:   -0.13 KCAL/MOL
REMARK 927      BINDING AFFINITY PREDICTED BY RF-SCORE:    0.00 PKD
ROOT
HETATM    1  N   UNL     1     -13.770  15.487  70.796  1.00  0.00    -0.859 NA 
HETATM    2  C   UNL     1     -12.608  15.137  70.217  1.00  0.00    -0.326 C  
HETATM    3  H2  UNL     1     -14.066  14.990  71.636  1.00  0.00     0.000 HD 
HETATM    4  H1  UNL     1     -14.367  16.229  70.430  1.00  0.00     0.000 HD 
HETATM    5  N   UNL     1     -11.856  14.204  70.677  1.00  0.00    -0.444 NA 
HETATM    6  N   UNL     1     -12.345  15.829  69.087  1.00  0.00    -0.539 NA 
HETATM    7  H1  UNL     1     -10.975  13.939  70.238  1.00  0.00     0.000 HD 
HETATM    8  H2  UNL     1     -12.152  13.707  71.517  1.00  0.00     0.000 HD 
HETATM    9  H   UNL     1     -13.050  16.462  68.710  1.00  0.00     0.000 HD 
ENDROOT
BRANCH   6  10
HETATM   10  C   UNL     1     -11.067  15.683  68.398  1.00  0.00    -0.326 C  
BRANCH  10  11
HETATM   11  C   UNL     1     -10.572  17.044  67.898  1.00  0.00    -0.365 C  
HETATM   12  C   UNL     1     -10.379  17.023  66.386  1.00  0.00    -0.303 C  
HETATM   13  O   UNL     1     -10.036  18.332  65.910  1.00  0.00    -0.538 OA 
HETATM   14  C   UNL     1      -9.077  18.919  66.697  1.00  0.00    -0.330 A  
HETATM   15  C   UNL     1      -8.710  18.428  67.953  1.00  0.00    -0.283 A  
HETATM   16  O   UNL     1      -9.313  17.343  68.538  1.00  0.00    -0.268 OA 
HETATM   17  C   UNL     1      -7.691  19.048  68.672  1.00  0.00    -0.378 A  
HETATM   18  C   UNL     1      -7.069  20.186  68.157  1.00  0.00    -0.310 A  
HETATM   19  C   UNL     1      -7.465  20.703  66.920  1.00  0.00    -0.313 A  
HETATM   20  C   UNL     1      -8.468  20.065  66.188  1.00  0.00    -0.302 A  
ENDBRANCH  10  11
ENDBRANCH   6  10
TORSDOF 2
ENDMDL
MODEL       46
REMARK 921   NORMALIZED FREE ENERGY PREDICTED BY IDOCK:   -5.24 KCAL/MOL
REMARK 922        TOTAL FREE ENERGY PREDICTED BY IDOCK:   -5.99 KCAL/MOL
REMARK 923 INTER-LIGAND FREE ENERGY PREDICTED BY IDOCK:   -5.76 KCAL/MOL
REMARK 924 INTRA-LIGAND FREE ENERGY PREDICTED BY IDOCK:   -0.23 KCAL/MOL
REMARK 927      BINDING AFFINITY PREDICTED BY RF-SCORE:    0.00 PKD
ROOT
HETATM    1  N   UNL     1     -12.368  16.347  72.034  1.00  0.00    -0.544 NA 
HETATM    2  C   UNL     1     -12.830  15.565  71.042  1.00  0.00    -0.482 C  
HETATM    3  H2  UNL     1     -13.040  16.846  72.616  1.00  0.00     0.000 HD 
HETATM    4  H1  UNL     1     -11.373  16.461  72.228  1.00  0.00     0.000 HD 
HETATM    5  N   UNL     1     -14.081  15.421  70.797  1.00  0.00    -0.852 NA 
HETATM    6  N   UNL     1     -11.848  14.996  70.309  1.00  0.00    -0.287 NA 
HETATM    7  H1  UNL     1     -14.432  14.829  70.045  1.00  0.00     0.000 HD 
HETATM    8  H2  UNL     1     -14.754  15.921  71.379  1.00  0.00     0.000 HD 
HETATM    9  H   UNL     1     -10.878  15.260  70.479  1.00  0.00     0.000 HD 
ENDROOT
BRANCH   6  10
HETATM   10  C   UNL     1     -12.156  14.009  69.279  1.00  0.00    -0.338 C  
BRANCH  10  11
HETATM   11  C   UNL     1     -11.668  12.621  69.707  1.00  0.00    -0.284 C  
HETATM   12  C   UNL     1     -11.509  11.710  68.494  1.00  0.00    -0.298 C  
HETATM   13  O   UNL     1     -10.935  10.456  68.886  1.00  0.00    -0.219 OA 
HETATM   14  C   UNL     1     -11.532   9.961  70.019  1.00  0.00    -0.217 A  
HETATM   15  C   UNL     1     -12.371  10.721  70.837  1.00  0.00    -0.396 A  
HETATM   16  O   UNL     1     -12.635  12.049  70.613  1.00  0.00    -0.261 OA 
HETATM   17  C   UNL     1     -12.983  10.134  71.943  1.00  0.00    -0.549 A  
HETATM   18  C   UNL     1     -12.720   8.801  72.258  1.00  0.00    -0.466 A  
HETATM   19  C   UNL     1     -11.846   8.053  71.464  1.00  0.00    -0.328 A  
HETATM   20  C   UNL     1     -11.254   8.633  70.340  1.00  0.00    -0.236 A  
ENDBRANCH  10  11
ENDBRANCH   6  10
TORSDOF 2
ENDMDL
MODEL       47
REMARK 921   NORMALIZED FREE ENERGY PREDICTED BY IDOCK:   -5.21 KCAL/MOL
REMARK 922        TOTAL FREE ENERGY PREDICTED BY IDOCK:   -5.96 KCAL/MOL
REMARK 923 INTER-LIGAND FREE ENERGY PREDICTED BY IDOCK:   -5.73 KCAL/MOL
REMARK 924 INTRA-LIGAND FREE ENERGY PREDICTED BY IDOCK:   -0.24 KCAL/MOL
REMARK 927      BINDING AFFINITY PREDICTED BY RF-SCORE:    0.00 PKD
ROOT
HETATM    1  N   UNL     1     -11.480  16.257  63.921  1.00  0.00    -1.539 NA 
HETATM    2  C   UNL     1     -11.989  15.049  64.219  1.00  0.00    -0.295 C  
HETATM    3  H2  UNL     1     -11.565  16.600  62.964  1.00  0.00     0.000 HD 
HETATM    4  H1  UNL     1     -11.015  16.845  64.612  1.00  0.00     0.000 HD 
HETATM    5  N   UNL     1     -12.575  14.308  63.350  1.00  0.00    -1.004 NA 
HETATM    6  N   UNL     1     -11.774  14.681  65.500  1.00  0.00    -0.341 NA 
HETATM    7  H1  UNL     1     -12.961  13.392  63.576  1.00  0.00     0.000 HD 
HETATM    8  H2  UNL     1     -12.659  14.651  62.392  1.00  0.00     0.000 HD 
HETATM    9  H   UNL     1     -11.186  15.261  66.098  1.00  0.00     0.000 HD 
ENDROOT
BRANCH   6  10
HETATM   10  C   UNL     1     -12.372  13.464  66.042  1.00  0.00    -0.413 C  
BRANCH  10  11
HETATM   11  C   UNL     1     -11.286  12.543  66.608  1.00  0.00    -0.307 C  
HETATM   12  C   UNL     1      -9.994  13.319  66.846  1.00  0.00    -0.250 C  
HETATM   13  O   UNL     1      -9.023  12.482  67.489  1.00  0.00    -0.169 OA 
HETATM   14  C   UNL     1      -8.958  11.242  66.904  1.00  0.00    -0.162 A  
HETATM   15  C   UNL     1      -9.917  10.769  66.004  1.00  0.00    -0.242 A  
HETATM   16  O   UNL     1     -11.040  11.481  65.662  1.00  0.00    -0.277 OA 
HETATM   17  C   UNL     1      -9.757   9.519  65.410  1.00  0.00    -0.314 A  
HETATM   18  C   UNL     1      -8.663   8.722  65.750  1.00  0.00    -0.209 A  
HETATM   19  C   UNL     1      -7.727   9.178  66.683  1.00  0.00    -0.097 A  
HETATM   20  C   UNL     1      -7.874  10.441  67.257  1.00  0.00    -0.106 A  
ENDBRANCH  10  11
ENDBRANCH   6  10
TORSDOF 2
ENDMDL
MODEL       48
REMARK 921   NORMALIZED FREE ENERGY PREDICTED BY IDOCK:   -5.21 KCAL/MOL
REMARK 922        TOTAL FREE ENERGY PREDICTED BY IDOCK:   -5.96 KCAL/MOL
REMARK 923 INTER-LIGAND FREE ENERGY PREDICTED BY IDOCK:   -5.84 KCAL/MOL
REMARK 924 INTRA-LIGAND FREE ENERGY PREDICTED BY IDOCK:   -0.12 KCAL/MOL
REMARK 927      BINDING AFFINITY PREDICTED BY RF-SCORE:    0.00 PKD
ROOT
HETATM    1  N   UNL     1     -10.470  19.943  69.172  1.00  0.00    -0.553 NA 
HETATM    2  C   UNL     1     -10.185  19.622  67.897  1.00  0.00    -0.448 C  
HETATM    3  H2  UNL     1     -10.446  20.926  69.445  1.00  0.00     0.000 HD 
HETATM    4  H1  UNL     1     -10.710  19.245  69.876  1.00  0.00     0.000 HD 
HETATM    5  N   UNL     1      -9.884  20.500  67.011  1.00  0.00    -0.551 NA 
HETATM    6  N   UNL     1     -10.201  18.292  67.665  1.00  0.00    -0.362 NA 
HETATM    7  H1  UNL     1      -9.669  20.258  66.044  1.00  0.00     0.000 HD 
HETATM    8  H2  UNL     1      -9.860  21.483  67.285  1.00  0.00     0.000 HD 
HETATM    9  H   UNL     1     -10.319  17.647  68.446  1.00  0.00     0.000 HD 
ENDROOT
BRANCH   6  10
HETATM   10  C   UNL     1     -10.051  17.764  66.313  1.00  0.00    -0.344 C  
BRANCH  10  11
HETATM   11  C   UNL     1     -10.294  16.251  66.301  1.00  0.00    -0.326 C  
HETATM   12  C   UNL     1      -8.970  15.495  66.279  1.00  0.00    -0.327 C  
HETATM   13  O   UNL     1      -9.202  14.084  66.393  1.00  0.00    -0.246 OA 
HETATM   14  C   UNL     1     -10.219  13.672  65.569  1.00  0.00    -0.302 A  
HETATM   15  C   UNL     1     -11.099  14.555  64.937  1.00  0.00    -0.394 A  
HETATM   16  O   UNL     1     -11.059  15.914  65.124  1.00  0.00    -0.363 OA 
HETATM   17  C   UNL     1     -12.076  14.066  64.073  1.00  0.00    -0.413 A  
HETATM   18  C   UNL     1     -12.204  12.690  63.876  1.00  0.00    -0.565 A  
HETATM   19  C   UNL     1     -11.353  11.804  64.542  1.00  0.00    -0.349 A  
HETATM   20  C   UNL     1     -10.356  12.297  65.386  1.00  0.00    -0.298 A  
ENDBRANCH  10  11
ENDBRANCH   6  10
TORSDOF 2
ENDMDL
MODEL       49
REMARK 921   NORMALIZED FREE ENERGY PREDICTED BY IDOCK:   -5.17 KCAL/MOL
REMARK 922        TOTAL FREE ENERGY PREDICTED BY IDOCK:   -5.92 KCAL/MOL
REMARK 923 INTER-LIGAND FREE ENERGY PREDICTED BY IDOCK:   -5.77 KCAL/MOL
REMARK 924 INTRA-LIGAND FREE ENERGY PREDICTED BY IDOCK:   -0.15 KCAL/MOL
REMARK 927      BINDING AFFINITY PREDICTED BY RF-SCORE:    0.00 PKD
ROOT
HETATM    1  N   UNL     1     -12.338   6.542  72.100  1.00  0.00    -0.516 NA 
HETATM    2  C   UNL     1     -11.501   7.475  71.613  1.00  0.00    -0.261 C  
HETATM    3  H2  UNL     1     -11.962   5.825  72.721  1.00  0.00     0.000 HD 
HETATM    4  H1  UNL     1     -13.333   6.522  71.876  1.00  0.00     0.000 HD 
HETATM    5  N   UNL     1     -10.250   7.501  71.896  1.00  0.00    -0.186 NA 
HETATM    6  N   UNL     1     -12.101   8.339  70.766  1.00  0.00    -0.490 NA 
HETATM    7  H1  UNL     1      -9.615   8.209  71.527  1.00  0.00     0.000 HD 
HETATM    8  H2  UNL     1      -9.874   6.784  72.517  1.00  0.00     0.000 HD 
HETATM    9  H   UNL     1     -13.068   8.179  70.485  1.00  0.00     0.000 HD 
ENDROOT
BRANCH   6  10
HETATM   10  C   UNL     1     -11.384   9.500  70.247  1.00  0.00    -0.236 C  
BRANCH  10  11
HETATM   11  C   UNL     1     -11.797  10.765  71.007  1.00  0.00    -0.247 C  
HETATM   12  C   UNL     1     -13.176  10.590  71.634  1.00  0.00    -0.391 C  
HETATM   13  O   UNL     1     -13.503  11.727  72.444  1.00  0.00    -0.326 OA 
HETATM   14  C   UNL     1     -13.206  12.904  71.804  1.00  0.00    -0.384 A  
HETATM   15  C   UNL     1     -12.420  12.972  70.650  1.00  0.00    -0.268 A  
HETATM   16  O   UNL     1     -11.829  11.872  70.080  1.00  0.00    -0.329 OA 
HETATM   17  C   UNL     1     -12.205  14.198  70.026  1.00  0.00    -0.418 A  
HETATM   18  C   UNL     1     -12.736  15.364  70.580  1.00  0.00    -0.490 A  
HETATM   19  C   UNL     1     -13.486  15.301  71.758  1.00  0.00    -0.558 A  
HETATM   20  C   UNL     1     -13.724  14.068  72.368  1.00  0.00    -0.669 A  
ENDBRANCH  10  11
ENDBRANCH   6  10
TORSDOF 2
ENDMDL
MODEL       50
REMARK 921   NORMALIZED FREE ENERGY PREDICTED BY IDOCK:   -5.14 KCAL/MOL
REMARK 922        TOTAL FREE ENERGY PREDICTED BY IDOCK:   -5.88 KCAL/MOL
REMARK 923 INTER-LIGAND FREE ENERGY PREDICTED BY IDOCK:   -5.64 KCAL/MOL
REMARK 924 INTRA-LIGAND FREE ENERGY PREDICTED BY IDOCK:   -0.24 KCAL/MOL
REMARK 927      BINDING AFFINITY PREDICTED BY RF-SCORE:    0.00 PKD
ROOT
HETATM    1  N   UNL     1     -11.491   6.534  67.421  1.00  0.00    -0.731 NA 
HETATM    2  C   UNL     1     -10.514   7.362  67.011  1.00  0.00    -0.333 C  
HETATM    3  H2  UNL     1     -11.568   5.615  66.983  1.00  0.00     0.000 HD 
HETATM    4  H1  UNL     1     -12.157   6.785  68.150  1.00  0.00     0.000 HD 
HETATM    5  N   UNL     1      -9.675   7.046  66.093  1.00  0.00    -0.410 NA 
HETATM    6  N   UNL     1     -10.542   8.565  67.625  1.00  0.00    -0.416 NA 
HETATM    7  H1  UNL     1      -8.934   7.674  65.783  1.00  0.00     0.000 HD 
HETATM    8  H2  UNL     1      -9.752   6.128  65.655  1.00  0.00     0.000 HD 
HETATM    9  H   UNL     1     -11.316   8.793  68.248  1.00  0.00     0.000 HD 
ENDROOT
BRANCH   6  10
HETATM   10  C   UNL     1      -9.479   9.542  67.410  1.00  0.00    -0.135 C  
BRANCH  10  11
HETATM   11  C   UNL     1     -10.075  10.909  67.057  1.00  0.00    -0.205 C  
HETATM   12  C   UNL     1     -11.296  11.202  67.922  1.00  0.00    -0.309 C  
HETATM   13  O   UNL     1     -11.775  12.531  67.674  1.00  0.00    -0.340 OA 
HETATM   14  C   UNL     1     -11.828  12.804  66.330  1.00  0.00    -0.408 A  
HETATM   15  C   UNL     1     -11.218  12.004  65.360  1.00  0.00    -0.322 A  
HETATM   16  O   UNL     1     -10.464  10.899  65.667  1.00  0.00    -0.249 OA 
HETATM   17  C   UNL     1     -11.360  12.316  64.010  1.00  0.00    -0.469 A  
HETATM   18  C   UNL     1     -12.073  13.455  63.631  1.00  0.00    -0.513 A  
HETATM   19  C   UNL     1     -12.646  14.279  64.603  1.00  0.00    -0.277 A  
HETATM   20  C   UNL     1     -12.527  13.950  65.954  1.00  0.00    -0.519 A  
ENDBRANCH  10  11
ENDBRANCH   6  10
TORSDOF 2
ENDMDL
MODEL       51
REMARK 921   NORMALIZED FREE ENERGY PREDICTED BY IDOCK:   -5.12 KCAL/MOL
REMARK 922        TOTAL FREE ENERGY PREDICTED BY IDOCK:   -5.86 KCAL/MOL
REMARK 923 INTER-LIGAND FREE ENERGY PREDICTED BY IDOCK:   -5.70 KCAL/MOL
REMARK 924 INTRA-LIGAND FREE ENERGY PREDICTED BY IDOCK:   -0.16 KCAL/MOL
REMARK 927      BINDING AFFINITY PREDICTED BY RF-SCORE:    0.00 PKD
ROOT
HETATM    1  N   UNL     1     -11.002   7.589  67.348  1.00  0.00    -0.555 NA 
HETATM    2  C   UNL     1     -10.454   8.817  67.358  1.00  0.00    -0.279 C  
HETATM    3  H2  UNL     1     -10.609   6.884  66.723  1.00  0.00     0.000 HD 
HETATM    4  H1  UNL     1     -11.794   7.334  67.937  1.00  0.00     0.000 HD 
HETATM    5  N   UNL     1      -9.457   9.139  66.616  1.00  0.00    -0.170 NA 
HETATM    6  N   UNL     1     -11.087   9.677  68.184  1.00  0.00    -0.504 NA 
HETATM    7  H1  UNL     1      -9.041  10.070  66.624  1.00  0.00     0.000 HD 
HETATM    8  H2  UNL     1      -9.064   8.434  65.992  1.00  0.00     0.000 HD 
HETATM    9  H   UNL     1     -11.951   9.389  68.643  1.00  0.00     0.000 HD 
ENDROOT
BRANCH   6  10
HETATM   10  C   UNL     1     -10.552  11.013  68.431  1.00  0.00    -0.193 C  
BRANCH  10  11
HETATM   11  C   UNL     1     -11.177  11.612  69.695  1.00  0.00    -0.177 C  
HETATM   12  C   UNL     1     -12.383  10.792  70.139  1.00  0.00    -0.325 C  
HETATM   13  O   UNL     1     -12.887  11.284  71.388  1.00  0.00    -0.406 OA 
HETATM   14  C   UNL     1     -12.974  12.654  71.391  1.00  0.00    -0.258 A  
HETATM   15  C   UNL     1     -12.373  13.463  70.423  1.00  0.00    -0.312 A  
HETATM   16  O   UNL     1     -11.596  12.964  69.408  1.00  0.00    -0.285 OA 
HETATM   17  C   UNL     1     -12.549  14.844  70.462  1.00  0.00    -0.414 A  
HETATM   18  C   UNL     1     -13.287  15.422  71.496  1.00  0.00    -0.586 A  
HETATM   19  C   UNL     1     -13.852  14.617  72.489  1.00  0.00    -0.561 A  
HETATM   20  C   UNL     1     -13.698  13.230  72.434  1.00  0.00    -0.678 A  
ENDBRANCH  10  11
ENDBRANCH   6  10
TORSDOF 2
ENDMDL
MODEL       52
REMARK 921   NORMALIZED FREE ENERGY PREDICTED BY IDOCK:   -5.10 KCAL/MOL
REMARK 922        TOTAL FREE ENERGY PREDICTED BY IDOCK:   -5.84 KCAL/MOL
REMARK 923 INTER-LIGAND FREE ENERGY PREDICTED BY IDOCK:   -5.55 KCAL/MOL
REMARK 924 INTRA-LIGAND FREE ENERGY PREDICTED BY IDOCK:   -0.29 KCAL/MOL
REMARK 927      BINDING AFFINITY PREDICTED BY RF-SCORE:    0.00 PKD
ROOT
HETATM    1  N   UNL     1      -7.016  20.350  65.092  1.00  0.00    -0.458 NA 
HETATM    2  C   UNL     1      -7.827  20.461  66.159  1.00  0.00    -0.069 C  
HETATM    3  H2  UNL     1      -6.032  20.598  65.199  1.00  0.00     0.000 HD 
HETATM    4  H1  UNL     1      -7.343  20.029  64.181  1.00  0.00     0.000 HD 
HETATM    5  N   UNL     1      -7.416  20.865  67.305  1.00  0.00    -0.475 NA 
HETATM    6  N   UNL     1      -9.113  20.154  65.885  1.00  0.00    -0.538 NA 
HETATM    7  H1  UNL     1      -8.031  20.949  68.114  1.00  0.00     0.000 HD 
HETATM    8  H2  UNL     1      -6.432  21.113  67.412  1.00  0.00     0.000 HD 
HETATM    9  H   UNL     1      -9.391  19.968  64.922  1.00  0.00     0.000 HD 
ENDROOT
BRANCH   6  10
HETATM   10  C   UNL     1     -10.111  20.084  66.948  1.00  0.00    -0.467 C  
BRANCH  10  11
HETATM   11  C   UNL     1     -10.600  18.642  67.126  1.00  0.00    -0.417 C  
HETATM   12  C   UNL     1      -9.966  18.008  68.360  1.00  0.00    -0.378 C  
HETATM   13  O   UNL     1     -10.520  16.706  68.590  1.00  0.00    -0.281 OA 
HETATM   14  C   UNL     1     -10.595  15.977  67.430  1.00  0.00    -0.316 A  
HETATM   15  C   UNL     1     -10.433  16.539  66.160  1.00  0.00    -0.294 A  
HETATM   16  O   UNL     1     -10.235  17.882  65.955  1.00  0.00    -0.530 OA 
HETATM   17  C   UNL     1     -10.471  15.727  65.029  1.00  0.00    -0.331 A  
HETATM   18  C   UNL     1     -10.718  14.360  65.163  1.00  0.00    -0.413 A  
HETATM   19  C   UNL     1     -10.924  13.805  66.429  1.00  0.00    -0.298 A  
HETATM   20  C   UNL     1     -10.858  14.615  67.564  1.00  0.00    -0.286 A  
ENDBRANCH  10  11
ENDBRANCH   6  10
TORSDOF 2
ENDMDL
MODEL       53
REMARK 921   NORMALIZED FREE ENERGY PREDICTED BY IDOCK:   -5.10 KCAL/MOL
REMARK 922        TOTAL FREE ENERGY PREDICTED BY IDOCK:   -5.84 KCAL/MOL
REMARK 923 INTER-LIGAND FREE ENERGY PREDICTED BY IDOCK:   -5.68 KCAL/MOL
REMARK 924 INTRA-LIGAND FREE ENERGY PREDICTED BY IDOCK:   -0.15 KCAL/MOL
REMARK 927      BINDING AFFINITY PREDICTED BY RF-SCORE:    0.00 PKD
ROOT
HETATM    1  N   UNL     1      -7.854  19.336  68.309  1.00  0.00    -0.306 NA 
HETATM    2  C   UNL     1      -8.691  18.555  67.604  1.00  0.00    -0.267 C  
HETATM    3  H2  UNL     1      -7.416  20.130  67.841  1.00  0.00     0.000 HD 
HETATM    4  H1  UNL     1      -7.639  19.168  69.291  1.00  0.00     0.000 HD 
HETATM    5  N   UNL     1      -8.963  18.766  66.367  1.00  0.00    -0.364 NA 
HETATM    6  N   UNL     1      -9.170  17.510  68.312  1.00  0.00    -0.269 NA 
HETATM    7  H1  UNL     1      -9.598  18.174  65.833  1.00  0.00     0.000 HD 
HETATM    8  H2  UNL     1      -8.525  19.560  65.899  1.00  0.00     0.000 HD 
HETATM    9  H   UNL     1      -8.809  17.330  69.249  1.00  0.00     0.000 HD 
ENDROOT
BRANCH   6  10
HETATM   10  C   UNL     1     -10.197  16.634  67.757  1.00  0.00    -0.292 C  
BRANCH  10  11
HETATM   11  C   UNL     1     -10.715  15.671  68.832  1.00  0.00    -0.238 C  
HETATM   12  C   UNL     1     -11.859  14.823  68.287  1.00  0.00    -0.284 C  
HETATM   13  O   UNL     1     -12.256  13.842  69.255  1.00  0.00    -0.346 OA 
HETATM   14  C   UNL     1     -12.368  14.388  70.509  1.00  0.00    -0.345 A  
HETATM   15  C   UNL     1     -11.874  15.652  70.842  1.00  0.00    -0.388 A  
HETATM   16  O   UNL     1     -11.184  16.444  69.958  1.00  0.00    -0.348 OA 
HETATM   17  C   UNL     1     -12.072  16.162  72.123  1.00  0.00    -0.593 A  
HETATM   18  C   UNL     1     -12.723  15.390  73.086  1.00  0.00    -0.593 A  
HETATM   19  C   UNL     1     -13.179  14.108  72.766  1.00  0.00    -0.604 A  
HETATM   20  C   UNL     1     -13.004  13.609  71.474  1.00  0.00    -0.443 A  
ENDBRANCH  10  11
ENDBRANCH   6  10
TORSDOF 2
ENDMDL
MODEL       54
REMARK 921   NORMALIZED FREE ENERGY PREDICTED BY IDOCK:   -5.08 KCAL/MOL
REMARK 922        TOTAL FREE ENERGY PREDICTED BY IDOCK:   -5.81 KCAL/MOL
REMARK 923 INTER-LIGAND FREE ENERGY PREDICTED BY IDOCK:   -5.59 KCAL/MOL
REMARK 924 INTRA-LIGAND FREE ENERGY PREDICTED BY IDOCK:   -0.22 KCAL/MOL
REMARK 927      BINDING AFFINITY PREDICTED BY RF-SCORE:    0.00 PKD
ROOT
HETATM    1  N   UNL     1     -11.495  16.268  63.918  1.00  0.00    -1.539 NA 
HETATM    2  C   UNL     1     -11.933  15.032  64.217  1.00  0.00    -0.295 C  
HETATM    3  H2  UNL     1     -11.584  16.599  62.957  1.00  0.00     0.000 HD 
HETATM    4  H1  UNL     1     -11.077  16.888  64.612  1.00  0.00     0.000 HD 
HETATM    5  N   UNL     1     -12.459  14.252  63.344  1.00  0.00    -1.101 NA 
HETATM    6  N   UNL     1     -11.717  14.687  65.504  1.00  0.00    -0.341 NA 
HETATM    7  H1  UNL     1     -12.791  13.315  63.571  1.00  0.00     0.000 HD 
HETATM    8  H2  UNL     1     -12.548  14.583  62.383  1.00  0.00     0.000 HD 
HETATM    9  H   UNL     1     -11.176  15.306  66.107  1.00  0.00     0.000 HD 
ENDROOT
BRANCH   6  10
HETATM   10  C   UNL     1     -12.248  13.439  66.046  1.00  0.00    -0.437 C  
BRANCH  10  11
HETATM   11  C   UNL     1     -11.115  12.584  66.624  1.00  0.00    -0.283 C  
HETATM   12  C   UNL     1     -11.545  11.942  67.939  1.00  0.00    -0.323 C  
HETATM   13  O   UNL     1     -10.528  11.047  68.411  1.00  0.00    -0.165 OA 
HETATM   14  C   UNL     1      -9.279  11.610  68.320  1.00  0.00    -0.187 A  
HETATM   15  C   UNL     1      -9.014  12.773  67.591  1.00  0.00    -0.191 A  
HETATM   16  O   UNL     1      -9.969  13.430  66.855  1.00  0.00    -0.241 OA 
HETATM   17  C   UNL     1      -7.731  13.315  67.587  1.00  0.00    -0.171 A  
HETATM   18  C   UNL     1      -6.701  12.670  68.274  1.00  0.00    -0.081 A  
HETATM   19  C   UNL     1      -6.957  11.483  68.967  1.00  0.00    -0.112 A  
HETATM   20  C   UNL     1      -8.249  10.956  68.993  1.00  0.00    -0.126 A  
ENDBRANCH  10  11
ENDBRANCH   6  10
TORSDOF 2
ENDMDL
MODEL       55
REMARK 921   NORMALIZED FREE ENERGY PREDICTED BY IDOCK:   -5.07 KCAL/MOL
REMARK 922        TOTAL FREE ENERGY PREDICTED BY IDOCK:   -5.81 KCAL/MOL
REMARK 923 INTER-LIGAND FREE ENERGY PREDICTED BY IDOCK:   -5.61 KCAL/MOL
REMARK 924 INTRA-LIGAND FREE ENERGY PREDICTED BY IDOCK:   -0.20 KCAL/MOL
REMARK 927      BINDING AFFINITY PREDICTED BY RF-SCORE:    0.00 PKD
ROOT
HETATM    1  N   UNL     1     -11.174   7.841  69.547  1.00  0.00    -0.446 NA 
HETATM    2  C   UNL     1     -10.980   9.097  69.985  1.00  0.00    -0.220 C  
HETATM    3  H2  UNL     1     -10.538   7.109  69.864  1.00  0.00     0.000 HD 
HETATM    4  H1  UNL     1     -11.930   7.590  68.910  1.00  0.00     0.000 HD 
HETATM    5  N   UNL     1     -10.029   9.414  70.787  1.00  0.00    -0.284 NA 
HETATM    6  N   UNL     1     -11.851   9.986  69.460  1.00  0.00    -0.472 NA 
HETATM    7  H1  UNL     1      -9.882  10.367  71.119  1.00  0.00     0.000 HD 
HETATM    8  H2  UNL     1      -9.393   8.683  71.104  1.00  0.00     0.000 HD 
HETATM    9  H   UNL     1     -12.496   9.686  68.729  1.00  0.00     0.000 HD 
ENDROOT
BRANCH   6  10
HETATM   10  C   UNL     1     -11.882  11.370  69.923  1.00  0.00    -0.359 C  
BRANCH  10  11
HETATM   11  C   UNL     1     -11.405  12.314  68.815  1.00  0.00    -0.289 C  
HETATM   12  C   UNL     1     -11.643  13.768  69.208  1.00  0.00    -0.312 C  
HETATM   13  O   UNL     1     -11.084  14.648  68.223  1.00  0.00    -0.253 OA 
HETATM   14  C   UNL     1     -11.396  14.242  66.949  1.00  0.00    -0.343 A  
HETATM   15  C   UNL     1     -11.927  12.984  66.655  1.00  0.00    -0.387 A  
HETATM   16  O   UNL     1     -12.139  12.018  67.607  1.00  0.00    -0.547 OA 
HETATM   17  C   UNL     1     -12.268  12.661  65.343  1.00  0.00    -0.517 A  
HETATM   18  C   UNL     1     -12.033  13.579  64.318  1.00  0.00    -0.479 A  
HETATM   19  C   UNL     1     -11.461  14.821  64.607  1.00  0.00    -0.381 A  
HETATM   20  C   UNL     1     -11.145  15.154  65.925  1.00  0.00    -0.319 A  
ENDBRANCH  10  11
ENDBRANCH   6  10
TORSDOF 2
ENDMDL
MODEL       56
REMARK 921   NORMALIZED FREE ENERGY PREDICTED BY IDOCK:   -5.06 KCAL/MOL
REMARK 922        TOTAL FREE ENERGY PREDICTED BY IDOCK:   -5.79 KCAL/MOL
REMARK 923 INTER-LIGAND FREE ENERGY PREDICTED BY IDOCK:   -5.59 KCAL/MOL
REMARK 924 INTRA-LIGAND FREE ENERGY PREDICTED BY IDOCK:   -0.20 KCAL/MOL
REMARK 927      BINDING AFFINITY PREDICTED BY RF-SCORE:    0.00 PKD
ROOT
HETATM    1  N   UNL     1     -12.896  14.068  64.927  1.00  0.00    -0.716 NA 
HETATM    2  C   UNL     1     -11.964  13.889  65.881  1.00  0.00    -0.407 C  
HETATM    3  H2  UNL     1     -12.665  13.815  63.966  1.00  0.00     0.000 HD 
HETATM    4  H1  UNL     1     -13.822  14.444  65.125  1.00  0.00     0.000 HD 
HETATM    5  N   UNL     1     -10.798  13.415  65.632  1.00  0.00    -0.280 NA 
HETATM    6  N   UNL     1     -12.364  14.304  67.102  1.00  0.00    -0.586 NA 
HETATM    7  H1  UNL     1     -10.092  13.279  66.355  1.00  0.00     0.000 HD 
HETATM    8  H2  UNL     1     -10.567  13.163  64.671  1.00  0.00     0.000 HD 
HETATM    9  H   UNL     1     -13.255  14.791  67.200  1.00  0.00     0.000 HD 
ENDROOT
BRANCH   6  10
HETATM   10  C   UNL     1     -11.541  14.064  68.283  1.00  0.00    -0.329 C  
BRANCH  10  11
HETATM   11  C   UNL     1     -12.140  12.936  69.130  1.00  0.00    -0.168 C  
HETATM   12  C   UNL     1     -12.400  13.414  70.555  1.00  0.00    -0.329 C  
HETATM   13  O   UNL     1     -13.072  12.394  71.307  1.00  0.00    -0.274 OA 
HETATM   14  C   UNL     1     -12.499  11.162  71.110  1.00  0.00    -0.393 A  
HETATM   15  C   UNL     1     -11.582  10.898  70.090  1.00  0.00    -0.338 A  
HETATM   16  O   UNL     1     -11.209  11.833  69.157  1.00  0.00    -0.236 OA 
HETATM   17  C   UNL     1     -11.003   9.635  69.984  1.00  0.00    -0.297 A  
HETATM   18  C   UNL     1     -11.375   8.623  70.870  1.00  0.00    -0.314 A  
HETATM   19  C   UNL     1     -12.325   8.876  71.864  1.00  0.00    -0.445 A  
HETATM   20  C   UNL     1     -12.884  10.149  71.986  1.00  0.00    -0.472 A  
ENDBRANCH  10  11
ENDBRANCH   6  10
TORSDOF 2
ENDMDL
MODEL       57
REMARK 921   NORMALIZED FREE ENERGY PREDICTED BY IDOCK:   -5.05 KCAL/MOL
REMARK 922        TOTAL FREE ENERGY PREDICTED BY IDOCK:   -5.78 KCAL/MOL
REMARK 923 INTER-LIGAND FREE ENERGY PREDICTED BY IDOCK:   -5.64 KCAL/MOL
REMARK 924 INTRA-LIGAND FREE ENERGY PREDICTED BY IDOCK:   -0.14 KCAL/MOL
REMARK 927      BINDING AFFINITY PREDICTED BY RF-SCORE:    0.00 PKD
ROOT
HETATM    1  N   UNL     1     -10.603  16.789  65.338  1.00  0.00    -0.596 NA 
HETATM    2  C   UNL     1     -11.099  15.809  64.561  1.00  0.00    -0.277 C  
HETATM    3  H2  UNL     1     -11.056  17.704  65.318  1.00  0.00     0.000 HD 
HETATM    4  H1  UNL     1      -9.795  16.656  65.945  1.00  0.00     0.000 HD 
HETATM    5  N   UNL     1     -12.116  15.976  63.797  1.00  0.00    -1.255 NA 
HETATM    6  N   UNL     1     -10.390  14.662  64.633  1.00  0.00    -0.508 NA 
HETATM    7  H1  UNL     1     -12.492  15.233  63.208  1.00  0.00     0.000 HD 
HETATM    8  H2  UNL     1     -12.569  16.890  63.778  1.00  0.00     0.000 HD 
HETATM    9  H   UNL     1      -9.517  14.643  65.159  1.00  0.00     0.000 HD 
ENDROOT
BRANCH   6  10
HETATM   10  C   UNL     1     -10.855  13.449  63.967  1.00  0.00    -0.184 C  
BRANCH  10  11
HETATM   11  C   UNL     1     -10.218  12.212  64.607  1.00  0.00    -0.284 C  
HETATM   12  C   UNL     1     -10.256  11.029  63.645  1.00  0.00    -0.372 C  
HETATM   13  O   UNL     1      -9.550   9.912  64.201  1.00  0.00    -0.264 OA 
HETATM   14  C   UNL     1      -9.880   9.711  65.518  1.00  0.00    -0.281 A  
HETATM   15  C   UNL     1     -10.578  10.649  66.284  1.00  0.00    -0.161 A  
HETATM   16  O   UNL     1     -10.952  11.879  65.805  1.00  0.00    -0.293 OA 
HETATM   17  C   UNL     1     -10.924  10.353  67.601  1.00  0.00    -0.374 A  
HETATM   18  C   UNL     1     -10.532   9.139  68.167  1.00  0.00    -0.260 A  
HETATM   19  C   UNL     1      -9.796   8.220  67.414  1.00  0.00    -0.246 A  
HETATM   20  C   UNL     1      -9.474   8.506  66.087  1.00  0.00    -0.286 A  
ENDBRANCH  10  11
ENDBRANCH   6  10
TORSDOF 2
ENDMDL
MODEL       58
REMARK 921   NORMALIZED FREE ENERGY PREDICTED BY IDOCK:   -5.05 KCAL/MOL
REMARK 922        TOTAL FREE ENERGY PREDICTED BY IDOCK:   -5.78 KCAL/MOL
REMARK 923 INTER-LIGAND FREE ENERGY PREDICTED BY IDOCK:   -5.62 KCAL/MOL
REMARK 924 INTRA-LIGAND FREE ENERGY PREDICTED BY IDOCK:   -0.16 KCAL/MOL
REMARK 927      BINDING AFFINITY PREDICTED BY RF-SCORE:    0.00 PKD
ROOT
HETATM    1  N   UNL     1     -13.111  15.954  70.460  1.00  0.00    -0.719 NA 
HETATM    2  C   UNL     1     -13.510  15.095  71.414  1.00  0.00    -0.481 C  
HETATM    3  H2  UNL     1     -13.278  16.951  70.599  1.00  0.00     0.000 HD 
HETATM    4  H1  UNL     1     -12.649  15.651  69.603  1.00  0.00     0.000 HD 
HETATM    5  N   UNL     1     -14.092  15.476  72.493  1.00  0.00    -0.550 NA 
HETATM    6  N   UNL     1     -13.281  13.802  71.098  1.00  0.00    -0.254 NA 
HETATM    7  H1  UNL     1     -14.394  14.825  73.217  1.00  0.00     0.000 HD 
HETATM    8  H2  UNL     1     -14.259  16.473  72.632  1.00  0.00     0.000 HD 
HETATM    9  H   UNL     1     -12.936  13.566  70.168  1.00  0.00     0.000 HD 
ENDROOT
BRANCH   6  10
HETATM   10  C   UNL     1     -13.521  12.738  72.069  1.00  0.00    -0.444 C  
BRANCH  10  11
HETATM   11  C   UNL     1     -12.613  11.538  71.779  1.00  0.00    -0.119 C  
HETATM   12  C   UNL     1     -12.043  11.624  70.368  1.00  0.00    -0.373 C  
HETATM   13  O   UNL     1     -11.099  10.567  70.147  1.00  0.00    -0.285 OA 
HETATM   14  C   UNL     1     -11.576   9.362  70.602  1.00  0.00    -0.269 A  
HETATM   15  C   UNL     1     -12.695   9.245  71.431  1.00  0.00    -0.330 A  
HETATM   16  O   UNL     1     -13.389  10.328  71.910  1.00  0.00    -0.415 OA 
HETATM   17  C   UNL     1     -13.151   7.985  71.811  1.00  0.00    -0.360 A  
HETATM   18  C   UNL     1     -12.462   6.843  71.400  1.00  0.00    -0.413 A  
HETATM   19  C   UNL     1     -11.318   6.962  70.606  1.00  0.00    -0.366 A  
HETATM   20  C   UNL     1     -10.877   8.224  70.204  1.00  0.00    -0.237 A  
ENDBRANCH  10  11
ENDBRANCH   6  10
TORSDOF 2
ENDMDL
MODEL       59
REMARK 921   NORMALIZED FREE ENERGY PREDICTED BY IDOCK:   -5.04 KCAL/MOL
REMARK 922        TOTAL FREE ENERGY PREDICTED BY IDOCK:   -5.77 KCAL/MOL
REMARK 923 INTER-LIGAND FREE ENERGY PREDICTED BY IDOCK:   -5.58 KCAL/MOL
REMARK 924 INTRA-LIGAND FREE ENERGY PREDICTED BY IDOCK:   -0.19 KCAL/MOL
REMARK 927      BINDING AFFINITY PREDICTED BY RF-SCORE:    0.00 PKD
ROOT
HETATM    1  N   UNL     1      -9.705  20.195  66.358  1.00  0.00    -0.542 NA 
HETATM    2  C   UNL     1     -10.120  19.494  67.428  1.00  0.00    -0.406 C  
HETATM    3  H2  UNL     1      -9.702  21.214  66.413  1.00  0.00     0.000 HD 
HETATM    4  H1  UNL     1      -9.394  19.752  65.495  1.00  0.00     0.000 HD 
HETATM    5  N   UNL     1     -10.512  20.052  68.515  1.00  0.00    -0.458 NA 
HETATM    6  N   UNL     1     -10.128  18.159  67.221  1.00  0.00    -0.330 NA 
HETATM    7  H1  UNL     1     -10.826  19.520  69.326  1.00  0.00     0.000 HD 
HETATM    8  H2  UNL     1     -10.509  21.071  68.570  1.00  0.00     0.000 HD 
HETATM    9  H   UNL     1      -9.929  17.794  66.289  1.00  0.00     0.000 HD 
ENDROOT
BRANCH   6  10
HETATM   10  C   UNL     1     -10.416  17.232  68.311  1.00  0.00    -0.385 C  
BRANCH  10  11
HETATM   11  C   UNL     1     -11.057  15.952  67.765  1.00  0.00    -0.288 C  
HETATM   12  C   UNL     1     -10.291  14.722  68.243  1.00  0.00    -0.238 C  
HETATM   13  O   UNL     1     -10.966  13.525  67.833  1.00  0.00    -0.245 OA 
HETATM   14  C   UNL     1     -11.364  13.595  66.521  1.00  0.00    -0.319 A  
HETATM   15  C   UNL     1     -11.373  14.783  65.785  1.00  0.00    -0.336 A  
HETATM   16  O   UNL     1     -11.034  16.000  66.323  1.00  0.00    -0.218 OA 
HETATM   17  C   UNL     1     -11.740  14.768  64.442  1.00  0.00    -0.347 A  
HETATM   18  C   UNL     1     -12.144  13.572  63.845  1.00  0.00    -0.493 A  
HETATM   19  C   UNL     1     -12.177  12.392  64.593  1.00  0.00    -0.499 A  
HETATM   20  C   UNL     1     -11.782  12.403  65.932  1.00  0.00    -0.476 A  
ENDBRANCH  10  11
ENDBRANCH   6  10
TORSDOF 2
ENDMDL
MODEL       60
REMARK 921   NORMALIZED FREE ENERGY PREDICTED BY IDOCK:   -5.02 KCAL/MOL
REMARK 922        TOTAL FREE ENERGY PREDICTED BY IDOCK:   -5.75 KCAL/MOL
REMARK 923 INTER-LIGAND FREE ENERGY PREDICTED BY IDOCK:   -5.56 KCAL/MOL
REMARK 924 INTRA-LIGAND FREE ENERGY PREDICTED BY IDOCK:   -0.18 KCAL/MOL
REMARK 927      BINDING AFFINITY PREDICTED BY RF-SCORE:    0.00 PKD
ROOT
HETATM    1  N   UNL     1     -10.351  13.846  64.918  1.00  0.00    -0.481 NA 
HETATM    2  C   UNL     1     -10.077  12.784  65.696  1.00  0.00    -0.270 C  
HETATM    3  H2  UNL     1      -9.940  13.888  63.985  1.00  0.00     0.000 HD 
HETATM    4  H1  UNL     1     -10.953  14.611  65.222  1.00  0.00     0.000 HD 
HETATM    5  N   UNL     1      -9.319  11.821  65.314  1.00  0.00    -0.410 NA 
HETATM    6  N   UNL     1     -10.636  12.862  66.923  1.00  0.00    -0.252 NA 
HETATM    7  H1  UNL     1      -9.111  11.015  65.904  1.00  0.00     0.000 HD 
HETATM    8  H2  UNL     1      -8.908  11.862  64.382  1.00  0.00     0.000 HD 
HETATM    9  H   UNL     1     -11.116  13.717  67.203  1.00  0.00     0.000 HD 
ENDROOT
BRANCH   6  10
HETATM   10  C   UNL     1     -10.562  11.741  67.854  1.00  0.00    -0.201 C  
BRANCH  10  11
HETATM   11  C   UNL     1     -11.111  12.150  69.225  1.00  0.00    -0.167 C  
HETATM   12  C   UNL     1     -12.201  11.184  69.677  1.00  0.00    -0.290 C  
HETATM   13  O   UNL     1     -12.624  11.499  71.011  1.00  0.00    -0.383 OA 
HETATM   14  C   UNL     1     -12.819  12.848  71.173  1.00  0.00    -0.238 A  
HETATM   15  C   UNL     1     -12.377  13.802  70.252  1.00  0.00    -0.337 A  
HETATM   16  O   UNL     1     -11.661  13.481  69.125  1.00  0.00    -0.269 OA 
HETATM   17  C   UNL     1     -12.657  15.150  70.458  1.00  0.00    -0.429 A  
HETATM   18  C   UNL     1     -13.339  15.551  71.608  1.00  0.00    -0.585 A  
HETATM   19  C   UNL     1     -13.742  14.601  72.551  1.00  0.00    -0.572 A  
HETATM   20  C   UNL     1     -13.485  13.247  72.330  1.00  0.00    -0.679 A  
ENDBRANCH  10  11
ENDBRANCH   6  10
TORSDOF 2
ENDMDL
MODEL       61
REMARK 921   NORMALIZED FREE ENERGY PREDICTED BY IDOCK:   -5.00 KCAL/MOL
REMARK 922        TOTAL FREE ENERGY PREDICTED BY IDOCK:   -5.73 KCAL/MOL
REMARK 923 INTER-LIGAND FREE ENERGY PREDICTED BY IDOCK:   -5.55 KCAL/MOL
REMARK 924 INTRA-LIGAND FREE ENERGY PREDICTED BY IDOCK:   -0.18 KCAL/MOL
REMARK 927      BINDING AFFINITY PREDICTED BY RF-SCORE:    0.00 PKD
ROOT
HETATM    1  N   UNL     1      -7.702  20.740  66.702  1.00  0.00    -0.545 NA 
HETATM    2  C   UNL     1      -8.362  19.897  67.516  1.00  0.00    -0.324 C  
HETATM    3  H2  UNL     1      -6.743  20.997  66.938  1.00  0.00     0.000 HD 
HETATM    4  H1  UNL     1      -8.120  21.132  65.858  1.00  0.00     0.000 HD 
HETATM    5  N   UNL     1      -7.836  19.403  68.578  1.00  0.00    -0.344 NA 
HETATM    6  N   UNL     1      -9.635  19.669  67.130  1.00  0.00    -0.330 NA 
HETATM    7  H1  UNL     1      -8.336  18.764  69.195  1.00  0.00     0.000 HD 
HETATM    8  H2  UNL     1      -6.877  19.661  68.814  1.00  0.00     0.000 HD 
HETATM    9  H   UNL     1     -10.026  20.198  66.351  1.00  0.00     0.000 HD 
ENDROOT
BRANCH   6  10
HETATM   10  C   UNL     1     -10.460  18.676  67.812  1.00  0.00    -0.411 C  
BRANCH  10  11
HETATM   11  C   UNL     1     -10.327  17.312  67.128  1.00  0.00    -0.321 C  
HETATM   12  C   UNL     1     -10.775  17.394  65.672  1.00  0.00    -0.111 C  
HETATM   13  O   UNL     1     -10.533  16.148  65.005  1.00  0.00    -0.595 OA 
HETATM   14  C   UNL     1     -10.937  15.081  65.768  1.00  0.00    -0.350 A  
HETATM   15  C   UNL     1     -11.260  15.187  67.124  1.00  0.00    -0.320 A  
HETATM   16  O   UNL     1     -11.153  16.359  67.830  1.00  0.00    -0.326 OA 
HETATM   17  C   UNL     1     -11.713  14.069  67.820  1.00  0.00    -0.403 A  
HETATM   18  C   UNL     1     -11.799  12.835  67.175  1.00  0.00    -0.415 A  
HETATM   19  C   UNL     1     -11.434  12.720  65.831  1.00  0.00    -0.399 A  
HETATM   20  C   UNL     1     -11.006  13.846  65.126  1.00  0.00    -0.352 A  
ENDBRANCH  10  11
ENDBRANCH   6  10
TORSDOF 2
ENDMDL
MODEL       62
REMARK 921   NORMALIZED FREE ENERGY PREDICTED BY IDOCK:   -4.95 KCAL/MOL
REMARK 922        TOTAL FREE ENERGY PREDICTED BY IDOCK:   -5.67 KCAL/MOL
REMARK 923 INTER-LIGAND FREE ENERGY PREDICTED BY IDOCK:   -5.46 KCAL/MOL
REMARK 924 INTRA-LIGAND FREE ENERGY PREDICTED BY IDOCK:   -0.21 KCAL/MOL
REMARK 927      BINDING AFFINITY PREDICTED BY RF-SCORE:    0.00 PKD
ROOT
HETATM    1  N   UNL     1     -10.980   6.003  69.442  1.00  0.00    -0.367 NA 
HETATM    2  C   UNL     1     -10.990   6.909  68.448  1.00  0.00    -0.132 C  
HETATM    3  H2  UNL     1     -11.239   5.040  69.227  1.00  0.00     0.000 HD 
HETATM    4  H1  UNL     1     -10.724   6.239  70.400  1.00  0.00     0.000 HD 
HETATM    5  N   UNL     1     -11.311   6.613  67.242  1.00  0.00    -0.783 NA 
HETATM    6  N   UNL     1     -10.678   8.157  68.860  1.00  0.00    -0.403 NA 
HETATM    7  H1  UNL     1     -11.318   7.300  66.488  1.00  0.00     0.000 HD 
HETATM    8  H2  UNL     1     -11.571   5.650  67.027  1.00  0.00     0.000 HD 
HETATM    9  H   UNL     1     -10.562   8.343  69.857  1.00  0.00     0.000 HD 
ENDROOT
BRANCH   6  10
HETATM   10  C   UNL     1     -10.504   9.243  67.901  1.00  0.00    -0.236 C  
BRANCH  10  11
HETATM   11  C   UNL     1     -11.231  10.502  68.383  1.00  0.00    -0.279 C  
HETATM   12  C   UNL     1     -10.305  11.713  68.325  1.00  0.00    -0.200 C  
HETATM   13  O   UNL     1     -11.026  12.907  68.659  1.00  0.00    -0.244 OA 
HETATM   14  C   UNL     1     -11.817  12.725  69.766  1.00  0.00    -0.310 A  
HETATM   15  C   UNL     1     -12.103  11.468  70.305  1.00  0.00    -0.359 A  
HETATM   16  O   UNL     1     -11.663  10.294  69.746  1.00  0.00    -0.240 OA 
HETATM   17  C   UNL     1     -12.872  11.365  71.462  1.00  0.00    -0.508 A  
HETATM   18  C   UNL     1     -13.393  12.516  72.055  1.00  0.00    -0.528 A  
HETATM   19  C   UNL     1     -13.143  13.770  71.491  1.00  0.00    -0.435 A  
HETATM   20  C   UNL     1     -12.350  13.874  70.347  1.00  0.00    -0.433 A  
ENDBRANCH  10  11
ENDBRANCH   6  10
TORSDOF 2
ENDMDL
MODEL       63
REMARK 921   NORMALIZED FREE ENERGY PREDICTED BY IDOCK:   -4.94 KCAL/MOL
REMARK 922        TOTAL FREE ENERGY PREDICTED BY IDOCK:   -5.66 KCAL/MOL
REMARK 923 INTER-LIGAND FREE ENERGY PREDICTED BY IDOCK:   -5.49 KCAL/MOL
REMARK 924 INTRA-LIGAND FREE ENERGY PREDICTED BY IDOCK:   -0.17 KCAL/MOL
REMARK 927      BINDING AFFINITY PREDICTED BY RF-SCORE:    0.00 PKD
ROOT
HETATM    1  N   UNL     1     -13.734   9.379  72.413  1.00  0.00    -0.625 NA 
HETATM    2  C   UNL     1     -12.666   9.922  71.803  1.00  0.00    -0.428 C  
HETATM    3  H2  UNL     1     -13.599   8.544  72.983  1.00  0.00     0.000 HD 
HETATM    4  H1  UNL     1     -14.674   9.767  72.329  1.00  0.00     0.000 HD 
HETATM    5  N   UNL     1     -11.484   9.435  71.909  1.00  0.00    -0.333 NA 
HETATM    6  N   UNL     1     -12.974  10.992  71.038  1.00  0.00    -0.326 NA 
HETATM    7  H1  UNL     1     -10.673   9.847  71.447  1.00  0.00     0.000 HD 
HETATM    8  H2  UNL     1     -11.348   8.599  72.479  1.00  0.00     0.000 HD 
HETATM    9  H   UNL     1     -13.953  11.243  70.896  1.00  0.00     0.000 HD 
ENDROOT
BRANCH   6  10
HETATM   10  C   UNL     1     -11.928  11.793  70.411  1.00  0.00    -0.332 C  
BRANCH  10  11
HETATM   11  C   UNL     1     -11.688  11.324  68.972  1.00  0.00    -0.342 C  
HETATM   12  C   UNL     1     -10.223  10.952  68.766  1.00  0.00    -0.196 C  
HETATM   13  O   UNL     1     -10.030  10.398  67.457  1.00  0.00    -0.171 OA 
HETATM   14  C   UNL     1     -10.672  11.139  66.496  1.00  0.00    -0.260 A  
HETATM   15  C   UNL     1     -11.623  12.119  66.793  1.00  0.00    -0.345 A  
HETATM   16  O   UNL     1     -12.042  12.395  68.071  1.00  0.00    -0.398 OA 
HETATM   17  C   UNL     1     -12.195  12.868  65.767  1.00  0.00    -0.498 A  
HETATM   18  C   UNL     1     -11.850  12.606  64.440  1.00  0.00    -0.452 A  
HETATM   19  C   UNL     1     -10.931  11.596  64.140  1.00  0.00    -0.442 A  
HETATM   20  C   UNL     1     -10.339  10.865  65.171  1.00  0.00    -0.344 A  
ENDBRANCH  10  11
ENDBRANCH   6  10
TORSDOF 2
ENDMDL
MODEL       64
REMARK 921   NORMALIZED FREE ENERGY PREDICTED BY IDOCK:   -4.94 KCAL/MOL
REMARK 922        TOTAL FREE ENERGY PREDICTED BY IDOCK:   -5.66 KCAL/MOL
REMARK 923 INTER-LIGAND FREE ENERGY PREDICTED BY IDOCK:   -5.54 KCAL/MOL
REMARK 924 INTRA-LIGAND FREE ENERGY PREDICTED BY IDOCK:   -0.12 KCAL/MOL
REMARK 927      BINDING AFFINITY PREDICTED BY RF-SCORE:    0.00 PKD
ROOT
HETATM    1  N   UNL     1      -7.814  20.020  65.525  1.00  0.00    -0.485 NA 
HETATM    2  C   UNL     1      -8.986  19.704  66.105  1.00  0.00    -0.334 C  
HETATM    3  H2  UNL     1      -7.602  21.004  65.358  1.00  0.00     0.000 HD 
HETATM    4  H1  UNL     1      -7.130  19.318  65.246  1.00  0.00     0.000 HD 
HETATM    5  N   UNL     1      -9.847  20.588  66.456  1.00  0.00    -0.618 NA 
HETATM    6  N   UNL     1      -9.178  18.373  66.230  1.00  0.00    -0.453 NA 
HETATM    7  H1  UNL     1     -10.736  20.348  66.896  1.00  0.00     0.000 HD 
HETATM    8  H2  UNL     1      -9.635  21.572  66.289  1.00  0.00     0.000 HD 
HETATM    9  H   UNL     1      -8.509  17.728  65.809  1.00  0.00     0.000 HD 
ENDROOT
BRANCH   6  10
HETATM   10  C   UNL     1     -10.327  17.846  66.958  1.00  0.00    -0.362 C  
BRANCH  10  11
HETATM   11  C   UNL     1     -10.272  16.315  67.005  1.00  0.00    -0.280 C  
HETATM   12  C   UNL     1     -10.776  15.718  65.695  1.00  0.00    -0.348 C  
HETATM   13  O   UNL     1     -10.606  14.295  65.699  1.00  0.00    -0.293 OA 
HETATM   14  C   UNL     1     -11.017  13.741  66.886  1.00  0.00    -0.290 A  
HETATM   15  C   UNL     1     -11.280  14.495  68.033  1.00  0.00    -0.292 A  
HETATM   16  O   UNL     1     -11.102  15.855  68.093  1.00  0.00    -0.317 OA 
HETATM   17  C   UNL     1     -11.744  13.868  69.187  1.00  0.00    -0.382 A  
HETATM   18  C   UNL     1     -11.901  12.482  69.210  1.00  0.00    -0.360 A  
HETATM   19  C   UNL     1     -11.596  11.723  68.077  1.00  0.00    -0.386 A  
HETATM   20  C   UNL     1     -11.157  12.355  66.912  1.00  0.00    -0.335 A  
ENDBRANCH  10  11
ENDBRANCH   6  10
TORSDOF 2
ENDMDL
MODEL       65
REMARK 921   NORMALIZED FREE ENERGY PREDICTED BY IDOCK:   -4.93 KCAL/MOL
REMARK 922        TOTAL FREE ENERGY PREDICTED BY IDOCK:   -5.65 KCAL/MOL
REMARK 923 INTER-LIGAND FREE ENERGY PREDICTED BY IDOCK:   -5.47 KCAL/MOL
REMARK 924 INTRA-LIGAND FREE ENERGY PREDICTED BY IDOCK:   -0.18 KCAL/MOL
REMARK 927      BINDING AFFINITY PREDICTED BY RF-SCORE:    0.00 PKD
ROOT
HETATM    1  N   UNL     1     -11.341  12.544  63.195  1.00  0.00    -0.747 NA 
HETATM    2  C   UNL     1     -10.650  11.406  63.387  1.00  0.00    -0.368 C  
HETATM    3  H2  UNL     1     -11.569  12.821  62.240  1.00  0.00     0.000 HD 
HETATM    4  H1  UNL     1     -11.645  13.140  63.964  1.00  0.00     0.000 HD 
HETATM    5  N   UNL     1     -10.267  10.655  62.420  1.00  0.00    -0.678 NA 
HETATM    6  N   UNL     1     -10.363  11.168  64.685  1.00  0.00    -0.309 NA 
HETATM    7  H1  UNL     1      -9.743   9.792  62.565  1.00  0.00     0.000 HD 
HETATM    8  H2  UNL     1     -10.495  10.932  61.465  1.00  0.00     0.000 HD 
HETATM    9  H   UNL     1     -10.585  11.875  65.386  1.00  0.00     0.000 HD 
ENDROOT
BRANCH   6  10
HETATM   10  C   UNL     1      -9.741   9.914  65.099  1.00  0.00    -0.306 C  
BRANCH  10  11
HETATM   11  C   UNL     1      -9.830   9.752  66.620  1.00  0.00    -0.215 C  
HETATM   12  C   UNL     1     -10.163   8.310  66.988  1.00  0.00    -0.310 C  
HETATM   13  O   UNL     1     -10.123   8.137  68.411  1.00  0.00    -0.188 OA 
HETATM   14  C   UNL     1     -10.770   9.158  69.061  1.00  0.00    -0.153 A  
HETATM   15  C   UNL     1     -11.150  10.348  68.433  1.00  0.00    -0.268 A  
HETATM   16  O   UNL     1     -10.864  10.626  67.120  1.00  0.00    -0.274 OA 
HETATM   17  C   UNL     1     -11.850  11.318  69.146  1.00  0.00    -0.423 A  
HETATM   18  C   UNL     1     -12.131  11.121  70.498  1.00  0.00    -0.474 A  
HETATM   19  C   UNL     1     -11.713   9.950  71.138  1.00  0.00    -0.478 A  
HETATM   20  C   UNL     1     -11.035   8.966  70.416  1.00  0.00    -0.275 A  
ENDBRANCH  10  11
ENDBRANCH   6  10
TORSDOF 2
ENDMDL
MODEL       66
REMARK 921   NORMALIZED FREE ENERGY PREDICTED BY IDOCK:   -4.90 KCAL/MOL
REMARK 922        TOTAL FREE ENERGY PREDICTED BY IDOCK:   -5.62 KCAL/MOL
REMARK 923 INTER-LIGAND FREE ENERGY PREDICTED BY IDOCK:   -5.46 KCAL/MOL
REMARK 924 INTRA-LIGAND FREE ENERGY PREDICTED BY IDOCK:   -0.16 KCAL/MOL
REMARK 927      BINDING AFFINITY PREDICTED BY RF-SCORE:    0.00 PKD
ROOT
HETATM    1  N   UNL     1     -13.669  15.560  70.925  1.00  0.00    -0.844 NA 
HETATM    2  C   UNL     1     -12.846  14.857  70.126  1.00  0.00    -0.154 C  
HETATM    3  H2  UNL     1     -13.923  16.509  70.649  1.00  0.00     0.000 HD 
HETATM    4  H1  UNL     1     -14.048  15.185  71.793  1.00  0.00     0.000 HD 
HETATM    5  N   UNL     1     -12.368  15.329  69.033  1.00  0.00    -0.602 NA 
HETATM    6  N   UNL     1     -12.541  13.636  70.617  1.00  0.00    -0.319 NA 
HETATM    7  H1  UNL     1     -11.745  14.796  68.427  1.00  0.00     0.000 HD 
HETATM    8  H2  UNL     1     -12.623  16.278  68.757  1.00  0.00     0.000 HD 
HETATM    9  H   UNL     1     -12.851  13.380  71.554  1.00  0.00     0.000 HD 
ENDROOT
BRANCH   6  10
HETATM   10  C   UNL     1     -11.773  12.680  69.825  1.00  0.00    -0.284 C  
BRANCH  10  11
HETATM   11  C   UNL     1     -12.233  11.249  70.126  1.00  0.00    -0.330 C  
HETATM   12  C   UNL     1     -12.888  11.173  71.501  1.00  0.00    -0.437 C  
HETATM   13  O   UNL     1     -13.425   9.863  71.725  1.00  0.00    -0.382 OA 
HETATM   14  C   UNL     1     -12.537   8.884  71.355  1.00  0.00    -0.300 A  
HETATM   15  C   UNL     1     -11.394   9.136  70.590  1.00  0.00    -0.273 A  
HETATM   16  O   UNL     1     -11.082  10.377  70.095  1.00  0.00    -0.280 OA 
HETATM   17  C   UNL     1     -10.510   8.100  70.298  1.00  0.00    -0.219 A  
HETATM   18  C   UNL     1     -10.792   6.802  70.729  1.00  0.00    -0.291 A  
HETATM   19  C   UNL     1     -11.957   6.543  71.456  1.00  0.00    -0.383 A  
HETATM   20  C   UNL     1     -12.828   7.587  71.772  1.00  0.00    -0.359 A  
ENDBRANCH  10  11
ENDBRANCH   6  10
TORSDOF 2
ENDMDL
MODEL       67
REMARK 921   NORMALIZED FREE ENERGY PREDICTED BY IDOCK:   -4.90 KCAL/MOL
REMARK 922        TOTAL FREE ENERGY PREDICTED BY IDOCK:   -5.61 KCAL/MOL
REMARK 923 INTER-LIGAND FREE ENERGY PREDICTED BY IDOCK:   -5.43 KCAL/MOL
REMARK 924 INTRA-LIGAND FREE ENERGY PREDICTED BY IDOCK:   -0.18 KCAL/MOL
REMARK 927      BINDING AFFINITY PREDICTED BY RF-SCORE:    0.00 PKD
ROOT
HETATM    1  N   UNL     1     -12.563   9.409  70.998  1.00  0.00    -0.464 NA 
HETATM    2  C   UNL     1     -12.636  10.741  71.165  1.00  0.00    -0.428 C  
HETATM    3  H2  UNL     1     -13.135   8.810  71.593  1.00  0.00     0.000 HD 
HETATM    4  H1  UNL     1     -11.959   8.973  70.301  1.00  0.00     0.000 HD 
HETATM    5  N   UNL     1     -13.396  11.290  72.041  1.00  0.00    -0.524 NA 
HETATM    6  N   UNL     1     -11.799  11.427  70.357  1.00  0.00    -0.409 NA 
HETATM    7  H1  UNL     1     -13.452  12.301  72.168  1.00  0.00     0.000 HD 
HETATM    8  H2  UNL     1     -13.968  10.691  72.637  1.00  0.00     0.000 HD 
HETATM    9  H   UNL     1     -11.130  10.919  69.779  1.00  0.00     0.000 HD 
ENDROOT
BRANCH   6  10
HETATM   10  C   UNL     1     -11.839  12.885  70.299  1.00  0.00    -0.213 C  
BRANCH  10  11
HETATM   11  C   UNL     1     -12.087  13.355  68.862  1.00  0.00    -0.252 C  
HETATM   12  C   UNL     1     -11.862  12.213  67.877  1.00  0.00    -0.269 C  
HETATM   13  O   UNL     1     -12.215  12.625  66.549  1.00  0.00    -0.538 OA 
HETATM   14  C   UNL     1     -11.710  13.867  66.256  1.00  0.00    -0.383 A  
HETATM   15  C   UNL     1     -11.185  14.729  67.223  1.00  0.00    -0.346 A  
HETATM   16  O   UNL     1     -11.173  14.433  68.563  1.00  0.00    -0.243 OA 
HETATM   17  C   UNL     1     -10.643  15.954  66.843  1.00  0.00    -0.309 A  
HETATM   18  C   UNL     1     -10.668  16.340  65.502  1.00  0.00    -0.326 A  
HETATM   19  C   UNL     1     -11.232  15.497  64.540  1.00  0.00    -0.327 A  
HETATM   20  C   UNL     1     -11.750  14.257  64.918  1.00  0.00    -0.399 A  
ENDBRANCH  10  11
ENDBRANCH   6  10
TORSDOF 2
ENDMDL
MODEL       68
REMARK 921   NORMALIZED FREE ENERGY PREDICTED BY IDOCK:   -4.87 KCAL/MOL
REMARK 922        TOTAL FREE ENERGY PREDICTED BY IDOCK:   -5.58 KCAL/MOL
REMARK 923 INTER-LIGAND FREE ENERGY PREDICTED BY IDOCK:   -5.36 KCAL/MOL
REMARK 924 INTRA-LIGAND FREE ENERGY PREDICTED BY IDOCK:   -0.22 KCAL/MOL
REMARK 927      BINDING AFFINITY PREDICTED BY RF-SCORE:    0.00 PKD
ROOT
HETATM    1  N   UNL     1      -8.060  12.604  66.876  1.00  0.00    -0.381 NA 
HETATM    2  C   UNL     1      -8.602  13.831  66.972  1.00  0.00    -0.166 C  
HETATM    3  H2  UNL     1      -7.044  12.521  66.829  1.00  0.00     0.000 HD 
HETATM    4  H1  UNL     1      -8.621  11.754  66.848  1.00  0.00     0.000 HD 
HETATM    5  N   UNL     1      -7.895  14.902  67.007  1.00  0.00    -0.316 NA 
HETATM    6  N   UNL     1      -9.952  13.819  66.977  1.00  0.00    -0.246 NA 
HETATM    7  H1  UNL     1      -8.306  15.832  67.080  1.00  0.00     0.000 HD 
HETATM    8  H2  UNL     1      -6.879  14.819  66.960  1.00  0.00     0.000 HD 
HETATM    9  H   UNL     1     -10.447  12.943  66.813  1.00  0.00     0.000 HD 
ENDROOT
BRANCH   6  10
HETATM   10  C   UNL     1     -10.713  15.042  67.212  1.00  0.00    -0.298 C  
BRANCH  10  11
HETATM   11  C   UNL     1     -11.730  14.829  68.338  1.00  0.00    -0.314 C  
HETATM   12  C   UNL     1     -11.602  15.922  69.393  1.00  0.00    -0.349 C  
HETATM   13  O   UNL     1     -12.636  15.787  70.378  1.00  0.00    -0.402 OA 
HETATM   14  C   UNL     1     -12.780  14.483  70.782  1.00  0.00    -0.360 A  
HETATM   15  C   UNL     1     -12.204  13.404  70.107  1.00  0.00    -0.315 A  
HETATM   16  O   UNL     1     -11.484  13.543  68.947  1.00  0.00    -0.263 OA 
HETATM   17  C   UNL     1     -12.351  12.112  70.607  1.00  0.00    -0.385 A  
HETATM   18  C   UNL     1     -13.112  11.893  71.756  1.00  0.00    -0.465 A  
HETATM   19  C   UNL     1     -13.724  12.968  72.407  1.00  0.00    -0.593 A  
HETATM   20  C   UNL     1     -13.554  14.265  71.920  1.00  0.00    -0.501 A  
ENDBRANCH  10  11
ENDBRANCH   6  10
TORSDOF 2
ENDMDL
MODEL       69
REMARK 921   NORMALIZED FREE ENERGY PREDICTED BY IDOCK:   -4.85 KCAL/MOL
REMARK 922        TOTAL FREE ENERGY PREDICTED BY IDOCK:   -5.56 KCAL/MOL
REMARK 923 INTER-LIGAND FREE ENERGY PREDICTED BY IDOCK:   -5.20 KCAL/MOL
REMARK 924 INTRA-LIGAND FREE ENERGY PREDICTED BY IDOCK:   -0.37 KCAL/MOL
REMARK 927      BINDING AFFINITY PREDICTED BY RF-SCORE:    0.00 PKD
ROOT
HETATM    1  N   UNL     1     -14.372   9.134  73.069  1.00  0.00    -1.093 NA 
HETATM    2  C   UNL     1     -13.734   8.326  72.204  1.00  0.00    -0.282 C  
HETATM    3  H2  UNL     1     -15.313   9.454  72.836  1.00  0.00     0.000 HD 
HETATM    4  H1  UNL     1     -13.954   9.441  73.947  1.00  0.00     0.000 HD 
HETATM    5  N   UNL     1     -14.259   7.939  71.098  1.00  0.00    -0.664 NA 
HETATM    6  N   UNL     1     -12.481   8.009  72.594  1.00  0.00    -0.593 NA 
HETATM    7  H1  UNL     1     -13.776   7.326  70.443  1.00  0.00     0.000 HD 
HETATM    8  H2  UNL     1     -15.200   8.259  70.866  1.00  0.00     0.000 HD 
HETATM    9  H   UNL     1     -12.082   8.459  73.418  1.00  0.00     0.000 HD 
ENDROOT
BRANCH   6  10
HETATM   10  C   UNL     1     -11.688   7.034  71.852  1.00  0.00    -0.296 C  
BRANCH  10  11
HETATM   11  C   UNL     1     -10.573   7.737  71.070  1.00  0.00    -0.213 C  
HETATM   12  C   UNL     1      -9.867   8.765  71.948  1.00  0.00    -0.324 C  
HETATM   13  O   UNL     1      -8.748   9.330  71.251  1.00  0.00    -0.301 OA 
HETATM   14  C   UNL     1      -9.075   9.666  69.961  1.00  0.00    -0.237 A  
HETATM   15  C   UNL     1     -10.247   9.239  69.332  1.00  0.00    -0.210 A  
HETATM   16  O   UNL     1     -11.156   8.400  69.928  1.00  0.00    -0.216 OA 
HETATM   17  C   UNL     1     -10.537   9.663  68.037  1.00  0.00    -0.292 A  
HETATM   18  C   UNL     1      -9.633  10.477  67.353  1.00  0.00    -0.181 A  
HETATM   19  C   UNL     1      -8.439  10.869  67.967  1.00  0.00    -0.130 A  
HETATM   20  C   UNL     1      -8.163  10.465  69.274  1.00  0.00    -0.163 A  
ENDBRANCH  10  11
ENDBRANCH   6  10
TORSDOF 2
ENDMDL
MODEL       70
REMARK 921   NORMALIZED FREE ENERGY PREDICTED BY IDOCK:   -4.85 KCAL/MOL
REMARK 922        TOTAL FREE ENERGY PREDICTED BY IDOCK:   -5.56 KCAL/MOL
REMARK 923 INTER-LIGAND FREE ENERGY PREDICTED BY IDOCK:   -5.40 KCAL/MOL
REMARK 924 INTRA-LIGAND FREE ENERGY PREDICTED BY IDOCK:   -0.16 KCAL/MOL
REMARK 927      BINDING AFFINITY PREDICTED BY RF-SCORE:    0.00 PKD
ROOT
HETATM    1  N   UNL     1      -9.685   8.987  66.165  1.00  0.00    -0.274 NA 
HETATM    2  C   UNL     1     -10.367   8.837  67.315  1.00  0.00    -0.290 C  
HETATM    3  H2  UNL     1      -9.638   8.199  65.518  1.00  0.00     0.000 HD 
HETATM    4  H1  UNL     1      -9.213   9.855  65.914  1.00  0.00     0.000 HD 
HETATM    5  N   UNL     1     -10.962   7.744  67.632  1.00  0.00    -0.517 NA 
HETATM    6  N   UNL     1     -10.318   9.926  68.111  1.00  0.00    -0.183 NA 
HETATM    7  H1  UNL     1     -11.479   7.630  68.503  1.00  0.00     0.000 HD 
HETATM    8  H2  UNL     1     -10.915   6.957  66.985  1.00  0.00     0.000 HD 
HETATM    9  H   UNL     1      -9.718  10.710  67.854  1.00  0.00     0.000 HD 
ENDROOT
BRANCH   6  10
HETATM   10  C   UNL     1     -11.111   9.998  69.334  1.00  0.00    -0.223 C  
BRANCH  10  11
HETATM   11  C   UNL     1     -11.810  11.358  69.436  1.00  0.00    -0.351 C  
HETATM   12  C   UNL     1     -10.869  12.480  69.012  1.00  0.00    -0.137 C  
HETATM   13  O   UNL     1     -11.565  13.733  68.992  1.00  0.00    -0.267 OA 
HETATM   14  C   UNL     1     -12.338  13.899  70.114  1.00  0.00    -0.334 A  
HETATM   15  C   UNL     1     -12.632  12.861  71.002  1.00  0.00    -0.287 A  
HETATM   16  O   UNL     1     -12.219  11.567  70.805  1.00  0.00    -0.374 OA 
HETATM   17  C   UNL     1     -13.380  13.116  72.149  1.00  0.00    -0.621 A  
HETATM   18  C   UNL     1     -13.874  14.400  72.385  1.00  0.00    -0.595 A  
HETATM   19  C   UNL     1     -13.616  15.429  71.475  1.00  0.00    -0.604 A  
HETATM   20  C   UNL     1     -12.843  15.178  70.340  1.00  0.00    -0.346 A  
ENDBRANCH  10  11
ENDBRANCH   6  10
TORSDOF 2
ENDMDL
MODEL       71
REMARK 921   NORMALIZED FREE ENERGY PREDICTED BY IDOCK:   -4.83 KCAL/MOL
REMARK 922        TOTAL FREE ENERGY PREDICTED BY IDOCK:   -5.54 KCAL/MOL
REMARK 923 INTER-LIGAND FREE ENERGY PREDICTED BY IDOCK:   -5.40 KCAL/MOL
REMARK 924 INTRA-LIGAND FREE ENERGY PREDICTED BY IDOCK:   -0.14 KCAL/MOL
REMARK 927      BINDING AFFINITY PREDICTED BY RF-SCORE:    0.00 PKD
ROOT
HETATM    1  N   UNL     1     -10.319  11.002  62.931  1.00  0.00    -0.770 NA 
HETATM    2  C   UNL     1      -9.775  10.816  64.146  1.00  0.00    -0.309 C  
HETATM    3  H2  UNL     1      -9.703  11.029  62.118  1.00  0.00     0.000 HD 
HETATM    4  H1  UNL     1     -11.322  11.116  62.788  1.00  0.00     0.000 HD 
HETATM    5  N   UNL     1      -8.512  10.672  64.327  1.00  0.00    -0.329 NA 
HETATM    6  N   UNL     1     -10.680  10.847  65.147  1.00  0.00    -0.197 NA 
HETATM    7  H1  UNL     1      -8.099  10.531  65.248  1.00  0.00     0.000 HD 
HETATM    8  H2  UNL     1      -7.896  10.700  63.514  1.00  0.00     0.000 HD 
HETATM    9  H   UNL     1     -11.648  11.097  64.943  1.00  0.00     0.000 HD 
ENDROOT
BRANCH   6  10
HETATM   10  C   UNL     1     -10.294  10.528  66.519  1.00  0.00    -0.233 C  
BRANCH  10  11
HETATM   11  C   UNL     1     -11.132  11.342  67.511  1.00  0.00    -0.286 C  
HETATM   12  C   UNL     1     -10.408  12.627  67.898  1.00  0.00    -0.218 C  
HETATM   13  O   UNL     1     -11.247  13.441  68.728  1.00  0.00    -0.248 OA 
HETATM   14  C   UNL     1     -11.859  12.699  69.707  1.00  0.00    -0.309 A  
HETATM   15  C   UNL     1     -11.890  11.302  69.704  1.00  0.00    -0.360 A  
HETATM   16  O   UNL     1     -11.355  10.543  68.693  1.00  0.00    -0.263 OA 
HETATM   17  C   UNL     1     -12.485  10.616  70.760  1.00  0.00    -0.480 A  
HETATM   18  C   UNL     1     -13.091  11.326  71.798  1.00  0.00    -0.527 A  
HETATM   19  C   UNL     1     -13.098  12.724  71.779  1.00  0.00    -0.455 A  
HETATM   20  C   UNL     1     -12.478  13.410  70.734  1.00  0.00    -0.418 A  
ENDBRANCH  10  11
ENDBRANCH   6  10
TORSDOF 2
ENDMDL
MODEL       72
REMARK 921   NORMALIZED FREE ENERGY PREDICTED BY IDOCK:   -4.83 KCAL/MOL
REMARK 922        TOTAL FREE ENERGY PREDICTED BY IDOCK:   -5.54 KCAL/MOL
REMARK 923 INTER-LIGAND FREE ENERGY PREDICTED BY IDOCK:   -5.36 KCAL/MOL
REMARK 924 INTRA-LIGAND FREE ENERGY PREDICTED BY IDOCK:   -0.18 KCAL/MOL
REMARK 927      BINDING AFFINITY PREDICTED BY RF-SCORE:    0.00 PKD
ROOT
HETATM    1  N   UNL     1     -13.184  11.888  72.111  1.00  0.00    -0.508 NA 
HETATM    2  C   UNL     1     -13.424  13.202  71.961  1.00  0.00    -0.507 C  
HETATM    3  H2  UNL     1     -13.814  11.341  72.699  1.00  0.00     0.000 HD 
HETATM    4  H1  UNL     1     -12.400  11.415  71.662  1.00  0.00     0.000 HD 
HETATM    5  N   UNL     1     -14.411  13.798  72.526  1.00  0.00    -0.658 NA 
HETATM    6  N   UNL     1     -12.498  13.830  71.204  1.00  0.00    -0.366 NA 
HETATM    7  H1  UNL     1     -14.592  14.794  72.412  1.00  0.00     0.000 HD 
HETATM    8  H2  UNL     1     -15.040  13.250  73.113  1.00  0.00     0.000 HD 
HETATM    9  H   UNL     1     -11.670  13.321  70.897  1.00  0.00     0.000 HD 
ENDROOT
BRANCH   6  10
HETATM   10  C   UNL     1     -12.667  15.228  70.818  1.00  0.00    -0.433 C  
BRANCH  10  11
HETATM   11  C   UNL     1     -12.037  15.482  69.445  1.00  0.00    -0.277 C  
HETATM   12  C   UNL     1     -11.807  14.166  68.708  1.00  0.00    -0.349 C  
HETATM   13  O   UNL     1     -11.334  14.417  67.378  1.00  0.00    -0.307 OA 
HETATM   14  C   UNL     1     -10.346  15.371  67.366  1.00  0.00    -0.262 A  
HETATM   15  C   UNL     1     -10.059  16.191  68.460  1.00  0.00    -0.241 A  
HETATM   16  O   UNL     1     -10.774  16.155  69.631  1.00  0.00    -0.277 OA 
HETATM   17  C   UNL     1      -9.007  17.101  68.391  1.00  0.00    -0.259 A  
HETATM   18  C   UNL     1      -8.271  17.225  67.212  1.00  0.00    -0.213 A  
HETATM   19  C   UNL     1      -8.586  16.435  66.102  1.00  0.00    -0.343 A  
HETATM   20  C   UNL     1      -9.622  15.504  66.182  1.00  0.00    -0.362 A  
ENDBRANCH  10  11
ENDBRANCH   6  10
TORSDOF 2
ENDMDL
MODEL       73
REMARK 921   NORMALIZED FREE ENERGY PREDICTED BY IDOCK:   -4.83 KCAL/MOL
REMARK 922        TOTAL FREE ENERGY PREDICTED BY IDOCK:   -5.53 KCAL/MOL
REMARK 923 INTER-LIGAND FREE ENERGY PREDICTED BY IDOCK:   -5.34 KCAL/MOL
REMARK 924 INTRA-LIGAND FREE ENERGY PREDICTED BY IDOCK:   -0.19 KCAL/MOL
REMARK 927      BINDING AFFINITY PREDICTED BY RF-SCORE:    0.00 PKD
ROOT
HETATM    1  N   UNL     1     -13.327  11.142  72.100  1.00  0.00    -0.577 NA 
HETATM    2  C   UNL     1     -13.070  12.375  71.627  1.00  0.00    -0.307 C  
HETATM    3  H2  UNL     1     -13.986  11.043  72.872  1.00  0.00     0.000 HD 
HETATM    4  H1  UNL     1     -12.890  10.303  71.718  1.00  0.00     0.000 HD 
HETATM    5  N   UNL     1     -13.619  13.431  72.106  1.00  0.00    -0.530 NA 
HETATM    6  N   UNL     1     -12.147  12.386  70.641  1.00  0.00    -0.490 NA 
HETATM    7  H1  UNL     1     -13.424  14.366  71.747  1.00  0.00     0.000 HD 
HETATM    8  H2  UNL     1     -14.278  13.332  72.879  1.00  0.00     0.000 HD 
HETATM    9  H   UNL     1     -11.657  11.525  70.401  1.00  0.00     0.000 HD 
ENDROOT
BRANCH   6  10
HETATM   10  C   UNL     1     -11.842  13.614  69.913  1.00  0.00    -0.320 C  
BRANCH  10  11
HETATM   11  C   UNL     1     -11.247  13.285  68.539  1.00  0.00    -0.271 C  
HETATM   12  C   UNL     1     -12.153  13.799  67.425  1.00  0.00    -0.343 C  
HETATM   13  O   UNL     1     -11.533  13.598  66.147  1.00  0.00    -0.311 OA 
HETATM   14  C   UNL     1     -10.991  12.341  66.042  1.00  0.00    -0.292 A  
HETATM   15  C   UNL     1     -10.811  11.490  67.135  1.00  0.00    -0.268 A  
HETATM   16  O   UNL     1     -11.110  11.853  68.425  1.00  0.00    -0.211 OA 
HETATM   17  C   UNL     1     -10.303  10.208  66.942  1.00  0.00    -0.298 A  
HETATM   18  C   UNL     1      -9.931   9.791  65.663  1.00  0.00    -0.352 A  
HETATM   19  C   UNL     1     -10.071  10.659  64.576  1.00  0.00    -0.421 A  
HETATM   20  C   UNL     1     -10.606  11.934  64.766  1.00  0.00    -0.346 A  
ENDBRANCH  10  11
ENDBRANCH   6  10
TORSDOF 2
ENDMDL
MODEL       74
REMARK 921   NORMALIZED FREE ENERGY PREDICTED BY IDOCK:   -4.83 KCAL/MOL
REMARK 922        TOTAL FREE ENERGY PREDICTED BY IDOCK:   -5.53 KCAL/MOL
REMARK 923 INTER-LIGAND FREE ENERGY PREDICTED BY IDOCK:   -5.35 KCAL/MOL
REMARK 924 INTRA-LIGAND FREE ENERGY PREDICTED BY IDOCK:   -0.18 KCAL/MOL
REMARK 927      BINDING AFFINITY PREDICTED BY RF-SCORE:    0.00 PKD
ROOT
HETATM    1  N   UNL     1     -13.556  14.069  72.738  1.00  0.00    -0.689 NA 
HETATM    2  C   UNL     1     -13.396  14.509  71.477  1.00  0.00    -0.362 C  
HETATM    3  H2  UNL     1     -14.386  14.360  73.255  1.00  0.00     0.000 HD 
HETATM    4  H1  UNL     1     -12.882  13.458  73.198  1.00  0.00     0.000 HD 
HETATM    5  N   UNL     1     -14.244  15.279  70.897  1.00  0.00    -0.820 NA 
HETATM    6  N   UNL     1     -12.239  14.101  70.912  1.00  0.00    -0.345 NA 
HETATM    7  H1  UNL     1     -14.123  15.612  69.941  1.00  0.00     0.000 HD 
HETATM    8  H2  UNL     1     -15.074  15.569  71.414  1.00  0.00     0.000 HD 
HETATM    9  H   UNL     1     -11.553  13.602  71.477  1.00  0.00     0.000 HD 
ENDROOT
BRANCH   6  10
HETATM   10  C   UNL     1     -11.957  14.366  69.504  1.00  0.00    -0.330 C  
BRANCH  10  11
HETATM   11  C   UNL     1     -11.882  13.052  68.720  1.00  0.00    -0.317 C  
HETATM   12  C   UNL     1     -11.669  11.873  69.665  1.00  0.00    -0.343 C  
HETATM   13  O   UNL     1     -11.722  10.638  68.939  1.00  0.00    -0.272 OA 
HETATM   14  C   UNL     1     -10.992  10.703  67.778  1.00  0.00    -0.306 A  
HETATM   15  C   UNL     1     -10.515  11.900  67.239  1.00  0.00    -0.222 A  
HETATM   16  O   UNL     1     -10.778  13.129  67.793  1.00  0.00    -0.233 OA 
HETATM   17  C   UNL     1      -9.736  11.883  66.085  1.00  0.00    -0.251 A  
HETATM   18  C   UNL     1      -9.472  10.672  65.442  1.00  0.00    -0.263 A  
HETATM   19  C   UNL     1      -9.986   9.478  65.957  1.00  0.00    -0.348 A  
HETATM   20  C   UNL     1     -10.744   9.494  67.130  1.00  0.00    -0.252 A  
ENDBRANCH  10  11
ENDBRANCH   6  10
TORSDOF 2
ENDMDL
MODEL       75
REMARK 921   NORMALIZED FREE ENERGY PREDICTED BY IDOCK:   -4.79 KCAL/MOL
REMARK 922        TOTAL FREE ENERGY PREDICTED BY IDOCK:   -5.49 KCAL/MOL
REMARK 923 INTER-LIGAND FREE ENERGY PREDICTED BY IDOCK:   -5.56 KCAL/MOL
REMARK 924 INTRA-LIGAND FREE ENERGY PREDICTED BY IDOCK:    0.07 KCAL/MOL
REMARK 927      BINDING AFFINITY PREDICTED BY RF-SCORE:    0.00 PKD
ROOT
HETATM    1  N   UNL     1     -12.879  16.070  72.637  1.00  0.00    -0.441 NA 
HETATM    2  C   UNL     1     -13.102  15.131  71.700  1.00  0.00    -0.388 C  
HETATM    3  H2  UNL     1     -13.622  16.737  72.845  1.00  0.00     0.000 HD 
HETATM    4  H1  UNL     1     -11.999  16.142  73.146  1.00  0.00     0.000 HD 
HETATM    5  N   UNL     1     -14.210  15.039  71.059  1.00  0.00    -0.682 NA 
HETATM    6  N   UNL     1     -12.033  14.337  71.475  1.00  0.00    -0.404 NA 
HETATM    7  H1  UNL     1     -14.380  14.327  70.349  1.00  0.00     0.000 HD 
HETATM    8  H2  UNL     1     -14.953  15.707  71.268  1.00  0.00     0.000 HD 
HETATM    9  H   UNL     1     -11.144  14.551  71.926  1.00  0.00     0.000 HD 
ENDROOT
BRANCH   6  10
HETATM   10  C   UNL     1     -12.132  13.177  70.594  1.00  0.00    -0.264 C  
BRANCH  10  11
HETATM   11  C   UNL     1     -12.156  13.622  69.128  1.00  0.00    -0.319 C  
HETATM   12  C   UNL     1     -11.752  12.472  68.211  1.00  0.00    -0.340 C  
HETATM   13  O   UNL     1     -11.895  12.857  66.837  1.00  0.00    -0.371 OA 
HETATM   14  C   UNL     1     -11.377  14.108  66.607  1.00  0.00    -0.344 A  
HETATM   15  C   UNL     1     -11.032  14.994  67.631  1.00  0.00    -0.305 A  
HETATM   16  O   UNL     1     -11.229  14.717  68.961  1.00  0.00    -0.243 OA 
HETATM   17  C   UNL     1     -10.462  16.227  67.322  1.00  0.00    -0.300 A  
HETATM   18  C   UNL     1     -10.279  16.594  65.988  1.00  0.00    -0.366 A  
HETATM   19  C   UNL     1     -10.664  15.725  64.963  1.00  0.00    -0.443 A  
HETATM   20  C   UNL     1     -11.210  14.478  65.274  1.00  0.00    -0.352 A  
ENDBRANCH  10  11
ENDBRANCH   6  10
TORSDOF 2
ENDMDL
MODEL       76
REMARK 921   NORMALIZED FREE ENERGY PREDICTED BY IDOCK:   -4.79 KCAL/MOL
REMARK 922        TOTAL FREE ENERGY PREDICTED BY IDOCK:   -5.49 KCAL/MOL
REMARK 923 INTER-LIGAND FREE ENERGY PREDICTED BY IDOCK:   -5.32 KCAL/MOL
REMARK 924 INTRA-LIGAND FREE ENERGY PREDICTED BY IDOCK:   -0.17 KCAL/MOL
REMARK 927      BINDING AFFINITY PREDICTED BY RF-SCORE:    0.00 PKD
ROOT
HETATM    1  N   UNL     1     -11.740   9.134  71.997  1.00  0.00    -0.349 NA 
HETATM    2  C   UNL     1     -11.358   8.926  70.724  1.00  0.00    -0.278 C  
HETATM    3  H2  UNL     1     -12.202   8.375  72.498  1.00  0.00     0.000 HD 
HETATM    4  H1  UNL     1     -11.587  10.018  72.481  1.00  0.00     0.000 HD 
HETATM    5  N   UNL     1     -11.551   7.814  70.114  1.00  0.00    -0.479 NA 
HETATM    6  N   UNL     1     -10.805  10.015  70.148  1.00  0.00    -0.290 NA 
HETATM    7  H1  UNL     1     -11.261   7.656  69.149  1.00  0.00     0.000 HD 
HETATM    8  H2  UNL     1     -12.012   7.054  70.615  1.00  0.00     0.000 HD 
HETATM    9  H   UNL     1     -10.804  10.903  70.650  1.00  0.00     0.000 HD 
ENDROOT
BRANCH   6  10
HETATM   10  C   UNL     1     -10.207   9.939  68.819  1.00  0.00    -0.189 C  
BRANCH  10  11
HETATM   11  C   UNL     1     -10.532  11.203  68.016  1.00  0.00    -0.188 C  
HETATM   12  C   UNL     1     -11.784  11.881  68.563  1.00  0.00    -0.330 C  
HETATM   13  O   UNL     1     -12.011  13.126  67.889  1.00  0.00    -0.349 OA 
HETATM   14  C   UNL     1     -11.862  12.997  66.530  1.00  0.00    -0.403 A  
HETATM   15  C   UNL     1     -11.278  11.881  65.925  1.00  0.00    -0.322 A  
HETATM   16  O   UNL     1     -10.751  10.832  66.638  1.00  0.00    -0.249 OA 
HETATM   17  C   UNL     1     -11.209  11.798  64.537  1.00  0.00    -0.368 A  
HETATM   18  C   UNL     1     -11.681  12.851  63.752  1.00  0.00    -0.557 A  
HETATM   19  C   UNL     1     -12.226  13.987  64.358  1.00  0.00    -0.457 A  
HETATM   20  C   UNL     1     -12.320  14.057  65.749  1.00  0.00    -0.506 A  
ENDBRANCH  10  11
ENDBRANCH   6  10
TORSDOF 2
ENDMDL
MODEL       77
REMARK 921   NORMALIZED FREE ENERGY PREDICTED BY IDOCK:   -4.79 KCAL/MOL
REMARK 922        TOTAL FREE ENERGY PREDICTED BY IDOCK:   -5.49 KCAL/MOL
REMARK 923 INTER-LIGAND FREE ENERGY PREDICTED BY IDOCK:   -5.28 KCAL/MOL
REMARK 924 INTRA-LIGAND FREE ENERGY PREDICTED BY IDOCK:   -0.20 KCAL/MOL
REMARK 927      BINDING AFFINITY PREDICTED BY RF-SCORE:    0.00 PKD
ROOT
HETATM    1  N   UNL     1      -9.955   7.594  73.619  1.00  0.00    -0.331 NA 
HETATM    2  C   UNL     1     -10.899   7.941  72.726  1.00  0.00    -0.386 C  
HETATM    3  H2  UNL     1     -10.250   7.203  74.514  1.00  0.00     0.000 HD 
HETATM    4  H1  UNL     1      -8.958   7.705  73.438  1.00  0.00     0.000 HD 
HETATM    5  N   UNL     1     -12.155   7.801  72.953  1.00  0.00    -0.591 NA 
HETATM    6  N   UNL     1     -10.394   8.491  71.601  1.00  0.00    -0.238 NA 
HETATM    7  H1  UNL     1     -12.871   8.064  72.276  1.00  0.00     0.000 HD 
HETATM    8  H2  UNL     1     -12.449   7.410  73.848  1.00  0.00     0.000 HD 
HETATM    9  H   UNL     1      -9.395   8.691  71.545  1.00  0.00     0.000 HD 
ENDROOT
BRANCH   6  10
HETATM   10  C   UNL     1     -11.255   8.802  70.465  1.00  0.00    -0.247 C  
BRANCH  10  11
HETATM   11  C   UNL     1     -11.224  10.305  70.168  1.00  0.00    -0.318 C  
HETATM   12  C   UNL     1     -12.320  11.029  70.944  1.00  0.00    -0.402 C  
HETATM   13  O   UNL     1     -12.207  12.446  70.759  1.00  0.00    -0.369 OA 
HETATM   14  C   UNL     1     -12.000  12.768  69.441  1.00  0.00    -0.263 A  
HETATM   15  C   UNL     1     -11.650  11.827  68.469  1.00  0.00    -0.321 A  
HETATM   16  O   UNL     1     -11.429  10.502  68.753  1.00  0.00    -0.260 OA 
HETATM   17  C   UNL     1     -11.507  12.219  67.140  1.00  0.00    -0.419 A  
HETATM   18  C   UNL     1     -11.669  13.560  66.789  1.00  0.00    -0.430 A  
HETATM   19  C   UNL     1     -11.976  14.509  67.769  1.00  0.00    -0.345 A  
HETATM   20  C   UNL     1     -12.146  14.110  69.096  1.00  0.00    -0.362 A  
ENDBRANCH  10  11
ENDBRANCH   6  10
TORSDOF 2
ENDMDL
MODEL       78
REMARK 921   NORMALIZED FREE ENERGY PREDICTED BY IDOCK:   -4.75 KCAL/MOL
REMARK 922        TOTAL FREE ENERGY PREDICTED BY IDOCK:   -5.45 KCAL/MOL
REMARK 923 INTER-LIGAND FREE ENERGY PREDICTED BY IDOCK:   -5.25 KCAL/MOL
REMARK 924 INTRA-LIGAND FREE ENERGY PREDICTED BY IDOCK:   -0.20 KCAL/MOL
REMARK 927      BINDING AFFINITY PREDICTED BY RF-SCORE:    0.00 PKD
ROOT
HETATM    1  N   UNL     1      -8.789  10.995  63.080  1.00  0.00    -0.384 NA 
HETATM    2  C   UNL     1      -9.847  11.441  63.781  1.00  0.00    -0.319 C  
HETATM    3  H2  UNL     1      -8.955  10.544  62.180  1.00  0.00     0.000 HD 
HETATM    4  H1  UNL     1      -7.830  11.087  63.412  1.00  0.00     0.000 HD 
HETATM    5  N   UNL     1     -11.055  11.325  63.364  1.00  0.00    -0.776 NA 
HETATM    6  N   UNL     1      -9.510  11.972  64.976  1.00  0.00    -0.439 NA 
HETATM    7  H1  UNL     1     -11.857  11.664  63.894  1.00  0.00     0.000 HD 
HETATM    8  H2  UNL     1     -11.220  10.875  62.463  1.00  0.00     0.000 HD 
HETATM    9  H   UNL     1      -8.545  11.912  65.298  1.00  0.00     0.000 HD 
ENDROOT
BRANCH   6  10
HETATM   10  C   UNL     1     -10.508  12.631  65.812  1.00  0.00    -0.277 C  
BRANCH  10  11
HETATM   11  C   UNL     1     -10.925  11.715  66.968  1.00  0.00    -0.288 C  
HETATM   12  C   UNL     1     -11.865  12.445  67.921  1.00  0.00    -0.308 C  
HETATM   13  O   UNL     1     -12.347  11.547  68.929  1.00  0.00    -0.400 OA 
HETATM   14  C   UNL     1     -11.334  10.781  69.449  1.00  0.00    -0.285 A  
HETATM   15  C   UNL     1     -10.069  10.683  68.862  1.00  0.00    -0.202 A  
HETATM   16  O   UNL     1      -9.740  11.305  67.683  1.00  0.00    -0.168 OA 
HETATM   17  C   UNL     1      -9.074   9.927  69.476  1.00  0.00    -0.237 A  
HETATM   18  C   UNL     1      -9.355   9.229  70.651  1.00  0.00    -0.329 A  
HETATM   19  C   UNL     1     -10.633   9.291  71.214  1.00  0.00    -0.417 A  
HETATM   20  C   UNL     1     -11.622  10.072  70.613  1.00  0.00    -0.422 A  
ENDBRANCH  10  11
ENDBRANCH   6  10
TORSDOF 2
ENDMDL
MODEL       79
REMARK 921   NORMALIZED FREE ENERGY PREDICTED BY IDOCK:   -4.74 KCAL/MOL
REMARK 922        TOTAL FREE ENERGY PREDICTED BY IDOCK:   -5.43 KCAL/MOL
REMARK 923 INTER-LIGAND FREE ENERGY PREDICTED BY IDOCK:   -5.22 KCAL/MOL
REMARK 924 INTRA-LIGAND FREE ENERGY PREDICTED BY IDOCK:   -0.21 KCAL/MOL
REMARK 927      BINDING AFFINITY PREDICTED BY RF-SCORE:    0.00 PKD
ROOT
HETATM    1  N   UNL     1     -10.808  19.088  67.016  1.00  0.00    -0.417 NA 
HETATM    2  C   UNL     1     -10.187  18.120  67.714  1.00  0.00    -0.383 C  
HETATM    3  H2  UNL     1     -10.300  19.950  66.818  1.00  0.00     0.000 HD 
HETATM    4  H1  UNL     1     -11.766  18.995  66.678  1.00  0.00     0.000 HD 
HETATM    5  N   UNL     1      -8.982  18.236  68.140  1.00  0.00    -0.294 NA 
HETATM    6  N   UNL     1     -10.973  17.050  67.958  1.00  0.00    -0.324 NA 
HETATM    7  H1  UNL     1      -8.511  17.503  68.669  1.00  0.00     0.000 HD 
HETATM    8  H2  UNL     1      -8.474  19.098  67.941  1.00  0.00     0.000 HD 
HETATM    9  H   UNL     1     -11.960  17.082  67.703  1.00  0.00     0.000 HD 
ENDROOT
BRANCH   6  10
HETATM   10  C   UNL     1     -10.430  15.846  68.581  1.00  0.00    -0.240 C  
BRANCH  10  11
HETATM   11  C   UNL     1     -10.781  14.610  67.747  1.00  0.00    -0.265 C  
HETATM   12  C   UNL     1      -9.577  13.682  67.629  1.00  0.00    -0.221 C  
HETATM   13  O   UNL     1      -9.946  12.471  66.955  1.00  0.00    -0.218 OA 
HETATM   14  C   UNL     1     -10.703  12.727  65.838  1.00  0.00    -0.270 A  
HETATM   15  C   UNL     1     -11.280  13.971  65.573  1.00  0.00    -0.311 A  
HETATM   16  O   UNL     1     -11.187  15.039  66.430  1.00  0.00    -0.342 OA 
HETATM   17  C   UNL     1     -11.993  14.170  64.392  1.00  0.00    -0.478 A  
HETATM   18  C   UNL     1     -12.169  13.112  63.499  1.00  0.00    -0.552 A  
HETATM   19  C   UNL     1     -11.628  11.856  63.786  1.00  0.00    -0.555 A  
HETATM   20  C   UNL     1     -10.891  11.665  64.956  1.00  0.00    -0.346 A  
ENDBRANCH  10  11
ENDBRANCH   6  10
TORSDOF 2
ENDMDL
MODEL       80
REMARK 921   NORMALIZED FREE ENERGY PREDICTED BY IDOCK:   -4.70 KCAL/MOL
REMARK 922        TOTAL FREE ENERGY PREDICTED BY IDOCK:   -5.39 KCAL/MOL
REMARK 923 INTER-LIGAND FREE ENERGY PREDICTED BY IDOCK:   -5.26 KCAL/MOL
REMARK 924 INTRA-LIGAND FREE ENERGY PREDICTED BY IDOCK:   -0.13 KCAL/MOL
REMARK 927      BINDING AFFINITY PREDICTED BY RF-SCORE:    0.00 PKD
ROOT
HETATM    1  N   UNL     1      -8.579  19.692  66.864  1.00  0.00    -0.301 NA 
HETATM    2  C   UNL     1      -9.595  19.099  66.212  1.00  0.00    -0.348 C  
HETATM    3  H2  UNL     1      -8.593  20.706  66.970  1.00  0.00     0.000 HD 
HETATM    4  H1  UNL     1      -7.795  19.170  67.255  1.00  0.00     0.000 HD 
HETATM    5  N   UNL     1     -10.581  19.756  65.719  1.00  0.00    -0.498 NA 
HETATM    6  N   UNL     1      -9.443  17.763  66.090  1.00  0.00    -0.501 NA 
HETATM    7  H1  UNL     1     -11.352  19.306  65.225  1.00  0.00     0.000 HD 
HETATM    8  H2  UNL     1     -10.595  20.770  65.826  1.00  0.00     0.000 HD 
HETATM    9  H   UNL     1      -8.571  17.326  66.390  1.00  0.00     0.000 HD 
ENDROOT
BRANCH   6  10
HETATM   10  C   UNL     1     -10.509  16.934  65.535  1.00  0.00    -0.204 C  
BRANCH  10  11
HETATM   11  C   UNL     1     -10.351  15.482  65.998  1.00  0.00    -0.326 C  
HETATM   12  C   UNL     1     -10.673  14.517  64.861  1.00  0.00    -0.429 C  
HETATM   13  O   UNL     1     -10.404  13.167  65.263  1.00  0.00    -0.294 OA 
HETATM   14  C   UNL     1     -10.896  12.908  66.518  1.00  0.00    -0.271 A  
HETATM   15  C   UNL     1     -11.330  13.907  67.393  1.00  0.00    -0.326 A  
HETATM   16  O   UNL     1     -11.255  15.246  67.098  1.00  0.00    -0.334 OA 
HETATM   17  C   UNL     1     -11.866  13.563  68.632  1.00  0.00    -0.404 A  
HETATM   18  C   UNL     1     -11.926  12.223  69.016  1.00  0.00    -0.300 A  
HETATM   19  C   UNL     1     -11.452  11.226  68.159  1.00  0.00    -0.376 A  
HETATM   20  C   UNL     1     -10.941  11.570  66.906  1.00  0.00    -0.350 A  
ENDBRANCH  10  11
ENDBRANCH   6  10
TORSDOF 2
ENDMDL
MODEL       81
REMARK 921   NORMALIZED FREE ENERGY PREDICTED BY IDOCK:   -4.69 KCAL/MOL
REMARK 922        TOTAL FREE ENERGY PREDICTED BY IDOCK:   -5.38 KCAL/MOL
REMARK 923 INTER-LIGAND FREE ENERGY PREDICTED BY IDOCK:   -5.19 KCAL/MOL
REMARK 924 INTRA-LIGAND FREE ENERGY PREDICTED BY IDOCK:   -0.19 KCAL/MOL
REMARK 927      BINDING AFFINITY PREDICTED BY RF-SCORE:    0.00 PKD
ROOT
HETATM    1  N   UNL     1     -12.010  11.221  67.753  1.00  0.00    -0.635 NA 
HETATM    2  C   UNL     1     -11.796  12.385  68.392  1.00  0.00    -0.309 C  
HETATM    3  H2  UNL     1     -11.833  10.349  68.253  1.00  0.00     0.000 HD 
HETATM    4  H1  UNL     1     -12.343  11.173  66.790  1.00  0.00     0.000 HD 
HETATM    5  N   UNL     1     -11.378  12.445  69.603  1.00  0.00    -0.476 NA 
HETATM    6  N   UNL     1     -12.017  13.468  67.616  1.00  0.00    -0.354 NA 
HETATM    7  H1  UNL     1     -11.216  13.327  70.088  1.00  0.00     0.000 HD 
HETATM    8  H2  UNL     1     -11.200  11.573  70.103  1.00  0.00     0.000 HD 
HETATM    9  H   UNL     1     -12.220  13.343  66.624  1.00  0.00     0.000 HD 
ENDROOT
BRANCH   6  10
HETATM   10  C   UNL     1     -11.969  14.815  68.176  1.00  0.00    -0.230 C  
BRANCH  10  11
HETATM   11  C   UNL     1     -10.951  15.672  67.417  1.00  0.00    -0.293 C  
HETATM   12  C   UNL     1      -9.528  15.265  67.782  1.00  0.00    -0.197 C  
HETATM   13  O   UNL     1      -8.583  15.985  66.978  1.00  0.00    -0.180 OA 
HETATM   14  C   UNL     1      -8.897  17.319  66.904  1.00  0.00    -0.240 A  
HETATM   15  C   UNL     1     -10.130  17.839  67.307  1.00  0.00    -0.337 A  
HETATM   16  O   UNL     1     -11.159  17.057  67.767  1.00  0.00    -0.263 OA 
HETATM   17  C   UNL     1     -10.358  19.212  67.251  1.00  0.00    -0.523 A  
HETATM   18  C   UNL     1      -9.371  20.061  66.747  1.00  0.00    -0.510 A  
HETATM   19  C   UNL     1      -8.154  19.536  66.302  1.00  0.00    -0.344 A  
HETATM   20  C   UNL     1      -7.916  18.163  66.385  1.00  0.00    -0.297 A  
ENDBRANCH  10  11
ENDBRANCH   6  10
TORSDOF 2
ENDMDL
MODEL       82
REMARK 921   NORMALIZED FREE ENERGY PREDICTED BY IDOCK:   -4.69 KCAL/MOL
REMARK 922        TOTAL FREE ENERGY PREDICTED BY IDOCK:   -5.38 KCAL/MOL
REMARK 923 INTER-LIGAND FREE ENERGY PREDICTED BY IDOCK:   -5.23 KCAL/MOL
REMARK 924 INTRA-LIGAND FREE ENERGY PREDICTED BY IDOCK:   -0.16 KCAL/MOL
REMARK 927      BINDING AFFINITY PREDICTED BY RF-SCORE:    0.00 PKD
ROOT
HETATM    1  N   UNL     1     -10.549  19.614  66.137  1.00  0.00    -0.493 NA 
HETATM    2  C   UNL     1     -10.587  19.230  67.426  1.00  0.00    -0.487 C  
HETATM    3  H2  UNL     1     -10.533  20.612  65.925  1.00  0.00     0.000 HD 
HETATM    4  H1  UNL     1     -10.537  18.950  65.364  1.00  0.00     0.000 HD 
HETATM    5  N   UNL     1     -10.602  20.066  68.399  1.00  0.00    -0.368 NA 
HETATM    6  N   UNL     1     -10.656  17.891  67.581  1.00  0.00    -0.401 NA 
HETATM    7  H1  UNL     1     -10.631  19.775  69.376  1.00  0.00     0.000 HD 
HETATM    8  H2  UNL     1     -10.586  21.064  68.187  1.00  0.00     0.000 HD 
HETATM    9  H   UNL     1     -10.773  17.295  66.762  1.00  0.00     0.000 HD 
ENDROOT
BRANCH   6  10
HETATM   10  C   UNL     1     -10.567  17.283  68.906  1.00  0.00    -0.276 C  
BRANCH  10  11
HETATM   11  C   UNL     1     -10.515  15.756  68.789  1.00  0.00    -0.228 C  
HETATM   12  C   UNL     1     -10.960  15.308  67.401  1.00  0.00    -0.321 C  
HETATM   13  O   UNL     1     -10.792  13.891  67.258  1.00  0.00    -0.281 OA 
HETATM   14  C   UNL     1     -11.256  13.215  68.359  1.00  0.00    -0.271 A  
HETATM   15  C   UNL     1     -11.571  13.842  69.567  1.00  0.00    -0.297 A  
HETATM   16  O   UNL     1     -11.394  15.186  69.782  1.00  0.00    -0.251 OA 
HETATM   17  C   UNL     1     -12.087  13.097  70.625  1.00  0.00    -0.346 A  
HETATM   18  C   UNL     1     -12.246  11.717  70.491  1.00  0.00    -0.451 A  
HETATM   19  C   UNL     1     -11.890  11.083  69.297  1.00  0.00    -0.411 A  
HETATM   20  C   UNL     1     -11.399  11.834  68.228  1.00  0.00    -0.343 A  
ENDBRANCH  10  11
ENDBRANCH   6  10
TORSDOF 2
ENDMDL
MODEL       83
REMARK 921   NORMALIZED FREE ENERGY PREDICTED BY IDOCK:   -4.66 KCAL/MOL
REMARK 922        TOTAL FREE ENERGY PREDICTED BY IDOCK:   -5.35 KCAL/MOL
REMARK 923 INTER-LIGAND FREE ENERGY PREDICTED BY IDOCK:   -5.16 KCAL/MOL
REMARK 924 INTRA-LIGAND FREE ENERGY PREDICTED BY IDOCK:   -0.19 KCAL/MOL
REMARK 927      BINDING AFFINITY PREDICTED BY RF-SCORE:    0.00 PKD
ROOT
HETATM    1  N   UNL     1     -11.675   4.918  73.325  1.00  0.00    -0.453 NA 
HETATM    2  C   UNL     1     -11.136   5.754  72.421  1.00  0.00    -0.281 C  
HETATM    3  H2  UNL     1     -11.051   4.363  73.911  1.00  0.00     0.000 HD 
HETATM    4  H1  UNL     1     -12.682   4.814  73.448  1.00  0.00     0.000 HD 
HETATM    5  N   UNL     1      -9.869   5.885  72.265  1.00  0.00    -0.161 NA 
HETATM    6  N   UNL     1     -12.057   6.396  71.671  1.00  0.00    -0.315 NA 
HETATM    7  H1  UNL     1      -9.459   6.520  71.580  1.00  0.00     0.000 HD 
HETATM    8  H2  UNL     1      -9.244   5.331  72.852  1.00  0.00     0.000 HD 
HETATM    9  H   UNL     1     -13.042   6.145  71.760  1.00  0.00     0.000 HD 
ENDROOT
BRANCH   6  10
HETATM   10  C   UNL     1     -11.665   7.444  70.734  1.00  0.00    -0.276 C  
BRANCH  10  11
HETATM   11  C   UNL     1     -11.957   8.826  71.326  1.00  0.00    -0.301 C  
HETATM   12  C   UNL     1     -13.397   8.903  71.825  1.00  0.00    -0.386 C  
HETATM   13  O   UNL     1     -13.627  10.153  72.488  1.00  0.00    -0.220 OA 
HETATM   14  C   UNL     1     -13.111  11.206  71.774  1.00  0.00    -0.431 A  
HETATM   15  C   UNL     1     -12.226  11.046  70.704  1.00  0.00    -0.385 A  
HETATM   16  O   UNL     1     -11.750   9.823  70.302  1.00  0.00    -0.251 OA 
HETATM   17  C   UNL     1     -11.785  12.159  69.993  1.00  0.00    -0.330 A  
HETATM   18  C   UNL     1     -12.191  13.437  70.379  1.00  0.00    -0.415 A  
HETATM   19  C   UNL     1     -13.042  13.601  71.477  1.00  0.00    -0.431 A  
HETATM   20  C   UNL     1     -13.505  12.482  72.172  1.00  0.00    -0.523 A  
ENDBRANCH  10  11
ENDBRANCH   6  10
TORSDOF 2
ENDMDL
MODEL       84
REMARK 921   NORMALIZED FREE ENERGY PREDICTED BY IDOCK:   -4.66 KCAL/MOL
REMARK 922        TOTAL FREE ENERGY PREDICTED BY IDOCK:   -5.35 KCAL/MOL
REMARK 923 INTER-LIGAND FREE ENERGY PREDICTED BY IDOCK:   -5.12 KCAL/MOL
REMARK 924 INTRA-LIGAND FREE ENERGY PREDICTED BY IDOCK:   -0.23 KCAL/MOL
REMARK 927      BINDING AFFINITY PREDICTED BY RF-SCORE:    0.00 PKD
ROOT
HETATM    1  N   UNL     1     -12.977  10.284  70.588  1.00  0.00    -0.529 NA 
HETATM    2  C   UNL     1     -11.904  10.529  69.816  1.00  0.00    -0.257 C  
HETATM    3  H2  UNL     1     -12.829   9.917  71.528  1.00  0.00     0.000 HD 
HETATM    4  H1  UNL     1     -13.933  10.450  70.272  1.00  0.00     0.000 HD 
HETATM    5  N   UNL     1     -10.701  10.321  70.212  1.00  0.00    -0.391 NA 
HETATM    6  N   UNL     1     -12.224  10.965  68.579  1.00  0.00    -0.809 NA 
HETATM    7  H1  UNL     1      -9.887  10.507  69.627  1.00  0.00     0.000 HD 
HETATM    8  H2  UNL     1     -10.553   9.953  71.153  1.00  0.00     0.000 HD 
HETATM    9  H   UNL     1     -13.202  10.982  68.289  1.00  0.00     0.000 HD 
ENDROOT
BRANCH   6  10
HETATM   10  C   UNL     1     -11.191  11.413  67.649  1.00  0.00    -0.283 C  
BRANCH  10  11
HETATM   11  C   UNL     1     -11.327  12.916  67.385  1.00  0.00    -0.309 C  
HETATM   12  C   UNL     1     -10.576  13.308  66.117  1.00  0.00    -0.287 C  
HETATM   13  O   UNL     1     -10.809  14.689  65.808  1.00  0.00    -0.302 OA 
HETATM   14  C   UNL     1     -10.695  15.481  66.923  1.00  0.00    -0.317 A  
HETATM   15  C   UNL     1     -10.655  14.972  68.224  1.00  0.00    -0.247 A  
HETATM   16  O   UNL     1     -10.778  13.635  68.510  1.00  0.00    -0.243 OA 
HETATM   17  C   UNL     1     -10.485  15.835  69.304  1.00  0.00    -0.247 A  
HETATM   18  C   UNL     1     -10.402  17.211  69.089  1.00  0.00    -0.297 A  
HETATM   19  C   UNL     1     -10.486  17.724  67.792  1.00  0.00    -0.402 A  
HETATM   20  C   UNL     1     -10.629  16.857  66.707  1.00  0.00    -0.201 A  
ENDBRANCH  10  11
ENDBRANCH   6  10
TORSDOF 2
ENDMDL
MODEL       85
REMARK 921   NORMALIZED FREE ENERGY PREDICTED BY IDOCK:   -4.64 KCAL/MOL
REMARK 922        TOTAL FREE ENERGY PREDICTED BY IDOCK:   -5.33 KCAL/MOL
REMARK 923 INTER-LIGAND FREE ENERGY PREDICTED BY IDOCK:   -5.14 KCAL/MOL
REMARK 924 INTRA-LIGAND FREE ENERGY PREDICTED BY IDOCK:   -0.18 KCAL/MOL
REMARK 927      BINDING AFFINITY PREDICTED BY RF-SCORE:    0.00 PKD
ROOT
HETATM    1  N   UNL     1     -11.402   6.619  67.318  1.00  0.00    -0.783 NA 
HETATM    2  C   UNL     1     -10.476   7.224  68.082  1.00  0.00    -0.198 C  
HETATM    3  H2  UNL     1     -11.094   6.114  66.486  1.00  0.00     0.000 HD 
HETATM    4  H1  UNL     1     -12.398   6.643  67.534  1.00  0.00     0.000 HD 
HETATM    5  N   UNL     1      -9.222   7.194  67.810  1.00  0.00    -0.126 NA 
HETATM    6  N   UNL     1     -11.004   7.901  69.125  1.00  0.00    -0.428 NA 
HETATM    7  H1  UNL     1      -8.520   7.653  68.391  1.00  0.00     0.000 HD 
HETATM    8  H2  UNL     1      -8.914   6.689  66.979  1.00  0.00     0.000 HD 
HETATM    9  H   UNL     1     -12.017   7.991  69.204  1.00  0.00     0.000 HD 
ENDROOT
BRANCH   6  10
HETATM   10  C   UNL     1     -10.147   8.504  70.140  1.00  0.00    -0.190 C  
BRANCH  10  11
HETATM   11  C   UNL     1     -10.896   9.621  70.875  1.00  0.00    -0.339 C  
HETATM   12  C   UNL     1     -12.255   9.129  71.360  1.00  0.00    -0.335 C  
HETATM   13  O   UNL     1     -12.897  10.138  72.151  1.00  0.00    -0.383 OA 
HETATM   14  C   UNL     1     -12.808  11.374  71.561  1.00  0.00    -0.403 A  
HETATM   15  C   UNL     1     -11.952  11.652  70.492  1.00  0.00    -0.319 A  
HETATM   16  O   UNL     1     -11.083  10.728  69.967  1.00  0.00    -0.279 OA 
HETATM   17  C   UNL     1     -11.953  12.918  69.910  1.00  0.00    -0.377 A  
HETATM   18  C   UNL     1     -12.776  13.920  70.427  1.00  0.00    -0.286 A  
HETATM   19  C   UNL     1     -13.601  13.653  71.524  1.00  0.00    -0.291 A  
HETATM   20  C   UNL     1     -13.619  12.377  72.088  1.00  0.00    -0.405 A  
ENDBRANCH  10  11
ENDBRANCH   6  10
TORSDOF 2
ENDMDL
MODEL       86
REMARK 921   NORMALIZED FREE ENERGY PREDICTED BY IDOCK:   -4.64 KCAL/MOL
REMARK 922        TOTAL FREE ENERGY PREDICTED BY IDOCK:   -5.32 KCAL/MOL
REMARK 923 INTER-LIGAND FREE ENERGY PREDICTED BY IDOCK:   -5.12 KCAL/MOL
REMARK 924 INTRA-LIGAND FREE ENERGY PREDICTED BY IDOCK:   -0.20 KCAL/MOL
REMARK 927      BINDING AFFINITY PREDICTED BY RF-SCORE:    0.00 PKD
ROOT
HETATM    1  N   UNL     1     -12.188  14.799  63.871  1.00  0.00    -1.018 NA 
HETATM    2  C   UNL     1     -11.125  14.742  64.692  1.00  0.00    -0.325 C  
HETATM    3  H2  UNL     1     -12.099  14.416  62.929  1.00  0.00     0.000 HD 
HETATM    4  H1  UNL     1     -13.079  15.209  64.150  1.00  0.00     0.000 HD 
HETATM    5  N   UNL     1     -10.003  14.226  64.341  1.00  0.00    -0.551 NA 
HETATM    6  N   UNL     1     -11.345  15.322  65.891  1.00  0.00    -0.240 NA 
HETATM    7  H1  UNL     1      -9.197  14.182  64.964  1.00  0.00     0.000 HD 
HETATM    8  H2  UNL     1      -9.914  13.843  63.400  1.00  0.00     0.000 HD 
HETATM    9  H   UNL     1     -12.216  15.828  66.052  1.00  0.00     0.000 HD 
ENDROOT
BRANCH   6  10
HETATM   10  C   UNL     1     -10.355  15.236  66.960  1.00  0.00    -0.277 C  
BRANCH  10  11
HETATM   11  C   UNL     1      -9.617  16.570  67.112  1.00  0.00    -0.240 C  
HETATM   12  C   UNL     1     -10.356  17.680  66.372  1.00  0.00    -0.345 C  
HETATM   13  O   UNL     1      -9.730  18.946  66.620  1.00  0.00    -0.316 OA 
HETATM   14  C   UNL     1      -8.364  18.863  66.507  1.00  0.00    -0.302 A  
HETATM   15  C   UNL     1      -7.671  17.651  66.454  1.00  0.00    -0.290 A  
HETATM   16  O   UNL     1      -8.289  16.430  66.563  1.00  0.00    -0.241 OA 
HETATM   17  C   UNL     1      -6.289  17.646  66.287  1.00  0.00    -0.279 A  
HETATM   18  C   UNL     1      -5.592  18.853  66.219  1.00  0.00    -0.177 A  
HETATM   19  C   UNL     1      -6.280  20.066  66.315  1.00  0.00    -0.199 A  
HETATM   20  C   UNL     1      -7.668  20.070  66.455  1.00  0.00    -0.325 A  
ENDBRANCH  10  11
ENDBRANCH   6  10
TORSDOF 2
ENDMDL
MODEL       87
REMARK 921   NORMALIZED FREE ENERGY PREDICTED BY IDOCK:   -4.58 KCAL/MOL
REMARK 922        TOTAL FREE ENERGY PREDICTED BY IDOCK:   -5.26 KCAL/MOL
REMARK 923 INTER-LIGAND FREE ENERGY PREDICTED BY IDOCK:   -5.05 KCAL/MOL
REMARK 924 INTRA-LIGAND FREE ENERGY PREDICTED BY IDOCK:   -0.21 KCAL/MOL
REMARK 927      BINDING AFFINITY PREDICTED BY RF-SCORE:    0.00 PKD
ROOT
HETATM    1  N   UNL     1     -12.679  14.559  69.879  1.00  0.00    -0.547 NA 
HETATM    2  C   UNL     1     -12.017  13.927  68.893  1.00  0.00    -0.358 C  
HETATM    3  H2  UNL     1     -13.361  15.276  69.629  1.00  0.00     0.000 HD 
HETATM    4  H1  UNL     1     -12.527  14.352  70.866  1.00  0.00     0.000 HD 
HETATM    5  N   UNL     1     -12.208  14.187  67.651  1.00  0.00    -0.574 NA 
HETATM    6  N   UNL     1     -11.108  13.038  69.346  1.00  0.00    -0.453 NA 
HETATM    7  H1  UNL     1     -11.707  13.708  66.904  1.00  0.00     0.000 HD 
HETATM    8  H2  UNL     1     -12.890  14.904  67.401  1.00  0.00     0.000 HD 
HETATM    9  H   UNL     1     -10.917  12.978  70.346  1.00  0.00     0.000 HD 
ENDROOT
BRANCH   6  10
HETATM   10  C   UNL     1     -10.393  12.160  68.424  1.00  0.00    -0.229 C  
BRANCH  10  11
HETATM   11  C   UNL     1     -10.266  10.753  69.019  1.00  0.00    -0.213 C  
HETATM   12  C   UNL     1     -10.660   9.698  67.991  1.00  0.00    -0.243 C  
HETATM   13  O   UNL     1     -10.421   8.383  68.511  1.00  0.00    -0.208 OA 
HETATM   14  C   UNL     1     -10.875   8.261  69.801  1.00  0.00    -0.185 A  
HETATM   15  C   UNL     1     -11.244   9.353  70.590  1.00  0.00    -0.284 A  
HETATM   16  O   UNL     1     -11.137  10.654  70.166  1.00  0.00    -0.288 OA 
HETATM   17  C   UNL     1     -11.745   9.148  71.873  1.00  0.00    -0.436 A  
HETATM   18  C   UNL     1     -11.835   7.853  72.385  1.00  0.00    -0.402 A  
HETATM   19  C   UNL     1     -11.425   6.763  71.612  1.00  0.00    -0.322 A  
HETATM   20  C   UNL     1     -10.948   6.968  70.316  1.00  0.00    -0.304 A  
ENDBRANCH  10  11
ENDBRANCH   6  10
TORSDOF 2
ENDMDL
MODEL       88
REMARK 921   NORMALIZED FREE ENERGY PREDICTED BY IDOCK:   -4.57 KCAL/MOL
REMARK 922        TOTAL FREE ENERGY PREDICTED BY IDOCK:   -5.24 KCAL/MOL
REMARK 923 INTER-LIGAND FREE ENERGY PREDICTED BY IDOCK:   -4.86 KCAL/MOL
REMARK 924 INTRA-LIGAND FREE ENERGY PREDICTED BY IDOCK:   -0.39 KCAL/MOL
REMARK 927      BINDING AFFINITY PREDICTED BY RF-SCORE:    0.00 PKD
ROOT
HETATM    1  N   UNL     1      -7.935  15.474  67.039  1.00  0.00    -0.220 NA 
HETATM    2  C   UNL     1      -9.078  14.838  66.722  1.00  0.00    -0.267 C  
HETATM    3  H2  UNL     1      -7.051  15.079  66.716  1.00  0.00     0.000 HD 
HETATM    4  H1  UNL     1      -7.916  16.333  67.587  1.00  0.00     0.000 HD 
HETATM    5  N   UNL     1      -9.102  13.757  66.032  1.00  0.00    -0.469 NA 
HETATM    6  N   UNL     1     -10.176  15.424  67.244  1.00  0.00    -0.250 NA 
HETATM    7  H1  UNL     1      -9.968  13.275  65.791  1.00  0.00     0.000 HD 
HETATM    8  H2  UNL     1      -8.218  13.362  65.709  1.00  0.00     0.000 HD 
HETATM    9  H   UNL     1     -10.070  16.205  67.892  1.00  0.00     0.000 HD 
ENDROOT
BRANCH   6  10
HETATM   10  C   UNL     1     -11.514  14.956  66.895  1.00  0.00    -0.313 C  
BRANCH  10  11
HETATM   11  C   UNL     1     -12.120  14.159  68.055  1.00  0.00    -0.268 C  
HETATM   12  C   UNL     1     -11.927  14.899  69.374  1.00  0.00    -0.301 C  
HETATM   13  O   UNL     1     -12.602  14.210  70.435  1.00  0.00    -0.343 OA 
HETATM   14  C   UNL     1     -12.367  12.858  70.388  1.00  0.00    -0.258 A  
HETATM   15  C   UNL     1     -11.795  12.218  69.285  1.00  0.00    -0.306 A  
HETATM   16  O   UNL     1     -11.465  12.874  68.126  1.00  0.00    -0.272 OA 
HETATM   17  C   UNL     1     -11.539  10.850  69.330  1.00  0.00    -0.387 A  
HETATM   18  C   UNL     1     -11.896  10.112  70.460  1.00  0.00    -0.408 A  
HETATM   19  C   UNL     1     -12.507  10.745  71.546  1.00  0.00    -0.447 A  
HETATM   20  C   UNL     1     -12.739  12.121  71.511  1.00  0.00    -0.348 A  
ENDBRANCH  10  11
ENDBRANCH   6  10
TORSDOF 2
ENDMDL
MODEL       89
REMARK 921   NORMALIZED FREE ENERGY PREDICTED BY IDOCK:   -4.56 KCAL/MOL
REMARK 922        TOTAL FREE ENERGY PREDICTED BY IDOCK:   -5.24 KCAL/MOL
REMARK 923 INTER-LIGAND FREE ENERGY PREDICTED BY IDOCK:   -4.91 KCAL/MOL
REMARK 924 INTRA-LIGAND FREE ENERGY PREDICTED BY IDOCK:   -0.32 KCAL/MOL
REMARK 927      BINDING AFFINITY PREDICTED BY RF-SCORE:    0.00 PKD
ROOT
HETATM    1  N   UNL     1     -10.704  11.104  66.146  1.00  0.00    -0.252 NA 
HETATM    2  C   UNL     1     -11.564  12.054  66.552  1.00  0.00    -0.314 C  
HETATM    3  H2  UNL     1     -10.710  10.826  65.164  1.00  0.00     0.000 HD 
HETATM    4  H1  UNL     1     -10.045  10.649  66.778  1.00  0.00     0.000 HD 
HETATM    5  N   UNL     1     -12.393  12.626  65.756  1.00  0.00    -0.619 NA 
HETATM    6  N   UNL     1     -11.499  12.302  67.878  1.00  0.00    -0.307 NA 
HETATM    7  H1  UNL     1     -13.045  13.347  66.064  1.00  0.00     0.000 HD 
HETATM    8  H2  UNL     1     -12.399  12.349  64.774  1.00  0.00     0.000 HD 
HETATM    9  H   UNL     1     -10.910  11.717  68.470  1.00  0.00     0.000 HD 
ENDROOT
BRANCH   6  10
HETATM   10  C   UNL     1     -12.259  13.395  68.475  1.00  0.00    -0.097 C  
BRANCH  10  11
HETATM   11  C   UNL     1     -11.379  14.642  68.615  1.00  0.00    -0.283 C  
HETATM   12  C   UNL     1     -11.916  15.559  69.710  1.00  0.00    -0.364 C  
HETATM   13  O   UNL     1     -11.022  16.659  69.920  1.00  0.00    -0.347 OA 
HETATM   14  C   UNL     1     -10.611  17.209  68.732  1.00  0.00    -0.336 A  
HETATM   15  C   UNL     1     -10.803  16.590  67.494  1.00  0.00    -0.237 A  
HETATM   16  O   UNL     1     -11.374  15.350  67.357  1.00  0.00    -0.319 OA 
HETATM   17  C   UNL     1     -10.405  17.233  66.324  1.00  0.00    -0.323 A  
HETATM   18  C   UNL     1      -9.772  18.476  66.394  1.00  0.00    -0.347 A  
HETATM   19  C   UNL     1      -9.541  19.075  67.636  1.00  0.00    -0.362 A  
HETATM   20  C   UNL     1      -9.965  18.442  68.805  1.00  0.00    -0.404 A  
ENDBRANCH  10  11
ENDBRANCH   6  10
TORSDOF 2
ENDMDL
MODEL       90
REMARK 921   NORMALIZED FREE ENERGY PREDICTED BY IDOCK:   -4.55 KCAL/MOL
REMARK 922        TOTAL FREE ENERGY PREDICTED BY IDOCK:   -5.23 KCAL/MOL
REMARK 923 INTER-LIGAND FREE ENERGY PREDICTED BY IDOCK:   -5.05 KCAL/MOL
REMARK 924 INTRA-LIGAND FREE ENERGY PREDICTED BY IDOCK:   -0.18 KCAL/MOL
REMARK 927      BINDING AFFINITY PREDICTED BY RF-SCORE:    0.00 PKD
ROOT
HETATM    1  N   UNL     1     -12.146  13.608  63.324  1.00  0.00    -0.975 NA 
HETATM    2  C   UNL     1     -11.108  13.154  64.049  1.00  0.00    -0.361 C  
HETATM    3  H2  UNL     1     -12.269  14.616  63.226  1.00  0.00     0.000 HD 
HETATM    4  H1  UNL     1     -12.814  12.987  62.870  1.00  0.00     0.000 HD 
HETATM    5  N   UNL     1     -10.266  13.935  64.621  1.00  0.00    -0.635 NA 
HETATM    6  N   UNL     1     -11.075  11.808  64.150  1.00  0.00    -0.353 NA 
HETATM    7  H1  UNL     1      -9.478  13.591  65.170  1.00  0.00     0.000 HD 
HETATM    8  H2  UNL     1     -10.389  14.943  64.523  1.00  0.00     0.000 HD 
HETATM    9  H   UNL     1     -11.850  11.257  63.780  1.00  0.00     0.000 HD 
ENDROOT
BRANCH   6  10
HETATM   10  C   UNL     1      -9.947  11.129  64.780  1.00  0.00    -0.287 C  
BRANCH  10  11
HETATM   11  C   UNL     1     -10.408  10.386  66.039  1.00  0.00    -0.192 C  
HETATM   12  C   UNL     1      -9.636  10.871  67.262  1.00  0.00    -0.164 C  
HETATM   13  O   UNL     1     -10.157  10.263  68.452  1.00  0.00    -0.151 OA 
HETATM   14  C   UNL     1     -10.360   8.916  68.282  1.00  0.00    -0.206 A  
HETATM   15  C   UNL     1     -10.344   8.290  67.032  1.00  0.00    -0.323 A  
HETATM   16  O   UNL     1     -10.175   8.973  65.854  1.00  0.00    -0.165 OA 
HETATM   17  C   UNL     1     -10.507   6.910  66.943  1.00  0.00    -0.349 A  
HETATM   18  C   UNL     1     -10.732   6.160  68.099  1.00  0.00    -0.367 A  
HETATM   19  C   UNL     1     -10.791   6.792  69.344  1.00  0.00    -0.312 A  
HETATM   20  C   UNL     1     -10.600   8.171  69.435  1.00  0.00    -0.206 A  
ENDBRANCH  10  11
ENDBRANCH   6  10
TORSDOF 2
ENDMDL
MODEL       91
REMARK 921   NORMALIZED FREE ENERGY PREDICTED BY IDOCK:   -4.54 KCAL/MOL
REMARK 922        TOTAL FREE ENERGY PREDICTED BY IDOCK:   -5.22 KCAL/MOL
REMARK 923 INTER-LIGAND FREE ENERGY PREDICTED BY IDOCK:   -4.98 KCAL/MOL
REMARK 924 INTRA-LIGAND FREE ENERGY PREDICTED BY IDOCK:   -0.24 KCAL/MOL
REMARK 927      BINDING AFFINITY PREDICTED BY RF-SCORE:    0.00 PKD
ROOT
HETATM    1  N   UNL     1     -11.437   4.633  65.070  1.00  0.00    -1.079 NA 
HETATM    2  C   UNL     1     -10.629   5.238  65.958  1.00  0.00    -0.119 C  
HETATM    3  H2  UNL     1     -11.046   3.909  64.467  1.00  0.00     0.000 HD 
HETATM    4  H1  UNL     1     -12.425   4.868  64.974  1.00  0.00     0.000 HD 
HETATM    5  N   UNL     1      -9.386   4.942  66.079  1.00  0.00    -0.148 NA 
HETATM    6  N   UNL     1     -11.244   6.211  66.664  1.00  0.00    -0.758 NA 
HETATM    7  H1  UNL     1      -8.773   5.400  66.753  1.00  0.00     0.000 HD 
HETATM    8  H2  UNL     1      -8.994   4.218  65.476  1.00  0.00     0.000 HD 
HETATM    9  H   UNL     1     -12.198   6.480  66.422  1.00  0.00     0.000 HD 
ENDROOT
BRANCH   6  10
HETATM   10  C   UNL     1     -10.564   6.882  67.767  1.00  0.00    -0.244 C  
BRANCH  10  11
HETATM   11  C   UNL     1     -11.059   6.334  69.110  1.00  0.00    -0.390 C  
HETATM   12  C   UNL     1     -11.234   7.464  70.120  1.00  0.00    -0.218 C  
HETATM   13  O   UNL     1     -11.813   6.962  71.332  1.00  0.00    -0.291 OA 
HETATM   14  C   UNL     1     -11.210   5.796  71.734  1.00  0.00    -0.211 A  
HETATM   15  C   UNL     1     -10.359   5.051  70.913  1.00  0.00    -0.190 A  
HETATM   16  O   UNL     1     -10.088   5.390  69.611  1.00  0.00    -0.203 OA 
HETATM   17  C   UNL     1      -9.742   3.905  71.408  1.00  0.00    -0.246 A  
HETATM   18  C   UNL     1     -10.012   3.476  72.708  1.00  0.00    -0.218 A  
HETATM   19  C   UNL     1     -10.897   4.197  73.514  1.00  0.00    -0.340 A  
HETATM   20  C   UNL     1     -11.493   5.361  73.027  1.00  0.00    -0.324 A  
ENDBRANCH  10  11
ENDBRANCH   6  10
TORSDOF 2
ENDMDL
MODEL       92
REMARK 921   NORMALIZED FREE ENERGY PREDICTED BY IDOCK:   -4.53 KCAL/MOL
REMARK 922        TOTAL FREE ENERGY PREDICTED BY IDOCK:   -5.20 KCAL/MOL
REMARK 923 INTER-LIGAND FREE ENERGY PREDICTED BY IDOCK:   -5.00 KCAL/MOL
REMARK 924 INTRA-LIGAND FREE ENERGY PREDICTED BY IDOCK:   -0.20 KCAL/MOL
REMARK 927      BINDING AFFINITY PREDICTED BY RF-SCORE:    0.00 PKD
ROOT
HETATM    1  N   UNL     1     -10.944   5.438  67.061  1.00  0.00    -0.343 NA 
HETATM    2  C   UNL     1     -10.261   6.558  66.766  1.00  0.00    -0.191 C  
HETATM    3  H2  UNL     1     -10.667   4.564  66.613  1.00  0.00     0.000 HD 
HETATM    4  H1  UNL     1     -11.727   5.426  67.714  1.00  0.00     0.000 HD 
HETATM    5  N   UNL     1      -9.274   6.574  65.945  1.00  0.00    -0.357 NA 
HETATM    6  N   UNL     1     -10.748   7.658  67.380  1.00  0.00    -0.474 NA 
HETATM    7  H1  UNL     1      -8.756   7.423  65.721  1.00  0.00     0.000 HD 
HETATM    8  H2  UNL     1      -8.997   5.700  65.497  1.00  0.00     0.000 HD 
HETATM    9  H   UNL     1     -11.614   7.593  67.914  1.00  0.00     0.000 HD 
ENDROOT
BRANCH   6  10
HETATM   10  C   UNL     1     -10.053   8.938  67.288  1.00  0.00    -0.239 C  
BRANCH  10  11
HETATM   11  C   UNL     1     -10.749   9.851  66.273  1.00  0.00     0.083 C  
HETATM   12  C   UNL     1      -9.873  10.049  65.040  1.00  0.00    -0.304 C  
HETATM   13  O   UNL     1     -10.579  10.801  64.044  1.00  0.00    -0.332 OA 
HETATM   14  C   UNL     1     -11.218  11.886  64.590  1.00  0.00    -0.305 A  
HETATM   15  C   UNL     1     -11.398  12.058  65.965  1.00  0.00    -0.343 A  
HETATM   16  O   UNL     1     -10.998  11.130  66.895  1.00  0.00    -0.278 OA 
HETATM   17  C   UNL     1     -12.010  13.211  66.449  1.00  0.00    -0.462 A  
HETATM   18  C   UNL     1     -12.485  14.173  65.556  1.00  0.00    -0.495 A  
HETATM   19  C   UNL     1     -12.344  13.982  64.179  1.00  0.00    -0.374 A  
HETATM   20  C   UNL     1     -11.706  12.838  63.696  1.00  0.00    -0.587 A  
ENDBRANCH  10  11
ENDBRANCH   6  10
TORSDOF 2
ENDMDL
MODEL       93
REMARK 921   NORMALIZED FREE ENERGY PREDICTED BY IDOCK:   -4.52 KCAL/MOL
REMARK 922        TOTAL FREE ENERGY PREDICTED BY IDOCK:   -5.19 KCAL/MOL
REMARK 923 INTER-LIGAND FREE ENERGY PREDICTED BY IDOCK:   -4.99 KCAL/MOL
REMARK 924 INTRA-LIGAND FREE ENERGY PREDICTED BY IDOCK:   -0.20 KCAL/MOL
REMARK 927      BINDING AFFINITY PREDICTED BY RF-SCORE:    0.00 PKD
ROOT
HETATM    1  N   UNL     1     -13.325  15.615  70.536  1.00  0.00    -0.788 NA 
HETATM    2  C   UNL     1     -12.121  15.500  69.947  1.00  0.00    -0.355 C  
HETATM    3  H2  UNL     1     -13.368  15.961  71.495  1.00  0.00     0.000 HD 
HETATM    4  H1  UNL     1     -14.195  15.370  70.064  1.00  0.00     0.000 HD 
HETATM    5  N   UNL     1     -11.026  15.808  70.540  1.00  0.00    -0.338 NA 
HETATM    6  N   UNL     1     -12.185  14.987  68.699  1.00  0.00    -0.593 NA 
HETATM    7  H1  UNL     1     -10.113  15.721  70.093  1.00  0.00     0.000 HD 
HETATM    8  H2  UNL     1     -11.069  16.154  71.499  1.00  0.00     0.000 HD 
HETATM    9  H   UNL     1     -13.076  14.643  68.342  1.00  0.00     0.000 HD 
ENDROOT
BRANCH   6  10
HETATM   10  C   UNL     1     -10.996  14.918  67.855  1.00  0.00    -0.286 C  
BRANCH  10  11
HETATM   11  C   UNL     1     -10.620  13.457  67.582  1.00  0.00    -0.243 C  
HETATM   12  C   UNL     1     -11.578  12.835  66.572  1.00  0.00    -0.376 C  
HETATM   13  O   UNL     1     -11.149  11.511  66.228  1.00  0.00    -0.302 OA 
HETATM   14  C   UNL     1     -10.795  10.791  67.343  1.00  0.00    -0.290 A  
HETATM   15  C   UNL     1     -10.597  11.371  68.599  1.00  0.00    -0.199 A  
HETATM   16  O   UNL     1     -10.688  12.722  68.823  1.00  0.00    -0.243 OA 
HETATM   17  C   UNL     1     -10.290  10.569  69.695  1.00  0.00    -0.231 A  
HETATM   18  C   UNL     1     -10.134   9.192  69.528  1.00  0.00    -0.202 A  
HETATM   19  C   UNL     1     -10.288   8.618  68.263  1.00  0.00    -0.252 A  
HETATM   20  C   UNL     1     -10.623   9.419  67.170  1.00  0.00    -0.294 A  
ENDBRANCH  10  11
ENDBRANCH   6  10
TORSDOF 2
ENDMDL
MODEL       94
REMARK 921   NORMALIZED FREE ENERGY PREDICTED BY IDOCK:   -4.49 KCAL/MOL
REMARK 922        TOTAL FREE ENERGY PREDICTED BY IDOCK:   -5.16 KCAL/MOL
REMARK 923 INTER-LIGAND FREE ENERGY PREDICTED BY IDOCK:   -5.04 KCAL/MOL
REMARK 924 INTRA-LIGAND FREE ENERGY PREDICTED BY IDOCK:   -0.11 KCAL/MOL
REMARK 927      BINDING AFFINITY PREDICTED BY RF-SCORE:    0.00 PKD
ROOT
HETATM    1  N   UNL     1     -12.931  16.067  72.715  1.00  0.00    -0.454 NA 
HETATM    2  C   UNL     1     -13.304  15.154  71.801  1.00  0.00    -0.413 C  
HETATM    3  H2  UNL     1     -13.507  16.901  72.836  1.00  0.00     0.000 HD 
HETATM    4  H1  UNL     1     -12.097  15.961  73.292  1.00  0.00     0.000 HD 
HETATM    5  N   UNL     1     -14.354  15.287  71.075  1.00  0.00    -0.819 NA 
HETATM    6  N   UNL     1     -12.441  14.121  71.696  1.00  0.00    -0.332 NA 
HETATM    7  H1  UNL     1     -14.637  14.595  70.382  1.00  0.00     0.000 HD 
HETATM    8  H2  UNL     1     -14.930  16.121  71.196  1.00  0.00     0.000 HD 
HETATM    9  H   UNL     1     -11.560  14.148  72.210  1.00  0.00     0.000 HD 
ENDROOT
BRANCH   6  10
HETATM   10  C   UNL     1     -12.749  12.968  70.856  1.00  0.00    -0.217 C  
BRANCH  10  11
HETATM   11  C   UNL     1     -11.823  12.934  69.635  1.00  0.00    -0.320 C  
HETATM   12  C   UNL     1     -12.251  13.976  68.607  1.00  0.00    -0.183 C  
HETATM   13  O   UNL     1     -11.310  14.024  67.526  1.00  0.00    -0.293 OA 
HETATM   14  C   UNL     1     -10.969  12.765  67.098  1.00  0.00    -0.263 A  
HETATM   15  C   UNL     1     -11.268  11.604  67.816  1.00  0.00    -0.268 A  
HETATM   16  O   UNL     1     -11.887  11.620  69.042  1.00  0.00    -0.297 OA 
HETATM   17  C   UNL     1     -10.936  10.357  67.294  1.00  0.00    -0.306 A  
HETATM   18  C   UNL     1     -10.262  10.271  66.075  1.00  0.00    -0.298 A  
HETATM   19  C   UNL     1      -9.923  11.434  65.377  1.00  0.00    -0.289 A  
HETATM   20  C   UNL     1     -10.281  12.682  65.889  1.00  0.00    -0.290 A  
ENDBRANCH  10  11
ENDBRANCH   6  10
TORSDOF 2
ENDMDL
MODEL       95
REMARK 921   NORMALIZED FREE ENERGY PREDICTED BY IDOCK:   -4.47 KCAL/MOL
REMARK 922        TOTAL FREE ENERGY PREDICTED BY IDOCK:   -5.14 KCAL/MOL
REMARK 923 INTER-LIGAND FREE ENERGY PREDICTED BY IDOCK:   -4.79 KCAL/MOL
REMARK 924 INTRA-LIGAND FREE ENERGY PREDICTED BY IDOCK:   -0.34 KCAL/MOL
REMARK 927      BINDING AFFINITY PREDICTED BY RF-SCORE:    0.00 PKD
ROOT
HETATM    1  N   UNL     1      -5.294  19.697  68.267  1.00  0.00    -0.189 NA 
HETATM    2  C   UNL     1      -6.600  19.453  68.475  1.00  0.00    -0.256 C  
HETATM    3  H2  UNL     1      -4.609  19.230  68.862  1.00  0.00     0.000 HD 
HETATM    4  H1  UNL     1      -4.959  20.328  67.540  1.00  0.00     0.000 HD 
HETATM    5  N   UNL     1      -7.021  18.659  69.390  1.00  0.00    -0.191 NA 
HETATM    6  N   UNL     1      -7.411  20.163  67.662  1.00  0.00    -0.296 NA 
HETATM    7  H1  UNL     1      -8.011  18.474  69.548  1.00  0.00     0.000 HD 
HETATM    8  H2  UNL     1      -6.336  18.192  69.986  1.00  0.00     0.000 HD 
HETATM    9  H   UNL     1      -7.011  20.874  67.049  1.00  0.00     0.000 HD 
ENDROOT
BRANCH   6  10
HETATM   10  C   UNL     1      -8.852  19.929  67.648  1.00  0.00    -0.334 C  
BRANCH  10  11
HETATM   11  C   UNL     1      -9.201  18.815  66.656  1.00  0.00    -0.329 C  
HETATM   12  C   UNL     1     -10.581  19.048  66.050  1.00  0.00    -0.423 C  
HETATM   13  O   UNL     1     -10.850  18.073  65.034  1.00  0.00    -0.738 OA 
HETATM   14  C   UNL     1     -10.507  16.809  65.445  1.00  0.00    -0.193 A  
HETATM   15  C   UNL     1      -9.729  16.557  66.578  1.00  0.00    -0.272 A  
HETATM   16  O   UNL     1      -9.192  17.552  67.356  1.00  0.00    -0.235 OA 
HETATM   17  C   UNL     1      -9.465  15.244  66.963  1.00  0.00    -0.235 A  
HETATM   18  C   UNL     1      -9.939  14.184  66.190  1.00  0.00    -0.328 A  
HETATM   19  C   UNL     1     -10.680  14.437  65.032  1.00  0.00    -0.440 A  
HETATM   20  C   UNL     1     -10.968  15.752  64.662  1.00  0.00    -0.333 A  
ENDBRANCH  10  11
ENDBRANCH   6  10
TORSDOF 2
ENDMDL
MODEL       96
REMARK 921   NORMALIZED FREE ENERGY PREDICTED BY IDOCK:   -4.46 KCAL/MOL
REMARK 922        TOTAL FREE ENERGY PREDICTED BY IDOCK:   -5.12 KCAL/MOL
REMARK 923 INTER-LIGAND FREE ENERGY PREDICTED BY IDOCK:   -4.82 KCAL/MOL
REMARK 924 INTRA-LIGAND FREE ENERGY PREDICTED BY IDOCK:   -0.30 KCAL/MOL
REMARK 927      BINDING AFFINITY PREDICTED BY RF-SCORE:    0.00 PKD
ROOT
HETATM    1  N   UNL     1      -6.733  16.641  67.386  1.00  0.00    -0.152 NA 
HETATM    2  C   UNL     1      -7.347  15.458  67.569  1.00  0.00    -0.195 C  
HETATM    3  H2  UNL     1      -5.866  16.663  66.849  1.00  0.00     0.000 HD 
HETATM    4  H1  UNL     1      -7.098  17.516  67.762  1.00  0.00     0.000 HD 
HETATM    5  N   UNL     1      -6.888  14.357  67.096  1.00  0.00    -0.373 NA 
HETATM    6  N   UNL     1      -8.456  15.546  68.335  1.00  0.00    -0.158 NA 
HETATM    7  H1  UNL     1      -7.354  13.461  67.234  1.00  0.00     0.000 HD 
HETATM    8  H2  UNL     1      -6.021  14.379  66.559  1.00  0.00     0.000 HD 
HETATM    9  H   UNL     1      -8.687  16.431  68.786  1.00  0.00     0.000 HD 
ENDROOT
BRANCH   6  10
HETATM   10  C   UNL     1      -9.328  14.391  68.528  1.00  0.00    -0.204 C  
BRANCH  10  11
HETATM   11  C   UNL     1     -10.224  14.189  67.302  1.00  0.00    -0.256 C  
HETATM   12  C   UNL     1     -11.647  13.844  67.728  1.00  0.00    -0.347 C  
HETATM   13  O   UNL     1     -12.507  13.778  66.582  1.00  0.00    -0.386 OA 
HETATM   14  C   UNL     1     -11.928  13.073  65.557  1.00  0.00    -0.424 A  
HETATM   15  C   UNL     1     -10.574  12.729  65.533  1.00  0.00    -0.281 A  
HETATM   16  O   UNL     1      -9.686  13.110  66.508  1.00  0.00    -0.257 OA 
HETATM   17  C   UNL     1     -10.068  11.966  64.483  1.00  0.00    -0.302 A  
HETATM   18  C   UNL     1     -10.905  11.586  63.433  1.00  0.00    -0.423 A  
HETATM   19  C   UNL     1     -12.250  11.968  63.435  1.00  0.00    -0.627 A  
HETATM   20  C   UNL     1     -12.762  12.708  64.502  1.00  0.00    -0.439 A  
ENDBRANCH  10  11
ENDBRANCH   6  10
TORSDOF 2
ENDMDL
MODEL       97
REMARK 921   NORMALIZED FREE ENERGY PREDICTED BY IDOCK:   -4.46 KCAL/MOL
REMARK 922        TOTAL FREE ENERGY PREDICTED BY IDOCK:   -5.12 KCAL/MOL
REMARK 923 INTER-LIGAND FREE ENERGY PREDICTED BY IDOCK:   -4.98 KCAL/MOL
REMARK 924 INTRA-LIGAND FREE ENERGY PREDICTED BY IDOCK:   -0.14 KCAL/MOL
REMARK 927      BINDING AFFINITY PREDICTED BY RF-SCORE:    0.00 PKD
ROOT
HETATM    1  N   UNL     1     -10.994   9.441  69.034  1.00  0.00    -0.411 NA 
HETATM    2  C   UNL     1     -11.719  10.389  69.653  1.00  0.00    -0.212 C  
HETATM    3  H2  UNL     1     -11.237   8.462  69.189  1.00  0.00     0.000 HD 
HETATM    4  H1  UNL     1     -10.212   9.659  68.418  1.00  0.00     0.000 HD 
HETATM    5  N   UNL     1     -12.703  10.115  70.429  1.00  0.00    -0.544 NA 
HETATM    6  N   UNL     1     -11.274  11.642  69.414  1.00  0.00    -0.337 NA 
HETATM    7  H1  UNL     1     -13.253  10.834  70.898  1.00  0.00     0.000 HD 
HETATM    8  H2  UNL     1     -12.946   9.136  70.584  1.00  0.00     0.000 HD 
HETATM    9  H   UNL     1     -10.407  11.776  68.894  1.00  0.00     0.000 HD 
ENDROOT
BRANCH   6  10
HETATM   10  C   UNL     1     -12.017  12.805  69.888  1.00  0.00    -0.298 C  
BRANCH  10  11
HETATM   11  C   UNL     1     -11.306  14.097  69.471  1.00  0.00    -0.259 C  
HETATM   12  C   UNL     1     -12.002  15.312  70.075  1.00  0.00    -0.343 C  
HETATM   13  O   UNL     1     -11.262  16.506  69.783  1.00  0.00    -0.302 OA 
HETATM   14  C   UNL     1     -10.870  16.547  68.468  1.00  0.00    -0.349 A  
HETATM   15  C   UNL     1     -10.927  15.440  67.617  1.00  0.00    -0.315 A  
HETATM   16  O   UNL     1     -11.333  14.196  68.031  1.00  0.00    -0.271 OA 
HETATM   17  C   UNL     1     -10.560  15.571  66.279  1.00  0.00    -0.310 A  
HETATM   18  C   UNL     1     -10.091  16.797  65.804  1.00  0.00    -0.276 A  
HETATM   19  C   UNL     1      -9.993  17.892  66.666  1.00  0.00    -0.355 A  
HETATM   20  C   UNL     1     -10.387  17.767  67.999  1.00  0.00    -0.395 A  
ENDBRANCH  10  11
ENDBRANCH   6  10
TORSDOF 2
ENDMDL
MODEL       98
REMARK 921   NORMALIZED FREE ENERGY PREDICTED BY IDOCK:   -4.45 KCAL/MOL
REMARK 922        TOTAL FREE ENERGY PREDICTED BY IDOCK:   -5.11 KCAL/MOL
REMARK 923 INTER-LIGAND FREE ENERGY PREDICTED BY IDOCK:   -4.93 KCAL/MOL
REMARK 924 INTRA-LIGAND FREE ENERGY PREDICTED BY IDOCK:   -0.18 KCAL/MOL
REMARK 927      BINDING AFFINITY PREDICTED BY RF-SCORE:    0.00 PKD
ROOT
HETATM    1  N   UNL     1     -13.319  13.824  72.498  1.00  0.00    -0.537 NA 
HETATM    2  C   UNL     1     -13.067  14.331  71.278  1.00  0.00    -0.355 C  
HETATM    3  H2  UNL     1     -14.122  14.178  73.018  1.00  0.00     0.000 HD 
HETATM    4  H1  UNL     1     -12.740  13.101  72.925  1.00  0.00     0.000 HD 
HETATM    5  N   UNL     1     -13.795  15.241  70.741  1.00  0.00    -0.789 NA 
HETATM    6  N   UNL     1     -11.953  13.823  70.709  1.00  0.00    -0.494 NA 
HETATM    7  H1  UNL     1     -13.605  15.625  69.815  1.00  0.00     0.000 HD 
HETATM    8  H2  UNL     1     -14.599  15.595  71.261  1.00  0.00     0.000 HD 
HETATM    9  H   UNL     1     -11.352  13.201  71.249  1.00  0.00     0.000 HD 
ENDROOT
BRANCH   6  10
HETATM   10  C   UNL     1     -11.598  14.151  69.332  1.00  0.00    -0.304 C  
BRANCH  10  11
HETATM   11  C   UNL     1     -10.506  15.227  69.305  1.00  0.00    -0.258 C  
HETATM   12  C   UNL     1     -11.088  16.572  68.882  1.00  0.00    -0.300 C  
HETATM   13  O   UNL     1     -10.090  17.597  68.978  1.00  0.00    -0.345 OA 
HETATM   14  C   UNL     1      -8.894  17.189  68.441  1.00  0.00    -0.255 A  
HETATM   15  C   UNL     1      -8.612  15.858  68.122  1.00  0.00    -0.169 A  
HETATM   16  O   UNL     1      -9.486  14.828  68.364  1.00  0.00    -0.199 OA 
HETATM   17  C   UNL     1      -7.395  15.526  67.532  1.00  0.00    -0.216 A  
HETATM   18  C   UNL     1      -6.440  16.518  67.303  1.00  0.00    -0.216 A  
HETATM   19  C   UNL     1      -6.705  17.843  67.663  1.00  0.00    -0.192 A  
HETATM   20  C   UNL     1      -7.936  18.178  68.229  1.00  0.00    -0.304 A  
ENDBRANCH  10  11
ENDBRANCH   6  10
TORSDOF 2
ENDMDL
MODEL       99
REMARK 921   NORMALIZED FREE ENERGY PREDICTED BY IDOCK:   -4.43 KCAL/MOL
REMARK 922        TOTAL FREE ENERGY PREDICTED BY IDOCK:   -5.09 KCAL/MOL
REMARK 923 INTER-LIGAND FREE ENERGY PREDICTED BY IDOCK:   -4.96 KCAL/MOL
REMARK 924 INTRA-LIGAND FREE ENERGY PREDICTED BY IDOCK:   -0.13 KCAL/MOL
REMARK 927      BINDING AFFINITY PREDICTED BY RF-SCORE:    0.00 PKD
ROOT
HETATM    1  N   UNL     1     -13.173  11.115  72.164  1.00  0.00    -0.571 NA 
HETATM    2  C   UNL     1     -12.751  12.107  71.360  1.00  0.00    -0.263 C  
HETATM    3  H2  UNL     1     -13.692  11.357  73.008  1.00  0.00     0.000 HD 
HETATM    4  H1  UNL     1     -12.995  10.131  71.965  1.00  0.00     0.000 HD 
HETATM    5  N   UNL     1     -12.975  13.346  71.611  1.00  0.00    -0.367 NA 
HETATM    6  N   UNL     1     -12.034  11.670  70.303  1.00  0.00    -0.365 NA 
HETATM    7  H1  UNL     1     -12.656  14.099  71.001  1.00  0.00     0.000 HD 
HETATM    8  H2  UNL     1     -13.495  13.588  72.455  1.00  0.00     0.000 HD 
HETATM    9  H   UNL     1     -11.784  10.683  70.239  1.00  0.00     0.000 HD 
ENDROOT
BRANCH   6  10
HETATM   10  C   UNL     1     -11.612  12.589  69.250  1.00  0.00    -0.319 C  
BRANCH  10  11
HETATM   11  C   UNL     1     -11.385  11.829  67.939  1.00  0.00    -0.292 C  
HETATM   12  C   UNL     1     -10.170  10.915  68.051  1.00  0.00    -0.178 C  
HETATM   13  O   UNL     1     -10.037  10.118  66.867  1.00  0.00    -0.203 OA 
HETATM   14  C   UNL     1     -10.203  10.870  65.731  1.00  0.00    -0.259 A  
HETATM   15  C   UNL     1     -10.726  12.166  65.740  1.00  0.00    -0.267 A  
HETATM   16  O   UNL     1     -11.169  12.787  66.880  1.00  0.00    -0.270 OA 
HETATM   17  C   UNL     1     -10.817  12.888  64.552  1.00  0.00    -0.385 A  
HETATM   18  C   UNL     1     -10.429  12.299  63.348  1.00  0.00    -0.408 A  
HETATM   19  C   UNL     1      -9.947  10.987  63.333  1.00  0.00    -0.428 A  
HETATM   20  C   UNL     1      -9.831  10.273  64.527  1.00  0.00    -0.384 A  
ENDBRANCH  10  11
ENDBRANCH   6  10
TORSDOF 2
ENDMDL
MODEL      100
REMARK 921   NORMALIZED FREE ENERGY PREDICTED BY IDOCK:   -4.42 KCAL/MOL
REMARK 922        TOTAL FREE ENERGY PREDICTED BY IDOCK:   -5.08 KCAL/MOL
REMARK 923 INTER-LIGAND FREE ENERGY PREDICTED BY IDOCK:   -4.92 KCAL/MOL
REMARK 924 INTRA-LIGAND FREE ENERGY PREDICTED BY IDOCK:   -0.15 KCAL/MOL
REMARK 927      BINDING AFFINITY PREDICTED BY RF-SCORE:    0.00 PKD
ROOT
HETATM    1  N   UNL     1     -12.479  12.590  64.298  1.00  0.00    -0.579 NA 
HETATM    2  C   UNL     1     -11.228  12.960  64.624  1.00  0.00    -0.320 C  
HETATM    3  H2  UNL     1     -12.671  12.312  63.335  1.00  0.00     0.000 HD 
HETATM    4  H1  UNL     1     -13.243  12.575  64.973  1.00  0.00     0.000 HD 
HETATM    5  N   UNL     1     -10.265  12.979  63.775  1.00  0.00    -0.716 NA 
HETATM    6  N   UNL     1     -11.106  13.353  65.910  1.00  0.00    -0.281 NA 
HETATM    7  H1  UNL     1      -9.317  13.260  64.022  1.00  0.00     0.000 HD 
HETATM    8  H2  UNL     1     -10.457  12.701  62.812  1.00  0.00     0.000 HD 
HETATM    9  H   UNL     1     -11.940  13.438  66.491  1.00  0.00     0.000 HD 
ENDROOT
BRANCH   6  10
HETATM   10  C   UNL     1      -9.797  13.658  66.481  1.00  0.00    -0.293 C  
BRANCH  10  11
HETATM   11  C   UNL     1      -9.823  15.026  67.172  1.00  0.00    -0.233 C  
HETATM   12  C   UNL     1     -10.524  16.058  66.294  1.00  0.00    -0.320 C  
HETATM   13  O   UNL     1     -10.654  17.302  66.996  1.00  0.00    -0.310 OA 
HETATM   14  C   UNL     1      -9.486  17.648  67.629  1.00  0.00    -0.258 A  
HETATM   15  C   UNL     1      -8.421  16.762  67.809  1.00  0.00    -0.193 A  
HETATM   16  O   UNL     1      -8.464  15.448  67.415  1.00  0.00    -0.160 OA 
HETATM   17  C   UNL     1      -7.246  17.200  68.416  1.00  0.00    -0.209 A  
HETATM   18  C   UNL     1      -7.153  18.511  68.885  1.00  0.00    -0.302 A  
HETATM   19  C   UNL     1      -8.235  19.385  68.744  1.00  0.00    -0.382 A  
HETATM   20  C   UNL     1      -9.402  18.953  68.111  1.00  0.00    -0.368 A  
ENDBRANCH  10  11
ENDBRANCH   6  10
TORSDOF 2
ENDMDL
MODEL      101
REMARK 921   NORMALIZED FREE ENERGY PREDICTED BY IDOCK:   -4.41 KCAL/MOL
REMARK 922        TOTAL FREE ENERGY PREDICTED BY IDOCK:   -5.06 KCAL/MOL
REMARK 923 INTER-LIGAND FREE ENERGY PREDICTED BY IDOCK:   -4.85 KCAL/MOL
REMARK 924 INTRA-LIGAND FREE ENERGY PREDICTED BY IDOCK:   -0.22 KCAL/MOL
REMARK 927      BINDING AFFINITY PREDICTED BY RF-SCORE:    0.00 PKD
ROOT
HETATM    1  N   UNL     1      -5.976  12.654  67.022  1.00  0.00    -0.479 NA 
HETATM    2  C   UNL     1      -7.127  12.938  67.657  1.00  0.00    -0.151 C  
HETATM    3  H2  UNL     1      -5.229  12.197  67.545  1.00  0.00     0.000 HD 
HETATM    4  H1  UNL     1      -5.820  12.877  66.039  1.00  0.00     0.000 HD 
HETATM    5  N   UNL     1      -7.325  12.657  68.894  1.00  0.00    -0.256 NA 
HETATM    6  N   UNL     1      -8.021  13.585  66.879  1.00  0.00    -0.390 NA 
HETATM    7  H1  UNL     1      -8.197  12.872  69.376  1.00  0.00     0.000 HD 
HETATM    8  H2  UNL     1      -6.578  12.200  69.417  1.00  0.00     0.000 HD 
HETATM    9  H   UNL     1      -7.746  13.892  65.946  1.00  0.00     0.000 HD 
ENDROOT
BRANCH   6  10
HETATM   10  C   UNL     1      -9.375  13.852  67.354  1.00  0.00    -0.228 C  
BRANCH  10  11
HETATM   11  C   UNL     1      -9.525  15.329  67.735  1.00  0.00    -0.197 C  
HETATM   12  C   UNL     1     -10.990  15.750  67.688  1.00  0.00    -0.302 C  
HETATM   13  O   UNL     1     -11.137  17.095  68.163  1.00  0.00    -0.315 OA 
HETATM   14  C   UNL     1     -10.186  17.926  67.626  1.00  0.00    -0.365 A  
HETATM   15  C   UNL     1      -9.056  17.461  66.948  1.00  0.00    -0.245 A  
HETATM   16  O   UNL     1      -8.766  16.127  66.802  1.00  0.00    -0.195 OA 
HETATM   17  C   UNL     1      -8.160  18.366  66.383  1.00  0.00    -0.285 A  
HETATM   18  C   UNL     1      -8.368  19.738  66.537  1.00  0.00    -0.373 A  
HETATM   19  C   UNL     1      -9.475  20.203  67.252  1.00  0.00    -0.532 A  
HETATM   20  C   UNL     1     -10.387  19.295  67.794  1.00  0.00    -0.531 A  
ENDBRANCH  10  11
ENDBRANCH   6  10
TORSDOF 2
ENDMDL
MODEL      102
REMARK 921   NORMALIZED FREE ENERGY PREDICTED BY IDOCK:   -4.40 KCAL/MOL
REMARK 922        TOTAL FREE ENERGY PREDICTED BY IDOCK:   -5.05 KCAL/MOL
REMARK 923 INTER-LIGAND FREE ENERGY PREDICTED BY IDOCK:   -4.88 KCAL/MOL
REMARK 924 INTRA-LIGAND FREE ENERGY PREDICTED BY IDOCK:   -0.17 KCAL/MOL
REMARK 927      BINDING AFFINITY PREDICTED BY RF-SCORE:    0.00 PKD
ROOT
HETATM    1  N   UNL     1     -11.529   6.242  68.765  1.00  0.00    -0.461 NA 
HETATM    2  C   UNL     1     -11.040   6.680  67.591  1.00  0.00    -0.271 C  
HETATM    3  H2  UNL     1     -11.862   5.280  68.826  1.00  0.00     0.000 HD 
HETATM    4  H1  UNL     1     -11.581   6.832  69.595  1.00  0.00     0.000 HD 
HETATM    5  N   UNL     1     -10.975   5.939  66.545  1.00  0.00    -0.725 NA 
HETATM    6  N   UNL     1     -10.677   7.981  67.616  1.00  0.00    -0.471 NA 
HETATM    7  H1  UNL     1     -10.604   6.271  65.656  1.00  0.00     0.000 HD 
HETATM    8  H2  UNL     1     -11.308   4.976  66.607  1.00  0.00     0.000 HD 
HETATM    9  H   UNL     1     -10.880   8.543  68.442  1.00  0.00     0.000 HD 
ENDROOT
BRANCH   6  10
HETATM   10  C   UNL     1     -10.000   8.593  66.477  1.00  0.00    -0.282 C  
BRANCH  10  11
HETATM   11  C   UNL     1      -9.854  10.103  66.693  1.00  0.00    -0.200 C  
HETATM   12  C   UNL     1      -9.625  10.416  68.168  1.00  0.00    -0.144 C  
HETATM   13  O   UNL     1      -9.368  11.816  68.345  1.00  0.00    -0.191 OA 
HETATM   14  C   UNL     1     -10.250  12.586  67.629  1.00  0.00    -0.219 A  
HETATM   15  C   UNL     1     -11.086  12.069  66.635  1.00  0.00    -0.310 A  
HETATM   16  O   UNL     1     -11.064  10.753  66.247  1.00  0.00    -0.080 OA 
HETATM   17  C   UNL     1     -11.994  12.903  65.987  1.00  0.00    -0.505 A  
HETATM   18  C   UNL     1     -12.034  14.263  66.298  1.00  0.00    -0.428 A  
HETATM   19  C   UNL     1     -11.168  14.788  67.261  1.00  0.00    -0.351 A  
HETATM   20  C   UNL     1     -10.278  13.946  67.930  1.00  0.00    -0.241 A  
ENDBRANCH  10  11
ENDBRANCH   6  10
TORSDOF 2
ENDMDL
MODEL      103
REMARK 921   NORMALIZED FREE ENERGY PREDICTED BY IDOCK:   -4.40 KCAL/MOL
REMARK 922        TOTAL FREE ENERGY PREDICTED BY IDOCK:   -5.05 KCAL/MOL
REMARK 923 INTER-LIGAND FREE ENERGY PREDICTED BY IDOCK:   -4.86 KCAL/MOL
REMARK 924 INTRA-LIGAND FREE ENERGY PREDICTED BY IDOCK:   -0.19 KCAL/MOL
REMARK 927      BINDING AFFINITY PREDICTED BY RF-SCORE:    0.00 PKD
ROOT
HETATM    1  N   UNL     1     -13.175  12.198  63.500  1.00  0.00    -0.614 NA 
HETATM    2  C   UNL     1     -11.845  12.366  63.614  1.00  0.00    -0.526 C  
HETATM    3  H2  UNL     1     -13.790  12.957  63.793  1.00  0.00     0.000 HD 
HETATM    4  H1  UNL     1     -13.593  11.343  63.134  1.00  0.00     0.000 HD 
HETATM    5  N   UNL     1     -11.318  13.442  64.075  1.00  0.00    -0.539 NA 
HETATM    6  N   UNL     1     -11.136  11.278  63.244  1.00  0.00    -0.828 NA 
HETATM    7  H1  UNL     1     -10.310  13.569  64.162  1.00  0.00     0.000 HD 
HETATM    8  H2  UNL     1     -11.933  14.201  64.368  1.00  0.00     0.000 HD 
HETATM    9  H   UNL     1     -11.626  10.414  63.013  1.00  0.00     0.000 HD 
ENDROOT
BRANCH   6  10
HETATM   10  C   UNL     1      -9.679  11.322  63.169  1.00  0.00    -0.386 C  
BRANCH  10  11
HETATM   11  C   UNL     1      -9.065  10.327  64.160  1.00  0.00    -0.251 C  
HETATM   12  C   UNL     1      -8.745   9.007  63.467  1.00  0.00    -0.076 C  
HETATM   13  O   UNL     1      -8.059   8.126  64.366  1.00  0.00    -0.151 OA 
HETATM   14  C   UNL     1      -8.655   8.103  65.602  1.00  0.00    -0.158 A  
HETATM   15  C   UNL     1      -9.614   9.036  66.008  1.00  0.00    -0.272 A  
HETATM   16  O   UNL     1     -10.009  10.092  65.226  1.00  0.00    -0.300 OA 
HETATM   17  C   UNL     1     -10.214   8.918  67.259  1.00  0.00    -0.326 A  
HETATM   18  C   UNL     1      -9.823   7.895  68.125  1.00  0.00    -0.193 A  
HETATM   19  C   UNL     1      -8.833   6.988  67.736  1.00  0.00    -0.123 A  
HETATM   20  C   UNL     1      -8.252   7.091  66.471  1.00  0.00    -0.114 A  
ENDBRANCH  10  11
ENDBRANCH   6  10
TORSDOF 2
ENDMDL
MODEL      104
REMARK 921   NORMALIZED FREE ENERGY PREDICTED BY IDOCK:   -4.39 KCAL/MOL
REMARK 922        TOTAL FREE ENERGY PREDICTED BY IDOCK:   -5.04 KCAL/MOL
REMARK 923 INTER-LIGAND FREE ENERGY PREDICTED BY IDOCK:   -4.90 KCAL/MOL
REMARK 924 INTRA-LIGAND FREE ENERGY PREDICTED BY IDOCK:   -0.15 KCAL/MOL
REMARK 927      BINDING AFFINITY PREDICTED BY RF-SCORE:    0.00 PKD
ROOT
HETATM    1  N   UNL     1     -13.216  15.610  70.579  1.00  0.00    -0.762 NA 
HETATM    2  C   UNL     1     -12.242  15.386  69.679  1.00  0.00    -0.282 C  
HETATM    3  H2  UNL     1     -14.037  15.004  70.571  1.00  0.00     0.000 HD 
HETATM    4  H1  UNL     1     -13.168  16.358  71.269  1.00  0.00     0.000 HD 
HETATM    5  N   UNL     1     -12.303  14.443  68.810  1.00  0.00    -0.585 NA 
HETATM    6  N   UNL     1     -11.232  16.279  69.753  1.00  0.00    -0.334 NA 
HETATM    7  H1  UNL     1     -11.564  14.274  68.128  1.00  0.00     0.000 HD 
HETATM    8  H2  UNL     1     -13.124  13.838  68.802  1.00  0.00     0.000 HD 
HETATM    9  H   UNL     1     -11.313  17.079  70.380  1.00  0.00     0.000 HD 
ENDROOT
BRANCH   6  10
HETATM   10  C   UNL     1     -10.024  16.114  68.950  1.00  0.00    -0.233 C  
BRANCH  10  11
HETATM   11  C   UNL     1      -9.323  17.463  68.760  1.00  0.00    -0.244 C  
HETATM   12  C   UNL     1     -10.258  18.467  68.094  1.00  0.00    -0.384 C  
HETATM   13  O   UNL     1      -9.640  19.759  68.032  1.00  0.00    -0.354 OA 
HETATM   14  C   UNL     1      -8.338  19.674  67.603  1.00  0.00    -0.308 A  
HETATM   15  C   UNL     1      -7.633  18.470  67.529  1.00  0.00    -0.228 A  
HETATM   16  O   UNL     1      -8.159  17.267  67.928  1.00  0.00    -0.201 OA 
HETATM   17  C   UNL     1      -6.331  18.456  67.035  1.00  0.00    -0.191 A  
HETATM   18  C   UNL     1      -5.716  19.651  66.658  1.00  0.00    -0.168 A  
HETATM   19  C   UNL     1      -6.407  20.861  66.773  1.00  0.00    -0.346 A  
HETATM   20  C   UNL     1      -7.721  20.871  67.243  1.00  0.00    -0.276 A  
ENDBRANCH  10  11
ENDBRANCH   6  10
TORSDOF 2
ENDMDL
MODEL      105
REMARK 921   NORMALIZED FREE ENERGY PREDICTED BY IDOCK:   -4.38 KCAL/MOL
REMARK 922        TOTAL FREE ENERGY PREDICTED BY IDOCK:   -5.03 KCAL/MOL
REMARK 923 INTER-LIGAND FREE ENERGY PREDICTED BY IDOCK:   -4.91 KCAL/MOL
REMARK 924 INTRA-LIGAND FREE ENERGY PREDICTED BY IDOCK:   -0.12 KCAL/MOL
REMARK 927      BINDING AFFINITY PREDICTED BY RF-SCORE:    0.00 PKD
ROOT
HETATM    1  N   UNL     1     -11.057   7.259  68.283  1.00  0.00    -0.464 NA 
HETATM    2  C   UNL     1     -10.564   7.723  67.121  1.00  0.00    -0.331 C  
HETATM    3  H2  UNL     1     -11.053   6.253  68.449  1.00  0.00     0.000 HD 
HETATM    4  H1  UNL     1     -11.434   7.872  69.006  1.00  0.00     0.000 HD 
HETATM    5  N   UNL     1     -10.090   6.952  66.211  1.00  0.00    -0.435 NA 
HETATM    6  N   UNL     1     -10.668   9.063  66.994  1.00  0.00    -0.281 NA 
HETATM    7  H1  UNL     1      -9.716   7.303  65.330  1.00  0.00     0.000 HD 
HETATM    8  H2  UNL     1     -10.086   5.945  66.377  1.00  0.00     0.000 HD 
HETATM    9  H   UNL     1     -11.175   9.597  67.700  1.00  0.00     0.000 HD 
ENDROOT
BRANCH   6  10
HETATM   10  C   UNL     1     -10.063   9.759  65.862  1.00  0.00    -0.243 C  
BRANCH  10  11
HETATM   11  C   UNL     1     -10.630  11.178  65.745  1.00  0.00    -0.227 C  
HETATM   12  C   UNL     1     -10.889  11.534  64.284  1.00  0.00    -0.359 C  
HETATM   13  O   UNL     1     -11.532  12.812  64.190  1.00  0.00    -0.343 OA 
HETATM   14  C   UNL     1     -10.934  13.739  65.007  1.00  0.00    -0.357 A  
HETATM   15  C   UNL     1     -10.019  13.401  66.008  1.00  0.00    -0.293 A  
HETATM   16  O   UNL     1      -9.674  12.105  66.302  1.00  0.00    -0.228 OA 
HETATM   17  C   UNL     1      -9.412  14.402  66.763  1.00  0.00    -0.280 A  
HETATM   18  C   UNL     1      -9.754  15.738  66.550  1.00  0.00    -0.285 A  
HETATM   19  C   UNL     1     -10.702  16.073  65.578  1.00  0.00    -0.374 A  
HETATM   20  C   UNL     1     -11.289  15.071  64.803  1.00  0.00    -0.409 A  
ENDBRANCH  10  11
ENDBRANCH   6  10
TORSDOF 2
ENDMDL
MODEL      106
REMARK 921   NORMALIZED FREE ENERGY PREDICTED BY IDOCK:   -4.38 KCAL/MOL
REMARK 922        TOTAL FREE ENERGY PREDICTED BY IDOCK:   -5.03 KCAL/MOL
REMARK 923 INTER-LIGAND FREE ENERGY PREDICTED BY IDOCK:   -4.88 KCAL/MOL
REMARK 924 INTRA-LIGAND FREE ENERGY PREDICTED BY IDOCK:   -0.15 KCAL/MOL
REMARK 927      BINDING AFFINITY PREDICTED BY RF-SCORE:    0.00 PKD
ROOT
HETATM    1  N   UNL     1      -8.323  18.870  66.882  1.00  0.00    -0.272 NA 
HETATM    2  C   UNL     1      -9.412  18.128  66.612  1.00  0.00    -0.302 C  
HETATM    3  H2  UNL     1      -8.248  19.798  66.464  1.00  0.00     0.000 HD 
HETATM    4  H1  UNL     1      -7.570  18.543  67.487  1.00  0.00     0.000 HD 
HETATM    5  N   UNL     1     -10.361  18.538  65.852  1.00  0.00    -0.599 NA 
HETATM    6  N   UNL     1      -9.377  16.903  67.179  1.00  0.00    -0.231 NA 
HETATM    7  H1  UNL     1     -11.187  17.976  65.647  1.00  0.00     0.000 HD 
HETATM    8  H2  UNL     1     -10.286  19.466  65.434  1.00  0.00     0.000 HD 
HETATM    9  H   UNL     1      -8.533  16.597  67.662  1.00  0.00     0.000 HD 
ENDROOT
BRANCH   6  10
HETATM   10  C   UNL     1     -10.531  16.011  67.111  1.00  0.00    -0.308 C  
BRANCH  10  11
HETATM   11  C   UNL     1     -10.403  15.065  65.912  1.00  0.00    -0.313 C  
HETATM   12  C   UNL     1     -11.736  14.940  65.183  1.00  0.00    -0.295 C  
HETATM   13  O   UNL     1     -11.581  14.153  63.994  1.00  0.00    -0.280 OA 
HETATM   14  C   UNL     1     -10.841  13.022  64.231  1.00  0.00    -0.405 A  
HETATM   15  C   UNL     1     -10.096  12.824  65.397  1.00  0.00    -0.259 A  
HETATM   16  O   UNL     1      -9.993  13.766  66.390  1.00  0.00    -0.281 OA 
HETATM   17  C   UNL     1      -9.411  11.626  65.590  1.00  0.00    -0.228 A  
HETATM   18  C   UNL     1      -9.432  10.645  64.599  1.00  0.00    -0.308 A  
HETATM   19  C   UNL     1     -10.142  10.860  63.414  1.00  0.00    -0.398 A  
HETATM   20  C   UNL     1     -10.850  12.049  63.232  1.00  0.00    -0.400 A  
ENDBRANCH  10  11
ENDBRANCH   6  10
TORSDOF 2
ENDMDL
MODEL      107
REMARK 921   NORMALIZED FREE ENERGY PREDICTED BY IDOCK:   -4.31 KCAL/MOL
REMARK 922        TOTAL FREE ENERGY PREDICTED BY IDOCK:   -4.95 KCAL/MOL
REMARK 923 INTER-LIGAND FREE ENERGY PREDICTED BY IDOCK:   -4.81 KCAL/MOL
REMARK 924 INTRA-LIGAND FREE ENERGY PREDICTED BY IDOCK:   -0.14 KCAL/MOL
REMARK 927      BINDING AFFINITY PREDICTED BY RF-SCORE:    0.00 PKD
ROOT
HETATM    1  N   UNL     1     -10.763  15.178  70.440  1.00  0.00    -0.486 NA 
HETATM    2  C   UNL     1     -11.681  14.772  69.546  1.00  0.00    -0.321 C  
HETATM    3  H2  UNL     1     -11.048  15.296  71.413  1.00  0.00     0.000 HD 
HETATM    4  H1  UNL     1      -9.794  15.371  70.187  1.00  0.00     0.000 HD 
HETATM    5  N   UNL     1     -12.901  14.528  69.864  1.00  0.00    -0.529 NA 
HETATM    6  N   UNL     1     -11.202  14.699  68.285  1.00  0.00    -0.272 NA 
HETATM    7  H1  UNL     1     -13.597  14.221  69.185  1.00  0.00     0.000 HD 
HETATM    8  H2  UNL     1     -13.185  14.647  70.836  1.00  0.00     0.000 HD 
HETATM    9  H   UNL     1     -10.260  15.034  68.085  1.00  0.00     0.000 HD 
ENDROOT
BRANCH   6  10
HETATM   10  C   UNL     1     -12.014  14.147  67.205  1.00  0.00    -0.426 C  
BRANCH  10  11
HETATM   11  C   UNL     1     -11.362  12.879  66.643  1.00  0.00    -0.317 C  
HETATM   12  C   UNL     1     -10.015  12.626  67.311  1.00  0.00    -0.212 C  
HETATM   13  O   UNL     1      -9.469  11.375  66.872  1.00  0.00    -0.175 OA 
HETATM   14  C   UNL     1      -9.577  11.228  65.511  1.00  0.00    -0.228 A  
HETATM   15  C   UNL     1     -10.377  12.049  64.713  1.00  0.00    -0.280 A  
HETATM   16  O   UNL     1     -11.169  13.048  65.222  1.00  0.00    -0.285 OA 
HETATM   17  C   UNL     1     -10.396  11.872  63.331  1.00  0.00    -0.481 A  
HETATM   18  C   UNL     1      -9.652  10.844  62.751  1.00  0.00    -0.339 A  
HETATM   19  C   UNL     1      -8.887   9.994  63.555  1.00  0.00    -0.251 A  
HETATM   20  C   UNL     1      -8.846  10.190  64.936  1.00  0.00    -0.214 A  
ENDBRANCH  10  11
ENDBRANCH   6  10
TORSDOF 2
ENDMDL
MODEL      108
REMARK 921   NORMALIZED FREE ENERGY PREDICTED BY IDOCK:   -4.30 KCAL/MOL
REMARK 922        TOTAL FREE ENERGY PREDICTED BY IDOCK:   -4.95 KCAL/MOL
REMARK 923 INTER-LIGAND FREE ENERGY PREDICTED BY IDOCK:   -4.76 KCAL/MOL
REMARK 924 INTRA-LIGAND FREE ENERGY PREDICTED BY IDOCK:   -0.19 KCAL/MOL
REMARK 927      BINDING AFFINITY PREDICTED BY RF-SCORE:    0.00 PKD
ROOT
HETATM    1  N   UNL     1     -11.977  11.858  67.743  1.00  0.00    -0.573 NA 
HETATM    2  C   UNL     1     -11.151  10.897  67.293  1.00  0.00    -0.283 C  
HETATM    3  H2  UNL     1     -11.988  12.757  67.261  1.00  0.00     0.000 HD 
HETATM    4  H1  UNL     1     -12.592  11.726  68.545  1.00  0.00     0.000 HD 
HETATM    5  N   UNL     1     -10.377  11.063  66.284  1.00  0.00    -0.245 NA 
HETATM    6  N   UNL     1     -11.187   9.771  68.038  1.00  0.00    -0.521 NA 
HETATM    7  H1  UNL     1      -9.751  10.334  65.942  1.00  0.00     0.000 HD 
HETATM    8  H2  UNL     1     -10.388  11.962  65.802  1.00  0.00     0.000 HD 
HETATM    9  H   UNL     1     -11.728   9.758  68.903  1.00  0.00     0.000 HD 
ENDROOT
BRANCH   6  10
HETATM   10  C   UNL     1     -10.463   8.573  67.624  1.00  0.00    -0.241 C  
BRANCH  10  11
HETATM   11  C   UNL     1     -10.235   7.647  68.823  1.00  0.00    -0.199 C  
HETATM   12  C   UNL     1     -11.033   6.357  68.665  1.00  0.00    -0.330 C  
HETATM   13  O   UNL     1     -10.721   5.445  69.726  1.00  0.00    -0.315 OA 
HETATM   14  C   UNL     1     -10.707   6.076  70.946  1.00  0.00    -0.267 A  
HETATM   15  C   UNL     1     -10.703   7.466  71.089  1.00  0.00    -0.231 A  
HETATM   16  O   UNL     1     -10.660   8.329  70.023  1.00  0.00    -0.228 OA 
HETATM   17  C   UNL     1     -10.743   8.034  72.360  1.00  0.00    -0.386 A  
HETATM   18  C   UNL     1     -10.739   7.215  73.489  1.00  0.00    -0.375 A  
HETATM   19  C   UNL     1     -10.698   5.825  73.346  1.00  0.00    -0.303 A  
HETATM   20  C   UNL     1     -10.687   5.255  72.072  1.00  0.00    -0.261 A  
ENDBRANCH  10  11
ENDBRANCH   6  10
TORSDOF 2
ENDMDL
MODEL      109
REMARK 921   NORMALIZED FREE ENERGY PREDICTED BY IDOCK:   -4.29 KCAL/MOL
REMARK 922        TOTAL FREE ENERGY PREDICTED BY IDOCK:   -4.93 KCAL/MOL
REMARK 923 INTER-LIGAND FREE ENERGY PREDICTED BY IDOCK:   -4.74 KCAL/MOL
REMARK 924 INTRA-LIGAND FREE ENERGY PREDICTED BY IDOCK:   -0.19 KCAL/MOL
REMARK 927      BINDING AFFINITY PREDICTED BY RF-SCORE:    0.00 PKD
ROOT
HETATM    1  N   UNL     1      -9.614  11.617  62.854  1.00  0.00    -0.550 NA 
HETATM    2  C   UNL     1     -10.585  12.312  63.472  1.00  0.00    -0.448 C  
HETATM    3  H2  UNL     1      -9.879  10.929  62.148  1.00  0.00     0.000 HD 
HETATM    4  H1  UNL     1      -8.624  11.747  63.061  1.00  0.00     0.000 HD 
HETATM    5  N   UNL     1     -11.830  12.148  63.211  1.00  0.00    -0.734 NA 
HETATM    6  N   UNL     1     -10.118  13.154  64.419  1.00  0.00    -0.622 NA 
HETATM    7  H1  UNL     1     -12.567  12.676  63.679  1.00  0.00     0.000 HD 
HETATM    8  H2  UNL     1     -12.096  11.461  62.505  1.00  0.00     0.000 HD 
HETATM    9  H   UNL     1      -9.128  13.136  64.664  1.00  0.00     0.000 HD 
ENDROOT
BRANCH   6  10
HETATM   10  C   UNL     1     -11.010  14.089  65.097  1.00  0.00    -0.353 C  
BRANCH  10  11
HETATM   11  C   UNL     1     -10.338  14.649  66.355  1.00  0.00    -0.289 C  
HETATM   12  C   UNL     1      -9.820  16.062  66.104  1.00  0.00    -0.325 C  
HETATM   13  O   UNL     1      -9.304  16.626  67.318  1.00  0.00    -0.225 OA 
HETATM   14  C   UNL     1      -8.507  15.733  67.989  1.00  0.00    -0.161 A  
HETATM   15  C   UNL     1      -8.453  14.371  67.681  1.00  0.00    -0.185 A  
HETATM   16  O   UNL     1      -9.233  13.791  66.712  1.00  0.00    -0.246 OA 
HETATM   17  C   UNL     1      -7.580  13.534  68.373  1.00  0.00    -0.133 A  
HETATM   18  C   UNL     1      -6.794  14.049  69.404  1.00  0.00    -0.083 A  
HETATM   19  C   UNL     1      -6.879  15.403  69.742  1.00  0.00    -0.162 A  
HETATM   20  C   UNL     1      -7.734  16.246  69.030  1.00  0.00    -0.224 A  
ENDBRANCH  10  11
ENDBRANCH   6  10
TORSDOF 2
ENDMDL
MODEL      110
REMARK 921   NORMALIZED FREE ENERGY PREDICTED BY IDOCK:   -4.28 KCAL/MOL
REMARK 922        TOTAL FREE ENERGY PREDICTED BY IDOCK:   -4.92 KCAL/MOL
REMARK 923 INTER-LIGAND FREE ENERGY PREDICTED BY IDOCK:   -4.70 KCAL/MOL
REMARK 924 INTRA-LIGAND FREE ENERGY PREDICTED BY IDOCK:   -0.22 KCAL/MOL
REMARK 927      BINDING AFFINITY PREDICTED BY RF-SCORE:    0.00 PKD
ROOT
HETATM    1  N   UNL     1     -11.456  12.096  69.869  1.00  0.00    -0.506 NA 
HETATM    2  C   UNL     1     -11.815  13.225  69.231  1.00  0.00    -0.331 C  
HETATM    3  H2  UNL     1     -11.788  11.948  70.822  1.00  0.00     0.000 HD 
HETATM    4  H1  UNL     1     -10.867  11.384  69.440  1.00  0.00     0.000 HD 
HETATM    5  N   UNL     1     -12.557  14.122  69.770  1.00  0.00    -0.455 NA 
HETATM    6  N   UNL     1     -11.276  13.334  67.997  1.00  0.00    -0.262 NA 
HETATM    7  H1  UNL     1     -12.829  14.977  69.287  1.00  0.00     0.000 HD 
HETATM    8  H2  UNL     1     -12.889  13.973  70.724  1.00  0.00     0.000 HD 
HETATM    9  H   UNL     1     -10.591  12.646  67.685  1.00  0.00     0.000 HD 
ENDROOT
BRANCH   6  10
HETATM   10  C   UNL     1     -11.661  14.422  67.104  1.00  0.00    -0.400 C  
BRANCH  10  11
HETATM   11  C   UNL     1     -10.568  15.496  67.070  1.00  0.00    -0.311 C  
HETATM   12  C   UNL     1     -10.646  16.300  65.776  1.00  0.00    -0.324 C  
HETATM   13  O   UNL     1      -9.702  17.380  65.805  1.00  0.00    -0.533 OA 
HETATM   14  C   UNL     1      -8.475  16.965  66.260  1.00  0.00    -0.287 A  
HETATM   15  C   UNL     1      -8.267  15.734  66.889  1.00  0.00    -0.253 A  
HETATM   16  O   UNL     1      -9.281  14.848  67.156  1.00  0.00    -0.202 OA 
HETATM   17  C   UNL     1      -6.983  15.360  67.278  1.00  0.00    -0.180 A  
HETATM   18  C   UNL     1      -5.914  16.235  67.081  1.00  0.00    -0.128 A  
HETATM   19  C   UNL     1      -6.129  17.484  66.492  1.00  0.00    -0.248 A  
HETATM   20  C   UNL     1      -7.412  17.847  66.078  1.00  0.00    -0.279 A  
ENDBRANCH  10  11
ENDBRANCH   6  10
TORSDOF 2
ENDMDL
MODEL      111
REMARK 921   NORMALIZED FREE ENERGY PREDICTED BY IDOCK:   -4.28 KCAL/MOL
REMARK 922        TOTAL FREE ENERGY PREDICTED BY IDOCK:   -4.92 KCAL/MOL
REMARK 923 INTER-LIGAND FREE ENERGY PREDICTED BY IDOCK:   -4.75 KCAL/MOL
REMARK 924 INTRA-LIGAND FREE ENERGY PREDICTED BY IDOCK:   -0.17 KCAL/MOL
REMARK 927      BINDING AFFINITY PREDICTED BY RF-SCORE:    0.00 PKD
ROOT
HETATM    1  N   UNL     1      -9.131  18.211  65.924  1.00  0.00    -0.480 NA 
HETATM    2  C   UNL     1     -10.032  18.139  66.919  1.00  0.00    -0.342 C  
HETATM    3  H2  UNL     1      -8.882  19.130  65.556  1.00  0.00     0.000 HD 
HETATM    4  H1  UNL     1      -8.686  17.386  65.521  1.00  0.00     0.000 HD 
HETATM    5  N   UNL     1     -10.591  19.177  67.426  1.00  0.00    -0.461 NA 
HETATM    6  N   UNL     1     -10.318  16.873  67.290  1.00  0.00    -0.305 NA 
HETATM    7  H1  UNL     1     -11.274  19.123  68.182  1.00  0.00     0.000 HD 
HETATM    8  H2  UNL     1     -10.342  20.096  67.058  1.00  0.00     0.000 HD 
HETATM    9  H   UNL     1      -9.935  16.094  66.754  1.00  0.00     0.000 HD 
ENDROOT
BRANCH   6  10
HETATM   10  C   UNL     1     -11.168  16.602  68.445  1.00  0.00    -0.239 C  
BRANCH  10  11
HETATM   11  C   UNL     1     -11.620  15.138  68.443  1.00  0.00    -0.337 C  
HETATM   12  C   UNL     1     -11.711  14.602  69.868  1.00  0.00    -0.299 C  
HETATM   13  O   UNL     1     -12.251  13.274  69.867  1.00  0.00    -0.302 OA 
HETATM   14  C   UNL     1     -11.671  12.495  68.897  1.00  0.00    -0.322 A  
HETATM   15  C   UNL     1     -10.883  13.014  67.866  1.00  0.00    -0.242 A  
HETATM   16  O   UNL     1     -10.660  14.358  67.698  1.00  0.00    -0.256 OA 
HETATM   17  C   UNL     1     -10.284  12.156  66.947  1.00  0.00    -0.228 A  
HETATM   18  C   UNL     1     -10.509  10.781  67.030  1.00  0.00    -0.297 A  
HETATM   19  C   UNL     1     -11.333  10.265  68.035  1.00  0.00    -0.219 A  
HETATM   20  C   UNL     1     -11.910  11.124  68.972  1.00  0.00    -0.418 A  
ENDBRANCH  10  11
ENDBRANCH   6  10
TORSDOF 2
ENDMDL
MODEL      112
REMARK 921   NORMALIZED FREE ENERGY PREDICTED BY IDOCK:   -4.27 KCAL/MOL
REMARK 922        TOTAL FREE ENERGY PREDICTED BY IDOCK:   -4.91 KCAL/MOL
REMARK 923 INTER-LIGAND FREE ENERGY PREDICTED BY IDOCK:   -4.69 KCAL/MOL
REMARK 924 INTRA-LIGAND FREE ENERGY PREDICTED BY IDOCK:   -0.22 KCAL/MOL
REMARK 927      BINDING AFFINITY PREDICTED BY RF-SCORE:    0.00 PKD
ROOT
HETATM    1  N   UNL     1     -10.667   9.071  71.392  1.00  0.00    -0.303 NA 
HETATM    2  C   UNL     1     -10.829   8.525  70.174  1.00  0.00    -0.233 C  
HETATM    3  H2  UNL     1     -11.169   8.663  72.181  1.00  0.00     0.000 HD 
HETATM    4  H1  UNL     1     -10.064   9.876  71.559  1.00  0.00     0.000 HD 
HETATM    5  N   UNL     1     -11.588   7.511  69.963  1.00  0.00    -0.488 NA 
HETATM    6  N   UNL     1     -10.157   9.178  69.202  1.00  0.00    -0.188 NA 
HETATM    7  H1  UNL     1     -11.710   7.097  69.039  1.00  0.00     0.000 HD 
HETATM    8  H2  UNL     1     -12.089   7.103  70.752  1.00  0.00     0.000 HD 
HETATM    9  H   UNL     1      -9.680  10.053  69.422  1.00  0.00     0.000 HD 
ENDROOT
BRANCH   6  10
HETATM   10  C   UNL     1     -10.102   8.651  67.842  1.00  0.00    -0.203 C  
BRANCH  10  11
HETATM   11  C   UNL     1     -10.678   9.669  66.852  1.00  0.00    -0.115 C  
HETATM   12  C   UNL     1      -9.687   9.944  65.726  1.00  0.00    -0.266 C  
HETATM   13  O   UNL     1     -10.278  10.800  64.740  1.00  0.00    -0.306 OA 
HETATM   14  C   UNL     1     -10.939  11.855  65.320  1.00  0.00    -0.302 A  
HETATM   15  C   UNL     1     -11.242  11.914  66.683  1.00  0.00    -0.328 A  
HETATM   16  O   UNL     1     -10.954  10.897  67.559  1.00  0.00    -0.254 OA 
HETATM   17  C   UNL     1     -11.869  13.041  67.208  1.00  0.00    -0.419 A  
HETATM   18  C   UNL     1     -12.235  14.090  66.365  1.00  0.00    -0.492 A  
HETATM   19  C   UNL     1     -11.971  14.013  64.994  1.00  0.00    -0.409 A  
HETATM   20  C   UNL     1     -11.318  12.895  64.473  1.00  0.00    -0.382 A  
ENDBRANCH  10  11
ENDBRANCH   6  10
TORSDOF 2
ENDMDL
MODEL      113
REMARK 921   NORMALIZED FREE ENERGY PREDICTED BY IDOCK:   -4.27 KCAL/MOL
REMARK 922        TOTAL FREE ENERGY PREDICTED BY IDOCK:   -4.91 KCAL/MOL
REMARK 923 INTER-LIGAND FREE ENERGY PREDICTED BY IDOCK:   -4.79 KCAL/MOL
REMARK 924 INTRA-LIGAND FREE ENERGY PREDICTED BY IDOCK:   -0.12 KCAL/MOL
REMARK 927      BINDING AFFINITY PREDICTED BY RF-SCORE:    0.00 PKD
ROOT
HETATM    1  N   UNL     1     -10.695   4.127  64.731  1.00  0.00    -0.629 NA 
HETATM    2  C   UNL     1     -10.221   4.616  65.890  1.00  0.00    -0.276 C  
HETATM    3  H2  UNL     1     -10.756   3.115  64.616  1.00  0.00     0.000 HD 
HETATM    4  H1  UNL     1     -10.995   4.726  63.962  1.00  0.00     0.000 HD 
HETATM    5  N   UNL     1      -9.842   3.863  66.858  1.00  0.00    -0.332 NA 
HETATM    6  N   UNL     1     -10.140   5.964  65.908  1.00  0.00    -0.387 NA 
HETATM    7  H1  UNL     1      -9.483   4.233  67.738  1.00  0.00     0.000 HD 
HETATM    8  H2  UNL     1      -9.903   2.851  66.743  1.00  0.00     0.000 HD 
HETATM    9  H   UNL     1     -10.333   6.490  65.056  1.00  0.00     0.000 HD 
ENDROOT
BRANCH   6  10
HETATM   10  C   UNL     1      -9.778   6.678  67.128  1.00  0.00    -0.142 C  
BRANCH  10  11
HETATM   11  C   UNL     1     -10.506   8.025  67.192  1.00  0.00    -0.338 C  
HETATM   12  C   UNL     1      -9.823   9.048  66.289  1.00  0.00    -0.291 C  
HETATM   13  O   UNL     1     -10.578  10.266  66.258  1.00  0.00    -0.176 OA 
HETATM   14  C   UNL     1     -10.974  10.647  67.517  1.00  0.00    -0.310 A  
HETATM   15  C   UNL     1     -10.905   9.804  68.629  1.00  0.00    -0.188 A  
HETATM   16  O   UNL     1     -10.483   8.499  68.556  1.00  0.00    -0.208 OA 
HETATM   17  C   UNL     1     -11.276  10.277  69.885  1.00  0.00    -0.360 A  
HETATM   18  C   UNL     1     -11.760  11.579  70.023  1.00  0.00    -0.414 A  
HETATM   19  C   UNL     1     -11.870  12.408  68.903  1.00  0.00    -0.350 A  
HETATM   20  C   UNL     1     -11.472  11.941  67.649  1.00  0.00    -0.387 A  
ENDBRANCH  10  11
ENDBRANCH   6  10
TORSDOF 2
ENDMDL
MODEL      114
REMARK 921   NORMALIZED FREE ENERGY PREDICTED BY IDOCK:   -4.27 KCAL/MOL
REMARK 922        TOTAL FREE ENERGY PREDICTED BY IDOCK:   -4.91 KCAL/MOL
REMARK 923 INTER-LIGAND FREE ENERGY PREDICTED BY IDOCK:   -4.78 KCAL/MOL
REMARK 924 INTRA-LIGAND FREE ENERGY PREDICTED BY IDOCK:   -0.13 KCAL/MOL
REMARK 927      BINDING AFFINITY PREDICTED BY RF-SCORE:    0.00 PKD
ROOT
HETATM    1  N   UNL     1     -12.529  14.089  70.886  1.00  0.00    -0.348 NA 
HETATM    2  C   UNL     1     -13.005  13.085  71.644  1.00  0.00    -0.321 C  
HETATM    3  H2  UNL     1     -12.771  15.048  71.139  1.00  0.00     0.000 HD 
HETATM    4  H1  UNL     1     -11.937  13.933  70.071  1.00  0.00     0.000 HD 
HETATM    5  N   UNL     1     -13.749  13.282  72.670  1.00  0.00    -0.695 NA 
HETATM    6  N   UNL     1     -12.661  11.862  71.185  1.00  0.00    -0.348 NA 
HETATM    7  H1  UNL     1     -14.110  12.520  73.245  1.00  0.00     0.000 HD 
HETATM    8  H2  UNL     1     -13.991  14.240  72.923  1.00  0.00     0.000 HD 
HETATM    9  H   UNL     1     -12.179  11.778  70.290  1.00  0.00     0.000 HD 
ENDROOT
BRANCH   6  10
HETATM   10  C   UNL     1     -12.970  10.659  71.952  1.00  0.00    -0.437 C  
BRANCH  10  11
HETATM   11  C   UNL     1     -12.567   9.407  71.165  1.00  0.00    -0.282 C  
HETATM   12  C   UNL     1     -13.212   8.164  71.766  1.00  0.00    -0.341 C  
HETATM   13  O   UNL     1     -12.933   7.015  70.954  1.00  0.00    -0.273 OA 
HETATM   14  C   UNL     1     -11.611   6.969  70.585  1.00  0.00    -0.335 A  
HETATM   15  C   UNL     1     -10.736   8.049  70.732  1.00  0.00    -0.223 A  
HETATM   16  O   UNL     1     -11.130   9.273  71.212  1.00  0.00    -0.297 OA 
HETATM   17  C   UNL     1      -9.395   7.910  70.382  1.00  0.00    -0.159 A  
HETATM   18  C   UNL     1      -8.938   6.708  69.842  1.00  0.00    -0.144 A  
HETATM   19  C   UNL     1      -9.823   5.642  69.654  1.00  0.00    -0.243 A  
HETATM   20  C   UNL     1     -11.160   5.773  70.030  1.00  0.00    -0.329 A  
ENDBRANCH  10  11
ENDBRANCH   6  10
TORSDOF 2
ENDMDL
MODEL      115
REMARK 921   NORMALIZED FREE ENERGY PREDICTED BY IDOCK:   -4.26 KCAL/MOL
REMARK 922        TOTAL FREE ENERGY PREDICTED BY IDOCK:   -4.89 KCAL/MOL
REMARK 923 INTER-LIGAND FREE ENERGY PREDICTED BY IDOCK:   -4.70 KCAL/MOL
REMARK 924 INTRA-LIGAND FREE ENERGY PREDICTED BY IDOCK:   -0.19 KCAL/MOL
REMARK 927      BINDING AFFINITY PREDICTED BY RF-SCORE:    0.00 PKD
ROOT
HETATM    1  N   UNL     1     -10.165   7.065  69.558  1.00  0.00    -0.193 NA 
HETATM    2  C   UNL     1     -10.649   7.989  70.407  1.00  0.00    -0.224 C  
HETATM    3  H2  UNL     1      -9.428   6.439  69.885  1.00  0.00     0.000 HD 
HETATM    4  H1  UNL     1     -10.503   6.964  68.601  1.00  0.00     0.000 HD 
HETATM    5  N   UNL     1     -10.224   8.116  71.611  1.00  0.00    -0.194 NA 
HETATM    6  N   UNL     1     -11.582   8.790  69.849  1.00  0.00    -0.433 NA 
HETATM    7  H1  UNL     1     -10.591   8.816  72.255  1.00  0.00     0.000 HD 
HETATM    8  H2  UNL     1      -9.487   7.490  71.938  1.00  0.00     0.000 HD 
HETATM    9  H   UNL     1     -11.775   8.716  68.850  1.00  0.00     0.000 HD 
ENDROOT
BRANCH   6  10
HETATM   10  C   UNL     1     -12.318   9.759  70.654  1.00  0.00    -0.168 C  
BRANCH  10  11
HETATM   11  C   UNL     1     -11.859  11.184  70.325  1.00  0.00    -0.366 C  
HETATM   12  C   UNL     1     -12.660  12.205  71.125  1.00  0.00    -0.260 C  
HETATM   13  O   UNL     1     -12.144  13.525  70.906  1.00  0.00    -0.332 OA 
HETATM   14  C   UNL     1     -11.906  13.758  69.574  1.00  0.00    -0.339 A  
HETATM   15  C   UNL     1     -11.887  12.747  68.610  1.00  0.00    -0.304 A  
HETATM   16  O   UNL     1     -12.054  11.419  68.914  1.00  0.00    -0.424 OA 
HETATM   17  C   UNL     1     -11.690  13.067  67.269  1.00  0.00    -0.429 A  
HETATM   18  C   UNL     1     -11.465  14.393  66.896  1.00  0.00    -0.379 A  
HETATM   19  C   UNL     1     -11.440  15.399  67.866  1.00  0.00    -0.306 A  
HETATM   20  C   UNL     1     -11.665  15.081  69.206  1.00  0.00    -0.349 A  
ENDBRANCH  10  11
ENDBRANCH   6  10
TORSDOF 2
ENDMDL
MODEL      116
REMARK 921   NORMALIZED FREE ENERGY PREDICTED BY IDOCK:   -4.25 KCAL/MOL
REMARK 922        TOTAL FREE ENERGY PREDICTED BY IDOCK:   -4.88 KCAL/MOL
REMARK 923 INTER-LIGAND FREE ENERGY PREDICTED BY IDOCK:   -4.69 KCAL/MOL
REMARK 924 INTRA-LIGAND FREE ENERGY PREDICTED BY IDOCK:   -0.20 KCAL/MOL
REMARK 927      BINDING AFFINITY PREDICTED BY RF-SCORE:    0.00 PKD
ROOT
HETATM    1  N   UNL     1     -14.300   7.415  71.194  1.00  0.00    -0.597 NA 
HETATM    2  C   UNL     1     -13.747   8.534  71.693  1.00  0.00    -0.372 C  
HETATM    3  H2  UNL     1     -14.794   6.788  71.831  1.00  0.00     0.000 HD 
HETATM    4  H1  UNL     1     -14.247   7.166  70.207  1.00  0.00     0.000 HD 
HETATM    5  N   UNL     1     -13.814   8.847  72.936  1.00  0.00    -0.989 NA 
HETATM    6  N   UNL     1     -13.081   9.258  70.769  1.00  0.00    -0.523 NA 
HETATM    7  H1  UNL     1     -13.395   9.696  73.315  1.00  0.00     0.000 HD 
HETATM    8  H2  UNL     1     -14.307   8.221  73.573  1.00  0.00     0.000 HD 
HETATM    9  H   UNL     1     -12.958   8.882  69.829  1.00  0.00     0.000 HD 
ENDROOT
BRANCH   6  10
HETATM   10  C   UNL     1     -12.534  10.571  71.095  1.00  0.00    -0.412 C  
BRANCH  10  11
HETATM   11  C   UNL     1     -11.342  10.893  70.187  1.00  0.00    -0.284 C  
HETATM   12  C   UNL     1     -11.739  10.778  68.719  1.00  0.00    -0.245 C  
HETATM   13  O   UNL     1     -10.657  11.199  67.877  1.00  0.00    -0.180 OA 
HETATM   14  C   UNL     1      -9.461  10.666  68.288  1.00  0.00    -0.159 A  
HETATM   15  C   UNL     1      -9.284  10.046  69.528  1.00  0.00    -0.221 A  
HETATM   16  O   UNL     1     -10.278   9.959  70.471  1.00  0.00    -0.278 OA 
HETATM   17  C   UNL     1      -8.054   9.482  69.856  1.00  0.00    -0.163 A  
HETATM   18  C   UNL     1      -6.985   9.578  68.963  1.00  0.00    -0.058 A  
HETATM   19  C   UNL     1      -7.149  10.236  67.741  1.00  0.00    -0.085 A  
HETATM   20  C   UNL     1      -8.391  10.777  67.402  1.00  0.00    -0.119 A  
ENDBRANCH  10  11
ENDBRANCH   6  10
TORSDOF 2
ENDMDL
MODEL      117
REMARK 921   NORMALIZED FREE ENERGY PREDICTED BY IDOCK:   -4.23 KCAL/MOL
REMARK 922        TOTAL FREE ENERGY PREDICTED BY IDOCK:   -4.87 KCAL/MOL
REMARK 923 INTER-LIGAND FREE ENERGY PREDICTED BY IDOCK:   -4.66 KCAL/MOL
REMARK 924 INTRA-LIGAND FREE ENERGY PREDICTED BY IDOCK:   -0.21 KCAL/MOL
REMARK 927      BINDING AFFINITY PREDICTED BY RF-SCORE:    0.00 PKD
ROOT
HETATM    1  N   UNL     1      -6.618  13.841  70.757  1.00  0.00    -0.350 NA 
HETATM    2  C   UNL     1      -6.712  14.794  69.813  1.00  0.00    -0.173 C  
HETATM    3  H2  UNL     1      -5.713  13.399  70.917  1.00  0.00     0.000 HD 
HETATM    4  H1  UNL     1      -7.415  13.541  71.319  1.00  0.00     0.000 HD 
HETATM    5  N   UNL     1      -5.710  15.172  69.106  1.00  0.00    -0.097 NA 
HETATM    6  N   UNL     1      -7.966  15.269  69.657  1.00  0.00    -0.294 NA 
HETATM    7  H1  UNL     1      -5.780  15.895  68.391  1.00  0.00     0.000 HD 
HETATM    8  H2  UNL     1      -4.804  14.730  69.266  1.00  0.00     0.000 HD 
HETATM    9  H   UNL     1      -8.736  14.830  70.161  1.00  0.00     0.000 HD 
ENDROOT
BRANCH   6  10
HETATM   10  C   UNL     1      -8.235  16.402  68.777  1.00  0.00    -0.234 C  
BRANCH  10  11
HETATM   11  C   UNL     1      -8.943  15.931  67.502  1.00  0.00    -0.194 C  
HETATM   12  C   UNL     1      -9.576  17.111  66.772  1.00  0.00    -0.270 C  
HETATM   13  O   UNL     1     -10.129  16.683  65.520  1.00  0.00    -0.553 OA 
HETATM   14  C   UNL     1     -10.846  15.520  65.657  1.00  0.00    -0.346 A  
HETATM   15  C   UNL     1     -10.790  14.715  66.798  1.00  0.00    -0.312 A  
HETATM   16  O   UNL     1      -9.971  14.985  67.866  1.00  0.00    -0.220 OA 
HETATM   17  C   UNL     1     -11.587  13.576  66.886  1.00  0.00    -0.398 A  
HETATM   18  C   UNL     1     -12.406  13.216  65.815  1.00  0.00    -0.496 A  
HETATM   19  C   UNL     1     -12.429  13.997  64.657  1.00  0.00    -0.366 A  
HETATM   20  C   UNL     1     -11.651  15.153  64.580  1.00  0.00    -0.357 A  
ENDBRANCH  10  11
ENDBRANCH   6  10
TORSDOF 2
ENDMDL
MODEL      118
REMARK 921   NORMALIZED FREE ENERGY PREDICTED BY IDOCK:   -4.22 KCAL/MOL
REMARK 922        TOTAL FREE ENERGY PREDICTED BY IDOCK:   -4.85 KCAL/MOL
REMARK 923 INTER-LIGAND FREE ENERGY PREDICTED BY IDOCK:   -4.66 KCAL/MOL
REMARK 924 INTRA-LIGAND FREE ENERGY PREDICTED BY IDOCK:   -0.19 KCAL/MOL
REMARK 927      BINDING AFFINITY PREDICTED BY RF-SCORE:    0.00 PKD
ROOT
HETATM    1  N   UNL     1      -8.787   6.075  65.136  1.00  0.00    -0.359 NA 
HETATM    2  C   UNL     1      -8.302   7.325  65.236  1.00  0.00    -0.104 C  
HETATM    3  H2  UNL     1      -8.589   5.412  65.886  1.00  0.00     0.000 HD 
HETATM    4  H1  UNL     1      -9.343   5.761  64.340  1.00  0.00     0.000 HD 
HETATM    5  N   UNL     1      -7.602   7.720  66.237  1.00  0.00    -0.086 NA 
HETATM    6  N   UNL     1      -8.584   8.095  64.163  1.00  0.00    -0.389 NA 
HETATM    7  H1  UNL     1      -7.235   8.668  66.314  1.00  0.00     0.000 HD 
HETATM    8  H2  UNL     1      -7.405   7.058  66.988  1.00  0.00     0.000 HD 
HETATM    9  H   UNL     1      -9.030   7.676  63.348  1.00  0.00     0.000 HD 
ENDROOT
BRANCH   6  10
HETATM   10  C   UNL     1      -8.258   9.518  64.154  1.00  0.00    -0.159 C  
BRANCH  10  11
HETATM   11  C   UNL     1      -9.539  10.358  64.199  1.00  0.00    -0.322 C  
HETATM   12  C   UNL     1      -9.605  11.303  63.004  1.00  0.00    -0.377 C  
HETATM   13  O   UNL     1     -10.860  11.995  62.986  1.00  0.00    -0.276 OA 
HETATM   14  C   UNL     1     -11.192  12.470  64.230  1.00  0.00    -0.355 A  
HETATM   15  C   UNL     1     -10.542  12.071  65.401  1.00  0.00    -0.278 A  
HETATM   16  O   UNL     1      -9.545  11.128  65.421  1.00  0.00    -0.211 OA 
HETATM   17  C   UNL     1     -10.900  12.636  66.623  1.00  0.00    -0.286 A  
HETATM   18  C   UNL     1     -11.940  13.565  66.682  1.00  0.00    -0.452 A  
HETATM   19  C   UNL     1     -12.619  13.931  65.517  1.00  0.00    -0.560 A  
HETATM   20  C   UNL     1     -12.242  13.386  64.289  1.00  0.00    -0.450 A  
ENDBRANCH  10  11
ENDBRANCH   6  10
TORSDOF 2
ENDMDL
MODEL      119
REMARK 921   NORMALIZED FREE ENERGY PREDICTED BY IDOCK:   -4.19 KCAL/MOL
REMARK 922        TOTAL FREE ENERGY PREDICTED BY IDOCK:   -4.82 KCAL/MOL
REMARK 923 INTER-LIGAND FREE ENERGY PREDICTED BY IDOCK:   -4.70 KCAL/MOL
REMARK 924 INTRA-LIGAND FREE ENERGY PREDICTED BY IDOCK:   -0.12 KCAL/MOL
REMARK 927      BINDING AFFINITY PREDICTED BY RF-SCORE:    0.00 PKD
ROOT
HETATM    1  N   UNL     1     -12.164  10.799  70.686  1.00  0.00    -0.345 NA 
HETATM    2  C   UNL     1     -11.855  11.293  69.474  1.00  0.00    -0.357 C  
HETATM    3  H2  UNL     1     -12.538   9.851  70.746  1.00  0.00     0.000 HD 
HETATM    4  H1  UNL     1     -12.041  11.331  71.547  1.00  0.00     0.000 HD 
HETATM    5  N   UNL     1     -12.010  10.623  68.391  1.00  0.00    -0.811 NA 
HETATM    6  N   UNL     1     -11.416  12.569  69.515  1.00  0.00    -0.418 NA 
HETATM    7  H1  UNL     1     -11.775  10.997  67.472  1.00  0.00     0.000 HD 
HETATM    8  H2  UNL     1     -12.384   9.675  68.451  1.00  0.00     0.000 HD 
HETATM    9  H   UNL     1     -11.444  13.082  70.396  1.00  0.00     0.000 HD 
ENDROOT
BRANCH   6  10
HETATM   10  C   UNL     1     -10.905  13.225  68.315  1.00  0.00    -0.256 C  
BRANCH  10  11
HETATM   11  C   UNL     1     -10.308  14.592  68.669  1.00  0.00    -0.242 C  
HETATM   12  C   UNL     1     -11.315  15.704  68.395  1.00  0.00    -0.364 C  
HETATM   13  O   UNL     1     -10.797  16.965  68.843  1.00  0.00    -0.321 OA 
HETATM   14  C   UNL     1      -9.491  17.138  68.459  1.00  0.00    -0.282 A  
HETATM   15  C   UNL     1      -8.694  16.103  67.963  1.00  0.00    -0.176 A  
HETATM   16  O   UNL     1      -9.128  14.804  67.864  1.00  0.00    -0.177 OA 
HETATM   17  C   UNL     1      -7.392  16.366  67.545  1.00  0.00    -0.170 A  
HETATM   18  C   UNL     1      -6.870  17.654  67.664  1.00  0.00    -0.185 A  
HETATM   19  C   UNL     1      -7.652  18.681  68.200  1.00  0.00    -0.292 A  
HETATM   20  C   UNL     1      -8.966  18.422  68.594  1.00  0.00    -0.308 A  
ENDBRANCH  10  11
ENDBRANCH   6  10
TORSDOF 2
ENDMDL
MODEL      120
REMARK 921   NORMALIZED FREE ENERGY PREDICTED BY IDOCK:   -4.18 KCAL/MOL
REMARK 922        TOTAL FREE ENERGY PREDICTED BY IDOCK:   -4.81 KCAL/MOL
REMARK 923 INTER-LIGAND FREE ENERGY PREDICTED BY IDOCK:   -4.61 KCAL/MOL
REMARK 924 INTRA-LIGAND FREE ENERGY PREDICTED BY IDOCK:   -0.20 KCAL/MOL
REMARK 927      BINDING AFFINITY PREDICTED BY RF-SCORE:    0.00 PKD
ROOT
HETATM    1  N   UNL     1      -6.517  12.338  70.326  1.00  0.00    -0.461 NA 
HETATM    2  C   UNL     1      -6.189  13.476  69.689  1.00  0.00    -0.121 C  
HETATM    3  H2  UNL     1      -5.988  11.491  70.117  1.00  0.00     0.000 HD 
HETATM    4  H1  UNL     1      -7.273  12.286  71.008  1.00  0.00     0.000 HD 
HETATM    5  N   UNL     1      -5.238  13.541  68.830  1.00  0.00    -0.071 NA 
HETATM    6  N   UNL     1      -6.989  14.516  70.009  1.00  0.00    -0.373 NA 
HETATM    7  H1  UNL     1      -4.989  14.404  68.347  1.00  0.00     0.000 HD 
HETATM    8  H2  UNL     1      -4.708  12.694  68.621  1.00  0.00     0.000 HD 
HETATM    9  H   UNL     1      -7.806  14.359  70.598  1.00  0.00     0.000 HD 
ENDROOT
BRANCH   6  10
HETATM   10  C   UNL     1      -6.700  15.861  69.522  1.00  0.00    -0.192 C  
BRANCH  10  11
HETATM   11  C   UNL     1      -7.895  16.411  68.735  1.00  0.00    -0.220 C  
HETATM   12  C   UNL     1      -7.910  15.846  67.318  1.00  0.00    -0.187 C  
HETATM   13  O   UNL     1      -9.095  16.266  66.628  1.00  0.00    -0.211 OA 
HETATM   14  C   UNL     1      -9.340  17.603  66.816  1.00  0.00    -0.278 A  
HETATM   15  C   UNL     1      -8.693  18.373  67.786  1.00  0.00    -0.267 A  
HETATM   16  O   UNL     1      -7.788  17.850  68.676  1.00  0.00    -0.292 OA 
HETATM   17  C   UNL     1      -8.956  19.737  67.883  1.00  0.00    -0.390 A  
HETATM   18  C   UNL     1      -9.901  20.325  67.041  1.00  0.00    -0.607 A  
HETATM   19  C   UNL     1     -10.581  19.546  66.100  1.00  0.00    -0.585 A  
HETATM   20  C   UNL     1     -10.297  18.185  65.985  1.00  0.00    -0.360 A  
ENDBRANCH  10  11
ENDBRANCH   6  10
TORSDOF 2
ENDMDL
MODEL      121
REMARK 921   NORMALIZED FREE ENERGY PREDICTED BY IDOCK:   -4.18 KCAL/MOL
REMARK 922        TOTAL FREE ENERGY PREDICTED BY IDOCK:   -4.80 KCAL/MOL
REMARK 923 INTER-LIGAND FREE ENERGY PREDICTED BY IDOCK:   -4.45 KCAL/MOL
REMARK 924 INTRA-LIGAND FREE ENERGY PREDICTED BY IDOCK:   -0.35 KCAL/MOL
REMARK 927      BINDING AFFINITY PREDICTED BY RF-SCORE:    0.00 PKD
ROOT
HETATM    1  N   UNL     1      -5.240  14.572  67.692  1.00  0.00    -0.329 NA 
HETATM    2  C   UNL     1      -6.485  14.669  68.193  1.00  0.00    -0.137 C  
HETATM    3  H2  UNL     1      -4.450  14.776  68.305  1.00  0.00     0.000 HD 
HETATM    4  H1  UNL     1      -5.054  14.304  66.727  1.00  0.00     0.000 HD 
HETATM    5  N   UNL     1      -6.720  15.006  69.409  1.00  0.00    -0.144 NA 
HETATM    6  N   UNL     1      -7.448  14.424  67.279  1.00  0.00    -0.301 NA 
HETATM    7  H1  UNL     1      -7.663  15.079  69.789  1.00  0.00     0.000 HD 
HETATM    8  H2  UNL     1      -5.929  15.210  70.021  1.00  0.00     0.000 HD 
HETATM    9  H   UNL     1      -7.191  14.292  66.301  1.00  0.00     0.000 HD 
ENDROOT
BRANCH   6  10
HETATM   10  C   UNL     1      -8.852  14.348  67.671  1.00  0.00    -0.193 C  
BRANCH  10  11
HETATM   11  C   UNL     1      -9.567  15.666  67.353  1.00  0.00    -0.217 C  
HETATM   12  C   UNL     1      -9.363  16.049  65.891  1.00  0.00    -0.300 C  
HETATM   13  O   UNL     1     -10.134  17.214  65.570  1.00  0.00    -0.576 OA 
HETATM   14  C   UNL     1     -10.012  18.181  66.536  1.00  0.00    -0.374 A  
HETATM   15  C   UNL     1      -9.455  17.941  67.795  1.00  0.00    -0.263 A  
HETATM   16  O   UNL     1      -9.025  16.702  68.200  1.00  0.00    -0.201 OA 
HETATM   17  C   UNL     1      -9.316  18.986  68.706  1.00  0.00    -0.405 A  
HETATM   18  C   UNL     1      -9.777  20.261  68.377  1.00  0.00    -0.228 A  
HETATM   19  C   UNL     1     -10.374  20.492  67.134  1.00  0.00    -0.196 A  
HETATM   20  C   UNL     1     -10.487  19.451  66.211  1.00  0.00    -0.586 A  
ENDBRANCH  10  11
ENDBRANCH   6  10
TORSDOF 2
ENDMDL
MODEL      122
REMARK 921   NORMALIZED FREE ENERGY PREDICTED BY IDOCK:   -4.16 KCAL/MOL
REMARK 922        TOTAL FREE ENERGY PREDICTED BY IDOCK:   -4.79 KCAL/MOL
REMARK 923 INTER-LIGAND FREE ENERGY PREDICTED BY IDOCK:   -4.58 KCAL/MOL
REMARK 924 INTRA-LIGAND FREE ENERGY PREDICTED BY IDOCK:   -0.22 KCAL/MOL
REMARK 927      BINDING AFFINITY PREDICTED BY RF-SCORE:    0.00 PKD
ROOT
HETATM    1  N   UNL     1      -7.617  10.258  70.377  1.00  0.00    -0.449 NA 
HETATM    2  C   UNL     1      -7.253  11.167  69.455  1.00  0.00    -0.091 C  
HETATM    3  H2  UNL     1      -6.947   9.536  70.642  1.00  0.00     0.000 HD 
HETATM    4  H1  UNL     1      -8.534  10.261  70.821  1.00  0.00     0.000 HD 
HETATM    5  N   UNL     1      -6.098  11.164  68.895  1.00  0.00    -0.044 NA 
HETATM    6  N   UNL     1      -8.236  12.040  69.149  1.00  0.00    -0.316 NA 
HETATM    7  H1  UNL     1      -5.821  11.853  68.197  1.00  0.00     0.000 HD 
HETATM    8  H2  UNL     1      -5.427  10.442  69.161  1.00  0.00     0.000 HD 
HETATM    9  H   UNL     1      -9.170  11.901  69.535  1.00  0.00     0.000 HD 
ENDROOT
BRANCH   6  10
HETATM   10  C   UNL     1      -7.982  13.179  68.272  1.00  0.00    -0.148 C  
BRANCH  10  11
HETATM   11  C   UNL     1      -9.166  13.396  67.323  1.00  0.00    -0.222 C  
HETATM   12  C   UNL     1     -10.487  13.269  68.075  1.00  0.00    -0.242 C  
HETATM   13  O   UNL     1     -11.584  13.594  67.210  1.00  0.00    -0.318 OA 
HETATM   14  C   UNL     1     -11.454  12.992  65.983  1.00  0.00    -0.335 A  
HETATM   15  C   UNL     1     -10.270  12.395  65.544  1.00  0.00    -0.274 A  
HETATM   16  O   UNL     1      -9.111  12.400  66.279  1.00  0.00    -0.194 OA 
HETATM   17  C   UNL     1     -10.229  11.758  64.306  1.00  0.00    -0.344 A  
HETATM   18  C   UNL     1     -11.358  11.758  63.486  1.00  0.00    -0.496 A  
HETATM   19  C   UNL     1     -12.530  12.393  63.906  1.00  0.00    -0.573 A  
HETATM   20  C   UNL     1     -12.578  13.008  65.159  1.00  0.00    -0.530 A  
ENDBRANCH  10  11
ENDBRANCH   6  10
TORSDOF 2
ENDMDL
MODEL      123
REMARK 921   NORMALIZED FREE ENERGY PREDICTED BY IDOCK:   -4.13 KCAL/MOL
REMARK 922        TOTAL FREE ENERGY PREDICTED BY IDOCK:   -4.75 KCAL/MOL
REMARK 923 INTER-LIGAND FREE ENERGY PREDICTED BY IDOCK:   -4.62 KCAL/MOL
REMARK 924 INTRA-LIGAND FREE ENERGY PREDICTED BY IDOCK:   -0.13 KCAL/MOL
REMARK 927      BINDING AFFINITY PREDICTED BY RF-SCORE:    0.00 PKD
ROOT
HETATM    1  N   UNL     1      -8.497   8.554  72.740  1.00  0.00    -0.388 NA 
HETATM    2  C   UNL     1      -9.682   8.587  72.105  1.00  0.00    -0.317 C  
HETATM    3  H2  UNL     1      -8.468   8.218  73.703  1.00  0.00     0.000 HD 
HETATM    4  H1  UNL     1      -7.627   8.852  72.299  1.00  0.00     0.000 HD 
HETATM    5  N   UNL     1     -10.777   8.213  72.659  1.00  0.00    -0.350 NA 
HETATM    6  N   UNL     1      -9.604   9.096  70.856  1.00  0.00    -0.262 NA 
HETATM    7  H1  UNL     1     -11.676   8.237  72.177  1.00  0.00     0.000 HD 
HETATM    8  H2  UNL     1     -10.748   7.877  73.621  1.00  0.00     0.000 HD 
HETATM    9  H   UNL     1      -8.724   9.495  70.530  1.00  0.00     0.000 HD 
ENDROOT
BRANCH   6  10
HETATM   10  C   UNL     1     -10.761   9.083  69.967  1.00  0.00    -0.229 C  
BRANCH  10  11
HETATM   11  C   UNL     1     -10.731  10.299  69.035  1.00  0.00    -0.227 C  
HETATM   12  C   UNL     1     -12.008  11.119  69.180  1.00  0.00    -0.343 C  
HETATM   13  O   UNL     1     -11.921  12.319  68.399  1.00  0.00    -0.326 OA 
HETATM   14  C   UNL     1     -11.429  12.067  67.143  1.00  0.00    -0.335 A  
HETATM   15  C   UNL     1     -10.820  10.861  66.785  1.00  0.00    -0.224 A  
HETATM   16  O   UNL     1     -10.611   9.835  67.673  1.00  0.00    -0.242 OA 
HETATM   17  C   UNL     1     -10.392  10.659  65.475  1.00  0.00    -0.297 A  
HETATM   18  C   UNL     1     -10.529  11.680  64.533  1.00  0.00    -0.359 A  
HETATM   19  C   UNL     1     -11.098  12.902  64.902  1.00  0.00    -0.326 A  
HETATM   20  C   UNL     1     -11.552  13.094  66.208  1.00  0.00    -0.399 A  
ENDBRANCH  10  11
ENDBRANCH   6  10
TORSDOF 2
ENDMDL
MODEL      124
REMARK 921   NORMALIZED FREE ENERGY PREDICTED BY IDOCK:   -4.13 KCAL/MOL
REMARK 922        TOTAL FREE ENERGY PREDICTED BY IDOCK:   -4.75 KCAL/MOL
REMARK 923 INTER-LIGAND FREE ENERGY PREDICTED BY IDOCK:   -4.53 KCAL/MOL
REMARK 924 INTRA-LIGAND FREE ENERGY PREDICTED BY IDOCK:   -0.22 KCAL/MOL
REMARK 927      BINDING AFFINITY PREDICTED BY RF-SCORE:    0.00 PKD
ROOT
HETATM    1  N   UNL     1     -12.123   6.000  72.300  1.00  0.00    -0.432 NA 
HETATM    2  C   UNL     1     -11.684   7.254  72.504  1.00  0.00    -0.204 C  
HETATM    3  H2  UNL     1     -11.813   5.265  72.937  1.00  0.00     0.000 HD 
HETATM    4  H1  UNL     1     -12.752   5.752  71.537  1.00  0.00     0.000 HD 
HETATM    5  N   UNL     1     -10.893   7.566  73.465  1.00  0.00    -0.466 NA 
HETATM    6  N   UNL     1     -12.120   8.130  71.572  1.00  0.00    -0.290 NA 
HETATM    7  H1  UNL     1     -10.561   8.518  73.619  1.00  0.00     0.000 HD 
HETATM    8  H2  UNL     1     -10.583   6.831  74.101  1.00  0.00     0.000 HD 
HETATM    9  H   UNL     1     -12.638   7.786  70.763  1.00  0.00     0.000 HD 
ENDROOT
BRANCH   6  10
HETATM   10  C   UNL     1     -11.860   9.560  71.706  1.00  0.00    -0.360 C  
BRANCH  10  11
HETATM   11  C   UNL     1     -11.186  10.100  70.440  1.00  0.00    -0.330 C  
HETATM   12  C   UNL     1     -11.970  11.280  69.876  1.00  0.00    -0.365 C  
HETATM   13  O   UNL     1     -11.271  11.858  68.766  1.00  0.00    -0.220 OA 
HETATM   14  C   UNL     1     -10.807  10.893  67.906  1.00  0.00    -0.247 A  
HETATM   15  C   UNL     1     -10.765   9.534  68.229  1.00  0.00    -0.194 A  
HETATM   16  O   UNL     1     -11.136   9.044  69.456  1.00  0.00    -0.160 OA 
HETATM   17  C   UNL     1     -10.330   8.607  67.285  1.00  0.00    -0.366 A  
HETATM   18  C   UNL     1      -9.891   9.043  66.033  1.00  0.00    -0.312 A  
HETATM   19  C   UNL     1      -9.891  10.406  65.726  1.00  0.00    -0.300 A  
HETATM   20  C   UNL     1     -10.354  11.332  66.662  1.00  0.00    -0.279 A  
ENDBRANCH  10  11
ENDBRANCH   6  10
TORSDOF 2
ENDMDL
MODEL      125
REMARK 921   NORMALIZED FREE ENERGY PREDICTED BY IDOCK:   -4.11 KCAL/MOL
REMARK 922        TOTAL FREE ENERGY PREDICTED BY IDOCK:   -4.73 KCAL/MOL
REMARK 923 INTER-LIGAND FREE ENERGY PREDICTED BY IDOCK:   -4.53 KCAL/MOL
REMARK 924 INTRA-LIGAND FREE ENERGY PREDICTED BY IDOCK:   -0.20 KCAL/MOL
REMARK 927      BINDING AFFINITY PREDICTED BY RF-SCORE:    0.00 PKD
ROOT
HETATM    1  N   UNL     1     -13.012   9.896  70.429  1.00  0.00    -0.564 NA 
HETATM    2  C   UNL     1     -11.954  10.514  69.875  1.00  0.00    -0.264 C  
HETATM    3  H2  UNL     1     -12.894   9.447  71.338  1.00  0.00     0.000 HD 
HETATM    4  H1  UNL     1     -13.926   9.856  69.979  1.00  0.00     0.000 HD 
HETATM    5  N   UNL     1     -10.803  10.564  70.441  1.00  0.00    -0.447 NA 
HETATM    6  N   UNL     1     -12.215  11.026  68.653  1.00  0.00    -0.771 NA 
HETATM    7  H1  UNL     1     -10.001  11.033  70.021  1.00  0.00     0.000 HD 
HETATM    8  H2  UNL     1     -10.686  10.116  71.350  1.00  0.00     0.000 HD 
HETATM    9  H   UNL     1     -13.113  10.834  68.209  1.00  0.00     0.000 HD 
ENDROOT
BRANCH   6  10
HETATM   10  C   UNL     1     -11.231  11.850  67.958  1.00  0.00    -0.257 C  
BRANCH  10  11
HETATM   11  C   UNL     1     -10.497  11.023  66.897  1.00  0.00    -0.246 C  
HETATM   12  C   UNL     1      -9.012  10.921  67.227  1.00  0.00    -0.137 C  
HETATM   13  O   UNL     1      -8.355  10.046  66.301  1.00  0.00    -0.123 OA 
HETATM   14  C   UNL     1      -8.734  10.304  65.007  1.00  0.00    -0.182 A  
HETATM   15  C   UNL     1      -9.830  11.106  64.676  1.00  0.00    -0.280 A  
HETATM   16  O   UNL     1     -10.660  11.666  65.614  1.00  0.00    -0.260 OA 
HETATM   17  C   UNL     1     -10.123  11.366  63.339  1.00  0.00    -0.444 A  
HETATM   18  C   UNL     1      -9.350  10.788  62.332  1.00  0.00    -0.273 A  
HETATM   19  C   UNL     1      -8.280   9.951  62.663  1.00  0.00    -0.145 A  
HETATM   20  C   UNL     1      -7.970   9.713  64.003  1.00  0.00    -0.140 A  
ENDBRANCH  10  11
ENDBRANCH   6  10
TORSDOF 2
ENDMDL
MODEL      126
REMARK 921   NORMALIZED FREE ENERGY PREDICTED BY IDOCK:   -4.09 KCAL/MOL
REMARK 922        TOTAL FREE ENERGY PREDICTED BY IDOCK:   -4.71 KCAL/MOL
REMARK 923 INTER-LIGAND FREE ENERGY PREDICTED BY IDOCK:   -4.47 KCAL/MOL
REMARK 924 INTRA-LIGAND FREE ENERGY PREDICTED BY IDOCK:   -0.23 KCAL/MOL
REMARK 927      BINDING AFFINITY PREDICTED BY RF-SCORE:    0.00 PKD
ROOT
HETATM    1  N   UNL     1     -10.450  11.538  65.338  1.00  0.00    -0.272 NA 
HETATM    2  C   UNL     1      -9.850  10.519  65.979  1.00  0.00    -0.222 C  
HETATM    3  H2  UNL     1     -11.006  11.332  64.507  1.00  0.00     0.000 HD 
HETATM    4  H1  UNL     1     -10.373  12.506  65.647  1.00  0.00     0.000 HD 
HETATM    5  N   UNL     1      -9.948   9.300  65.591  1.00  0.00    -0.427 NA 
HETATM    6  N   UNL     1      -9.104  10.917  67.032  1.00  0.00    -0.148 NA 
HETATM    7  H1  UNL     1      -9.493   8.528  66.077  1.00  0.00     0.000 HD 
HETATM    8  H2  UNL     1     -10.503   9.094  64.760  1.00  0.00     0.000 HD 
HETATM    9  H   UNL     1      -8.967  11.913  67.203  1.00  0.00     0.000 HD 
ENDROOT
BRANCH   6  10
HETATM   10  C   UNL     1      -8.491   9.943  67.929  1.00  0.00    -0.121 C  
BRANCH  10  11
HETATM   11  C   UNL     1      -9.372   9.727  69.164  1.00  0.00    -0.182 C  
HETATM   12  C   UNL     1     -10.122   8.403  69.066  1.00  0.00    -0.203 C  
HETATM   13  O   UNL     1     -10.846   8.150  70.277  1.00  0.00    -0.240 OA 
HETATM   14  C   UNL     1     -11.520   9.268  70.704  1.00  0.00    -0.274 A  
HETATM   15  C   UNL     1     -11.285  10.546  70.192  1.00  0.00    -0.315 A  
HETATM   16  O   UNL     1     -10.322  10.811  69.250  1.00  0.00    -0.213 OA 
HETATM   17  C   UNL     1     -12.044  11.625  70.638  1.00  0.00    -0.432 A  
HETATM   18  C   UNL     1     -13.007  11.435  71.631  1.00  0.00    -0.523 A  
HETATM   19  C   UNL     1     -13.212  10.164  72.175  1.00  0.00    -0.463 A  
HETATM   20  C   UNL     1     -12.469   9.078  71.707  1.00  0.00    -0.438 A  
ENDBRANCH  10  11
ENDBRANCH   6  10
TORSDOF 2
ENDMDL
MODEL      127
REMARK 921   NORMALIZED FREE ENERGY PREDICTED BY IDOCK:   -4.08 KCAL/MOL
REMARK 922        TOTAL FREE ENERGY PREDICTED BY IDOCK:   -4.69 KCAL/MOL
REMARK 923 INTER-LIGAND FREE ENERGY PREDICTED BY IDOCK:   -4.50 KCAL/MOL
REMARK 924 INTRA-LIGAND FREE ENERGY PREDICTED BY IDOCK:   -0.20 KCAL/MOL
REMARK 927      BINDING AFFINITY PREDICTED BY RF-SCORE:    0.00 PKD
ROOT
HETATM    1  N   UNL     1     -11.231  15.481  64.569  1.00  0.00    -0.702 NA 
HETATM    2  C   UNL     1     -11.588  14.254  64.150  1.00  0.00    -0.194 C  
HETATM    3  H2  UNL     1     -11.806  16.277  64.293  1.00  0.00     0.000 HD 
HETATM    4  H1  UNL     1     -10.410  15.648  65.150  1.00  0.00     0.000 HD 
HETATM    5  N   UNL     1     -12.621  14.042  63.419  1.00  0.00    -1.030 NA 
HETATM    6  N   UNL     1     -10.726  13.287  64.534  1.00  0.00    -0.391 NA 
HETATM    7  H1  UNL     1     -12.892  13.112  63.102  1.00  0.00     0.000 HD 
HETATM    8  H2  UNL     1     -13.196  14.839  63.144  1.00  0.00     0.000 HD 
HETATM    9  H   UNL     1      -9.857  13.546  65.001  1.00  0.00     0.000 HD 
ENDROOT
BRANCH   6  10
HETATM   10  C   UNL     1     -11.021  11.879  64.291  1.00  0.00    -0.353 C  
BRANCH  10  11
HETATM   11  C   UNL     1     -10.822  11.063  65.572  1.00  0.00    -0.088 C  
HETATM   12  C   UNL     1     -11.657  11.639  66.711  1.00  0.00    -0.141 C  
HETATM   13  O   UNL     1     -11.563  10.801  67.871  1.00  0.00    -0.504 OA 
HETATM   14  C   UNL     1     -10.265  10.427  68.118  1.00  0.00    -0.161 A  
HETATM   15  C   UNL     1      -9.230  10.595  67.195  1.00  0.00    -0.147 A  
HETATM   16  O   UNL     1      -9.425  11.103  65.934  1.00  0.00    -0.199 OA 
HETATM   17  C   UNL     1      -7.927  10.239  67.537  1.00  0.00    -0.106 A  
HETATM   18  C   UNL     1      -7.666   9.670  68.784  1.00  0.00    -0.080 A  
HETATM   19  C   UNL     1      -8.709   9.462  69.691  1.00  0.00    -0.172 A  
HETATM   20  C   UNL     1     -10.010   9.845  69.359  1.00  0.00    -0.227 A  
ENDBRANCH  10  11
ENDBRANCH   6  10
TORSDOF 2
ENDMDL
MODEL      128
REMARK 921   NORMALIZED FREE ENERGY PREDICTED BY IDOCK:   -4.08 KCAL/MOL
REMARK 922        TOTAL FREE ENERGY PREDICTED BY IDOCK:   -4.69 KCAL/MOL
REMARK 923 INTER-LIGAND FREE ENERGY PREDICTED BY IDOCK:   -4.41 KCAL/MOL
REMARK 924 INTRA-LIGAND FREE ENERGY PREDICTED BY IDOCK:   -0.28 KCAL/MOL
REMARK 927      BINDING AFFINITY PREDICTED BY RF-SCORE:    0.00 PKD
ROOT
HETATM    1  N   UNL     1      -9.530   8.811  65.496  1.00  0.00    -0.452 NA 
HETATM    2  C   UNL     1      -9.146   8.985  66.773  1.00  0.00    -0.145 C  
HETATM    3  H2  UNL     1      -9.533   9.618  64.873  1.00  0.00     0.000 HD 
HETATM    4  H1  UNL     1      -9.818   7.905  65.126  1.00  0.00     0.000 HD 
HETATM    5  N   UNL     1      -8.783  10.124  67.240  1.00  0.00    -0.129 NA 
HETATM    6  N   UNL     1      -9.230   7.859  67.514  1.00  0.00    -0.135 NA 
HETATM    7  H1  UNL     1      -8.492  10.256  68.208  1.00  0.00     0.000 HD 
HETATM    8  H2  UNL     1      -8.786  10.932  66.616  1.00  0.00     0.000 HD 
HETATM    9  H   UNL     1      -9.652   7.023  67.111  1.00  0.00     0.000 HD 
ENDROOT
BRANCH   6  10
HETATM   10  C   UNL     1      -8.727   7.823  68.884  1.00  0.00    -0.135 C  
BRANCH  10  11
HETATM   11  C   UNL     1      -9.886   7.676  69.875  1.00  0.00    -0.184 C  
HETATM   12  C   UNL     1     -10.926   6.695  69.343  1.00  0.00    -0.309 C  
HETATM   13  O   UNL     1     -11.945   6.468  70.327  1.00  0.00    -0.394 OA 
HETATM   14  C   UNL     1     -12.367   7.644  70.896  1.00  0.00    -0.130 A  
HETATM   15  C   UNL     1     -11.684   8.855  70.748  1.00  0.00    -0.230 A  
HETATM   16  O   UNL     1     -10.500   8.969  70.064  1.00  0.00    -0.199 OA 
HETATM   17  C   UNL     1     -12.202  10.019  71.312  1.00  0.00    -0.498 A  
HETATM   18  C   UNL     1     -13.377   9.965  72.063  1.00  0.00    -0.532 A  
HETATM   19  C   UNL     1     -14.036   8.746  72.247  1.00  0.00    -0.511 A  
HETATM   20  C   UNL     1     -13.532   7.585  71.659  1.00  0.00    -0.429 A  
ENDBRANCH  10  11
ENDBRANCH   6  10
TORSDOF 2
ENDMDL
MODEL      129
REMARK 921   NORMALIZED FREE ENERGY PREDICTED BY IDOCK:   -4.06 KCAL/MOL
REMARK 922        TOTAL FREE ENERGY PREDICTED BY IDOCK:   -4.68 KCAL/MOL
REMARK 923 INTER-LIGAND FREE ENERGY PREDICTED BY IDOCK:   -4.49 KCAL/MOL
REMARK 924 INTRA-LIGAND FREE ENERGY PREDICTED BY IDOCK:   -0.19 KCAL/MOL
REMARK 927      BINDING AFFINITY PREDICTED BY RF-SCORE:    0.00 PKD
ROOT
HETATM    1  N   UNL     1     -14.123   9.028  73.216  1.00  0.00    -1.211 NA 
HETATM    2  C   UNL     1     -13.717   8.378  72.111  1.00  0.00    -0.333 C  
HETATM    3  H2  UNL     1     -14.940   9.636  73.153  1.00  0.00     0.000 HD 
HETATM    4  H1  UNL     1     -13.648   8.938  74.114  1.00  0.00     0.000 HD 
HETATM    5  N   UNL     1     -14.314   8.490  70.981  1.00  0.00    -0.631 NA 
HETATM    6  N   UNL     1     -12.600   7.644  72.304  1.00  0.00    -0.510 NA 
HETATM    7  H1  UNL     1     -14.007   7.996  70.143  1.00  0.00     0.000 HD 
HETATM    8  H2  UNL     1     -15.131   9.098  70.917  1.00  0.00     0.000 HD 
HETATM    9  H   UNL     1     -12.105   7.706  73.194  1.00  0.00     0.000 HD 
ENDROOT
BRANCH   6  10
HETATM   10  C   UNL     1     -12.091   6.762  71.258  1.00  0.00    -0.370 C  
BRANCH  10  11
HETATM   11  C   UNL     1     -10.654   6.334  71.574  1.00  0.00    -0.237 C  
HETATM   12  C   UNL     1     -10.638   4.968  72.252  1.00  0.00    -0.206 C  
HETATM   13  O   UNL     1      -9.289   4.518  72.433  1.00  0.00    -0.123 OA 
HETATM   14  C   UNL     1      -8.486   5.517  72.926  1.00  0.00    -0.119 A  
HETATM   15  C   UNL     1      -8.868   6.861  72.959  1.00  0.00    -0.126 A  
HETATM   16  O   UNL     1     -10.062   7.313  72.454  1.00  0.00    -0.177 OA 
HETATM   17  C   UNL     1      -8.021   7.812  73.522  1.00  0.00    -0.205 A  
HETATM   18  C   UNL     1      -6.771   7.428  74.010  1.00  0.00    -0.082 A  
HETATM   19  C   UNL     1      -6.370   6.091  73.937  1.00  0.00    -0.069 A  
HETATM   20  C   UNL     1      -7.232   5.134  73.398  1.00  0.00    -0.086 A  
ENDBRANCH  10  11
ENDBRANCH   6  10
TORSDOF 2
ENDMDL
MODEL      130
REMARK 921   NORMALIZED FREE ENERGY PREDICTED BY IDOCK:   -4.06 KCAL/MOL
REMARK 922        TOTAL FREE ENERGY PREDICTED BY IDOCK:   -4.68 KCAL/MOL
REMARK 923 INTER-LIGAND FREE ENERGY PREDICTED BY IDOCK:   -4.36 KCAL/MOL
REMARK 924 INTRA-LIGAND FREE ENERGY PREDICTED BY IDOCK:   -0.31 KCAL/MOL
REMARK 927      BINDING AFFINITY PREDICTED BY RF-SCORE:    0.00 PKD
ROOT
HETATM    1  N   UNL     1      -9.550  11.254  63.950  1.00  0.00    -0.300 NA 
HETATM    2  C   UNL     1      -9.973  11.946  65.023  1.00  0.00    -0.248 C  
HETATM    3  H2  UNL     1     -10.240  10.944  63.265  1.00  0.00     0.000 HD 
HETATM    4  H1  UNL     1      -8.569  11.026  63.793  1.00  0.00     0.000 HD 
HETATM    5  N   UNL     1     -11.208  12.233  65.221  1.00  0.00    -0.318 NA 
HETATM    6  N   UNL     1      -8.979  12.259  65.882  1.00  0.00    -0.425 NA 
HETATM    7  H1  UNL     1     -11.529  12.759  66.034  1.00  0.00     0.000 HD 
HETATM    8  H2  UNL     1     -11.898  11.924  64.536  1.00  0.00     0.000 HD 
HETATM    9  H   UNL     1      -8.044  11.884  65.726  1.00  0.00     0.000 HD 
ENDROOT
BRANCH   6  10
HETATM   10  C   UNL     1      -9.225  13.124  67.031  1.00  0.00    -0.233 C  
BRANCH  10  11
HETATM   11  C   UNL     1      -9.488  12.284  68.285  1.00  0.00    -0.209 C  
HETATM   12  C   UNL     1      -8.895  10.887  68.130  1.00  0.00    -0.137 C  
HETATM   13  O   UNL     1      -9.036  10.149  69.351  1.00  0.00    -0.177 OA 
HETATM   14  C   UNL     1     -10.295  10.284  69.880  1.00  0.00    -0.233 A  
HETATM   15  C   UNL     1     -11.210  11.247  69.445  1.00  0.00    -0.280 A  
HETATM   16  O   UNL     1     -10.914  12.180  68.483  1.00  0.00    -0.214 OA 
HETATM   17  C   UNL     1     -12.489  11.290  69.994  1.00  0.00    -0.251 A  
HETATM   18  C   UNL     1     -12.840  10.401  71.011  1.00  0.00    -0.494 A  
HETATM   19  C   UNL     1     -11.910   9.467  71.477  1.00  0.00    -0.456 A  
HETATM   20  C   UNL     1     -10.638   9.406  70.907  1.00  0.00    -0.390 A  
ENDBRANCH  10  11
ENDBRANCH   6  10
TORSDOF 2
ENDMDL
MODEL      131
REMARK 921   NORMALIZED FREE ENERGY PREDICTED BY IDOCK:   -4.04 KCAL/MOL
REMARK 922        TOTAL FREE ENERGY PREDICTED BY IDOCK:   -4.65 KCAL/MOL
REMARK 923 INTER-LIGAND FREE ENERGY PREDICTED BY IDOCK:   -4.46 KCAL/MOL
REMARK 924 INTRA-LIGAND FREE ENERGY PREDICTED BY IDOCK:   -0.19 KCAL/MOL
REMARK 927      BINDING AFFINITY PREDICTED BY RF-SCORE:    0.00 PKD
ROOT
HETATM    1  N   UNL     1     -12.509  14.835  69.906  1.00  0.00    -0.523 NA 
HETATM    2  C   UNL     1     -12.013  14.015  68.962  1.00  0.00    -0.357 C  
HETATM    3  H2  UNL     1     -13.227  15.508  69.640  1.00  0.00     0.000 HD 
HETATM    4  H1  UNL     1     -12.196  14.811  70.877  1.00  0.00     0.000 HD 
HETATM    5  N   UNL     1     -12.406  14.045  67.741  1.00  0.00    -0.498 NA 
HETATM    6  N   UNL     1     -11.035  13.204  69.420  1.00  0.00    -0.450 NA 
HETATM    7  H1  UNL     1     -12.030  13.424  67.025  1.00  0.00     0.000 HD 
HETATM    8  H2  UNL     1     -13.124  14.719  67.475  1.00  0.00     0.000 HD 
HETATM    9  H   UNL     1     -10.684  13.326  70.369  1.00  0.00     0.000 HD 
ENDROOT
BRANCH   6  10
HETATM   10  C   UNL     1     -10.475  12.153  68.575  1.00  0.00    -0.233 C  
BRANCH  10  11
HETATM   11  C   UNL     1     -11.033  10.786  68.984  1.00  0.00    -0.240 C  
HETATM   12  C   UNL     1     -11.056  10.647  70.502  1.00  0.00    -0.094 C  
HETATM   13  O   UNL     1     -11.693   9.419  70.880  1.00  0.00    -0.281 OA 
HETATM   14  C   UNL     1     -11.247   8.366  70.121  1.00  0.00    -0.136 A  
HETATM   15  C   UNL     1     -10.503   8.527  68.949  1.00  0.00    -0.188 A  
HETATM   16  O   UNL     1     -10.193   9.756  68.421  1.00  0.00    -0.170 OA 
HETATM   17  C   UNL     1     -10.040   7.409  68.259  1.00  0.00    -0.201 A  
HETATM   18  C   UNL     1     -10.360   6.129  68.713  1.00  0.00    -0.256 A  
HETATM   19  C   UNL     1     -11.141   5.968  69.861  1.00  0.00    -0.469 A  
HETATM   20  C   UNL     1     -11.581   7.089  70.567  1.00  0.00    -0.364 A  
ENDBRANCH  10  11
ENDBRANCH   6  10
TORSDOF 2
ENDMDL
MODEL      132
REMARK 921   NORMALIZED FREE ENERGY PREDICTED BY IDOCK:   -4.01 KCAL/MOL
REMARK 922        TOTAL FREE ENERGY PREDICTED BY IDOCK:   -4.62 KCAL/MOL
REMARK 923 INTER-LIGAND FREE ENERGY PREDICTED BY IDOCK:   -4.45 KCAL/MOL
REMARK 924 INTRA-LIGAND FREE ENERGY PREDICTED BY IDOCK:   -0.17 KCAL/MOL
REMARK 927      BINDING AFFINITY PREDICTED BY RF-SCORE:    0.00 PKD
ROOT
HETATM    1  N   UNL     1      -5.223  17.387  66.018  1.00  0.00    -0.320 NA 
HETATM    2  C   UNL     1      -6.367  17.666  66.667  1.00  0.00    -0.200 C  
HETATM    3  H2  UNL     1      -4.358  17.327  66.556  1.00  0.00     0.000 HD 
HETATM    4  H1  UNL     1      -5.184  17.232  65.011  1.00  0.00     0.000 HD 
HETATM    5  N   UNL     1      -6.417  17.861  67.934  1.00  0.00    -0.180 NA 
HETATM    6  N   UNL     1      -7.435  17.768  65.846  1.00  0.00    -0.516 NA 
HETATM    7  H1  UNL     1      -7.285  18.073  68.426  1.00  0.00     0.000 HD 
HETATM    8  H2  UNL     1      -5.552  17.801  68.473  1.00  0.00     0.000 HD 
HETATM    9  H   UNL     1      -7.297  17.732  64.836  1.00  0.00     0.000 HD 
ENDROOT
BRANCH   6  10
HETATM   10  C   UNL     1      -8.782  17.931  66.383  1.00  0.00    -0.224 C  
BRANCH  10  11
HETATM   11  C   UNL     1      -9.398  16.564  66.700  1.00  0.00    -0.256 C  
HETATM   12  C   UNL     1     -10.460  16.201  65.667  1.00  0.00    -0.383 C  
HETATM   13  O   UNL     1     -10.944  14.871  65.896  1.00  0.00    -0.324 OA 
HETATM   14  C   UNL     1     -11.204  14.652  67.226  1.00  0.00    -0.337 A  
HETATM   15  C   UNL     1     -10.772  15.507  68.243  1.00  0.00    -0.271 A  
HETATM   16  O   UNL     1     -10.002  16.620  68.010  1.00  0.00    -0.245 OA 
HETATM   17  C   UNL     1     -11.119  15.247  69.567  1.00  0.00    -0.286 A  
HETATM   18  C   UNL     1     -11.859  14.106  69.880  1.00  0.00    -0.387 A  
HETATM   19  C   UNL     1     -12.254  13.226  68.868  1.00  0.00    -0.133 A  
HETATM   20  C   UNL     1     -11.929  13.503  67.539  1.00  0.00    -0.385 A  
ENDBRANCH  10  11
ENDBRANCH   6  10
TORSDOF 2
ENDMDL
MODEL      133
REMARK 921   NORMALIZED FREE ENERGY PREDICTED BY IDOCK:   -4.01 KCAL/MOL
REMARK 922        TOTAL FREE ENERGY PREDICTED BY IDOCK:   -4.61 KCAL/MOL
REMARK 923 INTER-LIGAND FREE ENERGY PREDICTED BY IDOCK:   -4.41 KCAL/MOL
REMARK 924 INTRA-LIGAND FREE ENERGY PREDICTED BY IDOCK:   -0.20 KCAL/MOL
REMARK 927      BINDING AFFINITY PREDICTED BY RF-SCORE:    0.00 PKD
ROOT
HETATM    1  N   UNL     1      -8.286  18.290  68.318  1.00  0.00    -0.290 NA 
HETATM    2  C   UNL     1      -8.630  17.865  67.089  1.00  0.00    -0.235 C  
HETATM    3  H2  UNL     1      -7.549  18.990  68.404  1.00  0.00     0.000 HD 
HETATM    4  H1  UNL     1      -8.731  17.941  69.166  1.00  0.00     0.000 HD 
HETATM    5  N   UNL     1      -8.070  18.304  66.020  1.00  0.00    -0.503 NA 
HETATM    6  N   UNL     1      -9.580  16.905  67.102  1.00  0.00    -0.239 NA 
HETATM    7  H1  UNL     1      -8.331  17.983  65.089  1.00  0.00     0.000 HD 
HETATM    8  H2  UNL     1      -7.333  19.004  66.107  1.00  0.00     0.000 HD 
HETATM    9  H   UNL     1      -9.884  16.512  67.993  1.00  0.00     0.000 HD 
ENDROOT
BRANCH   6  10
HETATM   10  C   UNL     1     -10.176  16.422  65.861  1.00  0.00    -0.359 C  
BRANCH  10  11
HETATM   11  C   UNL     1     -10.566  14.946  65.996  1.00  0.00    -0.315 C  
HETATM   12  C   UNL     1     -11.601  14.763  67.101  1.00  0.00    -0.359 C  
HETATM   13  O   UNL     1     -12.052  13.402  67.139  1.00  0.00    -0.368 OA 
HETATM   14  C   UNL     1     -11.002  12.521  67.054  1.00  0.00    -0.267 A  
HETATM   15  C   UNL     1      -9.711  12.901  66.681  1.00  0.00    -0.254 A  
HETATM   16  O   UNL     1      -9.383  14.182  66.314  1.00  0.00    -0.262 OA 
HETATM   17  C   UNL     1      -8.684  11.959  66.667  1.00  0.00    -0.185 A  
HETATM   18  C   UNL     1      -8.958  10.627  66.982  1.00  0.00    -0.145 A  
HETATM   19  C   UNL     1     -10.259  10.238  67.313  1.00  0.00    -0.267 A  
HETATM   20  C   UNL     1     -11.282  11.188  67.353  1.00  0.00    -0.363 A  
ENDBRANCH  10  11
ENDBRANCH   6  10
TORSDOF 2
ENDMDL
MODEL      134
REMARK 921   NORMALIZED FREE ENERGY PREDICTED BY IDOCK:   -4.01 KCAL/MOL
REMARK 922        TOTAL FREE ENERGY PREDICTED BY IDOCK:   -4.61 KCAL/MOL
REMARK 923 INTER-LIGAND FREE ENERGY PREDICTED BY IDOCK:   -4.46 KCAL/MOL
REMARK 924 INTRA-LIGAND FREE ENERGY PREDICTED BY IDOCK:   -0.15 KCAL/MOL
REMARK 927      BINDING AFFINITY PREDICTED BY RF-SCORE:    0.00 PKD
ROOT
HETATM    1  N   UNL     1     -10.949   9.479  71.481  1.00  0.00    -0.357 NA 
HETATM    2  C   UNL     1     -11.181   9.434  70.157  1.00  0.00    -0.219 C  
HETATM    3  H2  UNL     1     -10.811   8.601  71.983  1.00  0.00     0.000 HD 
HETATM    4  H1  UNL     1     -10.906  10.353  72.004  1.00  0.00     0.000 HD 
HETATM    5  N   UNL     1     -11.234   8.334  69.498  1.00  0.00    -0.439 NA 
HETATM    6  N   UNL     1     -11.397  10.650  69.612  1.00  0.00    -0.271 NA 
HETATM    7  H1  UNL     1     -11.410   8.300  68.494  1.00  0.00     0.000 HD 
HETATM    8  H2  UNL     1     -11.096   7.456  70.000  1.00  0.00     0.000 HD 
HETATM    9  H   UNL     1     -11.469  11.467  70.218  1.00  0.00     0.000 HD 
ENDROOT
BRANCH   6  10
HETATM   10  C   UNL     1     -11.529  10.813  68.167  1.00  0.00    -0.271 C  
BRANCH  10  11
HETATM   11  C   UNL     1     -11.200  12.253  67.761  1.00  0.00    -0.276 C  
HETATM   12  C   UNL     1     -11.617  12.512  66.317  1.00  0.00    -0.394 C  
HETATM   13  O   UNL     1     -11.421  13.893  65.982  1.00  0.00    -0.325 OA 
HETATM   14  C   UNL     1     -10.202  14.349  66.417  1.00  0.00    -0.289 A  
HETATM   15  C   UNL     1      -9.398  13.646  67.319  1.00  0.00    -0.233 A  
HETATM   16  O   UNL     1      -9.778  12.459  67.894  1.00  0.00    -0.191 OA 
HETATM   17  C   UNL     1      -8.148  14.148  67.674  1.00  0.00    -0.188 A  
HETATM   18  C   UNL     1      -7.720  15.375  67.164  1.00  0.00    -0.246 A  
HETATM   19  C   UNL     1      -8.543  16.098  66.296  1.00  0.00    -0.373 A  
HETATM   20  C   UNL     1      -9.783  15.582  65.919  1.00  0.00    -0.392 A  
ENDBRANCH  10  11
ENDBRANCH   6  10
TORSDOF 2
ENDMDL
MODEL      135
REMARK 921   NORMALIZED FREE ENERGY PREDICTED BY IDOCK:   -4.00 KCAL/MOL
REMARK 922        TOTAL FREE ENERGY PREDICTED BY IDOCK:   -4.61 KCAL/MOL
REMARK 923 INTER-LIGAND FREE ENERGY PREDICTED BY IDOCK:   -4.43 KCAL/MOL
REMARK 924 INTRA-LIGAND FREE ENERGY PREDICTED BY IDOCK:   -0.18 KCAL/MOL
REMARK 927      BINDING AFFINITY PREDICTED BY RF-SCORE:    0.00 PKD
ROOT
HETATM    1  N   UNL     1      -6.272  13.985  70.582  1.00  0.00    -0.376 NA 
HETATM    2  C   UNL     1      -6.994  14.943  69.974  1.00  0.00    -0.095 C  
HETATM    3  H2  UNL     1      -5.297  14.181  70.811  1.00  0.00     0.000 HD 
HETATM    4  H1  UNL     1      -6.658  13.073  70.823  1.00  0.00     0.000 HD 
HETATM    5  N   UNL     1      -6.509  16.092  69.671  1.00  0.00    -0.193 NA 
HETATM    6  N   UNL     1      -8.253  14.554  69.676  1.00  0.00    -0.374 NA 
HETATM    7  H1  UNL     1      -7.057  16.818  69.210  1.00  0.00     0.000 HD 
HETATM    8  H2  UNL     1      -5.534  16.287  69.900  1.00  0.00     0.000 HD 
HETATM    9  H   UNL     1      -8.528  13.584  69.828  1.00  0.00     0.000 HD 
ENDROOT
BRANCH   6  10
HETATM   10  C   UNL     1      -9.225  15.502  69.140  1.00  0.00    -0.246 C  
BRANCH  10  11
HETATM   11  C   UNL     1     -10.285  14.768  68.312  1.00  0.00    -0.227 C  
HETATM   12  C   UNL     1     -10.110  13.258  68.433  1.00  0.00    -0.237 C  
HETATM   13  O   UNL     1     -11.177  12.578  67.758  1.00  0.00    -0.238 OA 
HETATM   14  C   UNL     1     -11.421  13.125  66.522  1.00  0.00    -0.338 A  
HETATM   15  C   UNL     1     -10.902  14.356  66.113  1.00  0.00    -0.309 A  
HETATM   16  O   UNL     1     -10.143  15.158  66.929  1.00  0.00    -0.249 OA 
HETATM   17  C   UNL     1     -11.150  14.823  64.825  1.00  0.00    -0.393 A  
HETATM   18  C   UNL     1     -11.956  14.081  63.959  1.00  0.00    -0.388 A  
HETATM   19  C   UNL     1     -12.510  12.870  64.383  1.00  0.00    -0.447 A  
HETATM   20  C   UNL     1     -12.238  12.390  65.665  1.00  0.00    -0.322 A  
ENDBRANCH  10  11
ENDBRANCH   6  10
TORSDOF 2
ENDMDL
MODEL      136
REMARK 921   NORMALIZED FREE ENERGY PREDICTED BY IDOCK:   -4.00 KCAL/MOL
REMARK 922        TOTAL FREE ENERGY PREDICTED BY IDOCK:   -4.61 KCAL/MOL
REMARK 923 INTER-LIGAND FREE ENERGY PREDICTED BY IDOCK:   -4.39 KCAL/MOL
REMARK 924 INTRA-LIGAND FREE ENERGY PREDICTED BY IDOCK:   -0.22 KCAL/MOL
REMARK 927      BINDING AFFINITY PREDICTED BY RF-SCORE:    0.00 PKD
ROOT
HETATM    1  N   UNL     1      -9.610  14.963  66.997  1.00  0.00    -0.231 NA 
HETATM    2  C   UNL     1     -10.375  13.985  66.482  1.00  0.00    -0.285 C  
HETATM    3  H2  UNL     1      -9.771  15.922  66.689  1.00  0.00     0.000 HD 
HETATM    4  H1  UNL     1      -8.876  14.786  67.682  1.00  0.00     0.000 HD 
HETATM    5  N   UNL     1     -11.299  14.207  65.619  1.00  0.00    -0.313 NA 
HETATM    6  N   UNL     1     -10.038  12.754  66.925  1.00  0.00    -0.229 NA 
HETATM    7  H1  UNL     1     -11.879  13.465  65.229  1.00  0.00     0.000 HD 
HETATM    8  H2  UNL     1     -11.460  15.166  65.311  1.00  0.00     0.000 HD 
HETATM    9  H   UNL     1      -9.209  12.640  67.508  1.00  0.00     0.000 HD 
ENDROOT
BRANCH   6  10
HETATM   10  C   UNL     1     -10.844  11.586  66.583  1.00  0.00    -0.287 C  
BRANCH  10  11
HETATM   11  C   UNL     1     -11.115  10.741  67.832  1.00  0.00    -0.308 C  
HETATM   12  C   UNL     1     -12.009  11.497  68.809  1.00  0.00    -0.271 C  
HETATM   13  O   UNL     1     -12.359  10.656  69.917  1.00  0.00    -0.309 OA 
HETATM   14  C   UNL     1     -11.267   9.977  70.399  1.00  0.00    -0.323 A  
HETATM   15  C   UNL     1     -10.052   9.894  69.713  1.00  0.00    -0.242 A  
HETATM   16  O   UNL     1      -9.855  10.440  68.469  1.00  0.00    -0.157 OA 
HETATM   17  C   UNL     1      -8.971   9.232  70.290  1.00  0.00    -0.261 A  
HETATM   18  C   UNL     1      -9.117   8.611  71.532  1.00  0.00    -0.308 A  
HETATM   19  C   UNL     1     -10.346   8.657  72.198  1.00  0.00    -0.403 A  
HETATM   20  C   UNL     1     -11.420   9.345  71.632  1.00  0.00    -0.463 A  
ENDBRANCH  10  11
ENDBRANCH   6  10
TORSDOF 2
ENDMDL
MODEL      137
REMARK 921   NORMALIZED FREE ENERGY PREDICTED BY IDOCK:   -4.00 KCAL/MOL
REMARK 922        TOTAL FREE ENERGY PREDICTED BY IDOCK:   -4.61 KCAL/MOL
REMARK 923 INTER-LIGAND FREE ENERGY PREDICTED BY IDOCK:   -4.34 KCAL/MOL
REMARK 924 INTRA-LIGAND FREE ENERGY PREDICTED BY IDOCK:   -0.27 KCAL/MOL
REMARK 927      BINDING AFFINITY PREDICTED BY RF-SCORE:    0.00 PKD
ROOT
HETATM    1  N   UNL     1      -5.269  11.720  66.107  1.00  0.00    -0.468 NA 
HETATM    2  C   UNL     1      -5.803  12.096  67.282  1.00  0.00    -0.146 C  
HETATM    3  H2  UNL     1      -4.719  10.861  66.074  1.00  0.00     0.000 HD 
HETATM    4  H1  UNL     1      -5.390  12.256  65.249  1.00  0.00     0.000 HD 
HETATM    5  N   UNL     1      -5.651  11.421  68.363  1.00  0.00    -0.046 NA 
HETATM    6  N   UNL     1      -6.466  13.271  67.215  1.00  0.00    -0.455 NA 
HETATM    7  H1  UNL     1      -6.057  11.706  69.254  1.00  0.00     0.000 HD 
HETATM    8  H2  UNL     1      -5.101  10.562  68.329  1.00  0.00     0.000 HD 
HETATM    9  H   UNL     1      -6.435  13.817  66.354  1.00  0.00     0.000 HD 
ENDROOT
BRANCH   6  10
HETATM   10  C   UNL     1      -7.227  13.769  68.356  1.00  0.00    -0.108 C  
BRANCH  10  11
HETATM   11  C   UNL     1      -8.714  13.879  67.999  1.00  0.00    -0.183 C  
HETATM   12  C   UNL     1      -9.419  12.546  68.221  1.00  0.00    -0.201 C  
HETATM   13  O   UNL     1     -10.830  12.687  68.004  1.00  0.00    -0.212 OA 
HETATM   14  C   UNL     1     -11.095  13.400  66.861  1.00  0.00    -0.292 A  
HETATM   15  C   UNL     1     -10.126  14.137  66.176  1.00  0.00    -0.313 A  
HETATM   16  O   UNL     1      -8.829  14.258  66.611  1.00  0.00    -0.223 OA 
HETATM   17  C   UNL     1     -10.458  14.794  64.993  1.00  0.00    -0.443 A  
HETATM   18  C   UNL     1     -11.770  14.753  64.520  1.00  0.00    -0.398 A  
HETATM   19  C   UNL     1     -12.750  14.052  65.229  1.00  0.00    -0.468 A  
HETATM   20  C   UNL     1     -12.410  13.372  66.399  1.00  0.00    -0.381 A  
ENDBRANCH  10  11
ENDBRANCH   6  10
TORSDOF 2
ENDMDL
MODEL      138
REMARK 921   NORMALIZED FREE ENERGY PREDICTED BY IDOCK:   -4.00 KCAL/MOL
REMARK 922        TOTAL FREE ENERGY PREDICTED BY IDOCK:   -4.61 KCAL/MOL
REMARK 923 INTER-LIGAND FREE ENERGY PREDICTED BY IDOCK:   -4.43 KCAL/MOL
REMARK 924 INTRA-LIGAND FREE ENERGY PREDICTED BY IDOCK:   -0.18 KCAL/MOL
REMARK 927      BINDING AFFINITY PREDICTED BY RF-SCORE:    0.00 PKD
ROOT
HETATM    1  N   UNL     1      -9.737   6.622  68.665  1.00  0.00    -0.129 NA 
HETATM    2  C   UNL     1      -9.864   6.985  67.376  1.00  0.00    -0.154 C  
HETATM    3  H2  UNL     1     -10.162   5.746  68.970  1.00  0.00     0.000 HD 
HETATM    4  H1  UNL     1      -9.233   7.185  69.350  1.00  0.00     0.000 HD 
HETATM    5  N   UNL     1     -10.498   6.276  66.514  1.00  0.00    -0.451 NA 
HETATM    6  N   UNL     1      -9.304   8.183  67.102  1.00  0.00    -0.139 NA 
HETATM    7  H1  UNL     1     -10.594   6.551  65.537  1.00  0.00     0.000 HD 
HETATM    8  H2  UNL     1     -10.923   5.400  66.819  1.00  0.00     0.000 HD 
HETATM    9  H   UNL     1      -8.933   8.750  67.864  1.00  0.00     0.000 HD 
ENDROOT
BRANCH   6  10
HETATM   10  C   UNL     1      -9.223   8.677  65.731  1.00  0.00    -0.181 C  
BRANCH  10  11
HETATM   11  C   UNL     1      -9.556  10.172  65.682  1.00  0.00    -0.243 C  
HETATM   12  C   UNL     1     -10.182  10.626  66.997  1.00  0.00    -0.220 C  
HETATM   13  O   UNL     1     -10.377  12.046  66.990  1.00  0.00    -0.208 OA 
HETATM   14  C   UNL     1     -10.926  12.475  65.807  1.00  0.00    -0.292 A  
HETATM   15  C   UNL     1     -11.001  11.675  64.663  1.00  0.00    -0.301 A  
HETATM   16  O   UNL     1     -10.486  10.404  64.602  1.00  0.00    -0.259 OA 
HETATM   17  C   UNL     1     -11.619  12.161  63.514  1.00  0.00    -0.562 A  
HETATM   18  C   UNL     1     -12.120  13.463  63.491  1.00  0.00    -0.497 A  
HETATM   19  C   UNL     1     -12.006  14.278  64.621  1.00  0.00    -0.468 A  
HETATM   20  C   UNL     1     -11.411  13.781  65.781  1.00  0.00    -0.324 A  
ENDBRANCH  10  11
ENDBRANCH   6  10
TORSDOF 2
ENDMDL
MODEL      139
REMARK 921   NORMALIZED FREE ENERGY PREDICTED BY IDOCK:   -3.98 KCAL/MOL
REMARK 922        TOTAL FREE ENERGY PREDICTED BY IDOCK:   -4.59 KCAL/MOL
REMARK 923 INTER-LIGAND FREE ENERGY PREDICTED BY IDOCK:   -4.43 KCAL/MOL
REMARK 924 INTRA-LIGAND FREE ENERGY PREDICTED BY IDOCK:   -0.16 KCAL/MOL
REMARK 927      BINDING AFFINITY PREDICTED BY RF-SCORE:    0.00 PKD
ROOT
HETATM    1  N   UNL     1     -11.272   3.201  73.530  1.00  0.00    -0.219 NA 
HETATM    2  C   UNL     1     -10.504   4.304  73.568  1.00  0.00    -0.196 C  
HETATM    3  H2  UNL     1     -10.817   2.288  73.550  1.00  0.00     0.000 HD 
HETATM    4  H1  UNL     1     -12.290   3.239  73.482  1.00  0.00     0.000 HD 
HETATM    5  N   UNL     1      -9.223   4.256  73.629  1.00  0.00    -0.097 NA 
HETATM    6  N   UNL     1     -11.212   5.450  73.486  1.00  0.00    -0.469 NA 
HETATM    7  H1  UNL     1      -8.640   5.092  73.658  1.00  0.00     0.000 HD 
HETATM    8  H2  UNL     1      -8.768   3.343  73.649  1.00  0.00     0.000 HD 
HETATM    9  H   UNL     1     -12.215   5.410  73.308  1.00  0.00     0.000 HD 
ENDROOT
BRANCH   6  10
HETATM   10  C   UNL     1     -10.562   6.747  73.650  1.00  0.00    -0.320 C  
BRANCH  10  11
HETATM   11  C   UNL     1     -10.711   7.583  72.374  1.00  0.00    -0.263 C  
HETATM   12  C   UNL     1      -9.382   8.228  71.996  1.00  0.00    -0.230 C  
HETATM   13  O   UNL     1      -9.498   8.906  70.737  1.00  0.00    -0.189 OA 
HETATM   14  C   UNL     1     -10.646   9.655  70.672  1.00  0.00    -0.319 A  
HETATM   15  C   UNL     1     -11.695   9.532  71.588  1.00  0.00    -0.390 A  
HETATM   16  O   UNL     1     -11.696   8.613  72.607  1.00  0.00    -0.325 OA 
HETATM   17  C   UNL     1     -12.807  10.365  71.489  1.00  0.00    -0.569 A  
HETATM   18  C   UNL     1     -12.894  11.289  70.446  1.00  0.00    -0.114 A  
HETATM   19  C   UNL     1     -11.865  11.382  69.505  1.00  0.00    -0.426 A  
HETATM   20  C   UNL     1     -10.738  10.566  69.621  1.00  0.00    -0.302 A  
ENDBRANCH  10  11
ENDBRANCH   6  10
TORSDOF 2
ENDMDL
MODEL      140
REMARK 921   NORMALIZED FREE ENERGY PREDICTED BY IDOCK:   -3.98 KCAL/MOL
REMARK 922        TOTAL FREE ENERGY PREDICTED BY IDOCK:   -4.59 KCAL/MOL
REMARK 923 INTER-LIGAND FREE ENERGY PREDICTED BY IDOCK:   -4.21 KCAL/MOL
REMARK 924 INTRA-LIGAND FREE ENERGY PREDICTED BY IDOCK:   -0.38 KCAL/MOL
REMARK 927      BINDING AFFINITY PREDICTED BY RF-SCORE:    0.00 PKD
ROOT
HETATM    1  N   UNL     1      -6.415  14.175  67.905  1.00  0.00    -0.152 NA 
HETATM    2  C   UNL     1      -7.235  13.204  67.466  1.00  0.00    -0.151 C  
HETATM    3  H2  UNL     1      -5.474  13.920  68.207  1.00  0.00     0.000 HD 
HETATM    4  H1  UNL     1      -6.695  15.154  67.949  1.00  0.00     0.000 HD 
HETATM    5  N   UNL     1      -6.884  11.970  67.410  1.00  0.00    -0.128 NA 
HETATM    6  N   UNL     1      -8.467  13.651  67.142  1.00  0.00    -0.303 NA 
HETATM    7  H1  UNL     1      -7.505  11.234  67.077  1.00  0.00     0.000 HD 
HETATM    8  H2  UNL     1      -5.943  11.716  67.712  1.00  0.00     0.000 HD 
HETATM    9  H   UNL     1      -8.717  14.621  67.337  1.00  0.00     0.000 HD 
ENDROOT
BRANCH   6  10
HETATM   10  C   UNL     1      -9.447  12.768  66.518  1.00  0.00    -0.253 C  
BRANCH  10  11
HETATM   11  C   UNL     1     -10.533  12.379  67.527  1.00  0.00    -0.215 C  
HETATM   12  C   UNL     1     -10.904  13.571  68.403  1.00  0.00    -0.267 C  
HETATM   13  O   UNL     1     -12.005  13.235  69.259  1.00  0.00    -0.312 OA 
HETATM   14  C   UNL     1     -11.831  12.006  69.845  1.00  0.00    -0.331 A  
HETATM   15  C   UNL     1     -10.863  11.088  69.427  1.00  0.00    -0.231 A  
HETATM   16  O   UNL     1     -10.031  11.310  68.359  1.00  0.00    -0.183 OA 
HETATM   17  C   UNL     1     -10.712   9.880  70.104  1.00  0.00    -0.361 A  
HETATM   18  C   UNL     1     -11.558   9.568  71.169  1.00  0.00    -0.439 A  
HETATM   19  C   UNL     1     -12.555  10.467  71.559  1.00  0.00    -0.529 A  
HETATM   20  C   UNL     1     -12.688  11.690  70.897  1.00  0.00    -0.351 A  
ENDBRANCH  10  11
ENDBRANCH   6  10
TORSDOF 2
ENDMDL
MODEL      141
REMARK 921   NORMALIZED FREE ENERGY PREDICTED BY IDOCK:   -3.97 KCAL/MOL
REMARK 922        TOTAL FREE ENERGY PREDICTED BY IDOCK:   -4.58 KCAL/MOL
REMARK 923 INTER-LIGAND FREE ENERGY PREDICTED BY IDOCK:   -4.42 KCAL/MOL
REMARK 924 INTRA-LIGAND FREE ENERGY PREDICTED BY IDOCK:   -0.16 KCAL/MOL
REMARK 927      BINDING AFFINITY PREDICTED BY RF-SCORE:    0.00 PKD
ROOT
HETATM    1  N   UNL     1     -11.520   6.612  69.563  1.00  0.00    -0.603 NA 
HETATM    2  C   UNL     1     -11.067   7.412  68.581  1.00  0.00     0.171 C  
HETATM    3  H2  UNL     1     -11.765   5.648  69.334  1.00  0.00     0.000 HD 
HETATM    4  H1  UNL     1     -11.629   6.928  70.526  1.00  0.00     0.000 HD 
HETATM    5  N   UNL     1     -10.929   7.014  67.369  1.00  0.00    -0.529 NA 
HETATM    6  N   UNL     1     -10.824   8.675  68.992  1.00  0.00    -0.429 NA 
HETATM    7  H1  UNL     1     -10.586   7.620  66.625  1.00  0.00     0.000 HD 
HETATM    8  H2  UNL     1     -11.174   6.050  67.140  1.00  0.00     0.000 HD 
HETATM    9  H   UNL     1     -11.081   8.954  69.939  1.00  0.00     0.000 HD 
ENDROOT
BRANCH   6  10
HETATM   10  C   UNL     1     -10.199   9.647  68.100  1.00  0.00    -0.190 C  
BRANCH  10  11
HETATM   11  C   UNL     1     -10.356  11.064  68.662  1.00  0.00    -0.193 C  
HETATM   12  C   UNL     1     -11.636  11.177  69.484  1.00  0.00    -0.321 C  
HETATM   13  O   UNL     1     -11.715  12.466  70.107  1.00  0.00    -0.286 OA 
HETATM   14  C   UNL     1     -11.396  13.471  69.228  1.00  0.00    -0.262 A  
HETATM   15  C   UNL     1     -10.790  13.242  67.990  1.00  0.00    -0.243 A  
HETATM   16  O   UNL     1     -10.411  11.995  67.560  1.00  0.00    -0.198 OA 
HETATM   17  C   UNL     1     -10.544  14.308  67.128  1.00  0.00    -0.279 A  
HETATM   18  C   UNL     1     -10.859  15.609  67.522  1.00  0.00    -0.316 A  
HETATM   19  C   UNL     1     -11.425  15.843  68.779  1.00  0.00    -0.393 A  
HETATM   20  C   UNL     1     -11.697  14.771  69.631  1.00  0.00    -0.354 A  
ENDBRANCH  10  11
ENDBRANCH   6  10
TORSDOF 2
ENDMDL
MODEL      142
REMARK 921   NORMALIZED FREE ENERGY PREDICTED BY IDOCK:   -3.97 KCAL/MOL
REMARK 922        TOTAL FREE ENERGY PREDICTED BY IDOCK:   -4.58 KCAL/MOL
REMARK 923 INTER-LIGAND FREE ENERGY PREDICTED BY IDOCK:   -4.41 KCAL/MOL
REMARK 924 INTRA-LIGAND FREE ENERGY PREDICTED BY IDOCK:   -0.17 KCAL/MOL
REMARK 927      BINDING AFFINITY PREDICTED BY RF-SCORE:    0.00 PKD
ROOT
HETATM    1  N   UNL     1      -9.293   3.716  65.162  1.00  0.00    -0.150 NA 
HETATM    2  C   UNL     1     -10.335   4.501  65.488  1.00  0.00    -0.229 C  
HETATM    3  H2  UNL     1      -9.435   2.979  64.471  1.00  0.00     0.000 HD 
HETATM    4  H1  UNL     1      -8.368   3.828  65.576  1.00  0.00     0.000 HD 
HETATM    5  N   UNL     1     -11.500   4.361  64.967  1.00  0.00    -1.079 NA 
HETATM    6  N   UNL     1     -10.042   5.406  66.446  1.00  0.00    -0.200 NA 
HETATM    7  H1  UNL     1     -12.290   4.956  65.215  1.00  0.00     0.000 HD 
HETATM    8  H2  UNL     1     -11.641   3.624  64.277  1.00  0.00     0.000 HD 
HETATM    9  H   UNL     1      -9.133   5.373  66.908  1.00  0.00     0.000 HD 
ENDROOT
BRANCH   6  10
HETATM   10  C   UNL     1     -11.007   6.432  66.830  1.00  0.00    -0.341 C  
BRANCH  10  11
HETATM   11  C   UNL     1     -10.538   7.157  68.096  1.00  0.00    -0.192 C  
HETATM   12  C   UNL     1      -9.040   6.963  68.303  1.00  0.00    -0.125 C  
HETATM   13  O   UNL     1      -8.586   7.744  69.417  1.00  0.00    -0.133 OA 
HETATM   14  C   UNL     1      -9.429   7.624  70.494  1.00  0.00    -0.164 A  
HETATM   15  C   UNL     1     -10.704   7.059  70.409  1.00  0.00    -0.234 A  
HETATM   16  O   UNL     1     -11.252   6.619  69.230  1.00  0.00    -0.289 OA 
HETATM   17  C   UNL     1     -11.483   6.924  71.555  1.00  0.00    -0.315 A  
HETATM   18  C   UNL     1     -11.007   7.395  72.780  1.00  0.00    -0.387 A  
HETATM   19  C   UNL     1      -9.749   7.999  72.857  1.00  0.00    -0.353 A  
HETATM   20  C   UNL     1      -8.958   8.110  71.712  1.00  0.00    -0.216 A  
ENDBRANCH  10  11
ENDBRANCH   6  10
TORSDOF 2
ENDMDL
MODEL      143
REMARK 921   NORMALIZED FREE ENERGY PREDICTED BY IDOCK:   -3.96 KCAL/MOL
REMARK 922        TOTAL FREE ENERGY PREDICTED BY IDOCK:   -4.56 KCAL/MOL
REMARK 923 INTER-LIGAND FREE ENERGY PREDICTED BY IDOCK:   -4.39 KCAL/MOL
REMARK 924 INTRA-LIGAND FREE ENERGY PREDICTED BY IDOCK:   -0.17 KCAL/MOL
REMARK 927      BINDING AFFINITY PREDICTED BY RF-SCORE:    0.00 PKD
ROOT
HETATM    1  N   UNL     1     -10.376  20.091  68.261  1.00  0.00    -0.407 NA 
HETATM    2  C   UNL     1      -9.425  19.148  68.389  1.00  0.00    -0.369 C  
HETATM    3  H2  UNL     1     -10.092  21.041  68.019  1.00  0.00     0.000 HD 
HETATM    4  H1  UNL     1     -11.367  19.896  68.396  1.00  0.00     0.000 HD 
HETATM    5  N   UNL     1      -8.177  19.393  68.219  1.00  0.00    -0.327 NA 
HETATM    6  N   UNL     1      -9.914  17.945  68.760  1.00  0.00    -0.376 NA 
HETATM    7  H1  UNL     1      -7.456  18.678  68.316  1.00  0.00     0.000 HD 
HETATM    8  H2  UNL     1      -7.893  20.342  67.977  1.00  0.00     0.000 HD 
HETATM    9  H   UNL     1     -10.900  17.857  69.005  1.00  0.00     0.000 HD 
ENDROOT
BRANCH   6  10
HETATM   10  C   UNL     1      -9.051  16.769  68.814  1.00  0.00    -0.259 C  
BRANCH  10  11
HETATM   11  C   UNL     1      -9.698  15.598  68.067  1.00  0.00    -0.204 C  
HETATM   12  C   UNL     1     -11.218  15.728  68.077  1.00  0.00    -0.338 C  
HETATM   13  O   UNL     1     -11.810  14.699  67.274  1.00  0.00    -0.392 OA 
HETATM   14  C   UNL     1     -11.244  13.474  67.525  1.00  0.00    -0.283 A  
HETATM   15  C   UNL     1     -10.056  13.312  68.243  1.00  0.00    -0.250 A  
HETATM   16  O   UNL     1      -9.318  14.367  68.719  1.00  0.00    -0.200 OA 
HETATM   17  C   UNL     1      -9.569  12.033  68.503  1.00  0.00    -0.146 A  
HETATM   18  C   UNL     1     -10.244  10.917  68.006  1.00  0.00    -0.202 A  
HETATM   19  C   UNL     1     -11.409  11.081  67.251  1.00  0.00    -0.265 A  
HETATM   20  C   UNL     1     -11.911  12.362  67.014  1.00  0.00    -0.368 A  
ENDBRANCH  10  11
ENDBRANCH   6  10
TORSDOF 2
ENDMDL
MODEL      144
REMARK 921   NORMALIZED FREE ENERGY PREDICTED BY IDOCK:   -3.94 KCAL/MOL
REMARK 922        TOTAL FREE ENERGY PREDICTED BY IDOCK:   -4.54 KCAL/MOL
REMARK 923 INTER-LIGAND FREE ENERGY PREDICTED BY IDOCK:   -4.40 KCAL/MOL
REMARK 924 INTRA-LIGAND FREE ENERGY PREDICTED BY IDOCK:   -0.15 KCAL/MOL
REMARK 927      BINDING AFFINITY PREDICTED BY RF-SCORE:    0.00 PKD
ROOT
HETATM    1  N   UNL     1     -12.108  13.239  65.805  1.00  0.00    -0.416 NA 
HETATM    2  C   UNL     1     -11.112  12.438  66.225  1.00  0.00    -0.303 C  
HETATM    3  H2  UNL     1     -11.873  14.058  65.244  1.00  0.00     0.000 HD 
HETATM    4  H1  UNL     1     -13.088  13.061  66.024  1.00  0.00     0.000 HD 
HETATM    5  N   UNL     1      -9.879  12.662  65.949  1.00  0.00    -0.295 NA 
HETATM    6  N   UNL     1     -11.538  11.417  66.998  1.00  0.00    -0.514 NA 
HETATM    7  H1  UNL     1      -9.123  12.055  66.267  1.00  0.00     0.000 HD 
HETATM    8  H2  UNL     1      -9.644  13.481  65.388  1.00  0.00     0.000 HD 
HETATM    9  H   UNL     1     -12.516  11.377  67.284  1.00  0.00     0.000 HD 
ENDROOT
BRANCH   6  10
HETATM   10  C   UNL     1     -10.619  10.369  67.431  1.00  0.00    -0.269 C  
BRANCH  10  11
HETATM   11  C   UNL     1     -11.151   9.680  68.692  1.00  0.00    -0.038 C  
HETATM   12  C   UNL     1     -11.215  10.664  69.856  1.00  0.00    -0.308 C  
HETATM   13  O   UNL     1     -11.829  10.047  70.996  1.00  0.00    -0.325 OA 
HETATM   14  C   UNL     1     -11.333   8.786  71.215  1.00  0.00    -0.291 A  
HETATM   15  C   UNL     1     -10.559   8.094  70.279  1.00  0.00    -0.228 A  
HETATM   16  O   UNL     1     -10.267   8.591  69.033  1.00  0.00    -0.199 OA 
HETATM   17  C   UNL     1     -10.046   6.837  70.593  1.00  0.00    -0.204 A  
HETATM   18  C   UNL     1     -10.345   6.251  71.824  1.00  0.00    -0.240 A  
HETATM   19  C   UNL     1     -11.155   6.925  72.742  1.00  0.00    -0.304 A  
HETATM   20  C   UNL     1     -11.646   8.196  72.438  1.00  0.00    -0.463 A  
ENDBRANCH  10  11
ENDBRANCH   6  10
TORSDOF 2
ENDMDL
MODEL      145
REMARK 921   NORMALIZED FREE ENERGY PREDICTED BY IDOCK:   -3.92 KCAL/MOL
REMARK 922        TOTAL FREE ENERGY PREDICTED BY IDOCK:   -4.51 KCAL/MOL
REMARK 923 INTER-LIGAND FREE ENERGY PREDICTED BY IDOCK:   -4.39 KCAL/MOL
REMARK 924 INTRA-LIGAND FREE ENERGY PREDICTED BY IDOCK:   -0.13 KCAL/MOL
REMARK 927      BINDING AFFINITY PREDICTED BY RF-SCORE:    0.00 PKD
ROOT
HETATM    1  N   UNL     1      -8.625   8.285  63.876  1.00  0.00    -0.400 NA 
HETATM    2  C   UNL     1      -8.726   9.436  64.563  1.00  0.00    -0.203 C  
HETATM    3  H2  UNL     1      -8.043   8.265  63.038  1.00  0.00     0.000 HD 
HETATM    4  H1  UNL     1      -9.106   7.431  64.157  1.00  0.00     0.000 HD 
HETATM    5  N   UNL     1      -8.120  10.511  64.210  1.00  0.00    -0.327 NA 
HETATM    6  N   UNL     1      -9.560   9.355  65.621  1.00  0.00    -0.295 NA 
HETATM    7  H1  UNL     1      -8.196  11.384  64.731  1.00  0.00     0.000 HD 
HETATM    8  H2  UNL     1      -7.538  10.492  63.372  1.00  0.00     0.000 HD 
HETATM    9  H   UNL     1     -10.109   8.507  65.765  1.00  0.00     0.000 HD 
ENDROOT
BRANCH   6  10
HETATM   10  C   UNL     1      -9.689  10.462  66.563  1.00  0.00    -0.194 C  
BRANCH  10  11
HETATM   11  C   UNL     1     -10.775  10.157  67.601  1.00  0.00    -0.285 C  
HETATM   12  C   UNL     1     -11.560  11.418  67.944  1.00  0.00    -0.266 C  
HETATM   13  O   UNL     1     -12.651  11.102  68.820  1.00  0.00    -0.345 OA 
HETATM   14  C   UNL     1     -12.257  10.264  69.834  1.00  0.00    -0.061 A  
HETATM   15  C   UNL     1     -11.038   9.581  69.833  1.00  0.00    -0.216 A  
HETATM   16  O   UNL     1     -10.143   9.645  68.794  1.00  0.00    -0.167 OA 
HETATM   17  C   UNL     1     -10.684   8.788  70.923  1.00  0.00    -0.282 A  
HETATM   18  C   UNL     1     -11.568   8.640  71.992  1.00  0.00    -0.440 A  
HETATM   19  C   UNL     1     -12.806   9.289  71.972  1.00  0.00    -0.495 A  
HETATM   20  C   UNL     1     -13.148  10.105  70.893  1.00  0.00    -0.412 A  
ENDBRANCH  10  11
ENDBRANCH   6  10
TORSDOF 2
ENDMDL
MODEL      146
REMARK 921   NORMALIZED FREE ENERGY PREDICTED BY IDOCK:   -3.91 KCAL/MOL
REMARK 922        TOTAL FREE ENERGY PREDICTED BY IDOCK:   -4.51 KCAL/MOL
REMARK 923 INTER-LIGAND FREE ENERGY PREDICTED BY IDOCK:   -4.15 KCAL/MOL
REMARK 924 INTRA-LIGAND FREE ENERGY PREDICTED BY IDOCK:   -0.35 KCAL/MOL
REMARK 927      BINDING AFFINITY PREDICTED BY RF-SCORE:    0.00 PKD
ROOT
HETATM    1  N   UNL     1      -6.045  13.764  71.910  1.00  0.00    -0.507 NA 
HETATM    2  C   UNL     1      -6.044  14.038  70.593  1.00  0.00    -0.153 C  
HETATM    3  H2  UNL     1      -6.531  12.928  72.235  1.00  0.00     0.000 HD 
HETATM    4  H1  UNL     1      -5.582  14.358  72.597  1.00  0.00     0.000 HD 
HETATM    5  N   UNL     1      -6.627  13.291  69.728  1.00  0.00    -0.325 NA 
HETATM    6  N   UNL     1      -5.415  15.194  70.289  1.00  0.00    -0.122 NA 
HETATM    7  H1  UNL     1      -6.626  13.498  68.730  1.00  0.00     0.000 HD 
HETATM    8  H2  UNL     1      -7.112  12.454  70.053  1.00  0.00     0.000 HD 
HETATM    9  H   UNL     1      -5.090  15.802  71.041  1.00  0.00     0.000 HD 
ENDROOT
BRANCH   6  10
HETATM   10  C   UNL     1      -5.193  15.585  68.900  1.00  0.00    -0.099 C  
BRANCH  10  11
HETATM   11  C   UNL     1      -6.112  16.751  68.522  1.00  0.00    -0.136 C  
HETATM   12  C   UNL     1      -5.991  17.882  69.538  1.00  0.00    -0.244 C  
HETATM   13  O   UNL     1      -6.757  19.017  69.113  1.00  0.00    -0.287 OA 
HETATM   14  C   UNL     1      -8.004  18.647  68.673  1.00  0.00    -0.327 A  
HETATM   15  C   UNL     1      -8.358  17.323  68.399  1.00  0.00    -0.261 A  
HETATM   16  O   UNL     1      -7.476  16.276  68.494  1.00  0.00    -0.159 OA 
HETATM   17  C   UNL     1      -9.659  17.018  68.005  1.00  0.00    -0.260 A  
HETATM   18  C   UNL     1     -10.594  18.041  67.840  1.00  0.00    -0.387 A  
HETATM   19  C   UNL     1     -10.228  19.370  68.072  1.00  0.00    -0.531 A  
HETATM   20  C   UNL     1      -8.931  19.672  68.493  1.00  0.00    -0.358 A  
ENDBRANCH  10  11
ENDBRANCH   6  10
TORSDOF 2
ENDMDL
MODEL      147
REMARK 921   NORMALIZED FREE ENERGY PREDICTED BY IDOCK:   -3.91 KCAL/MOL
REMARK 922        TOTAL FREE ENERGY PREDICTED BY IDOCK:   -4.50 KCAL/MOL
REMARK 923 INTER-LIGAND FREE ENERGY PREDICTED BY IDOCK:   -4.61 KCAL/MOL
REMARK 924 INTRA-LIGAND FREE ENERGY PREDICTED BY IDOCK:    0.11 KCAL/MOL
REMARK 927      BINDING AFFINITY PREDICTED BY RF-SCORE:    0.00 PKD
ROOT
HETATM    1  N   UNL     1      -8.675   7.593  64.473  1.00  0.00    -0.311 NA 
HETATM    2  C   UNL     1      -8.702   8.535  65.432  1.00  0.00    -0.159 C  
HETATM    3  H2  UNL     1      -7.909   7.604  63.798  1.00  0.00     0.000 HD 
HETATM    4  H1  UNL     1      -9.387   6.868  64.392  1.00  0.00     0.000 HD 
HETATM    5  N   UNL     1      -7.805   9.447  65.535  1.00  0.00    -0.102 NA 
HETATM    6  N   UNL     1      -9.785   8.449  66.234  1.00  0.00    -0.376 NA 
HETATM    7  H1  UNL     1      -7.826  10.162  66.262  1.00  0.00     0.000 HD 
HETATM    8  H2  UNL     1      -7.040   9.459  64.860  1.00  0.00     0.000 HD 
HETATM    9  H   UNL     1     -10.523   7.781  66.012  1.00  0.00     0.000 HD 
ENDROOT
BRANCH   6  10
HETATM   10  C   UNL     1      -9.916   9.300  67.413  1.00  0.00    -0.199 C  
BRANCH  10  11
HETATM   11  C   UNL     1     -10.400  10.697  67.011  1.00  0.00    -0.231 C  
HETATM   12  C   UNL     1     -11.653  11.077  67.793  1.00  0.00    -0.194 C  
HETATM   13  O   UNL     1     -12.028  12.430  67.504  1.00  0.00    -0.482 OA 
HETATM   14  C   UNL     1     -11.978  12.691  66.157  1.00  0.00    -0.395 A  
HETATM   15  C   UNL     1     -11.358  11.843  65.235  1.00  0.00    -0.275 A  
HETATM   16  O   UNL     1     -10.698  10.696  65.599  1.00  0.00    -0.160 OA 
HETATM   17  C   UNL     1     -11.392  12.147  63.877  1.00  0.00    -0.501 A  
HETATM   18  C   UNL     1     -12.005  13.324  63.443  1.00  0.00    -0.491 A  
HETATM   19  C   UNL     1     -12.586  14.194  64.369  1.00  0.00    -0.198 A  
HETATM   20  C   UNL     1     -12.576  13.874  65.728  1.00  0.00    -0.533 A  
ENDBRANCH  10  11
ENDBRANCH   6  10
TORSDOF 2
ENDMDL
MODEL      148
REMARK 921   NORMALIZED FREE ENERGY PREDICTED BY IDOCK:   -3.89 KCAL/MOL
REMARK 922        TOTAL FREE ENERGY PREDICTED BY IDOCK:   -4.49 KCAL/MOL
REMARK 923 INTER-LIGAND FREE ENERGY PREDICTED BY IDOCK:   -4.25 KCAL/MOL
REMARK 924 INTRA-LIGAND FREE ENERGY PREDICTED BY IDOCK:   -0.23 KCAL/MOL
REMARK 927      BINDING AFFINITY PREDICTED BY RF-SCORE:    0.00 PKD
ROOT
HETATM    1  N   UNL     1     -12.012  16.162  69.845  1.00  0.00    -0.315 NA 
HETATM    2  C   UNL     1     -11.449  15.190  69.106  1.00  0.00    -0.306 C  
HETATM    3  H2  UNL     1     -11.491  17.027  69.994  1.00  0.00     0.000 HD 
HETATM    4  H1  UNL     1     -12.937  16.071  70.263  1.00  0.00     0.000 HD 
HETATM    5  N   UNL     1     -10.284  15.305  68.579  1.00  0.00    -0.220 NA 
HETATM    6  N   UNL     1     -12.208  14.077  69.020  1.00  0.00    -0.494 NA 
HETATM    7  H1  UNL     1      -9.857  14.568  68.019  1.00  0.00     0.000 HD 
HETATM    8  H2  UNL     1      -9.763  16.170  68.728  1.00  0.00     0.000 HD 
HETATM    9  H   UNL     1     -13.063  14.008  69.573  1.00  0.00     0.000 HD 
ENDROOT
BRANCH   6  10
HETATM   10  C   UNL     1     -11.823  12.971  68.149  1.00  0.00    -0.340 C  
BRANCH  10  11
HETATM   11  C   UNL     1     -11.664  11.682  68.962  1.00  0.00    -0.324 C  
HETATM   12  C   UNL     1     -12.305  11.832  70.338  1.00  0.00    -0.277 C  
HETATM   13  O   UNL     1     -12.262  10.586  71.045  1.00  0.00    -0.335 OA 
HETATM   14  C   UNL     1     -11.028   9.992  70.945  1.00  0.00    -0.267 A  
HETATM   15  C   UNL     1     -10.052  10.401  70.032  1.00  0.00    -0.025 A  
HETATM   16  O   UNL     1     -10.256  11.403  69.116  1.00  0.00    -0.169 OA 
HETATM   17  C   UNL     1      -8.804   9.784  70.024  1.00  0.00    -0.245 A  
HETATM   18  C   UNL     1      -8.545   8.725  70.896  1.00  0.00    -0.229 A  
HETATM   19  C   UNL     1      -9.537   8.286  71.779  1.00  0.00    -0.274 A  
HETATM   20  C   UNL     1     -10.778   8.924  71.805  1.00  0.00    -0.432 A  
ENDBRANCH  10  11
ENDBRANCH   6  10
TORSDOF 2
ENDMDL
MODEL      149
REMARK 921   NORMALIZED FREE ENERGY PREDICTED BY IDOCK:   -3.87 KCAL/MOL
REMARK 922        TOTAL FREE ENERGY PREDICTED BY IDOCK:   -4.47 KCAL/MOL
REMARK 923 INTER-LIGAND FREE ENERGY PREDICTED BY IDOCK:   -4.34 KCAL/MOL
REMARK 924 INTRA-LIGAND FREE ENERGY PREDICTED BY IDOCK:   -0.12 KCAL/MOL
REMARK 927      BINDING AFFINITY PREDICTED BY RF-SCORE:    0.00 PKD
ROOT
HETATM    1  N   UNL     1     -11.344   5.916  66.253  1.00  0.00    -0.622 NA 
HETATM    2  C   UNL     1     -10.600   6.686  67.067  1.00  0.00    -0.333 C  
HETATM    3  H2  UNL     1     -11.387   4.913  66.435  1.00  0.00     0.000 HD 
HETATM    4  H1  UNL     1     -11.866   6.293  65.462  1.00  0.00     0.000 HD 
HETATM    5  N   UNL     1      -9.943   6.212  68.062  1.00  0.00    -0.133 NA 
HETATM    6  N   UNL     1     -10.579   7.985  66.699  1.00  0.00    -0.402 NA 
HETATM    7  H1  UNL     1      -9.379   6.796  68.679  1.00  0.00     0.000 HD 
HETATM    8  H2  UNL     1      -9.986   5.209  68.244  1.00  0.00     0.000 HD 
HETATM    9  H   UNL     1     -11.017   8.267  65.822  1.00  0.00     0.000 HD 
ENDROOT
BRANCH   6  10
HETATM   10  C   UNL     1      -9.937   8.992  67.539  1.00  0.00    -0.207 C  
BRANCH  10  11
HETATM   11  C   UNL     1     -10.687  10.325  67.440  1.00  0.00    -0.281 C  
HETATM   12  C   UNL     1      -9.990  11.262  66.458  1.00  0.00    -0.212 C  
HETATM   13  O   UNL     1     -10.763  12.456  66.277  1.00  0.00    -0.246 OA 
HETATM   14  C   UNL     1     -11.207  12.957  67.476  1.00  0.00    -0.290 A  
HETATM   15  C   UNL     1     -11.162  12.234  68.671  1.00  0.00    -0.259 A  
HETATM   16  O   UNL     1     -10.718  10.937  68.747  1.00  0.00    -0.181 OA 
HETATM   17  C   UNL     1     -11.583  12.827  69.859  1.00  0.00    -0.243 A  
HETATM   18  C   UNL     1     -12.092  14.126  69.846  1.00  0.00    -0.405 A  
HETATM   19  C   UNL     1     -12.177  14.833  68.643  1.00  0.00    -0.112 A  
HETATM   20  C   UNL     1     -11.730  14.248  67.457  1.00  0.00    -0.415 A  
ENDBRANCH  10  11
ENDBRANCH   6  10
TORSDOF 2
ENDMDL
MODEL      150
REMARK 921   NORMALIZED FREE ENERGY PREDICTED BY IDOCK:   -3.87 KCAL/MOL
REMARK 922        TOTAL FREE ENERGY PREDICTED BY IDOCK:   -4.46 KCAL/MOL
REMARK 923 INTER-LIGAND FREE ENERGY PREDICTED BY IDOCK:   -4.34 KCAL/MOL
REMARK 924 INTRA-LIGAND FREE ENERGY PREDICTED BY IDOCK:   -0.12 KCAL/MOL
REMARK 927      BINDING AFFINITY PREDICTED BY RF-SCORE:    0.00 PKD
ROOT
HETATM    1  N   UNL     1     -14.169   9.032  73.294  1.00  0.00    -1.188 NA 
HETATM    2  C   UNL     1     -13.781   8.453  72.145  1.00  0.00    -0.333 C  
HETATM    3  H2  UNL     1     -14.963   9.673  73.274  1.00  0.00     0.000 HD 
HETATM    4  H1  UNL     1     -13.705   8.857  74.185  1.00  0.00     0.000 HD 
HETATM    5  N   UNL     1     -14.366   8.672  71.024  1.00  0.00    -0.597 NA 
HETATM    6  N   UNL     1     -12.693   7.665  72.286  1.00  0.00    -0.513 NA 
HETATM    7  H1  UNL     1     -14.071   8.232  70.152  1.00  0.00     0.000 HD 
HETATM    8  H2  UNL     1     -15.159   9.313  71.003  1.00  0.00     0.000 HD 
HETATM    9  H   UNL     1     -12.202   7.641  73.179  1.00  0.00     0.000 HD 
ENDROOT
BRANCH   6  10
HETATM   10  C   UNL     1     -12.210   6.847  71.177  1.00  0.00    -0.379 C  
BRANCH  10  11
HETATM   11  C   UNL     1     -10.798   6.329  71.473  1.00  0.00    -0.254 C  
HETATM   12  C   UNL     1      -9.936   6.371  70.216  1.00  0.00    -0.168 C  
HETATM   13  O   UNL     1      -8.585   6.002  70.526  1.00  0.00    -0.133 OA 
HETATM   14  C   UNL     1      -8.538   4.891  71.331  1.00  0.00    -0.124 A  
HETATM   15  C   UNL     1      -9.656   4.377  71.994  1.00  0.00    -0.151 A  
HETATM   16  O   UNL     1     -10.894   4.967  71.944  1.00  0.00    -0.161 OA 
HETATM   17  C   UNL     1      -9.542   3.214  72.752  1.00  0.00    -0.167 A  
HETATM   18  C   UNL     1      -8.301   2.590  72.886  1.00  0.00    -0.070 A  
HETATM   19  C   UNL     1      -7.174   3.129  72.258  1.00  0.00    -0.046 A  
HETATM   20  C   UNL     1      -7.295   4.279  71.476  1.00  0.00    -0.055 A  
ENDBRANCH  10  11
ENDBRANCH   6  10
TORSDOF 2
ENDMDL
MODEL      151
REMARK 921   NORMALIZED FREE ENERGY PREDICTED BY IDOCK:   -3.87 KCAL/MOL
REMARK 922        TOTAL FREE ENERGY PREDICTED BY IDOCK:   -4.46 KCAL/MOL
REMARK 923 INTER-LIGAND FREE ENERGY PREDICTED BY IDOCK:   -4.31 KCAL/MOL
REMARK 924 INTRA-LIGAND FREE ENERGY PREDICTED BY IDOCK:   -0.15 KCAL/MOL
REMARK 927      BINDING AFFINITY PREDICTED BY RF-SCORE:    0.00 PKD
ROOT
HETATM    1  N   UNL     1     -13.353  10.303  71.514  1.00  0.00    -0.346 NA 
HETATM    2  C   UNL     1     -13.093   9.126  72.111  1.00  0.00    -0.446 C  
HETATM    3  H2  UNL     1     -14.316  10.639  71.497  1.00  0.00     0.000 HD 
HETATM    4  H1  UNL     1     -12.629  10.873  71.079  1.00  0.00     0.000 HD 
HETATM    5  N   UNL     1     -14.004   8.409  72.659  1.00  0.00    -0.641 NA 
HETATM    6  N   UNL     1     -11.795   8.762  72.028  1.00  0.00    -0.356 NA 
HETATM    7  H1  UNL     1     -13.807   7.517  73.112  1.00  0.00     0.000 HD 
HETATM    8  H2  UNL     1     -14.968   8.745  72.642  1.00  0.00     0.000 HD 
HETATM    9  H   UNL     1     -11.152   9.317  71.463  1.00  0.00     0.000 HD 
ENDROOT
BRANCH   6  10
HETATM   10  C   UNL     1     -11.299   7.585  72.734  1.00  0.00    -0.336 C  
BRANCH  10  11
HETATM   11  C   UNL     1     -10.552   6.659  71.769  1.00  0.00    -0.215 C  
HETATM   12  C   UNL     1     -11.295   6.555  70.441  1.00  0.00    -0.383 C  
HETATM   13  O   UNL     1     -10.529   5.789  69.501  1.00  0.00    -0.235 OA 
HETATM   14  C   UNL     1     -10.025   4.648  70.074  1.00  0.00    -0.232 A  
HETATM   15  C   UNL     1     -10.011   4.424  71.453  1.00  0.00    -0.178 A  
HETATM   16  O   UNL     1     -10.454   5.348  72.366  1.00  0.00    -0.201 OA 
HETATM   17  C   UNL     1      -9.530   3.219  71.958  1.00  0.00    -0.202 A  
HETATM   18  C   UNL     1      -9.018   2.255  71.088  1.00  0.00    -0.146 A  
HETATM   19  C   UNL     1      -8.992   2.496  69.712  1.00  0.00    -0.159 A  
HETATM   20  C   UNL     1      -9.500   3.693  69.204  1.00  0.00    -0.235 A  
ENDBRANCH  10  11
ENDBRANCH   6  10
TORSDOF 2
ENDMDL
MODEL      152
REMARK 921   NORMALIZED FREE ENERGY PREDICTED BY IDOCK:   -3.86 KCAL/MOL
REMARK 922        TOTAL FREE ENERGY PREDICTED BY IDOCK:   -4.45 KCAL/MOL
REMARK 923 INTER-LIGAND FREE ENERGY PREDICTED BY IDOCK:   -4.32 KCAL/MOL
REMARK 924 INTRA-LIGAND FREE ENERGY PREDICTED BY IDOCK:   -0.14 KCAL/MOL
REMARK 927      BINDING AFFINITY PREDICTED BY RF-SCORE:    0.00 PKD
ROOT
HETATM    1  N   UNL     1      -5.711  20.847  65.412  1.00  0.00    -0.224 NA 
HETATM    2  C   UNL     1      -6.823  20.626  66.134  1.00  0.00    -0.185 C  
HETATM    3  H2  UNL     1      -5.123  21.645  65.652  1.00  0.00     0.000 HD 
HETATM    4  H1  UNL     1      -5.431  20.250  64.634  1.00  0.00     0.000 HD 
HETATM    5  N   UNL     1      -7.176  21.377  67.113  1.00  0.00    -0.826 NA 
HETATM    6  N   UNL     1      -7.545  19.573  65.694  1.00  0.00    -0.436 NA 
HETATM    7  H1  UNL     1      -8.019  21.210  67.661  1.00  0.00     0.000 HD 
HETATM    8  H2  UNL     1      -6.588  22.176  67.353  1.00  0.00     0.000 HD 
HETATM    9  H   UNL     1      -7.273  19.103  64.831  1.00  0.00     0.000 HD 
ENDROOT
BRANCH   6  10
HETATM   10  C   UNL     1      -8.710  19.099  66.436  1.00  0.00    -0.328 C  
BRANCH  10  11
HETATM   11  C   UNL     1      -9.005  17.637  66.085  1.00  0.00    -0.107 C  
HETATM   12  C   UNL     1     -10.487  17.328  66.274  1.00  0.00    -0.268 C  
HETATM   13  O   UNL     1     -10.778  15.997  65.828  1.00  0.00    -0.333 OA 
HETATM   14  C   UNL     1      -9.846  15.097  66.282  1.00  0.00    -0.295 A  
HETATM   15  C   UNL     1      -8.626  15.477  66.846  1.00  0.00    -0.256 A  
HETATM   16  O   UNL     1      -8.224  16.786  66.951  1.00  0.00    -0.176 OA 
HETATM   17  C   UNL     1      -7.752  14.508  67.333  1.00  0.00    -0.215 A  
HETATM   18  C   UNL     1      -8.076  13.156  67.214  1.00  0.00    -0.151 A  
HETATM   19  C   UNL     1      -9.277  12.774  66.610  1.00  0.00    -0.212 A  
HETATM   20  C   UNL     1     -10.165  13.747  66.147  1.00  0.00    -0.305 A  
ENDBRANCH  10  11
ENDBRANCH   6  10
TORSDOF 2
ENDMDL
MODEL      153
REMARK 921   NORMALIZED FREE ENERGY PREDICTED BY IDOCK:   -3.86 KCAL/MOL
REMARK 922        TOTAL FREE ENERGY PREDICTED BY IDOCK:   -4.45 KCAL/MOL
REMARK 923 INTER-LIGAND FREE ENERGY PREDICTED BY IDOCK:   -4.29 KCAL/MOL
REMARK 924 INTRA-LIGAND FREE ENERGY PREDICTED BY IDOCK:   -0.17 KCAL/MOL
REMARK 927      BINDING AFFINITY PREDICTED BY RF-SCORE:    0.00 PKD
ROOT
HETATM    1  N   UNL     1      -9.644   6.318  65.748  1.00  0.00    -0.375 NA 
HETATM    2  C   UNL     1      -9.874   6.448  67.067  1.00  0.00    -0.154 C  
HETATM    3  H2  UNL     1      -9.471   5.385  65.372  1.00  0.00     0.000 HD 
HETATM    4  H1  UNL     1      -9.634   7.112  65.109  1.00  0.00     0.000 HD 
HETATM    5  N   UNL     1      -9.886   5.448  67.872  1.00  0.00    -0.136 NA 
HETATM    6  N   UNL     1     -10.038   7.730  67.456  1.00  0.00    -0.190 NA 
HETATM    7  H1  UNL     1     -10.061   5.546  68.871  1.00  0.00     0.000 HD 
HETATM    8  H2  UNL     1      -9.714   4.515  67.495  1.00  0.00     0.000 HD 
HETATM    9  H   UNL     1      -9.885   8.483  66.785  1.00  0.00     0.000 HD 
ENDROOT
BRANCH   6  10
HETATM   10  C   UNL     1     -10.433   8.055  68.824  1.00  0.00    -0.173 C  
BRANCH  10  11
HETATM   11  C   UNL     1     -10.522   9.574  69.006  1.00  0.00    -0.213 C  
HETATM   12  C   UNL     1     -11.441   9.922  70.172  1.00  0.00    -0.248 C  
HETATM   13  O   UNL     1     -11.423  11.335  70.416  1.00  0.00    -0.271 OA 
HETATM   14  C   UNL     1     -11.526  12.049  69.248  1.00  0.00    -0.301 A  
HETATM   15  C   UNL     1     -11.369  11.476  67.983  1.00  0.00    -0.298 A  
HETATM   16  O   UNL     1     -11.044  10.156  67.793  1.00  0.00    -0.295 OA 
HETATM   17  C   UNL     1     -11.540  12.254  66.840  1.00  0.00    -0.427 A  
HETATM   18  C   UNL     1     -11.823  13.616  66.961  1.00  0.00    -0.448 A  
HETATM   19  C   UNL     1     -11.937  14.198  68.227  1.00  0.00    -0.367 A  
HETATM   20  C   UNL     1     -11.793  13.412  69.371  1.00  0.00    -0.390 A  
ENDBRANCH  10  11
ENDBRANCH   6  10
TORSDOF 2
ENDMDL
MODEL      154
REMARK 921   NORMALIZED FREE ENERGY PREDICTED BY IDOCK:   -3.83 KCAL/MOL
REMARK 922        TOTAL FREE ENERGY PREDICTED BY IDOCK:   -4.42 KCAL/MOL
REMARK 923 INTER-LIGAND FREE ENERGY PREDICTED BY IDOCK:   -4.24 KCAL/MOL
REMARK 924 INTRA-LIGAND FREE ENERGY PREDICTED BY IDOCK:   -0.18 KCAL/MOL
REMARK 927      BINDING AFFINITY PREDICTED BY RF-SCORE:    0.00 PKD
ROOT
HETATM    1  N   UNL     1     -12.144  13.463  70.713  1.00  0.00    -0.497 NA 
HETATM    2  C   UNL     1     -11.805  12.563  69.773  1.00  0.00    -0.310 C  
HETATM    3  H2  UNL     1     -12.488  14.376  70.413  1.00  0.00     0.000 HD 
HETATM    4  H1  UNL     1     -12.072  13.272  71.711  1.00  0.00     0.000 HD 
HETATM    5  N   UNL     1     -11.896  12.804  68.516  1.00  0.00    -0.320 NA 
HETATM    6  N   UNL     1     -11.319  11.413  70.286  1.00  0.00    -0.498 NA 
HETATM    7  H1  UNL     1     -11.640  12.121  67.803  1.00  0.00     0.000 HD 
HETATM    8  H2  UNL     1     -12.240  13.717  68.216  1.00  0.00     0.000 HD 
HETATM    9  H   UNL     1     -11.152  11.342  71.290  1.00  0.00     0.000 HD 
ENDROOT
BRANCH   6  10
HETATM   10  C   UNL     1     -11.028  10.270  69.426  1.00  0.00    -0.247 C  
BRANCH  10  11
HETATM   11  C   UNL     1     -11.309   8.959  70.168  1.00  0.00    -0.106 C  
HETATM   12  C   UNL     1     -11.789   9.238  71.588  1.00  0.00    -0.383 C  
HETATM   13  O   UNL     1     -12.168   8.015  72.235  1.00  0.00    -0.327 OA 
HETATM   14  C   UNL     1     -11.238   7.026  72.027  1.00  0.00    -0.253 A  
HETATM   15  C   UNL     1     -10.222   7.119  71.071  1.00  0.00    -0.196 A  
HETATM   16  O   UNL     1     -10.091   8.185  70.217  1.00  0.00    -0.189 OA 
HETATM   17  C   UNL     1      -9.283   6.097  70.953  1.00  0.00    -0.163 A  
HETATM   18  C   UNL     1      -9.385   4.961  71.758  1.00  0.00    -0.185 A  
HETATM   19  C   UNL     1     -10.427   4.849  72.683  1.00  0.00    -0.261 A  
HETATM   20  C   UNL     1     -11.352   5.886  72.820  1.00  0.00    -0.305 A  
ENDBRANCH  10  11
ENDBRANCH   6  10
TORSDOF 2
ENDMDL
MODEL      155
REMARK 921   NORMALIZED FREE ENERGY PREDICTED BY IDOCK:   -3.83 KCAL/MOL
REMARK 922        TOTAL FREE ENERGY PREDICTED BY IDOCK:   -4.42 KCAL/MOL
REMARK 923 INTER-LIGAND FREE ENERGY PREDICTED BY IDOCK:   -4.23 KCAL/MOL
REMARK 924 INTRA-LIGAND FREE ENERGY PREDICTED BY IDOCK:   -0.18 KCAL/MOL
REMARK 927      BINDING AFFINITY PREDICTED BY RF-SCORE:    0.00 PKD
ROOT
HETATM    1  N   UNL     1     -10.261   8.102  66.375  1.00  0.00    -0.472 NA 
HETATM    2  C   UNL     1     -10.783   7.097  67.099  1.00  0.00    -0.352 C  
HETATM    3  H2  UNL     1     -10.154   7.974  65.368  1.00  0.00     0.000 HD 
HETATM    4  H1  UNL     1      -9.968   8.987  66.789  1.00  0.00     0.000 HD 
HETATM    5  N   UNL     1     -11.152   5.984  66.578  1.00  0.00    -0.761 NA 
HETATM    6  N   UNL     1     -10.829   7.361  68.423  1.00  0.00    -0.416 NA 
HETATM    7  H1  UNL     1     -11.548   5.221  67.128  1.00  0.00     0.000 HD 
HETATM    8  H2  UNL     1     -11.045   5.856  65.572  1.00  0.00     0.000 HD 
HETATM    9  H   UNL     1     -10.397   8.213  68.781  1.00  0.00     0.000 HD 
ENDROOT
BRANCH   6  10
HETATM   10  C   UNL     1     -11.489   6.446  69.349  1.00  0.00    -0.305 C  
BRANCH  10  11
HETATM   11  C   UNL     1     -10.960   6.654  70.772  1.00  0.00    -0.270 C  
HETATM   12  C   UNL     1     -11.074   8.119  71.178  1.00  0.00    -0.245 C  
HETATM   13  O   UNL     1     -10.694   8.286  72.551  1.00  0.00    -0.322 OA 
HETATM   14  C   UNL     1      -9.540   7.601  72.841  1.00  0.00    -0.218 A  
HETATM   15  C   UNL     1      -8.986   6.638  71.993  1.00  0.00    -0.139 A  
HETATM   16  O   UNL     1      -9.574   6.251  70.814  1.00  0.00    -0.174 OA 
HETATM   17  C   UNL     1      -7.784   6.021  72.330  1.00  0.00    -0.101 A  
HETATM   18  C   UNL     1      -7.158   6.332  73.538  1.00  0.00    -0.083 A  
HETATM   19  C   UNL     1      -7.734   7.263  74.407  1.00  0.00    -0.158 A  
HETATM   20  C   UNL     1      -8.925   7.901  74.055  1.00  0.00    -0.218 A  
ENDBRANCH  10  11
ENDBRANCH   6  10
TORSDOF 2
ENDMDL
MODEL      156
REMARK 921   NORMALIZED FREE ENERGY PREDICTED BY IDOCK:   -3.82 KCAL/MOL
REMARK 922        TOTAL FREE ENERGY PREDICTED BY IDOCK:   -4.41 KCAL/MOL
REMARK 923 INTER-LIGAND FREE ENERGY PREDICTED BY IDOCK:   -4.22 KCAL/MOL
REMARK 924 INTRA-LIGAND FREE ENERGY PREDICTED BY IDOCK:   -0.19 KCAL/MOL
REMARK 927      BINDING AFFINITY PREDICTED BY RF-SCORE:    0.00 PKD
ROOT
HETATM    1  N   UNL     1     -12.822  14.819  63.824  1.00  0.00    -0.615 NA 
HETATM    2  C   UNL     1     -11.584  14.326  64.005  1.00  0.00    -0.075 C  
HETATM    3  H2  UNL     1     -13.010  15.782  64.103  1.00  0.00     0.000 HD 
HETATM    4  H1  UNL     1     -13.580  14.271  63.419  1.00  0.00     0.000 HD 
HETATM    5  N   UNL     1     -10.630  15.016  64.515  1.00  0.00    -0.545 NA 
HETATM    6  N   UNL     1     -11.468  13.029  63.645  1.00  0.00    -0.594 NA 
HETATM    7  H1  UNL     1      -9.691  14.642  64.652  1.00  0.00     0.000 HD 
HETATM    8  H2  UNL     1     -10.818  15.979  64.795  1.00  0.00     0.000 HD 
HETATM    9  H   UNL     1     -12.301  12.507  63.371  1.00  0.00     0.000 HD 
ENDROOT
BRANCH   6  10
HETATM   10  C   UNL     1     -10.169  12.365  63.642  1.00  0.00    -0.354 C  
BRANCH  10  11
HETATM   11  C   UNL     1     -10.247  11.037  64.403  1.00  0.00    -0.346 C  
HETATM   12  C   UNL     1     -10.152  11.274  65.906  1.00  0.00    -0.245 C  
HETATM   13  O   UNL     1     -10.350  10.044  66.617  1.00  0.00    -0.234 OA 
HETATM   14  C   UNL     1      -9.632   9.017  66.057  1.00  0.00    -0.272 A  
HETATM   15  C   UNL     1      -9.033   9.099  64.796  1.00  0.00    -0.127 A  
HETATM   16  O   UNL     1      -9.153  10.196  63.980  1.00  0.00    -0.211 OA 
HETATM   17  C   UNL     1      -8.275   8.034  64.315  1.00  0.00    -0.070 A  
HETATM   18  C   UNL     1      -8.154   6.868  65.073  1.00  0.00    -0.117 A  
HETATM   19  C   UNL     1      -8.788   6.770  66.315  1.00  0.00    -0.158 A  
HETATM   20  C   UNL     1      -9.525   7.848  66.808  1.00  0.00    -0.257 A  
ENDBRANCH  10  11
ENDBRANCH   6  10
TORSDOF 2
ENDMDL
MODEL      157
REMARK 921   NORMALIZED FREE ENERGY PREDICTED BY IDOCK:   -3.81 KCAL/MOL
REMARK 922        TOTAL FREE ENERGY PREDICTED BY IDOCK:   -4.40 KCAL/MOL
REMARK 923 INTER-LIGAND FREE ENERGY PREDICTED BY IDOCK:   -4.25 KCAL/MOL
REMARK 924 INTRA-LIGAND FREE ENERGY PREDICTED BY IDOCK:   -0.15 KCAL/MOL
REMARK 927      BINDING AFFINITY PREDICTED BY RF-SCORE:    0.00 PKD
ROOT
HETATM    1  N   UNL     1     -11.229  11.337  70.113  1.00  0.00    -0.490 NA 
HETATM    2  C   UNL     1     -11.300  11.976  68.932  1.00  0.00    -0.278 C  
HETATM    3  H2  UNL     1     -11.793  10.497  70.248  1.00  0.00     0.000 HD 
HETATM    4  H1  UNL     1     -10.637  11.656  70.879  1.00  0.00     0.000 HD 
HETATM    5  N   UNL     1     -12.046  11.574  67.968  1.00  0.00    -0.598 NA 
HETATM    6  N   UNL     1     -10.551  13.099  68.887  1.00  0.00    -0.392 NA 
HETATM    7  H1  UNL     1     -12.100  12.059  67.073  1.00  0.00     0.000 HD 
HETATM    8  H2  UNL     1     -12.610  10.734  68.104  1.00  0.00     0.000 HD 
HETATM    9  H   UNL     1     -10.088  13.428  69.734  1.00  0.00     0.000 HD 
ENDROOT
BRANCH   6  10
HETATM   10  C   UNL     1     -10.395  13.848  67.645  1.00  0.00    -0.242 C  
BRANCH  10  11
HETATM   11  C   UNL     1      -9.287  14.897  67.790  1.00  0.00    -0.194 C  
HETATM   12  C   UNL     1      -9.263  15.460  69.207  1.00  0.00    -0.259 C  
HETATM   13  O   UNL     1      -8.149  16.348  69.371  1.00  0.00    -0.190 OA 
HETATM   14  C   UNL     1      -8.031  17.209  68.309  1.00  0.00    -0.236 A  
HETATM   15  C   UNL     1      -8.718  17.040  67.104  1.00  0.00    -0.210 A  
HETATM   16  O   UNL     1      -9.537  15.967  66.853  1.00  0.00    -0.220 OA 
HETATM   17  C   UNL     1      -8.588  17.984  66.089  1.00  0.00    -0.127 A  
HETATM   18  C   UNL     1      -7.733  19.075  66.259  1.00  0.00    -0.295 A  
HETATM   19  C   UNL     1      -7.011  19.221  67.447  1.00  0.00    -0.223 A  
HETATM   20  C   UNL     1      -7.164  18.288  68.475  1.00  0.00    -0.293 A  
ENDBRANCH  10  11
ENDBRANCH   6  10
TORSDOF 2
ENDMDL
MODEL      158
REMARK 921   NORMALIZED FREE ENERGY PREDICTED BY IDOCK:   -3.77 KCAL/MOL
REMARK 922        TOTAL FREE ENERGY PREDICTED BY IDOCK:   -4.35 KCAL/MOL
REMARK 923 INTER-LIGAND FREE ENERGY PREDICTED BY IDOCK:   -4.13 KCAL/MOL
REMARK 924 INTRA-LIGAND FREE ENERGY PREDICTED BY IDOCK:   -0.22 KCAL/MOL
REMARK 927      BINDING AFFINITY PREDICTED BY RF-SCORE:    0.00 PKD
ROOT
HETATM    1  N   UNL     1     -10.469  20.335  67.560  1.00  0.00    -0.264 NA 
HETATM    2  C   UNL     1      -9.244  19.783  67.613  1.00  0.00    -0.338 C  
HETATM    3  H2  UNL     1     -10.588  21.211  67.051  1.00  0.00     0.000 HD 
HETATM    4  H1  UNL     1     -11.283  19.915  68.007  1.00  0.00     0.000 HD 
HETATM    5  N   UNL     1      -8.219  20.311  67.050  1.00  0.00    -0.365 NA 
HETATM    6  N   UNL     1      -9.199  18.654  68.354  1.00  0.00    -0.316 NA 
HETATM    7  H1  UNL     1      -7.290  19.893  67.090  1.00  0.00     0.000 HD 
HETATM    8  H2  UNL     1      -8.338  21.188  66.541  1.00  0.00     0.000 HD 
HETATM    9  H   UNL     1     -10.024  18.365  68.880  1.00  0.00     0.000 HD 
ENDROOT
BRANCH   6  10
HETATM   10  C   UNL     1      -7.987  17.843  68.412  1.00  0.00    -0.298 C  
BRANCH  10  11
HETATM   11  C   UNL     1      -8.333  16.357  68.270  1.00  0.00    -0.189 C  
HETATM   12  C   UNL     1      -7.506  15.717  67.160  1.00  0.00    -0.218 C  
HETATM   13  O   UNL     1      -7.744  14.303  67.115  1.00  0.00    -0.164 OA 
HETATM   14  C   UNL     1      -9.083  14.014  67.200  1.00  0.00    -0.232 A  
HETATM   15  C   UNL     1     -10.047  14.953  67.580  1.00  0.00    -0.227 A  
HETATM   16  O   UNL     1      -9.737  16.237  67.953  1.00  0.00    -0.230 OA 
HETATM   17  C   UNL     1     -11.394  14.600  67.594  1.00  0.00    -0.350 A  
HETATM   18  C   UNL     1     -11.776  13.297  67.273  1.00  0.00    -0.424 A  
HETATM   19  C   UNL     1     -10.808  12.346  66.936  1.00  0.00    -0.286 A  
HETATM   20  C   UNL     1      -9.460  12.708  66.896  1.00  0.00    -0.229 A  
ENDBRANCH  10  11
ENDBRANCH   6  10
TORSDOF 2
ENDMDL
MODEL      159
REMARK 921   NORMALIZED FREE ENERGY PREDICTED BY IDOCK:   -3.76 KCAL/MOL
REMARK 922        TOTAL FREE ENERGY PREDICTED BY IDOCK:   -4.35 KCAL/MOL
REMARK 923 INTER-LIGAND FREE ENERGY PREDICTED BY IDOCK:   -4.19 KCAL/MOL
REMARK 924 INTRA-LIGAND FREE ENERGY PREDICTED BY IDOCK:   -0.16 KCAL/MOL
REMARK 927      BINDING AFFINITY PREDICTED BY RF-SCORE:    0.00 PKD
ROOT
HETATM    1  N   UNL     1      -9.371   8.759  66.869  1.00  0.00    -0.157 NA 
HETATM    2  C   UNL     1      -9.516   9.567  65.804  1.00  0.00    -0.250 C  
HETATM    3  H2  UNL     1      -8.972   7.831  66.728  1.00  0.00     0.000 HD 
HETATM    4  H1  UNL     1      -9.644   9.036  67.812  1.00  0.00     0.000 HD 
HETATM    5  N   UNL     1      -9.173   9.219  64.617  1.00  0.00    -0.434 NA 
HETATM    6  N   UNL     1     -10.100  10.747  66.104  1.00  0.00    -0.234 NA 
HETATM    7  H1  UNL     1      -9.283   9.831  63.809  1.00  0.00     0.000 HD 
HETATM    8  H2  UNL     1      -8.773   8.291  64.476  1.00  0.00     0.000 HD 
HETATM    9  H   UNL     1     -10.466  10.902  67.043  1.00  0.00     0.000 HD 
ENDROOT
BRANCH   6  10
HETATM   10  C   UNL     1     -10.214  11.804  65.103  1.00  0.00    -0.268 C  
BRANCH  10  11
HETATM   11  C   UNL     1     -10.512  13.147  65.779  1.00  0.00    -0.283 C  
HETATM   12  C   UNL     1     -10.561  14.268  64.746  1.00  0.00    -0.412 C  
HETATM   13  O   UNL     1     -10.962  15.498  65.365  1.00  0.00    -0.352 OA 
HETATM   14  C   UNL     1     -10.295  15.707  66.547  1.00  0.00    -0.291 A  
HETATM   15  C   UNL     1      -9.556  14.715  67.196  1.00  0.00    -0.233 A  
HETATM   16  O   UNL     1      -9.470  13.424  66.738  1.00  0.00    -0.247 OA 
HETATM   17  C   UNL     1      -8.862  15.017  68.366  1.00  0.00    -0.178 A  
HETATM   18  C   UNL     1      -8.946  16.298  68.913  1.00  0.00    -0.248 A  
HETATM   19  C   UNL     1      -9.721  17.278  68.287  1.00  0.00    -0.294 A  
HETATM   20  C   UNL     1     -10.393  16.983  67.100  1.00  0.00    -0.305 A  
ENDBRANCH  10  11
ENDBRANCH   6  10
TORSDOF 2
ENDMDL
MODEL      160
REMARK 921   NORMALIZED FREE ENERGY PREDICTED BY IDOCK:   -3.75 KCAL/MOL
REMARK 922        TOTAL FREE ENERGY PREDICTED BY IDOCK:   -4.33 KCAL/MOL
REMARK 923 INTER-LIGAND FREE ENERGY PREDICTED BY IDOCK:   -4.13 KCAL/MOL
REMARK 924 INTRA-LIGAND FREE ENERGY PREDICTED BY IDOCK:   -0.20 KCAL/MOL
REMARK 927      BINDING AFFINITY PREDICTED BY RF-SCORE:    0.00 PKD
ROOT
HETATM    1  N   UNL     1      -9.412   7.808  74.090  1.00  0.00    -0.332 NA 
HETATM    2  C   UNL     1     -10.350   7.392  73.221  1.00  0.00    -0.355 C  
HETATM    3  H2  UNL     1      -9.714   8.224  74.972  1.00  0.00     0.000 HD 
HETATM    4  H1  UNL     1      -8.413   7.726  73.905  1.00  0.00     0.000 HD 
HETATM    5  N   UNL     1     -11.608   7.496  73.455  1.00  0.00    -0.533 NA 
HETATM    6  N   UNL     1      -9.835   6.907  72.071  1.00  0.00    -0.163 NA 
HETATM    7  H1  UNL     1     -12.320   7.180  72.796  1.00  0.00     0.000 HD 
HETATM    8  H2  UNL     1     -11.909   7.911  74.336  1.00  0.00     0.000 HD 
HETATM    9  H   UNL     1      -8.832   6.977  71.902  1.00  0.00     0.000 HD 
ENDROOT
BRANCH   6  10
HETATM   10  C   UNL     1     -10.693   6.283  71.068  1.00  0.00    -0.259 C  
BRANCH  10  11
HETATM   11  C   UNL     1     -10.896   7.228  69.879  1.00  0.00    -0.247 C  
HETATM   12  C   UNL     1      -9.753   7.087  68.879  1.00  0.00    -0.144 C  
HETATM   13  O   UNL     1     -10.011   7.880  67.713  1.00  0.00    -0.155 OA 
HETATM   14  C   UNL     1     -10.455   9.136  68.046  1.00  0.00    -0.224 A  
HETATM   15  C   UNL     1     -10.878   9.483  69.332  1.00  0.00    -0.206 A  
HETATM   16  O   UNL     1     -10.939   8.586  70.369  1.00  0.00    -0.237 OA 
HETATM   17  C   UNL     1     -11.266  10.792  69.608  1.00  0.00    -0.355 A  
HETATM   18  C   UNL     1     -11.275  11.745  68.587  1.00  0.00    -0.312 A  
HETATM   19  C   UNL     1     -10.893  11.387  67.291  1.00  0.00    -0.311 A  
HETATM   20  C   UNL     1     -10.478  10.081  67.022  1.00  0.00    -0.302 A  
ENDBRANCH  10  11
ENDBRANCH   6  10
TORSDOF 2
ENDMDL
MODEL      161
REMARK 921   NORMALIZED FREE ENERGY PREDICTED BY IDOCK:   -3.74 KCAL/MOL
REMARK 922        TOTAL FREE ENERGY PREDICTED BY IDOCK:   -4.32 KCAL/MOL
REMARK 923 INTER-LIGAND FREE ENERGY PREDICTED BY IDOCK:   -4.11 KCAL/MOL
REMARK 924 INTRA-LIGAND FREE ENERGY PREDICTED BY IDOCK:   -0.21 KCAL/MOL
REMARK 927      BINDING AFFINITY PREDICTED BY RF-SCORE:    0.00 PKD
ROOT
HETATM    1  N   UNL     1     -10.163   3.466  72.403  1.00  0.00    -0.155 NA 
HETATM    2  C   UNL     1      -9.577   4.060  71.349  1.00  0.00    -0.171 C  
HETATM    3  H2  UNL     1      -9.616   2.810  72.961  1.00  0.00     0.000 HD 
HETATM    4  H1  UNL     1     -11.132   3.644  72.668  1.00  0.00     0.000 HD 
HETATM    5  N   UNL     1      -8.358   3.836  71.015  1.00  0.00    -0.067 NA 
HETATM    6  N   UNL     1     -10.411   4.867  70.659  1.00  0.00    -0.205 NA 
HETATM    7  H1  UNL     1      -7.913   4.286  70.216  1.00  0.00     0.000 HD 
HETATM    8  H2  UNL     1      -7.811   3.180  71.573  1.00  0.00     0.000 HD 
HETATM    9  H   UNL     1     -11.400   4.895  70.904  1.00  0.00     0.000 HD 
ENDROOT
BRANCH   6  10
HETATM   10  C   UNL     1      -9.916   5.701  69.567  1.00  0.00    -0.198 C  
BRANCH  10  11
HETATM   11  C   UNL     1     -10.619   7.062  69.576  1.00  0.00    -0.234 C  
HETATM   12  C   UNL     1      -9.609   8.190  69.388  1.00  0.00    -0.167 C  
HETATM   13  O   UNL     1     -10.285   9.449  69.273  1.00  0.00    -0.187 OA 
HETATM   14  C   UNL     1     -11.266   9.583  70.224  1.00  0.00    -0.261 A  
HETATM   15  C   UNL     1     -11.734   8.518  70.998  1.00  0.00    -0.275 A  
HETATM   16  O   UNL     1     -11.293   7.228  70.842  1.00  0.00    -0.264 OA 
HETATM   17  C   UNL     1     -12.695   8.742  71.981  1.00  0.00    -0.444 A  
HETATM   18  C   UNL     1     -13.224  10.021  72.159  1.00  0.00    -0.489 A  
HETATM   19  C   UNL     1     -12.787  11.078  71.355  1.00  0.00    -0.548 A  
HETATM   20  C   UNL     1     -11.804  10.859  70.389  1.00  0.00    -0.449 A  
ENDBRANCH  10  11
ENDBRANCH   6  10
TORSDOF 2
ENDMDL
MODEL      162
REMARK 921   NORMALIZED FREE ENERGY PREDICTED BY IDOCK:   -3.69 KCAL/MOL
REMARK 922        TOTAL FREE ENERGY PREDICTED BY IDOCK:   -4.26 KCAL/MOL
REMARK 923 INTER-LIGAND FREE ENERGY PREDICTED BY IDOCK:   -4.08 KCAL/MOL
REMARK 924 INTRA-LIGAND FREE ENERGY PREDICTED BY IDOCK:   -0.19 KCAL/MOL
REMARK 927      BINDING AFFINITY PREDICTED BY RF-SCORE:    0.00 PKD
ROOT
HETATM    1  N   UNL     1     -10.298  18.817  67.885  1.00  0.00    -0.396 NA 
HETATM    2  C   UNL     1     -10.240  17.725  67.102  1.00  0.00    -0.353 C  
HETATM    3  H2  UNL     1      -9.853  19.675  67.560  1.00  0.00     0.000 HD 
HETATM    4  H1  UNL     1     -10.768  18.822  68.790  1.00  0.00     0.000 HD 
HETATM    5  N   UNL     1      -9.649  17.718  65.963  1.00  0.00    -0.529 NA 
HETATM    6  N   UNL     1     -10.820  16.639  67.657  1.00  0.00    -0.300 NA 
HETATM    7  H1  UNL     1      -9.605  16.891  65.369  1.00  0.00     0.000 HD 
HETATM    8  H2  UNL     1      -9.203  18.577  65.638  1.00  0.00     0.000 HD 
HETATM    9  H   UNL     1     -11.153  16.684  68.620  1.00  0.00     0.000 HD 
ENDROOT
BRANCH   6  10
HETATM   10  C   UNL     1     -10.975  15.401  66.899  1.00  0.00    -0.294 C  
BRANCH  10  11
HETATM   11  C   UNL     1     -10.398  14.219  67.684  1.00  0.00    -0.248 C  
HETATM   12  C   UNL     1      -8.913  14.046  67.382  1.00  0.00    -0.206 C  
HETATM   13  O   UNL     1      -8.352  13.020  68.212  1.00  0.00    -0.159 OA 
HETATM   14  C   UNL     1      -9.158  11.909  68.253  1.00  0.00    -0.183 A  
HETATM   15  C   UNL     1     -10.477  11.902  67.793  1.00  0.00    -0.202 A  
HETATM   16  O   UNL     1     -11.107  13.020  67.304  1.00  0.00    -0.258 OA 
HETATM   17  C   UNL     1     -11.218  10.722  67.819  1.00  0.00    -0.385 A  
HETATM   18  C   UNL     1     -10.655   9.560  68.348  1.00  0.00    -0.261 A  
HETATM   19  C   UNL     1      -9.350   9.578  68.849  1.00  0.00    -0.149 A  
HETATM   20  C   UNL     1      -8.600  10.753  68.797  1.00  0.00    -0.156 A  
ENDBRANCH  10  11
ENDBRANCH   6  10
TORSDOF 2
ENDMDL
MODEL      163
REMARK 921   NORMALIZED FREE ENERGY PREDICTED BY IDOCK:   -3.68 KCAL/MOL
REMARK 922        TOTAL FREE ENERGY PREDICTED BY IDOCK:   -4.25 KCAL/MOL
REMARK 923 INTER-LIGAND FREE ENERGY PREDICTED BY IDOCK:   -4.11 KCAL/MOL
REMARK 924 INTRA-LIGAND FREE ENERGY PREDICTED BY IDOCK:   -0.14 KCAL/MOL
REMARK 927      BINDING AFFINITY PREDICTED BY RF-SCORE:    0.00 PKD
ROOT
HETATM    1  N   UNL     1      -7.441   9.980  70.655  1.00  0.00    -0.405 NA 
HETATM    2  C   UNL     1      -7.109  10.619  69.519  1.00  0.00    -0.127 C  
HETATM    3  H2  UNL     1      -6.804   9.273  71.022  1.00  0.00     0.000 HD 
HETATM    4  H1  UNL     1      -8.303  10.174  71.165  1.00  0.00     0.000 HD 
HETATM    5  N   UNL     1      -6.025  10.376  68.877  1.00  0.00    -0.041 NA 
HETATM    6  N   UNL     1      -8.050  11.496  69.106  1.00  0.00    -0.367 NA 
HETATM    7  H1  UNL     1      -5.773  10.861  68.016  1.00  0.00     0.000 HD 
HETATM    8  H2  UNL     1      -5.388   9.669  69.244  1.00  0.00     0.000 HD 
HETATM    9  H   UNL     1      -8.944  11.541  69.594  1.00  0.00     0.000 HD 
ENDROOT
BRANCH   6  10
HETATM   10  C   UNL     1      -7.805  12.379  67.970  1.00  0.00    -0.141 C  
BRANCH  10  11
HETATM   11  C   UNL     1      -9.119  12.699  67.250  1.00  0.00    -0.191 C  
HETATM   12  C   UNL     1      -9.400  11.668  66.161  1.00  0.00    -0.224 C  
HETATM   13  O   UNL     1     -10.688  11.901  65.576  1.00  0.00    -0.267 OA 
HETATM   14  C   UNL     1     -10.884  13.232  65.302  1.00  0.00    -0.301 A  
HETATM   15  C   UNL     1     -10.063  14.246  65.801  1.00  0.00    -0.335 A  
HETATM   16  O   UNL     1      -9.014  14.010  66.654  1.00  0.00    -0.231 OA 
HETATM   17  C   UNL     1     -10.293  15.571  65.437  1.00  0.00    -0.422 A  
HETATM   18  C   UNL     1     -11.373  15.887  64.611  1.00  0.00    -0.328 A  
HETATM   19  C   UNL     1     -12.221  14.877  64.147  1.00  0.00    -0.280 A  
HETATM   20  C   UNL     1     -11.973  13.547  64.490  1.00  0.00    -0.451 A  
ENDBRANCH  10  11
ENDBRANCH   6  10
TORSDOF 2
ENDMDL
MODEL      164
REMARK 921   NORMALIZED FREE ENERGY PREDICTED BY IDOCK:   -3.68 KCAL/MOL
REMARK 922        TOTAL FREE ENERGY PREDICTED BY IDOCK:   -4.25 KCAL/MOL
REMARK 923 INTER-LIGAND FREE ENERGY PREDICTED BY IDOCK:   -4.04 KCAL/MOL
REMARK 924 INTRA-LIGAND FREE ENERGY PREDICTED BY IDOCK:   -0.21 KCAL/MOL
REMARK 927      BINDING AFFINITY PREDICTED BY RF-SCORE:    0.00 PKD
ROOT
HETATM    1  N   UNL     1     -10.983  12.589  65.581  1.00  0.00    -0.279 NA 
HETATM    2  C   UNL     1     -10.071  11.608  65.705  1.00  0.00    -0.240 C  
HETATM    3  H2  UNL     1     -10.656  13.542  65.416  1.00  0.00     0.000 HD 
HETATM    4  H1  UNL     1     -11.986  12.420  65.646  1.00  0.00     0.000 HD 
HETATM    5  N   UNL     1      -8.808  11.820  65.623  1.00  0.00    -0.408 NA 
HETATM    6  N   UNL     1     -10.617  10.402  65.970  1.00  0.00    -0.124 NA 
HETATM    7  H1  UNL     1      -8.116  11.077  65.717  1.00  0.00     0.000 HD 
HETATM    8  H2  UNL     1      -8.481  12.773  65.458  1.00  0.00     0.000 HD 
HETATM    9  H   UNL     1     -11.618  10.333  66.151  1.00  0.00     0.000 HD 
ENDROOT
BRANCH   6  10
HETATM   10  C   UNL     1      -9.795   9.196  66.001  1.00  0.00    -0.272 C  
BRANCH  10  11
HETATM   11  C   UNL     1      -9.857   8.544  67.386  1.00  0.00    -0.187 C  
HETATM   12  C   UNL     1     -10.640   7.236  67.329  1.00  0.00    -0.325 C  
HETATM   13  O   UNL     1     -10.589   6.571  68.598  1.00  0.00    -0.199 OA 
HETATM   14  C   UNL     1     -10.820   7.442  69.634  1.00  0.00    -0.210 A  
HETATM   15  C   UNL     1     -10.806   8.831  69.484  1.00  0.00    -0.142 A  
HETATM   16  O   UNL     1     -10.509   9.454  68.297  1.00  0.00    -0.204 OA 
HETATM   17  C   UNL     1     -11.101   9.652  70.570  1.00  0.00    -0.369 A  
HETATM   18  C   UNL     1     -11.364   9.085  71.819  1.00  0.00    -0.447 A  
HETATM   19  C   UNL     1     -11.334   7.697  71.979  1.00  0.00    -0.322 A  
HETATM   20  C   UNL     1     -11.066   6.875  70.883  1.00  0.00    -0.313 A  
ENDBRANCH  10  11
ENDBRANCH   6  10
TORSDOF 2
ENDMDL
MODEL      165
REMARK 921   NORMALIZED FREE ENERGY PREDICTED BY IDOCK:   -3.66 KCAL/MOL
REMARK 922        TOTAL FREE ENERGY PREDICTED BY IDOCK:   -4.22 KCAL/MOL
REMARK 923 INTER-LIGAND FREE ENERGY PREDICTED BY IDOCK:   -4.08 KCAL/MOL
REMARK 924 INTRA-LIGAND FREE ENERGY PREDICTED BY IDOCK:   -0.15 KCAL/MOL
REMARK 927      BINDING AFFINITY PREDICTED BY RF-SCORE:    0.00 PKD
ROOT
HETATM    1  N   UNL     1     -11.793  11.558  67.142  1.00  0.00    -0.572 NA 
HETATM    2  C   UNL     1     -10.990  10.493  67.312  1.00  0.00    -0.260 C  
HETATM    3  H2  UNL     1     -11.555  12.239  66.421  1.00  0.00     0.000 HD 
HETATM    4  H1  UNL     1     -12.629  11.714  67.705  1.00  0.00     0.000 HD 
HETATM    5  N   UNL     1      -9.938  10.297  66.605  1.00  0.00    -0.207 NA 
HETATM    6  N   UNL     1     -11.377   9.690  68.326  1.00  0.00    -0.505 NA 
HETATM    7  H1  UNL     1      -9.329   9.489  66.733  1.00  0.00     0.000 HD 
HETATM    8  H2  UNL     1      -9.700  10.977  65.883  1.00  0.00     0.000 HD 
HETATM    9  H   UNL     1     -12.147   9.978  68.930  1.00  0.00     0.000 HD 
ENDROOT
BRANCH   6  10
HETATM   10  C   UNL     1     -10.709   8.415  68.572  1.00  0.00    -0.021 C  
BRANCH  10  11
HETATM   11  C   UNL     1     -10.931   7.967  70.020  1.00  0.00    -0.207 C  
HETATM   12  C   UNL     1     -10.345   8.984  70.993  1.00  0.00    -0.278 C  
HETATM   13  O   UNL     1     -10.664   8.621  72.344  1.00  0.00    -0.339 OA 
HETATM   14  C   UNL     1     -10.454   7.283  72.569  1.00  0.00    -0.237 A  
HETATM   15  C   UNL     1     -10.246   6.357  71.544  1.00  0.00    -0.194 A  
HETATM   16  O   UNL     1     -10.285   6.690  70.213  1.00  0.00    -0.184 OA 
HETATM   17  C   UNL     1      -9.988   5.023  71.853  1.00  0.00    -0.245 A  
HETATM   18  C   UNL     1      -9.983   4.606  73.185  1.00  0.00    -0.185 A  
HETATM   19  C   UNL     1     -10.233   5.525  74.208  1.00  0.00    -0.292 A  
HETATM   20  C   UNL     1     -10.465   6.866  73.899  1.00  0.00    -0.352 A  
ENDBRANCH  10  11
ENDBRANCH   6  10
TORSDOF 2
ENDMDL
MODEL      166
REMARK 921   NORMALIZED FREE ENERGY PREDICTED BY IDOCK:   -3.65 KCAL/MOL
REMARK 922        TOTAL FREE ENERGY PREDICTED BY IDOCK:   -4.21 KCAL/MOL
REMARK 923 INTER-LIGAND FREE ENERGY PREDICTED BY IDOCK:   -4.04 KCAL/MOL
REMARK 924 INTRA-LIGAND FREE ENERGY PREDICTED BY IDOCK:   -0.17 KCAL/MOL
REMARK 927      BINDING AFFINITY PREDICTED BY RF-SCORE:    0.00 PKD
ROOT
HETATM    1  N   UNL     1      -8.638  17.505  68.747  1.00  0.00    -0.250 NA 
HETATM    2  C   UNL     1      -9.824  17.207  68.188  1.00  0.00    -0.281 C  
HETATM    3  H2  UNL     1      -8.469  18.464  69.051  1.00  0.00     0.000 HD 
HETATM    4  H1  UNL     1      -7.901  16.813  68.880  1.00  0.00     0.000 HD 
HETATM    5  N   UNL     1     -10.752  18.078  68.021  1.00  0.00    -0.344 NA 
HETATM    6  N   UNL     1      -9.914  15.923  67.780  1.00  0.00    -0.227 NA 
HETATM    7  H1  UNL     1     -11.651  17.852  67.597  1.00  0.00     0.000 HD 
HETATM    8  H2  UNL     1     -10.583  19.037  68.325  1.00  0.00     0.000 HD 
HETATM    9  H   UNL     1      -9.091  15.322  67.825  1.00  0.00     0.000 HD 
ENDROOT
BRANCH   6  10
HETATM   10  C   UNL     1     -11.173  15.381  67.277  1.00  0.00    -0.270 C  
BRANCH  10  11
HETATM   11  C   UNL     1     -10.990  13.924  66.842  1.00  0.00    -0.295 C  
HETATM   12  C   UNL     1     -10.000  13.210  67.757  1.00  0.00    -0.227 C  
HETATM   13  O   UNL     1      -9.927  11.818  67.421  1.00  0.00    -0.183 OA 
HETATM   14  C   UNL     1      -9.836  11.630  66.064  1.00  0.00    -0.230 A  
HETATM   15  C   UNL     1     -10.083  12.642  65.133  1.00  0.00    -0.237 A  
HETATM   16  O   UNL     1     -10.490  13.904  65.487  1.00  0.00    -0.296 OA 
HETATM   17  C   UNL     1      -9.919  12.391  63.772  1.00  0.00    -0.241 A  
HETATM   18  C   UNL     1      -9.555  11.115  63.340  1.00  0.00    -0.355 A  
HETATM   19  C   UNL     1      -9.350  10.091  64.269  1.00  0.00    -0.345 A  
HETATM   20  C   UNL     1      -9.487  10.351  65.634  1.00  0.00    -0.262 A  
ENDBRANCH  10  11
ENDBRANCH   6  10
TORSDOF 2
ENDMDL
MODEL      167
REMARK 921   NORMALIZED FREE ENERGY PREDICTED BY IDOCK:   -3.63 KCAL/MOL
REMARK 922        TOTAL FREE ENERGY PREDICTED BY IDOCK:   -4.19 KCAL/MOL
REMARK 923 INTER-LIGAND FREE ENERGY PREDICTED BY IDOCK:   -4.03 KCAL/MOL
REMARK 924 INTRA-LIGAND FREE ENERGY PREDICTED BY IDOCK:   -0.17 KCAL/MOL
REMARK 927      BINDING AFFINITY PREDICTED BY RF-SCORE:    0.00 PKD
ROOT
HETATM    1  N   UNL     1      -9.360   2.818  73.190  1.00  0.00    -0.088 NA 
HETATM    2  C   UNL     1      -9.053   3.734  72.255  1.00  0.00    -0.114 C  
HETATM    3  H2  UNL     1      -8.601   2.314  73.648  1.00  0.00     0.000 HD 
HETATM    4  H1  UNL     1     -10.320   2.607  73.461  1.00  0.00     0.000 HD 
HETATM    5  N   UNL     1      -7.845   4.000  71.914  1.00  0.00    -0.073 NA 
HETATM    6  N   UNL     1     -10.139   4.300  71.685  1.00  0.00    -0.175 NA 
HETATM    7  H1  UNL     1      -7.612   4.695  71.205  1.00  0.00     0.000 HD 
HETATM    8  H2  UNL     1      -7.085   3.496  72.371  1.00  0.00     0.000 HD 
HETATM    9  H   UNL     1     -11.068   3.945  71.912  1.00  0.00     0.000 HD 
ENDROOT
BRANCH   6  10
HETATM   10  C   UNL     1     -10.002   5.412  70.749  1.00  0.00    -0.204 C  
BRANCH  10  11
HETATM   11  C   UNL     1     -10.651   6.675  71.324  1.00  0.00    -0.223 C  
HETATM   12  C   UNL     1     -12.096   6.401  71.728  1.00  0.00    -0.296 C  
HETATM   13  O   UNL     1     -12.657   7.550  72.377  1.00  0.00    -0.138 OA 
HETATM   14  C   UNL     1     -12.363   8.706  71.699  1.00  0.00    -0.333 A  
HETATM   15  C   UNL     1     -11.400   8.778  70.689  1.00  0.00    -0.254 A  
HETATM   16  O   UNL     1     -10.623   7.709  70.316  1.00  0.00    -0.220 OA 
HETATM   17  C   UNL     1     -11.192   9.976  70.009  1.00  0.00    -0.345 A  
HETATM   18  C   UNL     1     -11.913  11.115  70.370  1.00  0.00    -0.469 A  
HETATM   19  C   UNL     1     -12.845  11.054  71.410  1.00  0.00    -0.548 A  
HETATM   20  C   UNL     1     -13.072   9.846  72.072  1.00  0.00    -0.545 A  
ENDBRANCH  10  11
ENDBRANCH   6  10
TORSDOF 2
ENDMDL
MODEL      168
REMARK 921   NORMALIZED FREE ENERGY PREDICTED BY IDOCK:   -3.62 KCAL/MOL
REMARK 922        TOTAL FREE ENERGY PREDICTED BY IDOCK:   -4.19 KCAL/MOL
REMARK 923 INTER-LIGAND FREE ENERGY PREDICTED BY IDOCK:   -3.79 KCAL/MOL
REMARK 924 INTRA-LIGAND FREE ENERGY PREDICTED BY IDOCK:   -0.40 KCAL/MOL
REMARK 927      BINDING AFFINITY PREDICTED BY RF-SCORE:    0.00 PKD
ROOT
HETATM    1  N   UNL     1     -12.295   8.056  72.976  1.00  0.00    -0.582 NA 
HETATM    2  C   UNL     1     -12.094   7.268  71.904  1.00  0.00    -0.314 C  
HETATM    3  H2  UNL     1     -13.188   8.541  73.065  1.00  0.00     0.000 HD 
HETATM    4  H1  UNL     1     -11.592   8.188  73.702  1.00  0.00     0.000 HD 
HETATM    5  N   UNL     1     -12.979   7.101  70.990  1.00  0.00    -0.562 NA 
HETATM    6  N   UNL     1     -10.861   6.718  71.869  1.00  0.00    -0.228 NA 
HETATM    7  H1  UNL     1     -12.827   6.503  70.178  1.00  0.00     0.000 HD 
HETATM    8  H2  UNL     1     -13.872   7.587  71.079  1.00  0.00     0.000 HD 
HETATM    9  H   UNL     1     -10.166   7.000  72.560  1.00  0.00     0.000 HD 
ENDROOT
BRANCH   6  10
HETATM   10  C   UNL     1     -10.509   5.728  70.856  1.00  0.00    -0.252 C  
BRANCH  10  11
HETATM   11  C   UNL     1      -9.685   6.377  69.740  1.00  0.00    -0.154 C  
HETATM   12  C   UNL     1      -8.586   7.258  70.326  1.00  0.00    -0.142 C  
HETATM   13  O   UNL     1      -7.743   7.763  69.282  1.00  0.00    -0.096 OA 
HETATM   14  C   UNL     1      -8.479   8.231  68.222  1.00  0.00    -0.136 A  
HETATM   15  C   UNL     1      -9.843   7.973  68.062  1.00  0.00    -0.167 A  
HETATM   16  O   UNL     1     -10.562   7.184  68.925  1.00  0.00    -0.206 OA 
HETATM   17  C   UNL     1     -10.535   8.525  66.987  1.00  0.00    -0.362 A  
HETATM   18  C   UNL     1      -9.855   9.298  66.045  1.00  0.00    -0.363 A  
HETATM   19  C   UNL     1      -8.482   9.520  66.181  1.00  0.00    -0.127 A  
HETATM   20  C   UNL     1      -7.794   8.989  67.273  1.00  0.00    -0.099 A  
ENDBRANCH  10  11
ENDBRANCH   6  10
TORSDOF 2
ENDMDL
MODEL      169
REMARK 921   NORMALIZED FREE ENERGY PREDICTED BY IDOCK:   -3.62 KCAL/MOL
REMARK 922        TOTAL FREE ENERGY PREDICTED BY IDOCK:   -4.18 KCAL/MOL
REMARK 923 INTER-LIGAND FREE ENERGY PREDICTED BY IDOCK:   -4.06 KCAL/MOL
REMARK 924 INTRA-LIGAND FREE ENERGY PREDICTED BY IDOCK:   -0.13 KCAL/MOL
REMARK 927      BINDING AFFINITY PREDICTED BY RF-SCORE:    0.00 PKD
ROOT
HETATM    1  N   UNL     1     -11.385   6.390  68.771  1.00  0.00    -0.571 NA 
HETATM    2  C   UNL     1     -11.055   6.947  67.593  1.00  0.00    -0.178 C  
HETATM    3  H2  UNL     1     -11.551   5.383  68.806  1.00  0.00     0.000 HD 
HETATM    4  H1  UNL     1     -11.476   6.930  69.631  1.00  0.00     0.000 HD 
HETATM    5  N   UNL     1     -10.940   6.267  66.510  1.00  0.00    -0.689 NA 
HETATM    6  N   UNL     1     -10.908   8.288  67.659  1.00  0.00    -0.506 NA 
HETATM    7  H1  UNL     1     -10.689   6.690  65.617  1.00  0.00     0.000 HD 
HETATM    8  H2  UNL     1     -11.106   5.261  66.545  1.00  0.00     0.000 HD 
HETATM    9  H   UNL     1     -11.144   8.777  68.522  1.00  0.00     0.000 HD 
ENDROOT
BRANCH   6  10
HETATM   10  C   UNL     1     -10.418   9.047  66.513  1.00  0.00    -0.122 C  
BRANCH  10  11
HETATM   11  C   UNL     1     -10.196  10.513  66.900  1.00  0.00    -0.229 C  
HETATM   12  C   UNL     1     -10.672  11.441  65.787  1.00  0.00    -0.251 C  
HETATM   13  O   UNL     1     -10.577  12.809  66.205  1.00  0.00    -0.260 OA 
HETATM   14  C   UNL     1      -9.376  13.066  66.820  1.00  0.00    -0.244 A  
HETATM   15  C   UNL     1      -8.502  12.061  67.242  1.00  0.00    -0.175 A  
HETATM   16  O   UNL     1      -8.786  10.723  67.129  1.00  0.00    -0.134 OA 
HETATM   17  C   UNL     1      -7.277  12.399  67.812  1.00  0.00    -0.119 A  
HETATM   18  C   UNL     1      -6.944  13.741  68.002  1.00  0.00    -0.137 A  
HETATM   19  C   UNL     1      -7.838  14.746  67.619  1.00  0.00    -0.191 A  
HETATM   20  C   UNL     1      -9.054  14.406  67.023  1.00  0.00    -0.250 A  
ENDBRANCH  10  11
ENDBRANCH   6  10
TORSDOF 2
ENDMDL
MODEL      170
REMARK 921   NORMALIZED FREE ENERGY PREDICTED BY IDOCK:   -3.61 KCAL/MOL
REMARK 922        TOTAL FREE ENERGY PREDICTED BY IDOCK:   -4.18 KCAL/MOL
REMARK 923 INTER-LIGAND FREE ENERGY PREDICTED BY IDOCK:   -3.97 KCAL/MOL
REMARK 924 INTRA-LIGAND FREE ENERGY PREDICTED BY IDOCK:   -0.21 KCAL/MOL
REMARK 927      BINDING AFFINITY PREDICTED BY RF-SCORE:    0.00 PKD
ROOT
HETATM    1  N   UNL     1      -8.943   5.567  68.278  1.00  0.00    -0.108 NA 
HETATM    2  C   UNL     1      -8.633   6.104  69.471  1.00  0.00    -0.127 C  
HETATM    3  H2  UNL     1      -8.214   5.505  67.566  1.00  0.00     0.000 HD 
HETATM    4  H1  UNL     1      -9.875   5.220  68.055  1.00  0.00     0.000 HD 
HETATM    5  N   UNL     1      -7.459   6.541  69.752  1.00  0.00    -0.086 NA 
HETATM    6  N   UNL     1      -9.686   6.178  70.313  1.00  0.00    -0.163 NA 
HETATM    7  H1  UNL     1      -7.224   6.948  70.657  1.00  0.00     0.000 HD 
HETATM    8  H2  UNL     1      -6.731   6.479  69.040  1.00  0.00     0.000 HD 
HETATM    9  H   UNL     1     -10.617   5.933  69.976  1.00  0.00     0.000 HD 
ENDROOT
BRANCH   6  10
HETATM   10  C   UNL     1      -9.511   6.604  71.698  1.00  0.00    -0.159 C  
BRANCH  10  11
HETATM   11  C   UNL     1     -10.354   7.852  71.982  1.00  0.00    -0.225 C  
HETATM   12  C   UNL     1     -11.800   7.469  72.279  1.00  0.00    -0.289 C  
HETATM   13  O   UNL     1     -12.553   8.626  72.664  1.00  0.00    -0.371 OA 
HETATM   14  C   UNL     1     -12.302   9.690  71.833  1.00  0.00    -0.357 A  
HETATM   15  C   UNL     1     -11.239   9.721  70.927  1.00  0.00    -0.359 A  
HETATM   16  O   UNL     1     -10.315   8.711  70.822  1.00  0.00    -0.191 OA 
HETATM   17  C   UNL     1     -11.078  10.814  70.079  1.00  0.00    -0.327 A  
HETATM   18  C   UNL     1     -11.953  11.897  70.167  1.00  0.00    -0.413 A  
HETATM   19  C   UNL     1     -12.991  11.886  71.103  1.00  0.00    -0.266 A  
HETATM   20  C   UNL     1     -13.168  10.778  71.934  1.00  0.00    -0.524 A  
ENDBRANCH  10  11
ENDBRANCH   6  10
TORSDOF 2
ENDMDL
MODEL      171
REMARK 921   NORMALIZED FREE ENERGY PREDICTED BY IDOCK:   -3.60 KCAL/MOL
REMARK 922        TOTAL FREE ENERGY PREDICTED BY IDOCK:   -4.17 KCAL/MOL
REMARK 923 INTER-LIGAND FREE ENERGY PREDICTED BY IDOCK:   -3.97 KCAL/MOL
REMARK 924 INTRA-LIGAND FREE ENERGY PREDICTED BY IDOCK:   -0.20 KCAL/MOL
REMARK 927      BINDING AFFINITY PREDICTED BY RF-SCORE:    0.00 PKD
ROOT
HETATM    1  N   UNL     1      -8.852   6.060  64.616  1.00  0.00    -0.355 NA 
HETATM    2  C   UNL     1      -8.501   6.660  65.766  1.00  0.00    -0.148 C  
HETATM    3  H2  UNL     1      -8.213   6.113  63.822  1.00  0.00     0.000 HD 
HETATM    4  H1  UNL     1      -9.730   5.553  64.504  1.00  0.00     0.000 HD 
HETATM    5  N   UNL     1      -7.396   7.298  65.908  1.00  0.00    -0.073 NA 
HETATM    6  N   UNL     1      -9.444   6.565  66.728  1.00  0.00    -0.154 NA 
HETATM    7  H1  UNL     1      -7.129   7.753  66.780  1.00  0.00     0.000 HD 
HETATM    8  H2  UNL     1      -6.757   7.351  65.114  1.00  0.00     0.000 HD 
HETATM    9  H   UNL     1     -10.352   6.158  66.503  1.00  0.00     0.000 HD 
ENDROOT
BRANCH   6  10
HETATM   10  C   UNL     1      -9.184   7.037  68.084  1.00  0.00    -0.130 C  
BRANCH  10  11
HETATM   11  C   UNL     1     -10.164   8.154  68.458  1.00  0.00    -0.208 C  
HETATM   12  C   UNL     1      -9.511   9.521  68.290  1.00  0.00    -0.133 C  
HETATM   13  O   UNL     1     -10.469  10.562  68.522  1.00  0.00    -0.169 OA 
HETATM   14  C   UNL     1     -11.221  10.315  69.644  1.00  0.00    -0.269 A  
HETATM   15  C   UNL     1     -11.247   9.077  70.291  1.00  0.00    -0.205 A  
HETATM   16  O   UNL     1     -10.563   7.978  69.835  1.00  0.00    -0.236 OA 
HETATM   17  C   UNL     1     -11.993   8.916  71.456  1.00  0.00    -0.401 A  
HETATM   18  C   UNL     1     -12.752   9.979  71.948  1.00  0.00    -0.493 A  
HETATM   19  C   UNL     1     -12.761  11.205  71.276  1.00  0.00    -0.531 A  
HETATM   20  C   UNL     1     -11.990  11.373  70.124  1.00  0.00    -0.460 A  
ENDBRANCH  10  11
ENDBRANCH   6  10
TORSDOF 2
ENDMDL
MODEL      172
REMARK 921   NORMALIZED FREE ENERGY PREDICTED BY IDOCK:   -3.60 KCAL/MOL
REMARK 922        TOTAL FREE ENERGY PREDICTED BY IDOCK:   -4.16 KCAL/MOL
REMARK 923 INTER-LIGAND FREE ENERGY PREDICTED BY IDOCK:   -4.13 KCAL/MOL
REMARK 924 INTRA-LIGAND FREE ENERGY PREDICTED BY IDOCK:   -0.04 KCAL/MOL
REMARK 927      BINDING AFFINITY PREDICTED BY RF-SCORE:    0.00 PKD
ROOT
HETATM    1  N   UNL     1     -11.771  13.249  63.375  1.00  0.00    -0.723 NA 
HETATM    2  C   UNL     1     -12.125  13.341  64.669  1.00  0.00    -0.408 C  
HETATM    3  H2  UNL     1     -12.214  13.874  62.701  1.00  0.00     0.000 HD 
HETATM    4  H1  UNL     1     -11.077  12.581  63.040  1.00  0.00     0.000 HD 
HETATM    5  N   UNL     1     -12.997  14.183  65.092  1.00  0.00    -0.735 NA 
HETATM    6  N   UNL     1     -11.511  12.433  65.457  1.00  0.00    -0.346 NA 
HETATM    7  H1  UNL     1     -13.266  14.253  66.073  1.00  0.00     0.000 HD 
HETATM    8  H2  UNL     1     -13.441  14.808  64.418  1.00  0.00     0.000 HD 
HETATM    9  H   UNL     1     -10.930  11.710  65.032  1.00  0.00     0.000 HD 
ENDROOT
BRANCH   6  10
HETATM   10  C   UNL     1     -11.666  12.471  66.908  1.00  0.00    -0.377 C  
BRANCH  10  11
HETATM   11  C   UNL     1     -10.337  12.836  67.577  1.00  0.00    -0.219 C  
HETATM   12  C   UNL     1      -9.475  13.673  66.638  1.00  0.00    -0.277 C  
HETATM   13  O   UNL     1      -8.289  14.115  67.312  1.00  0.00    -0.188 OA 
HETATM   14  C   UNL     1      -7.705  13.097  68.024  1.00  0.00    -0.146 A  
HETATM   15  C   UNL     1      -8.345  11.884  68.292  1.00  0.00    -0.159 A  
HETATM   16  O   UNL     1      -9.637  11.619  67.913  1.00  0.00    -0.170 OA 
HETATM   17  C   UNL     1      -7.670  10.877  68.977  1.00  0.00    -0.135 A  
HETATM   18  C   UNL     1      -6.370  11.098  69.435  1.00  0.00    -0.088 A  
HETATM   19  C   UNL     1      -5.745  12.327  69.205  1.00  0.00    -0.070 A  
HETATM   20  C   UNL     1      -6.413  13.326  68.495  1.00  0.00    -0.085 A  
ENDBRANCH  10  11
ENDBRANCH   6  10
TORSDOF 2
ENDMDL
MODEL      173
REMARK 921   NORMALIZED FREE ENERGY PREDICTED BY IDOCK:   -3.59 KCAL/MOL
REMARK 922        TOTAL FREE ENERGY PREDICTED BY IDOCK:   -4.15 KCAL/MOL
REMARK 923 INTER-LIGAND FREE ENERGY PREDICTED BY IDOCK:   -3.94 KCAL/MOL
REMARK 924 INTRA-LIGAND FREE ENERGY PREDICTED BY IDOCK:   -0.20 KCAL/MOL
REMARK 927      BINDING AFFINITY PREDICTED BY RF-SCORE:    0.00 PKD
ROOT
HETATM    1  N   UNL     1     -12.871   6.911  70.462  1.00  0.00    -0.451 NA 
HETATM    2  C   UNL     1     -11.578   6.885  70.093  1.00  0.00    -0.289 C  
HETATM    3  H2  UNL     1     -13.320   6.035  70.731  1.00  0.00     0.000 HD 
HETATM    4  H1  UNL     1     -13.421   7.769  70.484  1.00  0.00     0.000 HD 
HETATM    5  N   UNL     1     -10.885   5.806  70.066  1.00  0.00    -0.335 NA 
HETATM    6  N   UNL     1     -11.108   8.093  69.713  1.00  0.00    -0.431 NA 
HETATM    7  H1  UNL     1      -9.904   5.786  69.786  1.00  0.00     0.000 HD 
HETATM    8  H2  UNL     1     -11.334   4.929  70.334  1.00  0.00     0.000 HD 
HETATM    9  H   UNL     1     -11.751   8.881  69.635  1.00  0.00     0.000 HD 
ENDROOT
BRANCH   6  10
HETATM   10  C   UNL     1      -9.693   8.286  69.412  1.00  0.00    -0.177 C  
BRANCH  10  11
HETATM   11  C   UNL     1      -9.528   9.147  68.154  1.00  0.00    -0.142 C  
HETATM   12  C   UNL     1     -10.862   9.762  67.746  1.00  0.00    -0.246 C  
HETATM   13  O   UNL     1     -10.679  10.663  66.645  1.00  0.00    -0.239 OA 
HETATM   14  C   UNL     1      -9.871  10.118  65.678  1.00  0.00    -0.280 A  
HETATM   15  C   UNL     1      -9.099   8.971  65.880  1.00  0.00    -0.212 A  
HETATM   16  O   UNL     1      -9.037   8.312  67.083  1.00  0.00    -0.134 OA 
HETATM   17  C   UNL     1      -8.344   8.447  64.834  1.00  0.00    -0.159 A  
HETATM   18  C   UNL     1      -8.323   9.095  63.598  1.00  0.00    -0.187 A  
HETATM   19  C   UNL     1      -9.061  10.266  63.409  1.00  0.00    -0.284 A  
HETATM   20  C   UNL     1      -9.839  10.776  64.449  1.00  0.00    -0.374 A  
ENDBRANCH  10  11
ENDBRANCH   6  10
TORSDOF 2
ENDMDL
MODEL      174
REMARK 921   NORMALIZED FREE ENERGY PREDICTED BY IDOCK:   -3.57 KCAL/MOL
REMARK 922        TOTAL FREE ENERGY PREDICTED BY IDOCK:   -4.12 KCAL/MOL
REMARK 923 INTER-LIGAND FREE ENERGY PREDICTED BY IDOCK:   -3.95 KCAL/MOL
REMARK 924 INTRA-LIGAND FREE ENERGY PREDICTED BY IDOCK:   -0.17 KCAL/MOL
REMARK 927      BINDING AFFINITY PREDICTED BY RF-SCORE:    0.00 PKD
ROOT
HETATM    1  N   UNL     1      -9.047   6.063  73.940  1.00  0.00    -0.126 NA 
HETATM    2  C   UNL     1     -10.318   6.280  73.557  1.00  0.00    -0.255 C  
HETATM    3  H2  UNL     1      -8.832   5.210  74.457  1.00  0.00     0.000 HD 
HETATM    4  H1  UNL     1      -8.291   6.715  73.736  1.00  0.00     0.000 HD 
HETATM    5  N   UNL     1     -11.271   5.459  73.814  1.00  0.00    -0.422 NA 
HETATM    6  N   UNL     1     -10.491   7.462  72.927  1.00  0.00    -0.262 NA 
HETATM    7  H1  UNL     1     -12.234   5.623  73.523  1.00  0.00     0.000 HD 
HETATM    8  H2  UNL     1     -11.055   4.606  74.330  1.00  0.00     0.000 HD 
HETATM    9  H   UNL     1      -9.715   8.122  72.875  1.00  0.00     0.000 HD 
ENDROOT
BRANCH   6  10
HETATM   10  C   UNL     1     -11.772   7.808  72.319  1.00  0.00    -0.340 C  
BRANCH  10  11
HETATM   11  C   UNL     1     -11.646   7.841  70.792  1.00  0.00    -0.255 C  
HETATM   12  C   UNL     1     -11.365   6.445  70.246  1.00  0.00    -0.403 C  
HETATM   13  O   UNL     1     -11.371   6.462  68.812  1.00  0.00    -0.327 OA 
HETATM   14  C   UNL     1     -10.661   7.527  68.317  1.00  0.00    -0.136 A  
HETATM   15  C   UNL     1     -10.247   8.605  69.105  1.00  0.00    -0.208 A  
HETATM   16  O   UNL     1     -10.559   8.722  70.437  1.00  0.00    -0.207 OA 
HETATM   17  C   UNL     1      -9.484   9.625  68.543  1.00  0.00    -0.145 A  
HETATM   18  C   UNL     1      -9.173   9.593  67.183  1.00  0.00    -0.156 A  
HETATM   19  C   UNL     1      -9.623   8.537  66.386  1.00  0.00    -0.314 A  
HETATM   20  C   UNL     1     -10.365   7.501  66.955  1.00  0.00    -0.395 A  
ENDBRANCH  10  11
ENDBRANCH   6  10
TORSDOF 2
ENDMDL
MODEL      175
REMARK 921   NORMALIZED FREE ENERGY PREDICTED BY IDOCK:   -3.56 KCAL/MOL
REMARK 922        TOTAL FREE ENERGY PREDICTED BY IDOCK:   -4.12 KCAL/MOL
REMARK 923 INTER-LIGAND FREE ENERGY PREDICTED BY IDOCK:   -3.92 KCAL/MOL
REMARK 924 INTRA-LIGAND FREE ENERGY PREDICTED BY IDOCK:   -0.20 KCAL/MOL
REMARK 927      BINDING AFFINITY PREDICTED BY RF-SCORE:    0.00 PKD
ROOT
HETATM    1  N   UNL     1     -11.049  11.305  67.969  1.00  0.00    -0.243 NA 
HETATM    2  C   UNL     1     -11.509  11.230  69.230  1.00  0.00    -0.301 C  
HETATM    3  H2  UNL     1     -10.849  12.225  67.576  1.00  0.00     0.000 HD 
HETATM    4  H1  UNL     1     -10.893  10.481  67.389  1.00  0.00     0.000 HD 
HETATM    5  N   UNL     1     -11.706  12.267  69.961  1.00  0.00    -0.503 NA 
HETATM    6  N   UNL     1     -11.785   9.968  69.624  1.00  0.00    -0.453 NA 
HETATM    7  H1  UNL     1     -12.054  12.210  70.917  1.00  0.00     0.000 HD 
HETATM    8  H2  UNL     1     -11.506  13.187  69.567  1.00  0.00     0.000 HD 
HETATM    9  H   UNL     1     -11.729   9.207  68.947  1.00  0.00     0.000 HD 
ENDROOT
BRANCH   6  10
HETATM   10  C   UNL     1     -12.162   9.677  71.004  1.00  0.00    -0.323 C  
BRANCH  10  11
HETATM   11  C   UNL     1     -11.242   8.603  71.593  1.00  0.00    -0.309 C  
HETATM   12  C   UNL     1      -9.787   9.056  71.545  1.00  0.00    -0.310 C  
HETATM   13  O   UNL     1      -8.947   8.102  72.208  1.00  0.00    -0.149 OA 
HETATM   14  C   UNL     1      -9.257   6.816  71.841  1.00  0.00    -0.142 A  
HETATM   15  C   UNL     1     -10.424   6.476  71.152  1.00  0.00    -0.220 A  
HETATM   16  O   UNL     1     -11.393   7.391  70.822  1.00  0.00    -0.269 OA 
HETATM   17  C   UNL     1     -10.647   5.156  70.767  1.00  0.00    -0.205 A  
HETATM   18  C   UNL     1      -9.726   4.166  71.113  1.00  0.00    -0.258 A  
HETATM   19  C   UNL     1      -8.580   4.499  71.841  1.00  0.00    -0.121 A  
HETATM   20  C   UNL     1      -8.344   5.827  72.202  1.00  0.00    -0.115 A  
ENDBRANCH  10  11
ENDBRANCH   6  10
TORSDOF 2
ENDMDL
MODEL      176
REMARK 921   NORMALIZED FREE ENERGY PREDICTED BY IDOCK:   -3.53 KCAL/MOL
REMARK 922        TOTAL FREE ENERGY PREDICTED BY IDOCK:   -4.08 KCAL/MOL
REMARK 923 INTER-LIGAND FREE ENERGY PREDICTED BY IDOCK:   -3.94 KCAL/MOL
REMARK 924 INTRA-LIGAND FREE ENERGY PREDICTED BY IDOCK:   -0.14 KCAL/MOL
REMARK 927      BINDING AFFINITY PREDICTED BY RF-SCORE:    0.00 PKD
ROOT
HETATM    1  N   UNL     1     -12.328  14.341  70.688  1.00  0.00    -0.337 NA 
HETATM    2  C   UNL     1     -12.579  13.152  71.264  1.00  0.00    -0.290 C  
HETATM    3  H2  UNL     1     -12.753  15.178  71.089  1.00  0.00     0.000 HD 
HETATM    4  H1  UNL     1     -11.730  14.441  69.868  1.00  0.00     0.000 HD 
HETATM    5  N   UNL     1     -13.331  13.026  72.297  1.00  0.00    -0.531 NA 
HETATM    6  N   UNL     1     -12.005  12.115  70.619  1.00  0.00    -0.493 NA 
HETATM    7  H1  UNL     1     -13.522  12.125  72.734  1.00  0.00     0.000 HD 
HETATM    8  H2  UNL     1     -13.756  13.863  72.697  1.00  0.00     0.000 HD 
HETATM    9  H   UNL     1     -11.530  12.276  69.731  1.00  0.00     0.000 HD 
ENDROOT
BRANCH   6  10
HETATM   10  C   UNL     1     -12.053  10.766  71.175  1.00  0.00    -0.309 C  
BRANCH  10  11
HETATM   11  C   UNL     1     -11.157   9.823  70.365  1.00  0.00    -0.307 C  
HETATM   12  C   UNL     1     -11.523   9.873  68.885  1.00  0.00     0.080 C  
HETATM   13  O   UNL     1     -10.603   9.085  68.117  1.00  0.00    -0.219 OA 
HETATM   14  C   UNL     1     -10.370   7.867  68.706  1.00  0.00    -0.203 A  
HETATM   15  C   UNL     1     -10.745   7.566  70.018  1.00  0.00    -0.240 A  
HETATM   16  O   UNL     1     -11.335   8.478  70.857  1.00  0.00    -0.261 OA 
HETATM   17  C   UNL     1     -10.521   6.290  70.530  1.00  0.00    -0.274 A  
HETATM   18  C   UNL     1      -9.881   5.328  69.747  1.00  0.00    -0.282 A  
HETATM   19  C   UNL     1      -9.466   5.643  68.450  1.00  0.00    -0.142 A  
HETATM   20  C   UNL     1      -9.716   6.914  67.928  1.00  0.00    -0.136 A  
ENDBRANCH  10  11
ENDBRANCH   6  10
TORSDOF 2
ENDMDL
MODEL      177
REMARK 921   NORMALIZED FREE ENERGY PREDICTED BY IDOCK:   -3.52 KCAL/MOL
REMARK 922        TOTAL FREE ENERGY PREDICTED BY IDOCK:   -4.07 KCAL/MOL
REMARK 923 INTER-LIGAND FREE ENERGY PREDICTED BY IDOCK:   -3.88 KCAL/MOL
REMARK 924 INTRA-LIGAND FREE ENERGY PREDICTED BY IDOCK:   -0.19 KCAL/MOL
REMARK 927      BINDING AFFINITY PREDICTED BY RF-SCORE:    0.00 PKD
ROOT
HETATM    1  N   UNL     1     -11.769   9.854  71.448  1.00  0.00    -0.381 NA 
HETATM    2  C   UNL     1     -11.878   8.802  72.278  1.00  0.00    -0.333 C  
HETATM    3  H2  UNL     1     -12.621  10.329  71.148  1.00  0.00     0.000 HD 
HETATM    4  H1  UNL     1     -10.872  10.197  71.107  1.00  0.00     0.000 HD 
HETATM    5  N   UNL     1     -13.007   8.371  72.709  1.00  0.00    -0.626 NA 
HETATM    6  N   UNL     1     -10.691   8.225  72.567  1.00  0.00    -0.344 NA 
HETATM    7  H1  UNL     1     -13.089   7.573  73.338  1.00  0.00     0.000 HD 
HETATM    8  H2  UNL     1     -13.859   8.845  72.408  1.00  0.00     0.000 HD 
HETATM    9  H   UNL     1      -9.849   8.540  72.085  1.00  0.00     0.000 HD 
ENDROOT
BRANCH   6  10
HETATM   10  C   UNL     1     -10.597   7.158  73.558  1.00  0.00    -0.374 C  
BRANCH  10  11
HETATM   11  C   UNL     1     -10.643   5.788  72.872  1.00  0.00    -0.232 C  
HETATM   12  C   UNL     1     -10.062   4.712  73.783  1.00  0.00    -0.172 C  
HETATM   13  O   UNL     1     -10.221   3.417  73.187  1.00  0.00    -0.139 OA 
HETATM   14  C   UNL     1      -9.873   3.427  71.859  1.00  0.00    -0.167 A  
HETATM   15  C   UNL     1      -9.680   4.601  71.126  1.00  0.00    -0.181 A  
HETATM   16  O   UNL     1      -9.871   5.854  71.654  1.00  0.00    -0.163 OA 
HETATM   17  C   UNL     1      -9.276   4.533  69.795  1.00  0.00    -0.191 A  
HETATM   18  C   UNL     1      -9.110   3.290  69.182  1.00  0.00    -0.207 A  
HETATM   19  C   UNL     1      -9.346   2.116  69.902  1.00  0.00    -0.168 A  
HETATM   20  C   UNL     1      -9.724   2.185  71.244  1.00  0.00    -0.201 A  
ENDBRANCH  10  11
ENDBRANCH   6  10
TORSDOF 2
ENDMDL
MODEL      178
REMARK 921   NORMALIZED FREE ENERGY PREDICTED BY IDOCK:   -3.51 KCAL/MOL
REMARK 922        TOTAL FREE ENERGY PREDICTED BY IDOCK:   -4.06 KCAL/MOL
REMARK 923 INTER-LIGAND FREE ENERGY PREDICTED BY IDOCK:   -3.90 KCAL/MOL
REMARK 924 INTRA-LIGAND FREE ENERGY PREDICTED BY IDOCK:   -0.16 KCAL/MOL
REMARK 927      BINDING AFFINITY PREDICTED BY RF-SCORE:    0.00 PKD
ROOT
HETATM    1  N   UNL     1      -8.644   6.472  72.075  1.00  0.00    -0.125 NA 
HETATM    2  C   UNL     1      -9.066   7.743  71.948  1.00  0.00    -0.134 C  
HETATM    3  H2  UNL     1      -7.842   6.282  72.677  1.00  0.00     0.000 HD 
HETATM    4  H1  UNL     1      -9.092   5.692  71.596  1.00  0.00     0.000 HD 
HETATM    5  N   UNL     1      -8.503   8.725  72.551  1.00  0.00    -0.403 NA 
HETATM    6  N   UNL     1     -10.101   7.878  71.090  1.00  0.00    -0.184 NA 
HETATM    7  H1  UNL     1      -8.824   9.689  72.455  1.00  0.00     0.000 HD 
HETATM    8  H2  UNL     1      -7.701   8.535  73.153  1.00  0.00     0.000 HD 
HETATM    9  H   UNL     1     -10.411   7.073  70.547  1.00  0.00     0.000 HD 
ENDROOT
BRANCH   6  10
HETATM   10  C   UNL     1     -10.780   9.160  70.930  1.00  0.00    -0.275 C  
BRANCH  10  11
HETATM   11  C   UNL     1     -10.898   9.518  69.445  1.00  0.00    -0.206 C  
HETATM   12  C   UNL     1      -9.564   9.316  68.735  1.00  0.00    -0.154 C  
HETATM   13  O   UNL     1      -9.711   9.534  67.326  1.00  0.00    -0.154 OA 
HETATM   14  C   UNL     1     -10.441  10.667  67.064  1.00  0.00    -0.243 A  
HETATM   15  C   UNL     1     -11.185  11.340  68.037  1.00  0.00    -0.287 A  
HETATM   16  O   UNL     1     -11.297  10.901  69.333  1.00  0.00    -0.232 OA 
HETATM   17  C   UNL     1     -11.858  12.515  67.709  1.00  0.00    -0.375 A  
HETATM   18  C   UNL     1     -11.827  12.991  66.397  1.00  0.00    -0.465 A  
HETATM   19  C   UNL     1     -11.119  12.293  65.414  1.00  0.00    -0.353 A  
HETATM   20  C   UNL     1     -10.422  11.132  65.751  1.00  0.00    -0.305 A  
ENDBRANCH  10  11
ENDBRANCH   6  10
TORSDOF 2
ENDMDL
MODEL      179
REMARK 921   NORMALIZED FREE ENERGY PREDICTED BY IDOCK:   -3.50 KCAL/MOL
REMARK 922        TOTAL FREE ENERGY PREDICTED BY IDOCK:   -4.04 KCAL/MOL
REMARK 923 INTER-LIGAND FREE ENERGY PREDICTED BY IDOCK:   -3.84 KCAL/MOL
REMARK 924 INTRA-LIGAND FREE ENERGY PREDICTED BY IDOCK:   -0.21 KCAL/MOL
REMARK 927      BINDING AFFINITY PREDICTED BY RF-SCORE:    0.00 PKD
ROOT
HETATM    1  N   UNL     1     -10.277  12.639  64.664  1.00  0.00    -0.432 NA 
HETATM    2  C   UNL     1      -9.868  11.541  64.003  1.00  0.00    -0.274 C  
HETATM    3  H2  UNL     1     -11.001  13.221  64.242  1.00  0.00     0.000 HD 
HETATM    4  H1  UNL     1      -9.893  12.913  65.568  1.00  0.00     0.000 HD 
HETATM    5  N   UNL     1     -10.350  11.195  62.865  1.00  0.00    -0.739 NA 
HETATM    6  N   UNL     1      -8.873  10.879  64.633  1.00  0.00    -0.333 NA 
HETATM    7  H1  UNL     1     -10.040  10.363  62.365  1.00  0.00     0.000 HD 
HETATM    8  H2  UNL     1     -11.074  11.777  62.444  1.00  0.00     0.000 HD 
HETATM    9  H   UNL     1      -8.449  11.284  65.467  1.00  0.00     0.000 HD 
ENDROOT
BRANCH   6  10
HETATM   10  C   UNL     1      -8.396   9.592  64.136  1.00  0.00    -0.172 C  
BRANCH  10  11
HETATM   11  C   UNL     1      -8.389   8.555  65.264  1.00  0.00    -0.159 C  
HETATM   12  C   UNL     1      -8.028   7.175  64.724  1.00  0.00    -0.122 C  
HETATM   13  O   UNL     1      -7.902   6.236  65.800  1.00  0.00    -0.094 OA 
HETATM   14  C   UNL     1      -8.937   6.352  66.694  1.00  0.00    -0.140 A  
HETATM   15  C   UNL     1      -9.821   7.435  66.706  1.00  0.00    -0.220 A  
HETATM   16  O   UNL     1      -9.704   8.508  65.859  1.00  0.00    -0.182 OA 
HETATM   17  C   UNL     1     -10.880   7.458  67.611  1.00  0.00    -0.220 A  
HETATM   18  C   UNL     1     -11.029   6.422  68.534  1.00  0.00    -0.396 A  
HETATM   19  C   UNL     1     -10.119   5.361  68.551  1.00  0.00    -0.242 A  
HETATM   20  C   UNL     1      -9.074   5.325  67.626  1.00  0.00    -0.113 A  
ENDBRANCH  10  11
ENDBRANCH   6  10
TORSDOF 2
ENDMDL
MODEL      180
REMARK 921   NORMALIZED FREE ENERGY PREDICTED BY IDOCK:   -3.49 KCAL/MOL
REMARK 922        TOTAL FREE ENERGY PREDICTED BY IDOCK:   -4.04 KCAL/MOL
REMARK 923 INTER-LIGAND FREE ENERGY PREDICTED BY IDOCK:   -3.92 KCAL/MOL
REMARK 924 INTRA-LIGAND FREE ENERGY PREDICTED BY IDOCK:   -0.12 KCAL/MOL
REMARK 927      BINDING AFFINITY PREDICTED BY RF-SCORE:    0.00 PKD
ROOT
HETATM    1  N   UNL     1      -8.079   7.067  67.642  1.00  0.00    -0.113 NA 
HETATM    2  C   UNL     1      -9.025   7.653  66.886  1.00  0.00    -0.138 C  
HETATM    3  H2  UNL     1      -7.970   6.053  67.589  1.00  0.00     0.000 HD 
HETATM    4  H1  UNL     1      -7.467   7.592  68.265  1.00  0.00     0.000 HD 
HETATM    5  N   UNL     1      -9.795   6.991  66.101  1.00  0.00    -0.413 NA 
HETATM    6  N   UNL     1      -9.109   8.987  67.076  1.00  0.00    -0.128 NA 
HETATM    7  H1  UNL     1     -10.511   7.436  65.527  1.00  0.00     0.000 HD 
HETATM    8  H2  UNL     1      -9.686   5.978  66.048  1.00  0.00     0.000 HD 
HETATM    9  H   UNL     1      -8.555   9.425  67.812  1.00  0.00     0.000 HD 
ENDROOT
BRANCH   6  10
HETATM   10  C   UNL     1      -9.981   9.810  66.245  1.00  0.00    -0.262 C  
BRANCH  10  11
HETATM   11  C   UNL     1      -9.786  11.294  66.575  1.00  0.00    -0.208 C  
HETATM   12  C   UNL     1     -10.481  11.649  67.886  1.00  0.00    -0.192 C  
HETATM   13  O   UNL     1     -10.192  13.005  68.251  1.00  0.00    -0.235 OA 
HETATM   14  C   UNL     1     -10.318  13.853  67.179  1.00  0.00    -0.265 A  
HETATM   15  C   UNL     1     -10.419  13.409  65.858  1.00  0.00    -0.287 A  
HETATM   16  O   UNL     1     -10.350  12.084  65.505  1.00  0.00    -0.246 OA 
HETATM   17  C   UNL     1     -10.597  14.327  64.826  1.00  0.00    -0.434 A  
HETATM   18  C   UNL     1     -10.627  15.694  65.108  1.00  0.00    -0.449 A  
HETATM   19  C   UNL     1     -10.482  16.141  66.425  1.00  0.00    -0.304 A  
HETATM   20  C   UNL     1     -10.331  15.218  67.461  1.00  0.00    -0.244 A  
ENDBRANCH  10  11
ENDBRANCH   6  10
TORSDOF 2
ENDMDL
MODEL      181
REMARK 921   NORMALIZED FREE ENERGY PREDICTED BY IDOCK:   -3.47 KCAL/MOL
REMARK 922        TOTAL FREE ENERGY PREDICTED BY IDOCK:   -4.01 KCAL/MOL
REMARK 923 INTER-LIGAND FREE ENERGY PREDICTED BY IDOCK:   -4.14 KCAL/MOL
REMARK 924 INTRA-LIGAND FREE ENERGY PREDICTED BY IDOCK:    0.13 KCAL/MOL
REMARK 927      BINDING AFFINITY PREDICTED BY RF-SCORE:    0.00 PKD
ROOT
HETATM    1  N   UNL     1     -12.734  12.518  64.462  1.00  0.00    -0.688 NA 
HETATM    2  C   UNL     1     -12.287  13.584  65.151  1.00  0.00    -0.449 C  
HETATM    3  H2  UNL     1     -12.493  12.439  63.474  1.00  0.00     0.000 HD 
HETATM    4  H1  UNL     1     -13.303  11.787  64.887  1.00  0.00     0.000 HD 
HETATM    5  N   UNL     1     -11.571  14.505  64.617  1.00  0.00    -0.469 NA 
HETATM    6  N   UNL     1     -12.710  13.606  66.433  1.00  0.00    -0.295 NA 
HETATM    7  H1  UNL     1     -11.231  15.312  65.139  1.00  0.00     0.000 HD 
HETATM    8  H2  UNL     1     -11.330  14.426  63.628  1.00  0.00     0.000 HD 
HETATM    9  H   UNL     1     -13.384  12.911  66.752  1.00  0.00     0.000 HD 
ENDROOT
BRANCH   6  10
HETATM   10  C   UNL     1     -12.215  14.610  67.369  1.00  0.00    -0.051 C  
BRANCH  10  11
HETATM   11  C   UNL     1     -10.683  14.646  67.353  1.00  0.00    -0.280 C  
HETATM   12  C   UNL     1     -10.122  14.303  68.729  1.00  0.00    -0.217 C  
HETATM   13  O   UNL     1      -8.692  14.217  68.677  1.00  0.00    -0.181 OA 
HETATM   14  C   UNL     1      -8.149  15.266  67.977  1.00  0.00    -0.137 A  
HETATM   15  C   UNL     1      -8.905  16.127  67.178  1.00  0.00    -0.198 A  
HETATM   16  O   UNL     1     -10.254  15.972  66.977  1.00  0.00    -0.270 OA 
HETATM   17  C   UNL     1      -8.292  17.203  66.539  1.00  0.00    -0.309 A  
HETATM   18  C   UNL     1      -6.914  17.390  66.661  1.00  0.00    -0.268 A  
HETATM   19  C   UNL     1      -6.151  16.503  67.425  1.00  0.00    -0.192 A  
HETATM   20  C   UNL     1      -6.771  15.442  68.087  1.00  0.00    -0.138 A  
ENDBRANCH  10  11
ENDBRANCH   6  10
TORSDOF 2
ENDMDL
MODEL      182
REMARK 921   NORMALIZED FREE ENERGY PREDICTED BY IDOCK:   -3.42 KCAL/MOL
REMARK 922        TOTAL FREE ENERGY PREDICTED BY IDOCK:   -3.96 KCAL/MOL
REMARK 923 INTER-LIGAND FREE ENERGY PREDICTED BY IDOCK:   -3.78 KCAL/MOL
REMARK 924 INTRA-LIGAND FREE ENERGY PREDICTED BY IDOCK:   -0.17 KCAL/MOL
REMARK 927      BINDING AFFINITY PREDICTED BY RF-SCORE:    0.00 PKD
ROOT
HETATM    1  N   UNL     1     -12.807   8.528  72.780  1.00  0.00    -0.626 NA 
HETATM    2  C   UNL     1     -12.889   7.785  71.663  1.00  0.00    -0.340 C  
HETATM    3  H2  UNL     1     -13.661   8.946  73.152  1.00  0.00     0.000 HD 
HETATM    4  H1  UNL     1     -11.929   8.693  73.270  1.00  0.00     0.000 HD 
HETATM    5  N   UNL     1     -13.995   7.577  71.045  1.00  0.00    -0.637 NA 
HETATM    6  N   UNL     1     -11.692   7.327  71.238  1.00  0.00    -0.283 NA 
HETATM    7  H1  UNL     1     -14.057   7.013  70.198  1.00  0.00     0.000 HD 
HETATM    8  H2  UNL     1     -14.848   7.995  71.418  1.00  0.00     0.000 HD 
HETATM    9  H   UNL     1     -10.840   7.640  71.703  1.00  0.00     0.000 HD 
ENDROOT
BRANCH   6  10
HETATM   10  C   UNL     1     -11.599   6.391  70.122  1.00  0.00    -0.381 C  
BRANCH  10  11
HETATM   11  C   UNL     1     -10.422   6.760  69.213  1.00  0.00    -0.215 C  
HETATM   12  C   UNL     1     -10.499   8.227  68.802  1.00  0.00    -0.177 C  
HETATM   13  O   UNL     1      -9.332   8.596  68.055  1.00  0.00    -0.136 OA 
HETATM   14  C   UNL     1      -9.021   7.654  67.107  1.00  0.00    -0.126 A  
HETATM   15  C   UNL     1      -9.587   6.376  67.081  1.00  0.00    -0.134 A  
HETATM   16  O   UNL     1     -10.469   5.928  68.033  1.00  0.00    -0.190 OA 
HETATM   17  C   UNL     1      -9.261   5.491  66.057  1.00  0.00    -0.168 A  
HETATM   18  C   UNL     1      -8.333   5.864  65.084  1.00  0.00    -0.143 A  
HETATM   19  C   UNL     1      -7.733   7.126  65.134  1.00  0.00    -0.116 A  
HETATM   20  C   UNL     1      -8.082   8.023  66.146  1.00  0.00    -0.111 A  
ENDBRANCH  10  11
ENDBRANCH   6  10
TORSDOF 2
ENDMDL
MODEL      183
REMARK 921   NORMALIZED FREE ENERGY PREDICTED BY IDOCK:   -3.40 KCAL/MOL
REMARK 922        TOTAL FREE ENERGY PREDICTED BY IDOCK:   -3.93 KCAL/MOL
REMARK 923 INTER-LIGAND FREE ENERGY PREDICTED BY IDOCK:   -3.70 KCAL/MOL
REMARK 924 INTRA-LIGAND FREE ENERGY PREDICTED BY IDOCK:   -0.23 KCAL/MOL
REMARK 927      BINDING AFFINITY PREDICTED BY RF-SCORE:    0.00 PKD
ROOT
HETATM    1  N   UNL     1      -9.258  13.612  68.639  1.00  0.00    -0.371 NA 
HETATM    2  C   UNL     1      -8.905  12.840  67.595  1.00  0.00    -0.189 C  
HETATM    3  H2  UNL     1      -9.589  14.560  68.455  1.00  0.00     0.000 HD 
HETATM    4  H1  UNL     1      -9.208  13.290  69.605  1.00  0.00     0.000 HD 
HETATM    5  N   UNL     1      -8.968  13.246  66.379  1.00  0.00    -0.458 NA 
HETATM    6  N   UNL     1      -8.437  11.628  67.962  1.00  0.00    -0.143 NA 
HETATM    7  H1  UNL     1      -8.701  12.661  65.588  1.00  0.00     0.000 HD 
HETATM    8  H2  UNL     1      -9.300  14.193  66.196  1.00  0.00     0.000 HD 
HETATM    9  H   UNL     1      -8.291  11.424  68.951  1.00  0.00     0.000 HD 
ENDROOT
BRANCH   6  10
HETATM   10  C   UNL     1      -8.136  10.606  66.964  1.00  0.00    -0.120 C  
BRANCH  10  11
HETATM   11  C   UNL     1      -8.725   9.257  67.389  1.00  0.00    -0.118 C  
HETATM   12  C   UNL     1     -10.075   9.026  66.718  1.00  0.00    -0.274 C  
HETATM   13  O   UNL     1     -10.563   7.712  67.021  1.00  0.00    -0.329 OA 
HETATM   14  C   UNL     1     -10.421   7.416  68.354  1.00  0.00    -0.185 A  
HETATM   15  C   UNL     1      -9.637   8.175  69.228  1.00  0.00    -0.164 A  
HETATM   16  O   UNL     1      -8.896   9.256  68.822  1.00  0.00    -0.130 OA 
HETATM   17  C   UNL     1      -9.583   7.844  70.579  1.00  0.00    -0.170 A  
HETATM   18  C   UNL     1     -10.274   6.726  71.050  1.00  0.00    -0.217 A  
HETATM   19  C   UNL     1     -11.023   5.942  70.168  1.00  0.00    -0.412 A  
HETATM   20  C   UNL     1     -11.099   6.291  68.819  1.00  0.00    -0.424 A  
ENDBRANCH  10  11
ENDBRANCH   6  10
TORSDOF 2
ENDMDL
MODEL      184
REMARK 921   NORMALIZED FREE ENERGY PREDICTED BY IDOCK:   -3.39 KCAL/MOL
REMARK 922        TOTAL FREE ENERGY PREDICTED BY IDOCK:   -3.93 KCAL/MOL
REMARK 923 INTER-LIGAND FREE ENERGY PREDICTED BY IDOCK:   -3.52 KCAL/MOL
REMARK 924 INTRA-LIGAND FREE ENERGY PREDICTED BY IDOCK:   -0.41 KCAL/MOL
REMARK 927      BINDING AFFINITY PREDICTED BY RF-SCORE:    0.00 PKD
ROOT
HETATM    1  N   UNL     1     -12.324   8.069  72.983  1.00  0.00    -0.582 NA 
HETATM    2  C   UNL     1     -11.797   7.601  71.838  1.00  0.00    -0.294 C  
HETATM    3  H2  UNL     1     -13.320   8.291  73.008  1.00  0.00     0.000 HD 
HETATM    4  H1  UNL     1     -11.770   8.212  73.827  1.00  0.00     0.000 HD 
HETATM    5  N   UNL     1     -12.494   7.422  70.775  1.00  0.00    -0.564 NA 
HETATM    6  N   UNL     1     -10.465   7.391  71.910  1.00  0.00    -0.200 NA 
HETATM    7  H1  UNL     1     -12.095   7.066  69.907  1.00  0.00     0.000 HD 
HETATM    8  H2  UNL     1     -13.490   7.643  70.800  1.00  0.00     0.000 HD 
HETATM    9  H   UNL     1      -9.955   7.680  72.744  1.00  0.00     0.000 HD 
ENDROOT
BRANCH   6  10
HETATM   10  C   UNL     1      -9.745   6.756  70.810  1.00  0.00    -0.179 C  
BRANCH  10  11
HETATM   11  C   UNL     1      -9.040   7.813  69.954  1.00  0.00    -0.147 C  
HETATM   12  C   UNL     1      -8.421   8.893  70.835  1.00  0.00    -0.186 C  
HETATM   13  O   UNL     1      -7.660   9.810  70.037  1.00  0.00    -0.127 OA 
HETATM   14  C   UNL     1      -8.344  10.182  68.906  1.00  0.00    -0.130 A  
HETATM   15  C   UNL     1      -9.491   9.525  68.453  1.00  0.00    -0.137 A  
HETATM   16  O   UNL     1     -10.010   8.414  69.069  1.00  0.00    -0.179 OA 
HETATM   17  C   UNL     1     -10.161   9.992  67.325  1.00  0.00    -0.275 A  
HETATM   18  C   UNL     1      -9.659  11.089  66.622  1.00  0.00    -0.216 A  
HETATM   19  C   UNL     1      -8.488  11.719  67.050  1.00  0.00    -0.175 A  
HETATM   20  C   UNL     1      -7.832  11.267  68.196  1.00  0.00    -0.127 A  
ENDBRANCH  10  11
ENDBRANCH   6  10
TORSDOF 2
ENDMDL
MODEL      185
REMARK 921   NORMALIZED FREE ENERGY PREDICTED BY IDOCK:   -3.37 KCAL/MOL
REMARK 922        TOTAL FREE ENERGY PREDICTED BY IDOCK:   -3.90 KCAL/MOL
REMARK 923 INTER-LIGAND FREE ENERGY PREDICTED BY IDOCK:   -3.69 KCAL/MOL
REMARK 924 INTRA-LIGAND FREE ENERGY PREDICTED BY IDOCK:   -0.21 KCAL/MOL
REMARK 927      BINDING AFFINITY PREDICTED BY RF-SCORE:    0.00 PKD
ROOT
HETATM    1  N   UNL     1     -12.030  12.137  66.471  1.00  0.00    -0.631 NA 
HETATM    2  C   UNL     1     -10.962  12.171  67.287  1.00  0.00    -0.260 C  
HETATM    3  H2  UNL     1     -12.543  13.002  66.301  1.00  0.00     0.000 HD 
HETATM    4  H1  UNL     1     -12.349  11.282  66.015  1.00  0.00     0.000 HD 
HETATM    5  N   UNL     1     -10.560  13.246  67.861  1.00  0.00    -0.233 NA 
HETATM    6  N   UNL     1     -10.395  10.960  67.474  1.00  0.00    -0.193 NA 
HETATM    7  H1  UNL     1      -9.750  13.272  68.479  1.00  0.00     0.000 HD 
HETATM    8  H2  UNL     1     -11.073  14.112  67.691  1.00  0.00     0.000 HD 
HETATM    9  H   UNL     1     -10.846  10.129  67.092  1.00  0.00     0.000 HD 
ENDROOT
BRANCH   6  10
HETATM   10  C   UNL     1      -9.146  10.822  68.217  1.00  0.00    -0.157 C  
BRANCH  10  11
HETATM   11  C   UNL     1      -9.190   9.578  69.110  1.00  0.00    -0.163 C  
HETATM   12  C   UNL     1      -8.697   8.352  68.348  1.00  0.00    -0.136 C  
HETATM   13  O   UNL     1      -8.625   7.219  69.223  1.00  0.00    -0.135 OA 
HETATM   14  C   UNL     1      -9.749   7.111  70.004  1.00  0.00    -0.171 A  
HETATM   15  C   UNL     1     -10.691   8.135  70.135  1.00  0.00    -0.243 A  
HETATM   16  O   UNL     1     -10.553   9.362  69.535  1.00  0.00    -0.211 OA 
HETATM   17  C   UNL     1     -11.835   7.934  70.904  1.00  0.00    -0.242 A  
HETATM   18  C   UNL     1     -12.015   6.727  71.581  1.00  0.00    -0.391 A  
HETATM   19  C   UNL     1     -11.051   5.719  71.485  1.00  0.00    -0.281 A  
HETATM   20  C   UNL     1      -9.918   5.911  70.692  1.00  0.00    -0.242 A  
ENDBRANCH  10  11
ENDBRANCH   6  10
TORSDOF 2
ENDMDL
MODEL      186
REMARK 921   NORMALIZED FREE ENERGY PREDICTED BY IDOCK:   -3.36 KCAL/MOL
REMARK 922        TOTAL FREE ENERGY PREDICTED BY IDOCK:   -3.90 KCAL/MOL
REMARK 923 INTER-LIGAND FREE ENERGY PREDICTED BY IDOCK:   -3.69 KCAL/MOL
REMARK 924 INTRA-LIGAND FREE ENERGY PREDICTED BY IDOCK:   -0.21 KCAL/MOL
REMARK 927      BINDING AFFINITY PREDICTED BY RF-SCORE:    0.00 PKD
ROOT
HETATM    1  N   UNL     1     -12.584  10.274  71.801  1.00  0.00    -0.413 NA 
HETATM    2  C   UNL     1     -12.488   8.977  72.143  1.00  0.00    -0.380 C  
HETATM    3  H2  UNL     1     -13.504  10.715  71.812  1.00  0.00     0.000 HD 
HETATM    4  H1  UNL     1     -11.776  10.834  71.531  1.00  0.00     0.000 HD 
HETATM    5  N   UNL     1     -13.505   8.271  72.483  1.00  0.00    -0.580 NA 
HETATM    6  N   UNL     1     -11.233   8.490  72.043  1.00  0.00    -0.324 NA 
HETATM    7  H1  UNL     1     -13.432   7.288  72.743  1.00  0.00     0.000 HD 
HETATM    8  H2  UNL     1     -14.425   8.712  72.495  1.00  0.00     0.000 HD 
HETATM    9  H   UNL     1     -10.498   9.072  71.640  1.00  0.00     0.000 HD 
ENDROOT
BRANCH   6  10
HETATM   10  C   UNL     1     -10.911   7.142  72.503  1.00  0.00    -0.264 C  
BRANCH  10  11
HETATM   11  C   UNL     1     -10.875   6.170  71.320  1.00  0.00    -0.266 C  
HETATM   12  C   UNL     1     -10.038   4.941  71.660  1.00  0.00    -0.198 C  
HETATM   13  O   UNL     1     -10.110   3.980  70.597  1.00  0.00    -0.143 OA 
HETATM   14  C   UNL     1      -9.955   4.574  69.370  1.00  0.00    -0.142 A  
HETATM   15  C   UNL     1     -10.020   5.956  69.173  1.00  0.00    -0.165 A  
HETATM   16  O   UNL     1     -10.296   6.845  70.183  1.00  0.00    -0.193 OA 
HETATM   17  C   UNL     1      -9.801   6.491  67.906  1.00  0.00    -0.134 A  
HETATM   18  C   UNL     1      -9.563   5.641  66.824  1.00  0.00    -0.159 A  
HETATM   19  C   UNL     1      -9.542   4.256  67.013  1.00  0.00    -0.227 A  
HETATM   20  C   UNL     1      -9.734   3.723  68.288  1.00  0.00    -0.099 A  
ENDBRANCH  10  11
ENDBRANCH   6  10
TORSDOF 2
ENDMDL
MODEL      187
REMARK 921   NORMALIZED FREE ENERGY PREDICTED BY IDOCK:   -3.33 KCAL/MOL
REMARK 922        TOTAL FREE ENERGY PREDICTED BY IDOCK:   -3.86 KCAL/MOL
REMARK 923 INTER-LIGAND FREE ENERGY PREDICTED BY IDOCK:   -3.68 KCAL/MOL
REMARK 924 INTRA-LIGAND FREE ENERGY PREDICTED BY IDOCK:   -0.17 KCAL/MOL
REMARK 927      BINDING AFFINITY PREDICTED BY RF-SCORE:    0.00 PKD
ROOT
HETATM    1  N   UNL     1     -11.332   6.249  68.900  1.00  0.00    -0.525 NA 
HETATM    2  C   UNL     1     -11.081   6.782  67.691  1.00  0.00    -0.230 C  
HETATM    3  H2  UNL     1     -11.672   5.288  68.950  1.00  0.00     0.000 HD 
HETATM    4  H1  UNL     1     -11.198   6.766  69.768  1.00  0.00     0.000 HD 
HETATM    5  N   UNL     1     -11.250   6.132  66.597  1.00  0.00    -0.758 NA 
HETATM    6  N   UNL     1     -10.686   8.072  67.747  1.00  0.00    -0.464 NA 
HETATM    7  H1  UNL     1     -11.059   6.535  65.680  1.00  0.00     0.000 HD 
HETATM    8  H2  UNL     1     -11.589   5.171  66.647  1.00  0.00     0.000 HD 
HETATM    9  H   UNL     1     -10.701   8.563  68.641  1.00  0.00     0.000 HD 
ENDROOT
BRANCH   6  10
HETATM   10  C   UNL     1     -10.237   8.772  66.548  1.00  0.00    -0.244 C  
BRANCH  10  11
HETATM   11  C   UNL     1      -9.137   9.780  66.899  1.00  0.00    -0.142 C  
HETATM   12  C   UNL     1      -8.623   9.542  68.315  1.00  0.00    -0.120 C  
HETATM   13  O   UNL     1      -7.512  10.405  68.592  1.00  0.00    -0.080 OA 
HETATM   14  C   UNL     1      -7.757  11.691  68.179  1.00  0.00    -0.122 A  
HETATM   15  C   UNL     1      -8.818  12.036  67.338  1.00  0.00    -0.178 A  
HETATM   16  O   UNL     1      -9.683  11.113  66.805  1.00  0.00    -0.188 OA 
HETATM   17  C   UNL     1      -9.036  13.371  67.003  1.00  0.00    -0.228 A  
HETATM   18  C   UNL     1      -8.164  14.356  67.471  1.00  0.00    -0.201 A  
HETATM   19  C   UNL     1      -7.077  14.005  68.276  1.00  0.00    -0.110 A  
HETATM   20  C   UNL     1      -6.876  12.671  68.634  1.00  0.00    -0.091 A  
ENDBRANCH  10  11
ENDBRANCH   6  10
TORSDOF 2
ENDMDL
MODEL      188
REMARK 921   NORMALIZED FREE ENERGY PREDICTED BY IDOCK:   -3.30 KCAL/MOL
REMARK 922        TOTAL FREE ENERGY PREDICTED BY IDOCK:   -3.82 KCAL/MOL
REMARK 923 INTER-LIGAND FREE ENERGY PREDICTED BY IDOCK:   -3.41 KCAL/MOL
REMARK 924 INTRA-LIGAND FREE ENERGY PREDICTED BY IDOCK:   -0.41 KCAL/MOL
REMARK 927      BINDING AFFINITY PREDICTED BY RF-SCORE:    0.00 PKD
ROOT
HETATM    1  N   UNL     1      -6.206   6.731  66.853  1.00  0.00    -0.038 NA 
HETATM    2  C   UNL     1      -7.548   6.751  66.780  1.00  0.00    -0.090 C  
HETATM    3  H2  UNL     1      -5.738   5.835  66.996  1.00  0.00     0.000 HD 
HETATM    4  H1  UNL     1      -5.636   7.572  66.771  1.00  0.00     0.000 HD 
HETATM    5  N   UNL     1      -8.266   5.692  66.883  1.00  0.00    -0.105 NA 
HETATM    6  N   UNL     1      -8.056   7.994  66.640  1.00  0.00    -0.102 NA 
HETATM    7  H1  UNL     1      -9.284   5.707  66.828  1.00  0.00     0.000 HD 
HETATM    8  H2  UNL     1      -7.798   4.796  67.027  1.00  0.00     0.000 HD 
HETATM    9  H   UNL     1      -7.435   8.801  66.698  1.00  0.00     0.000 HD 
ENDROOT
BRANCH   6  10
HETATM   10  C   UNL     1      -9.482   8.200  66.406  1.00  0.00    -0.218 C  
BRANCH  10  11
HETATM   11  C   UNL     1     -10.186   8.585  67.712  1.00  0.00    -0.225 C  
HETATM   12  C   UNL     1      -9.270   9.436  68.585  1.00  0.00    -0.131 C  
HETATM   13  O   UNL     1      -9.976   9.895  69.746  1.00  0.00    -0.217 OA 
HETATM   14  C   UNL     1     -10.702   8.885  70.327  1.00  0.00    -0.221 A  
HETATM   15  C   UNL     1     -10.953   7.663  69.698  1.00  0.00    -0.137 A  
HETATM   16  O   UNL     1     -10.540   7.378  68.420  1.00  0.00    -0.198 OA 
HETATM   17  C   UNL     1     -11.655   6.665  70.371  1.00  0.00    -0.457 A  
HETATM   18  C   UNL     1     -12.147   6.906  71.654  1.00  0.00    -0.394 A  
HETATM   19  C   UNL     1     -11.934   8.144  72.266  1.00  0.00    -0.434 A  
HETATM   20  C   UNL     1     -11.206   9.134  71.602  1.00  0.00    -0.447 A  
ENDBRANCH  10  11
ENDBRANCH   6  10
TORSDOF 2
ENDMDL
MODEL      189
REMARK 921   NORMALIZED FREE ENERGY PREDICTED BY IDOCK:   -3.29 KCAL/MOL
REMARK 922        TOTAL FREE ENERGY PREDICTED BY IDOCK:   -3.82 KCAL/MOL
REMARK 923 INTER-LIGAND FREE ENERGY PREDICTED BY IDOCK:   -3.55 KCAL/MOL
REMARK 924 INTRA-LIGAND FREE ENERGY PREDICTED BY IDOCK:   -0.26 KCAL/MOL
REMARK 927      BINDING AFFINITY PREDICTED BY RF-SCORE:    0.00 PKD
ROOT
HETATM    1  N   UNL     1     -12.184  10.885  68.740  1.00  0.00    -0.793 NA 
HETATM    2  C   UNL     1     -10.974  10.650  69.276  1.00  0.00    -0.245 C  
HETATM    3  H2  UNL     1     -12.357  11.791  68.303  1.00  0.00     0.000 HD 
HETATM    4  H1  UNL     1     -12.936  10.197  68.750  1.00  0.00     0.000 HD 
HETATM    5  N   UNL     1     -10.027  11.516  69.263  1.00  0.00    -0.414 NA 
HETATM    6  N   UNL     1     -10.879   9.439  69.867  1.00  0.00    -0.231 NA 
HETATM    7  H1  UNL     1      -9.110  11.337  69.669  1.00  0.00     0.000 HD 
HETATM    8  H2  UNL     1     -10.200  12.422  68.827  1.00  0.00     0.000 HD 
HETATM    9  H   UNL     1     -11.711   8.856  69.955  1.00  0.00     0.000 HD 
ENDROOT
BRANCH   6  10
HETATM   10  C   UNL     1      -9.602   8.953  70.382  1.00  0.00    -0.194 C  
BRANCH  10  11
HETATM   11  C   UNL     1      -9.118   7.754  69.560  1.00  0.00    -0.146 C  
HETATM   12  C   UNL     1      -7.865   8.116  68.768  1.00  0.00    -0.113 C  
HETATM   13  O   UNL     1      -7.347   6.958  68.100  1.00  0.00    -0.091 OA 
HETATM   14  C   UNL     1      -8.344   6.244  67.482  1.00  0.00    -0.113 A  
HETATM   15  C   UNL     1      -9.703   6.457  67.727  1.00  0.00    -0.121 A  
HETATM   16  O   UNL     1     -10.166   7.364  68.647  1.00  0.00    -0.181 OA 
HETATM   17  C   UNL     1     -10.660   5.729  67.023  1.00  0.00    -0.373 A  
HETATM   18  C   UNL     1     -10.258   4.755  66.108  1.00  0.00    -0.313 A  
HETATM   19  C   UNL     1      -8.898   4.512  65.895  1.00  0.00    -0.121 A  
HETATM   20  C   UNL     1      -7.940   5.261  66.580  1.00  0.00    -0.104 A  
ENDBRANCH  10  11
ENDBRANCH   6  10
TORSDOF 2
ENDMDL
MODEL      190
REMARK 921   NORMALIZED FREE ENERGY PREDICTED BY IDOCK:   -3.29 KCAL/MOL
REMARK 922        TOTAL FREE ENERGY PREDICTED BY IDOCK:   -3.81 KCAL/MOL
REMARK 923 INTER-LIGAND FREE ENERGY PREDICTED BY IDOCK:   -3.64 KCAL/MOL
REMARK 924 INTRA-LIGAND FREE ENERGY PREDICTED BY IDOCK:   -0.18 KCAL/MOL
REMARK 927      BINDING AFFINITY PREDICTED BY RF-SCORE:    0.00 PKD
ROOT
HETATM    1  N   UNL     1     -12.614  13.158  64.558  1.00  0.00    -0.647 NA 
HETATM    2  C   UNL     1     -11.363  12.695  64.389  1.00  0.00    -0.344 C  
HETATM    3  H2  UNL     1     -12.804  14.139  64.353  1.00  0.00     0.000 HD 
HETATM    4  H1  UNL     1     -13.381  12.569  64.883  1.00  0.00     0.000 HD 
HETATM    5  N   UNL     1     -10.398  13.436  63.980  1.00  0.00    -0.706 NA 
HETATM    6  N   UNL     1     -11.222  11.398  64.738  1.00  0.00    -0.189 NA 
HETATM    7  H1  UNL     1      -9.449  13.085  63.851  1.00  0.00     0.000 HD 
HETATM    8  H2  UNL     1     -10.588  14.417  63.775  1.00  0.00     0.000 HD 
HETATM    9  H   UNL     1     -12.001  10.909  65.179  1.00  0.00     0.000 HD 
ENDROOT
BRANCH   6  10
HETATM   10  C   UNL     1      -9.971  10.687  64.493  1.00  0.00    -0.345 C  
BRANCH  10  11
HETATM   11  C   UNL     1      -9.692   9.694  65.627  1.00  0.00    -0.293 C  
HETATM   12  C   UNL     1     -10.540  10.025  66.851  1.00  0.00    -0.192 C  
HETATM   13  O   UNL     1     -10.366   9.022  67.862  1.00  0.00    -0.212 OA 
HETATM   14  C   UNL     1      -9.042   8.703  68.033  1.00  0.00    -0.140 A  
HETATM   15  C   UNL     1      -8.040   9.086  67.138  1.00  0.00    -0.106 A  
HETATM   16  O   UNL     1      -8.293   9.772  65.977  1.00  0.00    -0.118 OA 
HETATM   17  C   UNL     1      -6.710   8.770  67.406  1.00  0.00    -0.066 A  
HETATM   18  C   UNL     1      -6.386   8.031  68.545  1.00  0.00    -0.053 A  
HETATM   19  C   UNL     1      -7.394   7.611  69.418  1.00  0.00    -0.087 A  
HETATM   20  C   UNL     1      -8.723   7.951  69.163  1.00  0.00    -0.138 A  
ENDBRANCH  10  11
ENDBRANCH   6  10
TORSDOF 2
ENDMDL
MODEL      191
REMARK 921   NORMALIZED FREE ENERGY PREDICTED BY IDOCK:   -3.29 KCAL/MOL
REMARK 922        TOTAL FREE ENERGY PREDICTED BY IDOCK:   -3.81 KCAL/MOL
REMARK 923 INTER-LIGAND FREE ENERGY PREDICTED BY IDOCK:   -3.63 KCAL/MOL
REMARK 924 INTRA-LIGAND FREE ENERGY PREDICTED BY IDOCK:   -0.18 KCAL/MOL
REMARK 927      BINDING AFFINITY PREDICTED BY RF-SCORE:    0.00 PKD
ROOT
HETATM    1  N   UNL     1     -11.037   7.300  73.792  1.00  0.00    -0.488 NA 
HETATM    2  C   UNL     1     -11.046   7.624  72.487  1.00  0.00    -0.336 C  
HETATM    3  H2  UNL     1     -10.814   8.026  74.474  1.00  0.00     0.000 HD 
HETATM    4  H1  UNL     1     -11.244   6.361  74.129  1.00  0.00     0.000 HD 
HETATM    5  N   UNL     1     -10.785   8.807  72.063  1.00  0.00    -0.346 NA 
HETATM    6  N   UNL     1     -11.305   6.574  71.679  1.00  0.00    -0.271 NA 
HETATM    7  H1  UNL     1     -10.792   9.053  71.073  1.00  0.00     0.000 HD 
HETATM    8  H2  UNL     1     -10.562   9.533  72.745  1.00  0.00     0.000 HD 
HETATM    9  H   UNL     1     -11.372   5.637  72.077  1.00  0.00     0.000 HD 
ENDROOT
BRANCH   6  10
HETATM   10  C   UNL     1     -11.491   6.760  70.243  1.00  0.00    -0.360 C  
BRANCH  10  11
HETATM   11  C   UNL     1     -10.707   5.699  69.462  1.00  0.00    -0.310 C  
HETATM   12  C   UNL     1      -9.213   5.821  69.741  1.00  0.00    -0.140 C  
HETATM   13  O   UNL     1      -8.500   4.751  69.107  1.00  0.00    -0.080 OA 
HETATM   14  C   UNL     1      -8.924   4.558  67.816  1.00  0.00    -0.116 A  
HETATM   15  C   UNL     1     -10.091   5.127  67.299  1.00  0.00    -0.194 A  
HETATM   16  O   UNL     1     -10.949   5.890  68.051  1.00  0.00    -0.274 OA 
HETATM   17  C   UNL     1     -10.430   4.929  65.963  1.00  0.00    -0.327 A  
HETATM   18  C   UNL     1      -9.627   4.123  65.154  1.00  0.00    -0.185 A  
HETATM   19  C   UNL     1      -8.483   3.518  65.682  1.00  0.00    -0.108 A  
HETATM   20  C   UNL     1      -8.129   3.740  67.014  1.00  0.00    -0.095 A  
ENDBRANCH  10  11
ENDBRANCH   6  10
TORSDOF 2
ENDMDL
MODEL      192
REMARK 921   NORMALIZED FREE ENERGY PREDICTED BY IDOCK:   -3.29 KCAL/MOL
REMARK 922        TOTAL FREE ENERGY PREDICTED BY IDOCK:   -3.81 KCAL/MOL
REMARK 923 INTER-LIGAND FREE ENERGY PREDICTED BY IDOCK:   -3.68 KCAL/MOL
REMARK 924 INTRA-LIGAND FREE ENERGY PREDICTED BY IDOCK:   -0.13 KCAL/MOL
REMARK 927      BINDING AFFINITY PREDICTED BY RF-SCORE:    0.00 PKD
ROOT
HETATM    1  N   UNL     1      -7.208   7.550  66.192  1.00  0.00    -0.072 NA 
HETATM    2  C   UNL     1      -8.515   7.864  66.153  1.00  0.00    -0.133 C  
HETATM    3  H2  UNL     1      -6.906   6.663  65.787  1.00  0.00     0.000 HD 
HETATM    4  H1  UNL     1      -6.506   8.161  66.609  1.00  0.00     0.000 HD 
HETATM    5  N   UNL     1      -9.399   7.095  65.628  1.00  0.00    -0.362 NA 
HETATM    6  N   UNL     1      -8.801   9.035  66.762  1.00  0.00    -0.125 NA 
HETATM    7  H1  UNL     1     -10.390   7.333  65.598  1.00  0.00     0.000 HD 
HETATM    8  H2  UNL     1      -9.097   6.208  65.224  1.00  0.00     0.000 HD 
HETATM    9  H   UNL     1      -8.069   9.528  67.272  1.00  0.00     0.000 HD 
ENDROOT
BRANCH   6  10
HETATM   10  C   UNL     1     -10.144   9.605  66.700  1.00  0.00    -0.239 C  
BRANCH  10  11
HETATM   11  C   UNL     1     -10.423  10.448  67.948  1.00  0.00    -0.209 C  
HETATM   12  C   UNL     1     -11.411   9.738  68.867  1.00  0.00     0.058 C  
HETATM   13  O   UNL     1     -11.572  10.473  70.088  1.00  0.00    -0.275 OA 
HETATM   14  C   UNL     1     -11.729  11.816  69.850  1.00  0.00    -0.323 A  
HETATM   15  C   UNL     1     -11.467  12.411  68.614  1.00  0.00    -0.303 A  
HETATM   16  O   UNL     1     -10.978  11.716  67.536  1.00  0.00    -0.229 OA 
HETATM   17  C   UNL     1     -11.699  13.772  68.433  1.00  0.00    -0.393 A  
HETATM   18  C   UNL     1     -12.150  14.549  69.502  1.00  0.00    -0.348 A  
HETATM   19  C   UNL     1     -12.371  13.962  70.751  1.00  0.00    -0.449 A  
HETATM   20  C   UNL     1     -12.164  12.592  70.923  1.00  0.00    -0.280 A  
ENDBRANCH  10  11
ENDBRANCH   6  10
TORSDOF 2
ENDMDL
MODEL      193
REMARK 921   NORMALIZED FREE ENERGY PREDICTED BY IDOCK:   -3.25 KCAL/MOL
REMARK 922        TOTAL FREE ENERGY PREDICTED BY IDOCK:   -3.77 KCAL/MOL
REMARK 923 INTER-LIGAND FREE ENERGY PREDICTED BY IDOCK:   -3.60 KCAL/MOL
REMARK 924 INTRA-LIGAND FREE ENERGY PREDICTED BY IDOCK:   -0.18 KCAL/MOL
REMARK 927      BINDING AFFINITY PREDICTED BY RF-SCORE:    0.00 PKD
ROOT
HETATM    1  N   UNL     1     -10.456   4.944  65.378  1.00  0.00    -0.474 NA 
HETATM    2  C   UNL     1      -9.903   4.133  66.297  1.00  0.00    -0.192 C  
HETATM    3  H2  UNL     1     -10.641   4.572  64.446  1.00  0.00     0.000 HD 
HETATM    4  H1  UNL     1     -10.697   5.915  65.573  1.00  0.00     0.000 HD 
HETATM    5  N   UNL     1      -9.599   2.911  66.052  1.00  0.00    -0.384 NA 
HETATM    6  N   UNL     1      -9.659   4.749  67.474  1.00  0.00    -0.149 NA 
HETATM    7  H1  UNL     1      -9.181   2.296  66.749  1.00  0.00     0.000 HD 
HETATM    8  H2  UNL     1      -9.785   2.538  65.121  1.00  0.00     0.000 HD 
HETATM    9  H   UNL     1      -9.805   5.755  67.555  1.00  0.00     0.000 HD 
ENDROOT
BRANCH   6  10
HETATM   10  C   UNL     1      -9.190   3.995  68.633  1.00  0.00    -0.150 C  
BRANCH  10  11
HETATM   11  C   UNL     1      -9.835   4.532  69.915  1.00  0.00    -0.227 C  
HETATM   12  C   UNL     1     -10.646   5.790  69.623  1.00  0.00    -0.326 C  
HETATM   13  O   UNL     1     -11.346   6.215  70.800  1.00  0.00    -0.321 OA 
HETATM   14  C   UNL     1     -10.534   6.187  71.906  1.00  0.00    -0.213 A  
HETATM   15  C   UNL     1      -9.292   5.547  71.930  1.00  0.00    -0.144 A  
HETATM   16  O   UNL     1      -8.792   4.843  70.863  1.00  0.00    -0.122 OA 
HETATM   17  C   UNL     1      -8.500   5.605  73.074  1.00  0.00    -0.118 A  
HETATM   18  C   UNL     1      -8.970   6.263  74.212  1.00  0.00    -0.153 A  
HETATM   19  C   UNL     1     -10.231   6.865  74.203  1.00  0.00    -0.331 A  
HETATM   20  C   UNL     1     -11.012   6.830  73.047  1.00  0.00    -0.293 A  
ENDBRANCH  10  11
ENDBRANCH   6  10
TORSDOF 2
ENDMDL
MODEL      194
REMARK 921   NORMALIZED FREE ENERGY PREDICTED BY IDOCK:   -3.24 KCAL/MOL
REMARK 922        TOTAL FREE ENERGY PREDICTED BY IDOCK:   -3.76 KCAL/MOL
REMARK 923 INTER-LIGAND FREE ENERGY PREDICTED BY IDOCK:   -3.57 KCAL/MOL
REMARK 924 INTRA-LIGAND FREE ENERGY PREDICTED BY IDOCK:   -0.18 KCAL/MOL
REMARK 927      BINDING AFFINITY PREDICTED BY RF-SCORE:    0.00 PKD
ROOT
HETATM    1  N   UNL     1     -10.442  10.723  65.923  1.00  0.00    -0.234 NA 
HETATM    2  C   UNL     1      -9.838   9.634  66.430  1.00  0.00    -0.244 C  
HETATM    3  H2  UNL     1     -11.021  10.617  65.090  1.00  0.00     0.000 HD 
HETATM    4  H1  UNL     1     -10.346  11.650  66.337  1.00  0.00     0.000 HD 
HETATM    5  N   UNL     1      -9.959   8.467  65.909  1.00  0.00    -0.432 NA 
HETATM    6  N   UNL     1      -9.060   9.904  67.500  1.00  0.00    -0.134 NA 
HETATM    7  H1  UNL     1      -9.501   7.641  66.293  1.00  0.00     0.000 HD 
HETATM    8  H2  UNL     1     -10.538   8.361  65.076  1.00  0.00     0.000 HD 
HETATM    9  H   UNL     1      -8.907  10.873  67.778  1.00  0.00     0.000 HD 
ENDROOT
BRANCH   6  10
HETATM   10  C   UNL     1      -8.436   8.829  68.265  1.00  0.00    -0.130 C  
BRANCH  10  11
HETATM   11  C   UNL     1      -9.298   8.469  69.480  1.00  0.00    -0.161 C  
HETATM   12  C   UNL     1      -8.873   9.280  70.699  1.00  0.00    -0.237 C  
HETATM   13  O   UNL     1      -9.761   9.029  71.797  1.00  0.00    -0.304 OA 
HETATM   14  C   UNL     1     -10.016   7.688  71.943  1.00  0.00    -0.176 A  
HETATM   15  C   UNL     1      -9.693   6.736  70.972  1.00  0.00    -0.174 A  
HETATM   16  O   UNL     1      -9.138   7.061  69.760  1.00  0.00    -0.144 OA 
HETATM   17  C   UNL     1      -9.935   5.386  71.213  1.00  0.00    -0.253 A  
HETATM   18  C   UNL     1     -10.543   4.990  72.406  1.00  0.00    -0.275 A  
HETATM   19  C   UNL     1     -10.906   5.947  73.358  1.00  0.00    -0.275 A  
HETATM   20  C   UNL     1     -10.638   7.297  73.128  1.00  0.00    -0.400 A  
ENDBRANCH  10  11
ENDBRANCH   6  10
TORSDOF 2
ENDMDL
MODEL      195
REMARK 921   NORMALIZED FREE ENERGY PREDICTED BY IDOCK:   -3.23 KCAL/MOL
REMARK 922        TOTAL FREE ENERGY PREDICTED BY IDOCK:   -3.74 KCAL/MOL
REMARK 923 INTER-LIGAND FREE ENERGY PREDICTED BY IDOCK:   -3.48 KCAL/MOL
REMARK 924 INTRA-LIGAND FREE ENERGY PREDICTED BY IDOCK:   -0.26 KCAL/MOL
REMARK 927      BINDING AFFINITY PREDICTED BY RF-SCORE:    0.00 PKD
ROOT
HETATM    1  N   UNL     1      -5.848  20.146  67.824  1.00  0.00    -0.192 NA 
HETATM    2  C   UNL     1      -6.790  19.630  68.633  1.00  0.00    -0.314 C  
HETATM    3  H2  UNL     1      -4.872  20.098  68.118  1.00  0.00     0.000 HD 
HETATM    4  H1  UNL     1      -6.069  20.583  66.929  1.00  0.00     0.000 HD 
HETATM    5  N   UNL     1      -6.513  19.080  69.759  1.00  0.00    -0.221 NA 
HETATM    6  N   UNL     1      -8.046  19.796  68.164  1.00  0.00    -0.310 NA 
HETATM    7  H1  UNL     1      -7.227  18.689  70.373  1.00  0.00     0.000 HD 
HETATM    8  H2  UNL     1      -5.537  19.032  70.053  1.00  0.00     0.000 HD 
HETATM    9  H   UNL     1      -8.199  20.358  67.328  1.00  0.00     0.000 HD 
ENDROOT
BRANCH   6  10
HETATM   10  C   UNL     1      -9.186  19.181  68.838  1.00  0.00    -0.318 C  
BRANCH  10  11
HETATM   11  C   UNL     1      -9.405  17.755  68.322  1.00  0.00    -0.288 C  
HETATM   12  C   UNL     1     -10.809  17.270  68.665  1.00  0.00    -0.199 C  
HETATM   13  O   UNL     1     -11.050  15.986  68.073  1.00  0.00    -0.341 OA 
HETATM   14  C   UNL     1      -9.987  15.138  68.259  1.00  0.00    -0.223 A  
HETATM   15  C   UNL     1      -8.732  15.567  68.700  1.00  0.00    -0.188 A  
HETATM   16  O   UNL     1      -8.432  16.885  68.938  1.00  0.00    -0.248 OA 
HETATM   17  C   UNL     1      -7.715  14.640  68.915  1.00  0.00    -0.141 A  
HETATM   18  C   UNL     1      -7.937  13.289  68.645  1.00  0.00    -0.042 A  
HETATM   19  C   UNL     1      -9.179  12.865  68.162  1.00  0.00    -0.212 A  
HETATM   20  C   UNL     1     -10.206  13.791  67.973  1.00  0.00    -0.248 A  
ENDBRANCH  10  11
ENDBRANCH   6  10
TORSDOF 2
ENDMDL
MODEL      196
REMARK 921   NORMALIZED FREE ENERGY PREDICTED BY IDOCK:   -3.21 KCAL/MOL
REMARK 922        TOTAL FREE ENERGY PREDICTED BY IDOCK:   -3.72 KCAL/MOL
REMARK 923 INTER-LIGAND FREE ENERGY PREDICTED BY IDOCK:   -3.57 KCAL/MOL
REMARK 924 INTRA-LIGAND FREE ENERGY PREDICTED BY IDOCK:   -0.16 KCAL/MOL
REMARK 927      BINDING AFFINITY PREDICTED BY RF-SCORE:    0.00 PKD
ROOT
HETATM    1  N   UNL     1      -9.504   2.085  64.227  1.00  0.00    -0.134 NA 
HETATM    2  C   UNL     1      -9.988   3.327  64.403  1.00  0.00    -0.145 C  
HETATM    3  H2  UNL     1      -9.382   1.739  63.275  1.00  0.00     0.000 HD 
HETATM    4  H1  UNL     1      -9.254   1.475  65.005  1.00  0.00     0.000 HD 
HETATM    5  N   UNL     1     -10.303   4.095  63.424  1.00  0.00    -0.396 NA 
HETATM    6  N   UNL     1     -10.153   3.656  65.702  1.00  0.00    -0.413 NA 
HETATM    7  H1  UNL     1     -10.670   5.037  63.558  1.00  0.00     0.000 HD 
HETATM    8  H2  UNL     1     -10.180   3.749  62.472  1.00  0.00     0.000 HD 
HETATM    9  H   UNL     1     -10.007   2.949  66.422  1.00  0.00     0.000 HD 
ENDROOT
BRANCH   6  10
HETATM   10  C   UNL     1     -10.538   5.010  66.091  1.00  0.00    -0.265 C  
BRANCH  10  11
HETATM   11  C   UNL     1     -10.086   5.302  67.525  1.00  0.00    -0.179 C  
HETATM   12  C   UNL     1      -9.884   4.003  68.300  1.00  0.00     0.014 C  
HETATM   13  O   UNL     1      -9.343   4.278  69.599  1.00  0.00    -0.130 OA 
HETATM   14  C   UNL     1      -9.995   5.323  70.206  1.00  0.00    -0.240 A  
HETATM   15  C   UNL     1     -10.860   6.184  69.527  1.00  0.00    -0.361 A  
HETATM   16  O   UNL     1     -11.099   6.097  68.178  1.00  0.00    -0.332 OA 
HETATM   17  C   UNL     1     -11.527   7.191  70.221  1.00  0.00    -0.287 A  
HETATM   18  C   UNL     1     -11.293   7.367  71.586  1.00  0.00    -0.286 A  
HETATM   19  C   UNL     1     -10.394   6.533  72.256  1.00  0.00    -0.212 A  
HETATM   20  C   UNL     1      -9.748   5.507  71.565  1.00  0.00    -0.201 A  
ENDBRANCH  10  11
ENDBRANCH   6  10
TORSDOF 2
ENDMDL
MODEL      197
REMARK 921   NORMALIZED FREE ENERGY PREDICTED BY IDOCK:   -3.18 KCAL/MOL
REMARK 922        TOTAL FREE ENERGY PREDICTED BY IDOCK:   -3.69 KCAL/MOL
REMARK 923 INTER-LIGAND FREE ENERGY PREDICTED BY IDOCK:   -3.51 KCAL/MOL
REMARK 924 INTRA-LIGAND FREE ENERGY PREDICTED BY IDOCK:   -0.18 KCAL/MOL
REMARK 927      BINDING AFFINITY PREDICTED BY RF-SCORE:    0.00 PKD
ROOT
HETATM    1  N   UNL     1     -12.600   8.254  72.786  1.00  0.00    -0.610 NA 
HETATM    2  C   UNL     1     -12.515   8.961  71.644  1.00  0.00    -0.344 C  
HETATM    3  H2  UNL     1     -13.483   8.259  73.298  1.00  0.00     0.000 HD 
HETATM    4  H1  UNL     1     -11.820   7.715  73.160  1.00  0.00     0.000 HD 
HETATM    5  N   UNL     1     -13.496   9.640  71.173  1.00  0.00    -0.512 NA 
HETATM    6  N   UNL     1     -11.288   8.920  71.082  1.00  0.00    -0.272 NA 
HETATM    7  H1  UNL     1     -13.432  10.175  70.307  1.00  0.00     0.000 HD 
HETATM    8  H2  UNL     1     -14.379   9.644  71.685  1.00  0.00     0.000 HD 
HETATM    9  H   UNL     1     -10.521   8.469  71.582  1.00  0.00     0.000 HD 
ENDROOT
BRANCH   6  10
HETATM   10  C   UNL     1     -11.043   9.512  69.771  1.00  0.00    -0.191 C  
BRANCH  10  11
HETATM   11  C   UNL     1     -10.062   8.649  68.971  1.00  0.00    -0.199 C  
HETATM   12  C   UNL     1      -9.790   9.270  67.605  1.00  0.00    -0.176 C  
HETATM   13  O   UNL     1      -8.780   8.525  66.912  1.00  0.00    -0.124 OA 
HETATM   14  C   UNL     1      -9.003   7.173  66.997  1.00  0.00    -0.129 A  
HETATM   15  C   UNL     1      -9.916   6.602  67.887  1.00  0.00    -0.132 A  
HETATM   16  O   UNL     1     -10.638   7.336  68.795  1.00  0.00    -0.204 OA 
HETATM   17  C   UNL     1     -10.127   5.225  67.881  1.00  0.00    -0.208 A  
HETATM   18  C   UNL     1      -9.391   4.413  67.017  1.00  0.00    -0.170 A  
HETATM   19  C   UNL     1      -8.445   4.979  66.157  1.00  0.00    -0.114 A  
HETATM   20  C   UNL     1      -8.255   6.362  66.145  1.00  0.00    -0.122 A  
ENDBRANCH  10  11
ENDBRANCH   6  10
TORSDOF 2
ENDMDL
MODEL      198
REMARK 921   NORMALIZED FREE ENERGY PREDICTED BY IDOCK:   -3.17 KCAL/MOL
REMARK 922        TOTAL FREE ENERGY PREDICTED BY IDOCK:   -3.68 KCAL/MOL
REMARK 923 INTER-LIGAND FREE ENERGY PREDICTED BY IDOCK:   -3.55 KCAL/MOL
REMARK 924 INTRA-LIGAND FREE ENERGY PREDICTED BY IDOCK:   -0.13 KCAL/MOL
REMARK 927      BINDING AFFINITY PREDICTED BY RF-SCORE:    0.00 PKD
ROOT
HETATM    1  N   UNL     1      -6.859   5.888  67.600  1.00  0.00    -0.059 NA 
HETATM    2  C   UNL     1      -7.882   6.362  66.866  1.00  0.00    -0.104 C  
HETATM    3  H2  UNL     1      -6.521   4.943  67.414  1.00  0.00     0.000 HD 
HETATM    4  H1  UNL     1      -6.408   6.433  68.334  1.00  0.00     0.000 HD 
HETATM    5  N   UNL     1      -8.450   5.676  65.942  1.00  0.00    -0.131 NA 
HETATM    6  N   UNL     1      -8.274   7.600  67.235  1.00  0.00    -0.118 NA 
HETATM    7  H1  UNL     1      -9.225   6.036  65.385  1.00  0.00     0.000 HD 
HETATM    8  H2  UNL     1      -8.111   4.732  65.756  1.00  0.00     0.000 HD 
HETATM    9  H   UNL     1      -7.864   8.032  68.063  1.00  0.00     0.000 HD 
ENDROOT
BRANCH   6  10
HETATM   10  C   UNL     1      -9.276   8.331  66.465  1.00  0.00    -0.187 C  
BRANCH  10  11
HETATM   11  C   UNL     1      -9.611   9.659  67.151  1.00  0.00    -0.166 C  
HETATM   12  C   UNL     1     -10.338   9.415  68.469  1.00  0.00    -0.209 C  
HETATM   13  O   UNL     1     -10.538  10.654  69.164  1.00  0.00    -0.200 OA 
HETATM   14  C   UNL     1     -10.997  11.636  68.321  1.00  0.00    -0.226 A  
HETATM   15  C   UNL     1     -10.981  11.519  66.928  1.00  0.00    -0.296 A  
HETATM   16  O   UNL     1     -10.457  10.433  66.273  1.00  0.00    -0.222 OA 
HETATM   17  C   UNL     1     -11.511  12.537  66.139  1.00  0.00    -0.426 A  
HETATM   18  C   UNL     1     -12.016  13.692  66.738  1.00  0.00    -0.458 A  
HETATM   19  C   UNL     1     -11.992  13.827  68.130  1.00  0.00    -0.394 A  
HETATM   20  C   UNL     1     -11.485  12.795  68.921  1.00  0.00    -0.352 A  
ENDBRANCH  10  11
ENDBRANCH   6  10
TORSDOF 2
ENDMDL
MODEL      199
REMARK 921   NORMALIZED FREE ENERGY PREDICTED BY IDOCK:   -3.15 KCAL/MOL
REMARK 922        TOTAL FREE ENERGY PREDICTED BY IDOCK:   -3.66 KCAL/MOL
REMARK 923 INTER-LIGAND FREE ENERGY PREDICTED BY IDOCK:   -3.61 KCAL/MOL
REMARK 924 INTRA-LIGAND FREE ENERGY PREDICTED BY IDOCK:   -0.05 KCAL/MOL
REMARK 927      BINDING AFFINITY PREDICTED BY RF-SCORE:    0.00 PKD
ROOT
HETATM    1  N   UNL     1     -12.015  12.406  68.672  1.00  0.00    -0.286 NA 
HETATM    2  C   UNL     1     -11.300  11.507  69.372  1.00  0.00    -0.289 C  
HETATM    3  H2  UNL     1     -11.546  12.938  67.939  1.00  0.00     0.000 HD 
HETATM    4  H1  UNL     1     -13.005  12.577  68.844  1.00  0.00     0.000 HD 
HETATM    5  N   UNL     1     -10.053  11.291  69.156  1.00  0.00    -0.403 NA 
HETATM    6  N   UNL     1     -12.011  10.901  70.346  1.00  0.00    -0.332 NA 
HETATM    7  H1  UNL     1      -9.511  10.610  69.686  1.00  0.00     0.000 HD 
HETATM    8  H2  UNL     1      -9.585  11.824  68.422  1.00  0.00     0.000 HD 
HETATM    9  H   UNL     1     -12.960  11.217  70.547  1.00  0.00     0.000 HD 
ENDROOT
BRANCH   6  10
HETATM   10  C   UNL     1     -11.442   9.800  71.117  1.00  0.00    -0.398 C  
BRANCH  10  11
HETATM   11  C   UNL     1     -11.360   8.534  70.258  1.00  0.00    -0.130 C  
HETATM   12  C   UNL     1     -11.435   7.286  71.131  1.00  0.00    -0.283 C  
HETATM   13  O   UNL     1     -11.481   6.109  70.313  1.00  0.00    -0.375 OA 
HETATM   14  C   UNL     1     -10.555   6.161  69.301  1.00  0.00    -0.285 A  
HETATM   15  C   UNL     1      -9.873   7.328  68.945  1.00  0.00    -0.158 A  
HETATM   16  O   UNL     1     -10.106   8.543  69.540  1.00  0.00    -0.190 OA 
HETATM   17  C   UNL     1      -8.908   7.292  67.942  1.00  0.00    -0.128 A  
HETATM   18  C   UNL     1      -8.656   6.099  67.262  1.00  0.00    -0.103 A  
HETATM   19  C   UNL     1      -9.368   4.942  67.588  1.00  0.00    -0.149 A  
HETATM   20  C   UNL     1     -10.316   4.973  68.613  1.00  0.00    -0.098 A  
ENDBRANCH  10  11
ENDBRANCH   6  10
TORSDOF 2
ENDMDL
MODEL      200
REMARK 921   NORMALIZED FREE ENERGY PREDICTED BY IDOCK:   -3.14 KCAL/MOL
REMARK 922        TOTAL FREE ENERGY PREDICTED BY IDOCK:   -3.65 KCAL/MOL
REMARK 923 INTER-LIGAND FREE ENERGY PREDICTED BY IDOCK:   -3.46 KCAL/MOL
REMARK 924 INTRA-LIGAND FREE ENERGY PREDICTED BY IDOCK:   -0.20 KCAL/MOL
REMARK 927      BINDING AFFINITY PREDICTED BY RF-SCORE:    0.00 PKD
ROOT
HETATM    1  N   UNL     1      -8.345   3.694  69.248  1.00  0.00    -0.063 NA 
HETATM    2  C   UNL     1      -8.019   4.763  69.996  1.00  0.00    -0.069 C  
HETATM    3  H2  UNL     1      -8.110   2.764  69.598  1.00  0.00     0.000 HD 
HETATM    4  H1  UNL     1      -8.815   3.773  68.348  1.00  0.00     0.000 HD 
HETATM    5  N   UNL     1      -7.427   4.664  71.130  1.00  0.00    -0.066 NA 
HETATM    6  N   UNL     1      -8.334   5.939  69.410  1.00  0.00    -0.112 NA 
HETATM    7  H1  UNL     1      -7.181   5.475  71.697  1.00  0.00     0.000 HD 
HETATM    8  H2  UNL     1      -7.193   3.735  71.479  1.00  0.00     0.000 HD 
HETATM    9  H   UNL     1      -8.682   5.945  68.451  1.00  0.00     0.000 HD 
ENDROOT
BRANCH   6  10
HETATM   10  C   UNL     1      -8.181   7.200  70.129  1.00  0.00    -0.135 C  
BRANCH  10  11
HETATM   11  C   UNL     1      -9.547   7.866  70.332  1.00  0.00    -0.171 C  
HETATM   12  C   UNL     1      -9.408   9.131  71.173  1.00  0.00    -0.243 C  
HETATM   13  O   UNL     1     -10.666   9.814  71.256  1.00  0.00    -0.304 OA 
HETATM   14  C   UNL     1     -11.695   8.945  71.522  1.00  0.00    -0.324 A  
HETATM   15  C   UNL     1     -11.570   7.557  71.426  1.00  0.00    -0.275 A  
HETATM   16  O   UNL     1     -10.420   6.935  71.006  1.00  0.00    -0.212 OA 
HETATM   17  C   UNL     1     -12.643   6.736  71.763  1.00  0.00    -0.370 A  
HETATM   18  C   UNL     1     -13.858   7.304  72.151  1.00  0.00    -0.100 A  
HETATM   19  C   UNL     1     -13.997   8.694  72.204  1.00  0.00    -0.496 A  
HETATM   20  C   UNL     1     -12.912   9.515  71.893  1.00  0.00    -0.514 A  
ENDBRANCH  10  11
ENDBRANCH   6  10
TORSDOF 2
ENDMDL
MODEL      201
REMARK 921   NORMALIZED FREE ENERGY PREDICTED BY IDOCK:   -3.12 KCAL/MOL
REMARK 922        TOTAL FREE ENERGY PREDICTED BY IDOCK:   -3.63 KCAL/MOL
REMARK 923 INTER-LIGAND FREE ENERGY PREDICTED BY IDOCK:   -3.42 KCAL/MOL
REMARK 924 INTRA-LIGAND FREE ENERGY PREDICTED BY IDOCK:   -0.21 KCAL/MOL
REMARK 927      BINDING AFFINITY PREDICTED BY RF-SCORE:    0.00 PKD
ROOT
HETATM    1  N   UNL     1      -8.601  13.836  68.636  1.00  0.00    -0.329 NA 
HETATM    2  C   UNL     1      -9.210  15.023  68.466  1.00  0.00    -0.192 C  
HETATM    3  H2  UNL     1      -8.967  13.024  68.138  1.00  0.00     0.000 HD 
HETATM    4  H1  UNL     1      -7.789  13.714  69.240  1.00  0.00     0.000 HD 
HETATM    5  N   UNL     1     -10.231  15.177  67.705  1.00  0.00    -0.239 NA 
HETATM    6  N   UNL     1      -8.670  16.011  69.211  1.00  0.00    -0.248 NA 
HETATM    7  H1  UNL     1     -10.693  16.077  67.576  1.00  0.00     0.000 HD 
HETATM    8  H2  UNL     1     -10.597  14.365  67.207  1.00  0.00     0.000 HD 
HETATM    9  H   UNL     1      -7.944  15.788  69.892  1.00  0.00     0.000 HD 
ENDROOT
BRANCH   6  10
HETATM   10  C   UNL     1      -9.109  17.395  69.056  1.00  0.00    -0.075 C  
BRANCH  10  11
HETATM   11  C   UNL     1      -8.008  18.233  68.399  1.00  0.00    -0.306 C  
HETATM   12  C   UNL     1      -8.370  19.714  68.429  1.00  0.00    -0.311 C  
HETATM   13  O   UNL     1      -7.283  20.503  67.926  1.00  0.00    -0.296 OA 
HETATM   14  C   UNL     1      -6.762  19.967  66.775  1.00  0.00    -0.214 A  
HETATM   15  C   UNL     1      -7.056  18.676  66.329  1.00  0.00    -0.245 A  
HETATM   16  O   UNL     1      -7.854  17.805  67.029  1.00  0.00    -0.200 OA 
HETATM   17  C   UNL     1      -6.530  18.219  65.123  1.00  0.00     0.007 A  
HETATM   18  C   UNL     1      -5.672  19.035  64.385  1.00  0.00    -0.311 A  
HETATM   19  C   UNL     1      -5.342  20.311  64.853  1.00  0.00    -0.200 A  
HETATM   20  C   UNL     1      -5.892  20.778  66.048  1.00  0.00    -0.261 A  
ENDBRANCH  10  11
ENDBRANCH   6  10
TORSDOF 2
ENDMDL
MODEL      202
REMARK 921   NORMALIZED FREE ENERGY PREDICTED BY IDOCK:   -3.11 KCAL/MOL
REMARK 922        TOTAL FREE ENERGY PREDICTED BY IDOCK:   -3.62 KCAL/MOL
REMARK 923 INTER-LIGAND FREE ENERGY PREDICTED BY IDOCK:   -3.45 KCAL/MOL
REMARK 924 INTRA-LIGAND FREE ENERGY PREDICTED BY IDOCK:   -0.17 KCAL/MOL
REMARK 927      BINDING AFFINITY PREDICTED BY RF-SCORE:    0.00 PKD
ROOT
HETATM    1  N   UNL     1      -8.122   7.056  67.645  1.00  0.00    -0.113 NA 
HETATM    2  C   UNL     1      -9.111   7.598  66.912  1.00  0.00    -0.144 C  
HETATM    3  H2  UNL     1      -7.983   6.045  67.607  1.00  0.00     0.000 HD 
HETATM    4  H1  UNL     1      -7.505   7.612  68.236  1.00  0.00     0.000 HD 
HETATM    5  N   UNL     1      -9.887   6.898  66.168  1.00  0.00    -0.409 NA 
HETATM    6  N   UNL     1      -9.230   8.932  67.081  1.00  0.00    -0.136 NA 
HETATM    7  H1  UNL     1     -10.637   7.309  65.612  1.00  0.00     0.000 HD 
HETATM    8  H2  UNL     1      -9.749   5.888  66.130  1.00  0.00     0.000 HD 
HETATM    9  H   UNL     1      -8.665   9.402  67.788  1.00  0.00     0.000 HD 
ENDROOT
BRANCH   6  10
HETATM   10  C   UNL     1     -10.156   9.712  66.266  1.00  0.00    -0.252 C  
BRANCH  10  11
HETATM   11  C   UNL     1      -9.959  11.210  66.520  1.00  0.00    -0.214 C  
HETATM   12  C   UNL     1      -8.625  11.466  67.213  1.00  0.00    -0.146 C  
HETATM   13  O   UNL     1      -8.391  12.876  67.337  1.00  0.00    -0.171 OA 
HETATM   14  C   UNL     1      -9.510  13.535  67.780  1.00  0.00    -0.216 A  
HETATM   15  C   UNL     1     -10.779  12.953  67.815  1.00  0.00    -0.224 A  
HETATM   16  O   UNL     1     -11.034  11.683  67.360  1.00  0.00    -0.231 OA 
HETATM   17  C   UNL     1     -11.860  13.667  68.327  1.00  0.00    -0.404 A  
HETATM   18  C   UNL     1     -11.681  14.982  68.761  1.00  0.00    -0.360 A  
HETATM   19  C   UNL     1     -10.420  15.580  68.685  1.00  0.00    -0.237 A  
HETATM   20  C   UNL     1      -9.332  14.853  68.197  1.00  0.00    -0.193 A  
ENDBRANCH  10  11
ENDBRANCH   6  10
TORSDOF 2
ENDMDL
MODEL      203
REMARK 921   NORMALIZED FREE ENERGY PREDICTED BY IDOCK:   -3.10 KCAL/MOL
REMARK 922        TOTAL FREE ENERGY PREDICTED BY IDOCK:   -3.60 KCAL/MOL
REMARK 923 INTER-LIGAND FREE ENERGY PREDICTED BY IDOCK:   -3.46 KCAL/MOL
REMARK 924 INTRA-LIGAND FREE ENERGY PREDICTED BY IDOCK:   -0.14 KCAL/MOL
REMARK 927      BINDING AFFINITY PREDICTED BY RF-SCORE:    0.00 PKD
ROOT
HETATM    1  N   UNL     1     -10.908   9.966  66.910  1.00  0.00    -0.131 NA 
HETATM    2  C   UNL     1     -10.039  10.601  67.717  1.00  0.00    -0.174 C  
HETATM    3  H2  UNL     1     -11.396   9.144  67.269  1.00  0.00     0.000 HD 
HETATM    4  H1  UNL     1     -11.099  10.271  65.956  1.00  0.00     0.000 HD 
HETATM    5  N   UNL     1      -9.798  10.218  68.918  1.00  0.00    -0.185 NA 
HETATM    6  N   UNL     1      -9.419  11.641  67.119  1.00  0.00    -0.175 NA 
HETATM    7  H1  UNL     1      -9.140  10.700  69.529  1.00  0.00     0.000 HD 
HETATM    8  H2  UNL     1     -10.286   9.396  69.276  1.00  0.00     0.000 HD 
HETATM    9  H   UNL     1      -9.562  11.806  66.123  1.00  0.00     0.000 HD 
ENDROOT
BRANCH   6  10
HETATM   10  C   UNL     1      -8.546  12.532  67.878  1.00  0.00    -0.179 C  
BRANCH  10  11
HETATM   11  C   UNL     1      -9.048  13.976  67.785  1.00  0.00    -0.192 C  
HETATM   12  C   UNL     1     -10.316  14.051  66.941  1.00  0.00    -0.269 C  
HETATM   13  O   UNL     1     -10.848  15.383  66.960  1.00  0.00    -0.315 OA 
HETATM   14  C   UNL     1      -9.865  16.322  66.771  1.00  0.00    -0.245 A  
HETATM   15  C   UNL     1      -8.500  16.029  66.850  1.00  0.00    -0.241 A  
HETATM   16  O   UNL     1      -8.018  14.786  67.176  1.00  0.00    -0.198 OA 
HETATM   17  C   UNL     1      -7.559  17.023  66.595  1.00  0.00    -0.298 A  
HETATM   18  C   UNL     1      -7.980  18.322  66.305  1.00  0.00    -0.267 A  
HETATM   19  C   UNL     1      -9.344  18.625  66.269  1.00  0.00    -0.251 A  
HETATM   20  C   UNL     1     -10.287  17.621  66.498  1.00  0.00    -0.337 A  
ENDBRANCH  10  11
ENDBRANCH   6  10
TORSDOF 2
ENDMDL
MODEL      204
REMARK 921   NORMALIZED FREE ENERGY PREDICTED BY IDOCK:   -3.07 KCAL/MOL
REMARK 922        TOTAL FREE ENERGY PREDICTED BY IDOCK:   -3.57 KCAL/MOL
REMARK 923 INTER-LIGAND FREE ENERGY PREDICTED BY IDOCK:   -3.45 KCAL/MOL
REMARK 924 INTRA-LIGAND FREE ENERGY PREDICTED BY IDOCK:   -0.12 KCAL/MOL
REMARK 927      BINDING AFFINITY PREDICTED BY RF-SCORE:    0.00 PKD
ROOT
HETATM    1  N   UNL     1     -13.058   8.528  72.841  1.00  0.00    -0.701 NA 
HETATM    2  C   UNL     1     -13.086   7.858  71.675  1.00  0.00    -0.332 C  
HETATM    3  H2  UNL     1     -13.942   8.830  73.252  1.00  0.00     0.000 HD 
HETATM    4  H1  UNL     1     -12.191   8.747  73.330  1.00  0.00     0.000 HD 
HETATM    5  N   UNL     1     -14.177   7.582  71.058  1.00  0.00    -0.641 NA 
HETATM    6  N   UNL     1     -11.857   7.555  71.204  1.00  0.00    -0.293 NA 
HETATM    7  H1  UNL     1     -14.199   7.074  70.174  1.00  0.00     0.000 HD 
HETATM    8  H2  UNL     1     -15.061   7.884  71.469  1.00  0.00     0.000 HD 
HETATM    9  H   UNL     1     -11.033   7.921  71.680  1.00  0.00     0.000 HD 
ENDROOT
BRANCH   6  10
HETATM   10  C   UNL     1     -11.692   6.712  70.024  1.00  0.00    -0.317 C  
BRANCH  10  11
HETATM   11  C   UNL     1     -10.384   5.920  70.113  1.00  0.00    -0.241 C  
HETATM   12  C   UNL     1      -9.192   6.812  69.780  1.00  0.00    -0.146 C  
HETATM   13  O   UNL     1      -7.965   6.100  69.985  1.00  0.00    -0.106 OA 
HETATM   14  C   UNL     1      -8.021   4.835  69.454  1.00  0.00    -0.070 A  
HETATM   15  C   UNL     1      -9.211   4.230  69.040  1.00  0.00    -0.145 A  
HETATM   16  O   UNL     1     -10.440   4.825  69.174  1.00  0.00    -0.066 OA 
HETATM   17  C   UNL     1      -9.183   2.963  68.461  1.00  0.00    -0.239 A  
HETATM   18  C   UNL     1      -7.971   2.281  68.339  1.00  0.00    -0.064 A  
HETATM   19  C   UNL     1      -6.787   2.868  68.793  1.00  0.00    -0.041 A  
HETATM   20  C   UNL     1      -6.812   4.149  69.347  1.00  0.00    -0.045 A  
ENDBRANCH  10  11
ENDBRANCH   6  10
TORSDOF 2
ENDMDL
MODEL      205
REMARK 921   NORMALIZED FREE ENERGY PREDICTED BY IDOCK:   -3.06 KCAL/MOL
REMARK 922        TOTAL FREE ENERGY PREDICTED BY IDOCK:   -3.56 KCAL/MOL
REMARK 923 INTER-LIGAND FREE ENERGY PREDICTED BY IDOCK:   -3.29 KCAL/MOL
REMARK 924 INTRA-LIGAND FREE ENERGY PREDICTED BY IDOCK:   -0.27 KCAL/MOL
REMARK 927      BINDING AFFINITY PREDICTED BY RF-SCORE:    0.00 PKD
ROOT
HETATM    1  N   UNL     1      -5.812   8.540  73.226  1.00  0.00    -0.089 NA 
HETATM    2  C   UNL     1      -7.099   8.166  73.122  1.00  0.00    -0.118 C  
HETATM    3  H2  UNL     1      -5.513   9.033  74.069  1.00  0.00     0.000 HD 
HETATM    4  H1  UNL     1      -5.122   8.353  72.499  1.00  0.00     0.000 HD 
HETATM    5  N   UNL     1      -7.968   8.402  74.037  1.00  0.00    -0.366 NA 
HETATM    6  N   UNL     1      -7.387   7.569  71.945  1.00  0.00    -0.070 NA 
HETATM    7  H1  UNL     1      -8.944   8.118  73.958  1.00  0.00     0.000 HD 
HETATM    8  H2  UNL     1      -7.669   8.894  74.879  1.00  0.00     0.000 HD 
HETATM    9  H   UNL     1      -6.679   7.534  71.213  1.00  0.00     0.000 HD 
ENDROOT
BRANCH   6  10
HETATM   10  C   UNL     1      -8.699   6.973  71.707  1.00  0.00    -0.122 C  
BRANCH  10  11
HETATM   11  C   UNL     1      -9.377   7.641  70.506  1.00  0.00    -0.163 C  
HETATM   12  C   UNL     1      -8.345   8.018  69.448  1.00  0.00    -0.131 C  
HETATM   13  O   UNL     1      -8.998   8.527  68.277  1.00  0.00    -0.138 OA 
HETATM   14  C   UNL     1      -9.982   9.428  68.600  1.00  0.00    -0.173 A  
HETATM   15  C   UNL     1     -10.474   9.593  69.897  1.00  0.00    -0.253 A  
HETATM   16  O   UNL     1     -10.055   8.831  70.960  1.00  0.00    -0.202 OA 
HETATM   17  C   UNL     1     -11.438  10.564  70.158  1.00  0.00    -0.405 A  
HETATM   18  C   UNL     1     -11.944  11.340  69.114  1.00  0.00    -0.405 A  
HETATM   19  C   UNL     1     -11.483  11.146  67.809  1.00  0.00    -0.349 A  
HETATM   20  C   UNL     1     -10.497  10.191  67.553  1.00  0.00    -0.304 A  
ENDBRANCH  10  11
ENDBRANCH   6  10
TORSDOF 2
ENDMDL
MODEL      206
REMARK 921   NORMALIZED FREE ENERGY PREDICTED BY IDOCK:   -3.05 KCAL/MOL
REMARK 922        TOTAL FREE ENERGY PREDICTED BY IDOCK:   -3.55 KCAL/MOL
REMARK 923 INTER-LIGAND FREE ENERGY PREDICTED BY IDOCK:   -3.35 KCAL/MOL
REMARK 924 INTRA-LIGAND FREE ENERGY PREDICTED BY IDOCK:   -0.20 KCAL/MOL
REMARK 927      BINDING AFFINITY PREDICTED BY RF-SCORE:    0.00 PKD
ROOT
HETATM    1  N   UNL     1      -6.563   9.929  70.374  1.00  0.00    -0.110 NA 
HETATM    2  C   UNL     1      -7.340   9.518  69.356  1.00  0.00    -0.084 C  
HETATM    3  H2  UNL     1      -5.586   9.637  70.392  1.00  0.00     0.000 HD 
HETATM    4  H1  UNL     1      -6.910  10.520  71.129  1.00  0.00     0.000 HD 
HETATM    5  N   UNL     1      -6.903   8.774  68.406  1.00  0.00    -0.064 NA 
HETATM    6  N   UNL     1      -8.623   9.925  69.466  1.00  0.00    -0.170 NA 
HETATM    7  H1  UNL     1      -7.491   8.463  67.634  1.00  0.00     0.000 HD 
HETATM    8  H2  UNL     1      -5.925   8.482  68.423  1.00  0.00     0.000 HD 
HETATM    9  H   UNL     1      -8.928  10.401  70.314  1.00  0.00     0.000 HD 
ENDROOT
BRANCH   6  10
HETATM   10  C   UNL     1      -9.579   9.691  68.388  1.00  0.00    -0.144 C  
BRANCH  10  11
HETATM   11  C   UNL     1     -10.290  10.996  68.014  1.00  0.00    -0.185 C  
HETATM   12  C   UNL     1     -11.266  10.766  66.865  1.00  0.00    -0.032 C  
HETATM   13  O   UNL     1     -12.016  11.960  66.603  1.00  0.00    -0.601 OA 
HETATM   14  C   UNL     1     -11.207  13.069  66.580  1.00  0.00    -0.302 A  
HETATM   15  C   UNL     1      -9.889  13.066  67.044  1.00  0.00    -0.238 A  
HETATM   16  O   UNL     1      -9.298  11.966  67.614  1.00  0.00    -0.175 OA 
HETATM   17  C   UNL     1      -9.112  14.217  66.940  1.00  0.00    -0.260 A  
HETATM   18  C   UNL     1      -9.666  15.385  66.415  1.00  0.00    -0.311 A  
HETATM   19  C   UNL     1     -10.998  15.401  65.991  1.00  0.00    -0.286 A  
HETATM   20  C   UNL     1     -11.768  14.239  66.070  1.00  0.00    -0.384 A  
ENDBRANCH  10  11
ENDBRANCH   6  10
TORSDOF 2
ENDMDL
MODEL      207
REMARK 921   NORMALIZED FREE ENERGY PREDICTED BY IDOCK:   -2.97 KCAL/MOL
REMARK 922        TOTAL FREE ENERGY PREDICTED BY IDOCK:   -3.45 KCAL/MOL
REMARK 923 INTER-LIGAND FREE ENERGY PREDICTED BY IDOCK:   -3.26 KCAL/MOL
REMARK 924 INTRA-LIGAND FREE ENERGY PREDICTED BY IDOCK:   -0.19 KCAL/MOL
REMARK 927      BINDING AFFINITY PREDICTED BY RF-SCORE:    0.00 PKD
ROOT
HETATM    1  N   UNL     1      -9.018   8.626  73.259  1.00  0.00    -0.250 NA 
HETATM    2  C   UNL     1      -9.910   7.624  73.161  1.00  0.00    -0.279 C  
HETATM    3  H2  UNL     1      -9.337   9.533  73.598  1.00  0.00     0.000 HD 
HETATM    4  H1  UNL     1      -8.036   8.516  73.008  1.00  0.00     0.000 HD 
HETATM    5  N   UNL     1     -11.146   7.762  73.477  1.00  0.00    -0.419 NA 
HETATM    6  N   UNL     1      -9.384   6.488  72.654  1.00  0.00    -0.141 NA 
HETATM    7  H1  UNL     1     -11.823   7.003  73.403  1.00  0.00     0.000 HD 
HETATM    8  H2  UNL     1     -11.466   8.670  73.816  1.00  0.00     0.000 HD 
HETATM    9  H   UNL     1      -8.427   6.491  72.302  1.00  0.00     0.000 HD 
ENDROOT
BRANCH   6  10
HETATM   10  C   UNL     1     -10.166   5.257  72.603  1.00  0.00    -0.184 C  
BRANCH  10  11
HETATM   11  C   UNL     1     -10.377   4.820  71.150  1.00  0.00    -0.118 C  
HETATM   12  C   UNL     1      -9.240   3.914  70.690  1.00  0.00    -0.127 C  
HETATM   13  O   UNL     1      -9.506   3.410  69.374  1.00  0.00    -0.171 OA 
HETATM   14  C   UNL     1      -9.950   4.402  68.535  1.00  0.00     0.000 A  
HETATM   15  C   UNL     1     -10.367   5.657  68.985  1.00  0.00    -0.243 A  
HETATM   16  O   UNL     1     -10.421   5.997  70.314  1.00  0.00    -0.206 OA 
HETATM   17  C   UNL     1     -10.755   6.632  68.069  1.00  0.00    -0.330 A  
HETATM   18  C   UNL     1     -10.772   6.337  66.705  1.00  0.00    -0.364 A  
HETATM   19  C   UNL     1     -10.397   5.067  66.258  1.00  0.00    -0.332 A  
HETATM   20  C   UNL     1      -9.981   4.100  67.174  1.00  0.00    -0.102 A  
ENDBRANCH  10  11
ENDBRANCH   6  10
TORSDOF 2
ENDMDL
MODEL      208
REMARK 921   NORMALIZED FREE ENERGY PREDICTED BY IDOCK:   -2.96 KCAL/MOL
REMARK 922        TOTAL FREE ENERGY PREDICTED BY IDOCK:   -3.45 KCAL/MOL
REMARK 923 INTER-LIGAND FREE ENERGY PREDICTED BY IDOCK:   -3.26 KCAL/MOL
REMARK 924 INTRA-LIGAND FREE ENERGY PREDICTED BY IDOCK:   -0.19 KCAL/MOL
REMARK 927      BINDING AFFINITY PREDICTED BY RF-SCORE:    0.00 PKD
ROOT
HETATM    1  N   UNL     1     -13.270   7.798  72.159  1.00  0.00    -0.508 NA 
HETATM    2  C   UNL     1     -11.994   7.632  71.767  1.00  0.00    -0.299 C  
HETATM    3  H2  UNL     1     -13.917   7.015  72.059  1.00  0.00     0.000 HD 
HETATM    4  H1  UNL     1     -13.618   8.673  72.550  1.00  0.00     0.000 HD 
HETATM    5  N   UNL     1     -11.556   6.531  71.275  1.00  0.00    -0.315 NA 
HETATM    6  N   UNL     1     -11.246   8.749  71.900  1.00  0.00    -0.346 NA 
HETATM    7  H1  UNL     1     -10.588   6.406  70.979  1.00  0.00     0.000 HD 
HETATM    8  H2  UNL     1     -12.203   5.748  71.176  1.00  0.00     0.000 HD 
HETATM    9  H   UNL     1     -11.694   9.624  72.174  1.00  0.00     0.000 HD 
ENDROOT
BRANCH   6  10
HETATM   10  C   UNL     1      -9.808   8.722  71.656  1.00  0.00    -0.308 C  
BRANCH  10  11
HETATM   11  C   UNL     1      -9.456   9.591  70.443  1.00  0.00    -0.262 C  
HETATM   12  C   UNL     1      -9.726   8.836  69.146  1.00  0.00    -0.175 C  
HETATM   13  O   UNL     1      -9.513   9.694  68.017  1.00  0.00    -0.132 OA 
HETATM   14  C   UNL     1      -8.350  10.412  68.142  1.00  0.00    -0.117 A  
HETATM   15  C   UNL     1      -7.634  10.510  69.338  1.00  0.00    -0.145 A  
HETATM   16  O   UNL     1      -8.057   9.940  70.513  1.00  0.00    -0.230 OA 
HETATM   17  C   UNL     1      -6.433  11.215  69.376  1.00  0.00    -0.100 A  
HETATM   18  C   UNL     1      -5.970  11.861  68.229  1.00  0.00    -0.050 A  
HETATM   19  C   UNL     1      -6.708  11.799  67.043  1.00  0.00    -0.139 A  
HETATM   20  C   UNL     1      -7.897  11.070  67.000  1.00  0.00    -0.137 A  
ENDBRANCH  10  11
ENDBRANCH   6  10
TORSDOF 2
ENDMDL
MODEL      209
REMARK 921   NORMALIZED FREE ENERGY PREDICTED BY IDOCK:   -2.87 KCAL/MOL
REMARK 922        TOTAL FREE ENERGY PREDICTED BY IDOCK:   -3.35 KCAL/MOL
REMARK 923 INTER-LIGAND FREE ENERGY PREDICTED BY IDOCK:   -3.22 KCAL/MOL
REMARK 924 INTRA-LIGAND FREE ENERGY PREDICTED BY IDOCK:   -0.13 KCAL/MOL
REMARK 927      BINDING AFFINITY PREDICTED BY RF-SCORE:    0.00 PKD
ROOT
HETATM    1  N   UNL     1      -6.763   9.985  70.135  1.00  0.00    -0.111 NA 
HETATM    2  C   UNL     1      -6.915  10.524  68.913  1.00  0.00    -0.070 C  
HETATM    3  H2  UNL     1      -6.022   9.298  70.278  1.00  0.00     0.000 HD 
HETATM    4  H1  UNL     1      -7.357  10.235  70.925  1.00  0.00     0.000 HD 
HETATM    5  N   UNL     1      -6.167  10.210  67.918  1.00  0.00    -0.056 NA 
HETATM    6  N   UNL     1      -7.955  11.381  68.832  1.00  0.00    -0.283 NA 
HETATM    7  H1  UNL     1      -6.282  10.619  66.991  1.00  0.00     0.000 HD 
HETATM    8  H2  UNL     1      -5.426   9.523  68.060  1.00  0.00     0.000 HD 
HETATM    9  H   UNL     1      -8.586  11.481  69.628  1.00  0.00     0.000 HD 
ENDROOT
BRANCH   6  10
HETATM   10  C   UNL     1      -8.190  12.165  67.624  1.00  0.00    -0.163 C  
BRANCH  10  11
HETATM   11  C   UNL     1      -8.595  13.598  67.988  1.00  0.00    -0.175 C  
HETATM   12  C   UNL     1     -10.078  13.665  68.337  1.00  0.00    -0.241 C  
HETATM   13  O   UNL     1     -10.422  14.979  68.795  1.00  0.00    -0.224 OA 
HETATM   14  C   UNL     1      -9.881  15.951  67.991  1.00  0.00    -0.218 A  
HETATM   15  C   UNL     1      -8.890  15.695  67.040  1.00  0.00    -0.225 A  
HETATM   16  O   UNL     1      -8.328  14.456  66.858  1.00  0.00    -0.185 OA 
HETATM   17  C   UNL     1      -8.426  16.723  66.223  1.00  0.00    -0.342 A  
HETATM   18  C   UNL     1      -8.918  18.019  66.388  1.00  0.00    -0.249 A  
HETATM   19  C   UNL     1      -9.878  18.284  67.369  1.00  0.00    -0.323 A  
HETATM   20  C   UNL     1     -10.363  17.247  68.169  1.00  0.00    -0.357 A  
ENDBRANCH  10  11
ENDBRANCH   6  10
TORSDOF 2
ENDMDL
MODEL      210
REMARK 921   NORMALIZED FREE ENERGY PREDICTED BY IDOCK:   -2.83 KCAL/MOL
REMARK 922        TOTAL FREE ENERGY PREDICTED BY IDOCK:   -3.30 KCAL/MOL
REMARK 923 INTER-LIGAND FREE ENERGY PREDICTED BY IDOCK:   -3.09 KCAL/MOL
REMARK 924 INTRA-LIGAND FREE ENERGY PREDICTED BY IDOCK:   -0.20 KCAL/MOL
REMARK 927      BINDING AFFINITY PREDICTED BY RF-SCORE:    0.00 PKD
ROOT
HETATM    1  N   UNL     1     -12.695  14.649  69.735  1.00  0.00    -0.574 NA 
HETATM    2  C   UNL     1     -12.012  14.214  68.661  1.00  0.00    -0.338 C  
HETATM    3  H2  UNL     1     -13.302  13.992  70.226  1.00  0.00     0.000 HD 
HETATM    4  H1  UNL     1     -12.631  15.606  70.078  1.00  0.00     0.000 HD 
HETATM    5  N   UNL     1     -12.092  13.009  68.228  1.00  0.00    -0.250 NA 
HETATM    6  N   UNL     1     -11.282  15.182  68.065  1.00  0.00    -0.311 NA 
HETATM    7  H1  UNL     1     -11.574  12.679  67.414  1.00  0.00     0.000 HD 
HETATM    8  H2  UNL     1     -12.699  12.352  68.719  1.00  0.00     0.000 HD 
HETATM    9  H   UNL     1     -11.369  16.146  68.385  1.00  0.00     0.000 HD 
ENDROOT
BRANCH   6  10
HETATM   10  C   UNL     1     -10.370  14.867  66.970  1.00  0.00    -0.264 C  
BRANCH  10  11
HETATM   11  C   UNL     1      -9.140  14.122  67.498  1.00  0.00    -0.195 C  
HETATM   12  C   UNL     1      -7.860  14.853  67.106  1.00  0.00    -0.170 C  
HETATM   13  O   UNL     1      -6.722  14.220  67.707  1.00  0.00    -0.151 OA 
HETATM   14  C   UNL     1      -6.777  12.855  67.576  1.00  0.00    -0.154 A  
HETATM   15  C   UNL     1      -7.928  12.169  67.178  1.00  0.00    -0.170 A  
HETATM   16  O   UNL     1      -9.125  12.794  66.933  1.00  0.00    -0.213 OA 
HETATM   17  C   UNL     1      -7.893  10.786  67.017  1.00  0.00    -0.121 A  
HETATM   18  C   UNL     1      -6.721  10.082  67.298  1.00  0.00    -0.074 A  
HETATM   19  C   UNL     1      -5.582  10.763  67.737  1.00  0.00    -0.043 A  
HETATM   20  C   UNL     1      -5.610  12.152  67.872  1.00  0.00    -0.069 A  
ENDBRANCH  10  11
ENDBRANCH   6  10
TORSDOF 2
ENDMDL
MODEL      211
REMARK 921   NORMALIZED FREE ENERGY PREDICTED BY IDOCK:   -2.82 KCAL/MOL
REMARK 922        TOTAL FREE ENERGY PREDICTED BY IDOCK:   -3.28 KCAL/MOL
REMARK 923 INTER-LIGAND FREE ENERGY PREDICTED BY IDOCK:   -3.12 KCAL/MOL
REMARK 924 INTRA-LIGAND FREE ENERGY PREDICTED BY IDOCK:   -0.16 KCAL/MOL
REMARK 927      BINDING AFFINITY PREDICTED BY RF-SCORE:    0.00 PKD
ROOT
HETATM    1  N   UNL     1     -11.805  11.493  67.401  1.00  0.00    -0.620 NA 
HETATM    2  C   UNL     1     -11.231  11.048  68.533  1.00  0.00    -0.268 C  
HETATM    3  H2  UNL     1     -12.043  12.483  67.330  1.00  0.00     0.000 HD 
HETATM    4  H1  UNL     1     -12.011  10.883  66.610  1.00  0.00     0.000 HD 
HETATM    5  N   UNL     1     -10.972  11.816  69.528  1.00  0.00    -0.454 NA 
HETATM    6  N   UNL     1     -11.008   9.716  68.530  1.00  0.00    -0.432 NA 
HETATM    7  H1  UNL     1     -10.537  11.479  70.386  1.00  0.00     0.000 HD 
HETATM    8  H2  UNL     1     -11.210  12.805  69.458  1.00  0.00     0.000 HD 
HETATM    9  H   UNL     1     -11.360   9.149  67.759  1.00  0.00     0.000 HD 
ENDROOT
BRANCH   6  10
HETATM   10  C   UNL     1     -10.269   9.077  69.615  1.00  0.00    -0.206 C  
BRANCH  10  11
HETATM   11  C   UNL     1      -9.445   7.902  69.078  1.00  0.00    -0.151 C  
HETATM   12  C   UNL     1     -10.009   7.413  67.748  1.00  0.00    -0.167 C  
HETATM   13  O   UNL     1      -9.163   6.398  67.192  1.00  0.00    -0.120 OA 
HETATM   14  C   UNL     1      -8.794   5.475  68.139  1.00  0.00    -0.105 A  
HETATM   15  C   UNL     1      -8.974   5.671  69.511  1.00  0.00    -0.118 A  
HETATM   16  O   UNL     1      -9.490   6.827  70.042  1.00  0.00    -0.158 OA 
HETATM   17  C   UNL     1      -8.622   4.667  70.410  1.00  0.00    -0.108 A  
HETATM   18  C   UNL     1      -8.046   3.485  69.942  1.00  0.00    -0.060 A  
HETATM   19  C   UNL     1      -7.826   3.307  68.573  1.00  0.00    -0.059 A  
HETATM   20  C   UNL     1      -8.204   4.302  67.671  1.00  0.00    -0.098 A  
ENDBRANCH  10  11
ENDBRANCH   6  10
TORSDOF 2
ENDMDL
MODEL      212
REMARK 921   NORMALIZED FREE ENERGY PREDICTED BY IDOCK:   -2.81 KCAL/MOL
REMARK 922        TOTAL FREE ENERGY PREDICTED BY IDOCK:   -3.28 KCAL/MOL
REMARK 923 INTER-LIGAND FREE ENERGY PREDICTED BY IDOCK:   -2.90 KCAL/MOL
REMARK 924 INTRA-LIGAND FREE ENERGY PREDICTED BY IDOCK:   -0.38 KCAL/MOL
REMARK 927      BINDING AFFINITY PREDICTED BY RF-SCORE:    0.00 PKD
ROOT
HETATM    1  N   UNL     1      -7.780   7.440  65.654  1.00  0.00    -0.098 NA 
HETATM    2  C   UNL     1      -7.655   8.575  66.364  1.00  0.00    -0.091 C  
HETATM    3  H2  UNL     1      -8.104   7.501  64.688  1.00  0.00     0.000 HD 
HETATM    4  H1  UNL     1      -7.564   6.521  66.040  1.00  0.00     0.000 HD 
HETATM    5  N   UNL     1      -7.927   9.732  65.878  1.00  0.00    -0.109 NA 
HETATM    6  N   UNL     1      -7.268   8.366  67.640  1.00  0.00    -0.087 NA 
HETATM    7  H1  UNL     1      -7.832  10.592  66.416  1.00  0.00     0.000 HD 
HETATM    8  H2  UNL     1      -8.251   9.793  64.912  1.00  0.00     0.000 HD 
HETATM    9  H   UNL     1      -7.198   7.412  67.994  1.00  0.00     0.000 HD 
ENDROOT
BRANCH   6  10
HETATM   10  C   UNL     1      -6.948   9.486  68.521  1.00  0.00    -0.065 C  
BRANCH  10  11
HETATM   11  C   UNL     1      -8.136   9.800  69.436  1.00  0.00    -0.129 C  
HETATM   12  C   UNL     1      -8.948   8.540  69.714  1.00  0.00    -0.145 C  
HETATM   13  O   UNL     1      -9.983   8.815  70.668  1.00  0.00    -0.180 OA 
HETATM   14  C   UNL     1     -10.642   9.982  70.374  1.00  0.00    -0.280 A  
HETATM   15  C   UNL     1     -10.170  10.917  69.448  1.00  0.00    -0.122 A  
HETATM   16  O   UNL     1      -8.975  10.778  68.786  1.00  0.00    -0.158 OA 
HETATM   17  C   UNL     1     -10.921  12.055  69.163  1.00  0.00    -0.231 A  
HETATM   18  C   UNL     1     -12.121  12.283  69.836  1.00  0.00    -0.319 A  
HETATM   19  C   UNL     1     -12.572  11.370  70.794  1.00  0.00    -0.409 A  
HETATM   20  C   UNL     1     -11.833  10.216  71.059  1.00  0.00    -0.475 A  
ENDBRANCH  10  11
ENDBRANCH   6  10
TORSDOF 2
ENDMDL
MODEL      213
REMARK 921   NORMALIZED FREE ENERGY PREDICTED BY IDOCK:   -2.81 KCAL/MOL
REMARK 922        TOTAL FREE ENERGY PREDICTED BY IDOCK:   -3.28 KCAL/MOL
REMARK 923 INTER-LIGAND FREE ENERGY PREDICTED BY IDOCK:   -3.12 KCAL/MOL
REMARK 924 INTRA-LIGAND FREE ENERGY PREDICTED BY IDOCK:   -0.16 KCAL/MOL
REMARK 927      BINDING AFFINITY PREDICTED BY RF-SCORE:    0.00 PKD
ROOT
HETATM    1  N   UNL     1      -9.374  13.770  68.765  1.00  0.00    -0.395 NA 
HETATM    2  C   UNL     1      -9.499  12.803  67.839  1.00  0.00    -0.208 C  
HETATM    3  H2  UNL     1      -9.532  14.738  68.484  1.00  0.00     0.000 HD 
HETATM    4  H1  UNL     1      -9.127  13.575  69.735  1.00  0.00     0.000 HD 
HETATM    5  N   UNL     1      -9.810  13.047  66.617  1.00  0.00    -0.246 NA 
HETATM    6  N   UNL     1      -9.219  11.570  68.313  1.00  0.00    -0.181 NA 
HETATM    7  H1  UNL     1      -9.906  12.313  65.915  1.00  0.00     0.000 HD 
HETATM    8  H2  UNL     1      -9.968  14.015  66.337  1.00  0.00     0.000 HD 
HETATM    9  H   UNL     1      -8.851  11.467  69.259  1.00  0.00     0.000 HD 
ENDROOT
BRANCH   6  10
HETATM   10  C   UNL     1      -9.433  10.383  67.491  1.00  0.00    -0.149 C  
BRANCH  10  11
HETATM   11  C   UNL     1      -9.917   9.215  68.358  1.00  0.00    -0.181 C  
HETATM   12  C   UNL     1      -9.463   9.395  69.803  1.00  0.00    -0.202 C  
HETATM   13  O   UNL     1     -10.022   8.366  70.631  1.00  0.00    -0.181 OA 
HETATM   14  C   UNL     1      -9.908   7.130  70.045  1.00  0.00    -0.178 A  
HETATM   15  C   UNL     1      -9.568   6.947  68.702  1.00  0.00    -0.133 A  
HETATM   16  O   UNL     1      -9.366   7.989  67.831  1.00  0.00    -0.137 OA 
HETATM   17  C   UNL     1      -9.421   5.660  68.190  1.00  0.00    -0.125 A  
HETATM   18  C   UNL     1      -9.659   4.554  69.008  1.00  0.00    -0.245 A  
HETATM   19  C   UNL     1     -10.042   4.737  70.340  1.00  0.00    -0.301 A  
HETATM   20  C   UNL     1     -10.163   6.028  70.859  1.00  0.00    -0.259 A  
ENDBRANCH  10  11
ENDBRANCH   6  10
TORSDOF 2
ENDMDL
MODEL      214
REMARK 921   NORMALIZED FREE ENERGY PREDICTED BY IDOCK:   -2.81 KCAL/MOL
REMARK 922        TOTAL FREE ENERGY PREDICTED BY IDOCK:   -3.28 KCAL/MOL
REMARK 923 INTER-LIGAND FREE ENERGY PREDICTED BY IDOCK:   -3.45 KCAL/MOL
REMARK 924 INTRA-LIGAND FREE ENERGY PREDICTED BY IDOCK:    0.17 KCAL/MOL
REMARK 927      BINDING AFFINITY PREDICTED BY RF-SCORE:    0.00 PKD
ROOT
HETATM    1  N   UNL     1      -5.379   8.487  73.414  1.00  0.00    -0.060 NA 
HETATM    2  C   UNL     1      -6.685   8.314  73.684  1.00  0.00    -0.122 C  
HETATM    3  H2  UNL     1      -4.874   9.227  73.903  1.00  0.00     0.000 HD 
HETATM    4  H1  UNL     1      -4.874   7.911  72.742  1.00  0.00     0.000 HD 
HETATM    5  N   UNL     1      -7.322   9.039  74.530  1.00  0.00    -0.409 NA 
HETATM    6  N   UNL     1      -7.259   7.341  72.943  1.00  0.00    -0.072 NA 
HETATM    7  H1  UNL     1      -8.312   8.908  74.735  1.00  0.00     0.000 HD 
HETATM    8  H2  UNL     1      -6.816   9.779  75.018  1.00  0.00     0.000 HD 
HETATM    9  H   UNL     1      -6.724   6.896  72.197  1.00  0.00     0.000 HD 
ENDROOT
BRANCH   6  10
HETATM   10  C   UNL     1      -8.633   6.918  73.194  1.00  0.00    -0.118 C  
BRANCH  10  11
HETATM   11  C   UNL     1      -9.583   7.566  72.181  1.00  0.00    -0.152 C  
HETATM   12  C   UNL     1      -8.905   8.740  71.482  1.00  0.00    -0.225 C  
HETATM   13  O   UNL     1      -9.753   9.263  70.451  1.00  0.00    -0.207 OA 
HETATM   14  C   UNL     1     -11.047   9.404  70.887  1.00  0.00    -0.319 A  
HETATM   15  C   UNL     1     -11.524   8.835  72.071  1.00  0.00    -0.371 A  
HETATM   16  O   UNL     1     -10.754   8.038  72.882  1.00  0.00    -0.355 OA 
HETATM   17  C   UNL     1     -12.837   9.065  72.475  1.00  0.00    -0.408 A  
HETATM   18  C   UNL     1     -13.688   9.825  71.672  1.00  0.00    -0.282 A  
HETATM   19  C   UNL     1     -13.224  10.358  70.466  1.00  0.00    -0.095 A  
HETATM   20  C   UNL     1     -11.900  10.150  70.075  1.00  0.00    -0.253 A  
ENDBRANCH  10  11
ENDBRANCH   6  10
TORSDOF 2
ENDMDL
MODEL      215
REMARK 921   NORMALIZED FREE ENERGY PREDICTED BY IDOCK:   -2.80 KCAL/MOL
REMARK 922        TOTAL FREE ENERGY PREDICTED BY IDOCK:   -3.27 KCAL/MOL
REMARK 923 INTER-LIGAND FREE ENERGY PREDICTED BY IDOCK:   -2.93 KCAL/MOL
REMARK 924 INTRA-LIGAND FREE ENERGY PREDICTED BY IDOCK:   -0.35 KCAL/MOL
REMARK 927      BINDING AFFINITY PREDICTED BY RF-SCORE:    0.00 PKD
ROOT
HETATM    1  N   UNL     1      -5.605   6.161  68.096  1.00  0.00    -0.011 NA 
HETATM    2  C   UNL     1      -5.845   7.254  68.842  1.00  0.00    -0.019 C  
HETATM    3  H2  UNL     1      -5.265   5.319  68.560  1.00  0.00     0.000 HD 
HETATM    4  H1  UNL     1      -5.749   6.140  67.087  1.00  0.00     0.000 HD 
HETATM    5  N   UNL     1      -5.664   7.281  70.112  1.00  0.00    -0.023 NA 
HETATM    6  N   UNL     1      -6.243   8.320  68.115  1.00  0.00    -0.050 NA 
HETATM    7  H1  UNL     1      -5.846   8.110  70.678  1.00  0.00     0.000 HD 
HETATM    8  H2  UNL     1      -5.323   6.438  70.576  1.00  0.00     0.000 HD 
HETATM    9  H   UNL     1      -6.237   8.264  67.096  1.00  0.00     0.000 HD 
ENDROOT
BRANCH   6  10
HETATM   10  C   UNL     1      -6.680   9.552  68.765  1.00  0.00    -0.052 C  
BRANCH  10  11
HETATM   11  C   UNL     1      -8.179   9.488  69.074  1.00  0.00    -0.113 C  
HETATM   12  C   UNL     1      -8.825  10.857  68.889  1.00  0.00    -0.138 C  
HETATM   13  O   UNL     1     -10.246  10.765  69.059  1.00  0.00    -0.197 OA 
HETATM   14  C   UNL     1     -10.573  10.016  70.163  1.00  0.00    -0.296 A  
HETATM   15  C   UNL     1      -9.655   9.213  70.844  1.00  0.00    -0.279 A  
HETATM   16  O   UNL     1      -8.352   9.057  70.442  1.00  0.00    -0.127 OA 
HETATM   17  C   UNL     1     -10.049   8.522  71.988  1.00  0.00    -0.386 A  
HETATM   18  C   UNL     1     -11.372   8.597  72.424  1.00  0.00    -0.353 A  
HETATM   19  C   UNL     1     -12.301   9.365  71.717  1.00  0.00    -0.471 A  
HETATM   20  C   UNL     1     -11.899  10.079  70.587  1.00  0.00    -0.411 A  
ENDBRANCH  10  11
ENDBRANCH   6  10
TORSDOF 2
ENDMDL
MODEL      216
REMARK 921   NORMALIZED FREE ENERGY PREDICTED BY IDOCK:   -2.80 KCAL/MOL
REMARK 922        TOTAL FREE ENERGY PREDICTED BY IDOCK:   -3.27 KCAL/MOL
REMARK 923 INTER-LIGAND FREE ENERGY PREDICTED BY IDOCK:   -2.95 KCAL/MOL
REMARK 924 INTRA-LIGAND FREE ENERGY PREDICTED BY IDOCK:   -0.32 KCAL/MOL
REMARK 927      BINDING AFFINITY PREDICTED BY RF-SCORE:    0.00 PKD
ROOT
HETATM    1  N   UNL     1      -8.957  13.754  68.735  1.00  0.00    -0.374 NA 
HETATM    2  C   UNL     1      -9.716  12.992  67.928  1.00  0.00    -0.218 C  
HETATM    3  H2  UNL     1      -9.190  13.798  69.727  1.00  0.00     0.000 HD 
HETATM    4  H1  UNL     1      -8.158  14.290  68.396  1.00  0.00     0.000 HD 
HETATM    5  N   UNL     1     -10.721  12.317  68.354  1.00  0.00    -0.226 NA 
HETATM    6  N   UNL     1      -9.343  13.051  66.632  1.00  0.00    -0.263 NA 
HETATM    7  H1  UNL     1     -11.297  11.739  67.742  1.00  0.00     0.000 HD 
HETATM    8  H2  UNL     1     -10.954  12.361  69.346  1.00  0.00     0.000 HD 
HETATM    9  H   UNL     1      -8.619  13.710  66.347  1.00  0.00     0.000 HD 
ENDROOT
BRANCH   6  10
HETATM   10  C   UNL     1      -9.962  12.186  65.632  1.00  0.00    -0.249 C  
BRANCH  10  11
HETATM   11  C   UNL     1      -9.205  10.858  65.534  1.00  0.00    -0.209 C  
HETATM   12  C   UNL     1      -9.410  10.222  64.164  1.00  0.00    -0.287 C  
HETATM   13  O   UNL     1      -8.601   9.044  64.035  1.00  0.00    -0.194 OA 
HETATM   14  C   UNL     1      -8.680   8.255  65.155  1.00  0.00    -0.054 A  
HETATM   15  C   UNL     1      -9.232   8.690  66.363  1.00  0.00    -0.193 A  
HETATM   16  O   UNL     1      -9.701   9.966  66.556  1.00  0.00    -0.182 OA 
HETATM   17  C   UNL     1      -9.325   7.814  67.442  1.00  0.00    -0.168 A  
HETATM   18  C   UNL     1      -8.822   6.517  67.330  1.00  0.00    -0.115 A  
HETATM   19  C   UNL     1      -8.230   6.095  66.136  1.00  0.00    -0.119 A  
HETATM   20  C   UNL     1      -8.163   6.965  65.046  1.00  0.00    -0.096 A  
ENDBRANCH  10  11
ENDBRANCH   6  10
TORSDOF 2
ENDMDL
MODEL      217
REMARK 921   NORMALIZED FREE ENERGY PREDICTED BY IDOCK:   -2.79 KCAL/MOL
REMARK 922        TOTAL FREE ENERGY PREDICTED BY IDOCK:   -3.26 KCAL/MOL
REMARK 923 INTER-LIGAND FREE ENERGY PREDICTED BY IDOCK:   -2.95 KCAL/MOL
REMARK 924 INTRA-LIGAND FREE ENERGY PREDICTED BY IDOCK:   -0.30 KCAL/MOL
REMARK 927      BINDING AFFINITY PREDICTED BY RF-SCORE:    0.00 PKD
ROOT
HETATM    1  N   UNL     1     -10.923   9.412  71.807  1.00  0.00    -0.323 NA 
HETATM    2  C   UNL     1     -11.257   9.316  70.508  1.00  0.00    -0.265 C  
HETATM    3  H2  UNL     1     -10.849   8.556  72.357  1.00  0.00     0.000 HD 
HETATM    4  H1  UNL     1     -10.740  10.305  72.265  1.00  0.00     0.000 HD 
HETATM    5  N   UNL     1     -11.486   8.193  69.932  1.00  0.00    -0.449 NA 
HETATM    6  N   UNL     1     -11.372  10.514  69.896  1.00  0.00    -0.286 NA 
HETATM    7  H1  UNL     1     -11.739   8.120  68.946  1.00  0.00     0.000 HD 
HETATM    8  H2  UNL     1     -11.413   7.337  70.482  1.00  0.00     0.000 HD 
HETATM    9  H   UNL     1     -11.304  11.369  70.449  1.00  0.00     0.000 HD 
ENDROOT
BRANCH   6  10
HETATM   10  C   UNL     1     -11.592  10.604  68.456  1.00  0.00    -0.207 C  
BRANCH  10  11
HETATM   11  C   UNL     1     -10.252  10.654  67.714  1.00  0.00    -0.180 C  
HETATM   12  C   UNL     1     -10.435  11.232  66.315  1.00  0.00    -0.258 C  
HETATM   13  O   UNL     1      -9.163  11.391  65.672  1.00  0.00    -0.215 OA 
HETATM   14  C   UNL     1      -8.372  10.281  65.838  1.00  0.00    -0.145 A  
HETATM   15  C   UNL     1      -8.657   9.267  66.757  1.00  0.00    -0.127 A  
HETATM   16  O   UNL     1      -9.727   9.313  67.615  1.00  0.00    -0.148 OA 
HETATM   17  C   UNL     1      -7.836   8.145  66.832  1.00  0.00    -0.096 A  
HETATM   18  C   UNL     1      -6.702   8.057  66.023  1.00  0.00    -0.053 A  
HETATM   19  C   UNL     1      -6.393   9.091  65.135  1.00  0.00    -0.061 A  
HETATM   20  C   UNL     1      -7.232  10.203  65.040  1.00  0.00    -0.139 A  
ENDBRANCH  10  11
ENDBRANCH   6  10
TORSDOF 2
ENDMDL
MODEL      218
REMARK 921   NORMALIZED FREE ENERGY PREDICTED BY IDOCK:   -2.77 KCAL/MOL
REMARK 922        TOTAL FREE ENERGY PREDICTED BY IDOCK:   -3.24 KCAL/MOL
REMARK 923 INTER-LIGAND FREE ENERGY PREDICTED BY IDOCK:   -3.04 KCAL/MOL
REMARK 924 INTRA-LIGAND FREE ENERGY PREDICTED BY IDOCK:   -0.19 KCAL/MOL
REMARK 927      BINDING AFFINITY PREDICTED BY RF-SCORE:    0.00 PKD
ROOT
HETATM    1  N   UNL     1     -10.045   2.172  73.802  1.00  0.00    -0.092 NA 
HETATM    2  C   UNL     1      -9.839   3.500  73.770  1.00  0.00    -0.110 C  
HETATM    3  H2  UNL     1      -9.358   1.583  74.274  1.00  0.00     0.000 HD 
HETATM    4  H1  UNL     1     -10.858   1.729  73.375  1.00  0.00     0.000 HD 
HETATM    5  N   UNL     1      -8.816   4.058  74.307  1.00  0.00    -0.095 NA 
HETATM    6  N   UNL     1     -10.786   4.170  73.077  1.00  0.00    -0.180 NA 
HETATM    7  H1  UNL     1      -8.661   5.066  74.283  1.00  0.00     0.000 HD 
HETATM    8  H2  UNL     1      -8.129   3.469  74.779  1.00  0.00     0.000 HD 
HETATM    9  H   UNL     1     -11.498   3.648  72.566  1.00  0.00     0.000 HD 
ENDROOT
BRANCH   6  10
HETATM   10  C   UNL     1     -10.805   5.629  73.050  1.00  0.00    -0.271 C  
BRANCH  10  11
HETATM   11  C   UNL     1     -10.468   6.140  71.645  1.00  0.00    -0.222 C  
HETATM   12  C   UNL     1     -11.643   6.919  71.062  1.00  0.00    -0.328 C  
HETATM   13  O   UNL     1     -11.278   7.498  69.801  1.00  0.00    -0.182 OA 
HETATM   14  C   UNL     1     -10.613   6.598  69.006  1.00  0.00    -0.239 A  
HETATM   15  C   UNL     1     -10.103   5.387  69.481  1.00  0.00    -0.240 A  
HETATM   16  O   UNL     1     -10.175   5.008  70.798  1.00  0.00    -0.232 OA 
HETATM   17  C   UNL     1      -9.485   4.500  68.603  1.00  0.00    -0.220 A  
HETATM   18  C   UNL     1      -9.335   4.844  67.258  1.00  0.00    -0.142 A  
HETATM   19  C   UNL     1      -9.806   6.074  66.793  1.00  0.00    -0.198 A  
HETATM   20  C   UNL     1     -10.450   6.951  67.668  1.00  0.00    -0.290 A  
ENDBRANCH  10  11
ENDBRANCH   6  10
TORSDOF 2
ENDMDL
MODEL      219
REMARK 921   NORMALIZED FREE ENERGY PREDICTED BY IDOCK:   -2.75 KCAL/MOL
REMARK 922        TOTAL FREE ENERGY PREDICTED BY IDOCK:   -3.21 KCAL/MOL
REMARK 923 INTER-LIGAND FREE ENERGY PREDICTED BY IDOCK:   -2.81 KCAL/MOL
REMARK 924 INTRA-LIGAND FREE ENERGY PREDICTED BY IDOCK:   -0.40 KCAL/MOL
REMARK 927      BINDING AFFINITY PREDICTED BY RF-SCORE:    0.00 PKD
ROOT
HETATM    1  N   UNL     1      -9.480  10.969  64.227  1.00  0.00    -0.230 NA 
HETATM    2  C   UNL     1      -9.643  11.409  65.487  1.00  0.00    -0.228 C  
HETATM    3  H2  UNL     1     -10.294  10.615  63.725  1.00  0.00     0.000 HD 
HETATM    4  H1  UNL     1      -8.577  10.975  63.754  1.00  0.00     0.000 HD 
HETATM    5  N   UNL     1     -10.780  11.402  66.084  1.00  0.00    -0.270 NA 
HETATM    6  N   UNL     1      -8.490  11.807  66.067  1.00  0.00    -0.389 NA 
HETATM    7  H1  UNL     1     -10.903  11.737  67.039  1.00  0.00     0.000 HD 
HETATM    8  H2  UNL     1     -11.594  11.048  65.581  1.00  0.00     0.000 HD 
HETATM    9  H   UNL     1      -7.606  11.661  65.580  1.00  0.00     0.000 HD 
ENDROOT
BRANCH   6  10
HETATM   10  C   UNL     1      -8.491  12.443  67.381  1.00  0.00    -0.179 C  
BRANCH  10  11
HETATM   11  C   UNL     1      -8.213  11.406  68.475  1.00  0.00    -0.153 C  
HETATM   12  C   UNL     1      -7.229  10.352  67.979  1.00  0.00    -0.084 C  
HETATM   13  O   UNL     1      -6.878   9.458  69.044  1.00  0.00    -0.053 OA 
HETATM   14  C   UNL     1      -7.985   9.057  69.750  1.00  0.00    -0.099 A  
HETATM   15  C   UNL     1      -9.235   9.672  69.631  1.00  0.00    -0.211 A  
HETATM   16  O   UNL     1      -9.458  10.768  68.835  1.00  0.00    -0.179 OA 
HETATM   17  C   UNL     1     -10.325   9.176  70.341  1.00  0.00    -0.269 A  
HETATM   18  C   UNL     1     -10.158   8.094  71.206  1.00  0.00    -0.240 A  
HETATM   19  C   UNL     1      -8.899   7.506  71.359  1.00  0.00    -0.138 A  
HETATM   20  C   UNL     1      -7.812   7.986  70.626  1.00  0.00    -0.091 A  
ENDBRANCH  10  11
ENDBRANCH   6  10
TORSDOF 2
ENDMDL
MODEL      220
REMARK 921   NORMALIZED FREE ENERGY PREDICTED BY IDOCK:   -2.74 KCAL/MOL
REMARK 922        TOTAL FREE ENERGY PREDICTED BY IDOCK:   -3.20 KCAL/MOL
REMARK 923 INTER-LIGAND FREE ENERGY PREDICTED BY IDOCK:   -3.02 KCAL/MOL
REMARK 924 INTRA-LIGAND FREE ENERGY PREDICTED BY IDOCK:   -0.18 KCAL/MOL
REMARK 927      BINDING AFFINITY PREDICTED BY RF-SCORE:    0.00 PKD
ROOT
HETATM    1  N   UNL     1     -10.708  12.453  65.421  1.00  0.00    -0.274 NA 
HETATM    2  C   UNL     1     -10.140  11.366  64.868  1.00  0.00    -0.274 C  
HETATM    3  H2  UNL     1     -11.113  13.159  64.806  1.00  0.00     0.000 HD 
HETATM    4  H1  UNL     1     -10.750  12.600  66.429  1.00  0.00     0.000 HD 
HETATM    5  N   UNL     1     -10.087  11.181  63.599  1.00  0.00    -0.343 NA 
HETATM    6  N   UNL     1      -9.596  10.528  65.776  1.00  0.00    -0.197 NA 
HETATM    7  H1  UNL     1      -9.657  10.357  63.180  1.00  0.00     0.000 HD 
HETATM    8  H2  UNL     1     -10.492  11.887  62.984  1.00  0.00     0.000 HD 
HETATM    9  H   UNL     1      -9.560  10.804  66.757  1.00  0.00     0.000 HD 
ENDROOT
BRANCH   6  10
HETATM   10  C   UNL     1      -9.058   9.232  65.373  1.00  0.00    -0.222 C  
BRANCH  10  11
HETATM   11  C   UNL     1      -9.618   8.121  66.268  1.00  0.00    -0.178 C  
HETATM   12  C   UNL     1     -10.294   8.713  67.500  1.00  0.00    -0.269 C  
HETATM   13  O   UNL     1     -10.922   7.678  68.269  1.00  0.00    -0.029 OA 
HETATM   14  C   UNL     1     -10.097   6.591  68.418  1.00  0.00    -0.160 A  
HETATM   15  C   UNL     1      -8.931   6.405  67.671  1.00  0.00    -0.113 A  
HETATM   16  O   UNL     1      -8.529   7.268  66.682  1.00  0.00    -0.116 OA 
HETATM   17  C   UNL     1      -8.116   5.302  67.915  1.00  0.00    -0.099 A  
HETATM   18  C   UNL     1      -8.491   4.359  68.873  1.00  0.00    -0.095 A  
HETATM   19  C   UNL     1      -9.680   4.522  69.590  1.00  0.00    -0.288 A  
HETATM   20  C   UNL     1     -10.482   5.642  69.364  1.00  0.00    -0.367 A  
ENDBRANCH  10  11
ENDBRANCH   6  10
TORSDOF 2
ENDMDL
MODEL      221
REMARK 921   NORMALIZED FREE ENERGY PREDICTED BY IDOCK:   -2.70 KCAL/MOL
REMARK 922        TOTAL FREE ENERGY PREDICTED BY IDOCK:   -3.16 KCAL/MOL
REMARK 923 INTER-LIGAND FREE ENERGY PREDICTED BY IDOCK:   -3.02 KCAL/MOL
REMARK 924 INTRA-LIGAND FREE ENERGY PREDICTED BY IDOCK:   -0.14 KCAL/MOL
REMARK 927      BINDING AFFINITY PREDICTED BY RF-SCORE:    0.00 PKD
ROOT
HETATM    1  N   UNL     1      -6.220  12.929  70.807  1.00  0.00    -0.511 NA 
HETATM    2  C   UNL     1      -5.797  13.632  69.742  1.00  0.00    -0.115 C  
HETATM    3  H2  UNL     1      -6.004  11.932  70.852  1.00  0.00     0.000 HD 
HETATM    4  H1  UNL     1      -6.747  13.349  71.572  1.00  0.00     0.000 HD 
HETATM    5  N   UNL     1      -5.132  13.103  68.780  1.00  0.00    -0.065 NA 
HETATM    6  N   UNL     1      -6.183  14.926  69.769  1.00  0.00    -0.132 NA 
HETATM    7  H1  UNL     1      -4.811  13.636  67.972  1.00  0.00     0.000 HD 
HETATM    8  H2  UNL     1      -4.916  12.107  68.825  1.00  0.00     0.000 HD 
HETATM    9  H   UNL     1      -6.820  15.245  70.499  1.00  0.00     0.000 HD 
ENDROOT
BRANCH   6  10
HETATM   10  C   UNL     1      -5.703  15.874  68.769  1.00  0.00    -0.104 C  
BRANCH  10  11
HETATM   11  C   UNL     1      -6.829  16.238  67.795  1.00  0.00    -0.135 C  
HETATM   12  C   UNL     1      -7.574  17.478  68.276  1.00  0.00    -0.240 C  
HETATM   13  O   UNL     1      -8.544  17.885  67.301  1.00  0.00    -0.231 OA 
HETATM   14  C   UNL     1      -9.263  16.816  66.828  1.00  0.00    -0.243 A  
HETATM   15  C   UNL     1      -8.893  15.486  67.048  1.00  0.00    -0.230 A  
HETATM   16  O   UNL     1      -7.748  15.127  67.714  1.00  0.00    -0.125 OA 
HETATM   17  C   UNL     1      -9.702  14.453  66.582  1.00  0.00    -0.289 A  
HETATM   18  C   UNL     1     -10.856  14.746  65.855  1.00  0.00    -0.331 A  
HETATM   19  C   UNL     1     -11.203  16.076  65.597  1.00  0.00     0.058 A  
HETATM   20  C   UNL     1     -10.407  17.112  66.088  1.00  0.00    -0.327 A  
ENDBRANCH  10  11
ENDBRANCH   6  10
TORSDOF 2
ENDMDL
MODEL      222
REMARK 921   NORMALIZED FREE ENERGY PREDICTED BY IDOCK:   -2.70 KCAL/MOL
REMARK 922        TOTAL FREE ENERGY PREDICTED BY IDOCK:   -3.16 KCAL/MOL
REMARK 923 INTER-LIGAND FREE ENERGY PREDICTED BY IDOCK:   -2.96 KCAL/MOL
REMARK 924 INTRA-LIGAND FREE ENERGY PREDICTED BY IDOCK:   -0.20 KCAL/MOL
REMARK 927      BINDING AFFINITY PREDICTED BY RF-SCORE:    0.00 PKD
ROOT
HETATM    1  N   UNL     1     -11.786   9.806  71.329  1.00  0.00    -0.368 NA 
HETATM    2  C   UNL     1     -10.537   9.306  71.349  1.00  0.00    -0.347 C  
HETATM    3  H2  UNL     1     -12.471   9.435  71.988  1.00  0.00     0.000 HD 
HETATM    4  H1  UNL     1     -12.076  10.538  70.682  1.00  0.00     0.000 HD 
HETATM    5  N   UNL     1     -10.172   8.384  72.164  1.00  0.00    -0.291 NA 
HETATM    6  N   UNL     1      -9.735   9.837  70.402  1.00  0.00    -0.344 NA 
HETATM    7  H1  UNL     1      -9.225   8.006  72.180  1.00  0.00     0.000 HD 
HETATM    8  H2  UNL     1     -10.857   8.014  72.823  1.00  0.00     0.000 HD 
HETATM    9  H   UNL     1     -10.129  10.469  69.705  1.00  0.00     0.000 HD 
ENDROOT
BRANCH   6  10
HETATM   10  C   UNL     1      -8.311   9.518  70.360  1.00  0.00    -0.192 C  
BRANCH  10  11
HETATM   11  C   UNL     1      -7.817   9.471  68.910  1.00  0.00    -0.080 C  
HETATM   12  C   UNL     1      -6.870  10.632  68.627  1.00  0.00    -0.059 C  
HETATM   13  O   UNL     1      -6.317  10.513  67.309  1.00  0.00    -0.060 OA 
HETATM   14  C   UNL     1      -7.281  10.198  66.384  1.00  0.00    -0.108 A  
HETATM   15  C   UNL     1      -8.562   9.761  66.731  1.00  0.00    -0.128 A  
HETATM   16  O   UNL     1      -8.959   9.558  68.030  1.00  0.00    -0.124 OA 
HETATM   17  C   UNL     1      -9.505   9.510  65.737  1.00  0.00    -0.314 A  
HETATM   18  C   UNL     1      -9.154   9.649  64.394  1.00  0.00    -0.279 A  
HETATM   19  C   UNL     1      -7.859  10.044  64.045  1.00  0.00    -0.150 A  
HETATM   20  C   UNL     1      -6.923  10.322  65.043  1.00  0.00    -0.112 A  
ENDBRANCH  10  11
ENDBRANCH   6  10
TORSDOF 2
ENDMDL
MODEL      223
REMARK 921   NORMALIZED FREE ENERGY PREDICTED BY IDOCK:   -2.70 KCAL/MOL
REMARK 922        TOTAL FREE ENERGY PREDICTED BY IDOCK:   -3.16 KCAL/MOL
REMARK 923 INTER-LIGAND FREE ENERGY PREDICTED BY IDOCK:   -2.99 KCAL/MOL
REMARK 924 INTRA-LIGAND FREE ENERGY PREDICTED BY IDOCK:   -0.17 KCAL/MOL
REMARK 927      BINDING AFFINITY PREDICTED BY RF-SCORE:    0.00 PKD
ROOT
HETATM    1  N   UNL     1     -10.336   2.521  72.956  1.00  0.00    -0.140 NA 
HETATM    2  C   UNL     1     -10.137   3.773  73.406  1.00  0.00    -0.135 C  
HETATM    3  H2  UNL     1      -9.857   1.752  73.426  1.00  0.00     0.000 HD 
HETATM    4  H1  UNL     1     -10.944   2.309  72.166  1.00  0.00     0.000 HD 
HETATM    5  N   UNL     1      -9.371   4.040  74.400  1.00  0.00    -0.105 NA 
HETATM    6  N   UNL     1     -10.781   4.710  72.677  1.00  0.00    -0.201 NA 
HETATM    7  H1  UNL     1      -9.220   4.989  74.741  1.00  0.00     0.000 HD 
HETATM    8  H2  UNL     1      -8.892   3.271  74.870  1.00  0.00     0.000 HD 
HETATM    9  H   UNL     1     -11.265   4.437  71.822  1.00  0.00     0.000 HD 
ENDROOT
BRANCH   6  10
HETATM   10  C   UNL     1     -10.794   6.108  73.097  1.00  0.00    -0.254 C  
BRANCH  10  11
HETATM   11  C   UNL     1      -9.905   6.949  72.175  1.00  0.00    -0.147 C  
HETATM   12  C   UNL     1      -9.276   8.106  72.944  1.00  0.00    -0.273 C  
HETATM   13  O   UNL     1      -8.351   8.815  72.108  1.00  0.00    -0.351 OA 
HETATM   14  C   UNL     1      -8.875   9.049  70.862  1.00  0.00    -0.240 A  
HETATM   15  C   UNL     1     -10.029   8.421  70.385  1.00  0.00    -0.185 A  
HETATM   16  O   UNL     1     -10.716   7.472  71.100  1.00  0.00    -0.225 OA 
HETATM   17  C   UNL     1     -10.531   8.749  69.128  1.00  0.00    -0.230 A  
HETATM   18  C   UNL     1      -9.855   9.671  68.327  1.00  0.00    -0.169 A  
HETATM   19  C   UNL     1      -8.676  10.266  68.786  1.00  0.00    -0.144 A  
HETATM   20  C   UNL     1      -8.189   9.958  70.057  1.00  0.00    -0.187 A  
ENDBRANCH  10  11
ENDBRANCH   6  10
TORSDOF 2
ENDMDL
MODEL      224
REMARK 921   NORMALIZED FREE ENERGY PREDICTED BY IDOCK:   -2.69 KCAL/MOL
REMARK 922        TOTAL FREE ENERGY PREDICTED BY IDOCK:   -3.15 KCAL/MOL
REMARK 923 INTER-LIGAND FREE ENERGY PREDICTED BY IDOCK:   -2.98 KCAL/MOL
REMARK 924 INTRA-LIGAND FREE ENERGY PREDICTED BY IDOCK:   -0.17 KCAL/MOL
REMARK 927      BINDING AFFINITY PREDICTED BY RF-SCORE:    0.00 PKD
ROOT
HETATM    1  N   UNL     1      -6.153  14.319  72.678  1.00  0.00    -0.089 NA 
HETATM    2  C   UNL     1      -6.034  14.342  71.338  1.00  0.00    -0.090 C  
HETATM    3  H2  UNL     1      -6.607  13.516  73.114  1.00  0.00     0.000 HD 
HETATM    4  H1  UNL     1      -5.809  15.070  73.275  1.00  0.00     0.000 HD 
HETATM    5  N   UNL     1      -6.467  13.396  70.586  1.00  0.00    -0.423 NA 
HETATM    6  N   UNL     1      -5.462  15.473  70.873  1.00  0.00    -0.105 NA 
HETATM    7  H1  UNL     1      -6.376  13.414  69.571  1.00  0.00     0.000 HD 
HETATM    8  H2  UNL     1      -6.921  12.593  71.022  1.00  0.00     0.000 HD 
HETATM    9  H   UNL     1      -5.263  16.238  71.518  1.00  0.00     0.000 HD 
ENDROOT
BRANCH   6  10
HETATM   10  C   UNL     1      -5.126  15.618  69.460  1.00  0.00    -0.098 C  
BRANCH  10  11
HETATM   11  C   UNL     1      -6.069  16.622  68.788  1.00  0.00    -0.144 C  
HETATM   12  C   UNL     1      -6.335  16.222  67.340  1.00  0.00    -0.173 C  
HETATM   13  O   UNL     1      -7.312  17.094  66.756  1.00  0.00    -0.179 OA 
HETATM   14  C   UNL     1      -7.053  18.410  67.047  1.00  0.00    -0.194 A  
HETATM   15  C   UNL     1      -6.138  18.812  68.024  1.00  0.00    -0.196 A  
HETATM   16  O   UNL     1      -5.453  17.928  68.819  1.00  0.00    -0.165 OA 
HETATM   17  C   UNL     1      -5.889  20.167  68.229  1.00  0.00    -0.279 A  
HETATM   18  C   UNL     1      -6.588  21.122  67.489  1.00  0.00    -0.428 A  
HETATM   19  C   UNL     1      -7.535  20.721  66.542  1.00  0.00    -0.109 A  
HETATM   20  C   UNL     1      -7.764  19.362  66.319  1.00  0.00    -0.308 A  
ENDBRANCH  10  11
ENDBRANCH   6  10
TORSDOF 2
ENDMDL
MODEL      225
REMARK 921   NORMALIZED FREE ENERGY PREDICTED BY IDOCK:   -2.67 KCAL/MOL
REMARK 922        TOTAL FREE ENERGY PREDICTED BY IDOCK:   -3.12 KCAL/MOL
REMARK 923 INTER-LIGAND FREE ENERGY PREDICTED BY IDOCK:   -2.91 KCAL/MOL
REMARK 924 INTRA-LIGAND FREE ENERGY PREDICTED BY IDOCK:   -0.21 KCAL/MOL
REMARK 927      BINDING AFFINITY PREDICTED BY RF-SCORE:    0.00 PKD
ROOT
HETATM    1  N   UNL     1      -6.597   6.862  66.598  1.00  0.00    -0.047 NA 
HETATM    2  C   UNL     1      -7.139   6.849  67.829  1.00  0.00    -0.085 C  
HETATM    3  H2  UNL     1      -6.456   5.974  66.116  1.00  0.00     0.000 HD 
HETATM    4  H1  UNL     1      -6.322   7.723  66.126  1.00  0.00     0.000 HD 
HETATM    5  N   UNL     1      -7.485   5.765  68.423  1.00  0.00    -0.080 NA 
HETATM    6  N   UNL     1      -7.231   8.076  68.385  1.00  0.00    -0.087 NA 
HETATM    7  H1  UNL     1      -7.896   5.755  69.356  1.00  0.00     0.000 HD 
HETATM    8  H2  UNL     1      -7.344   4.877  67.941  1.00  0.00     0.000 HD 
HETATM    9  H   UNL     1      -6.815   8.876  67.908  1.00  0.00     0.000 HD 
ENDROOT
BRANCH   6  10
HETATM   10  C   UNL     1      -7.917   8.273  69.658  1.00  0.00    -0.111 C  
BRANCH  10  11
HETATM   11  C   UNL     1      -8.794   9.529  69.601  1.00  0.00    -0.187 C  
HETATM   12  C   UNL     1     -10.116   9.294  70.325  1.00  0.00    -0.219 C  
HETATM   13  O   UNL     1     -10.879  10.507  70.375  1.00  0.00    -0.263 OA 
HETATM   14  C   UNL     1     -10.887  11.148  69.161  1.00  0.00    -0.238 A  
HETATM   15  C   UNL     1     -10.025  10.815  68.113  1.00  0.00    -0.160 A  
HETATM   16  O   UNL     1      -9.055   9.850  68.218  1.00  0.00    -0.122 OA 
HETATM   17  C   UNL     1     -10.128  11.476  66.891  1.00  0.00    -0.241 A  
HETATM   18  C   UNL     1     -11.060  12.502  66.731  1.00  0.00    -0.323 A  
HETATM   19  C   UNL     1     -11.892  12.865  67.794  1.00  0.00    -0.391 A  
HETATM   20  C   UNL     1     -11.808  12.183  69.009  1.00  0.00    -0.361 A  
ENDBRANCH  10  11
ENDBRANCH   6  10
TORSDOF 2
ENDMDL
MODEL      226
REMARK 921   NORMALIZED FREE ENERGY PREDICTED BY IDOCK:   -2.65 KCAL/MOL
REMARK 922        TOTAL FREE ENERGY PREDICTED BY IDOCK:   -3.10 KCAL/MOL
REMARK 923 INTER-LIGAND FREE ENERGY PREDICTED BY IDOCK:   -2.94 KCAL/MOL
REMARK 924 INTRA-LIGAND FREE ENERGY PREDICTED BY IDOCK:   -0.17 KCAL/MOL
REMARK 927      BINDING AFFINITY PREDICTED BY RF-SCORE:    0.00 PKD
ROOT
HETATM    1  N   UNL     1      -9.763   8.226  70.143  1.00  0.00    -0.175 NA 
HETATM    2  C   UNL     1     -10.367   7.986  68.965  1.00  0.00    -0.218 C  
HETATM    3  H2  UNL     1      -9.732   9.185  70.489  1.00  0.00     0.000 HD 
HETATM    4  H1  UNL     1      -9.336   7.489  70.704  1.00  0.00     0.000 HD 
HETATM    5  N   UNL     1     -10.905   8.913  68.259  1.00  0.00    -0.458 NA 
HETATM    6  N   UNL     1     -10.303   6.691  68.587  1.00  0.00    -0.174 NA 
HETATM    7  H1  UNL     1     -11.363   8.731  67.366  1.00  0.00     0.000 HD 
HETATM    8  H2  UNL     1     -10.873   9.872  68.605  1.00  0.00     0.000 HD 
HETATM    9  H   UNL     1      -9.745   6.035  69.134  1.00  0.00     0.000 HD 
ENDROOT
BRANCH   6  10
HETATM   10  C   UNL     1     -11.019   6.218  67.407  1.00  0.00    -0.356 C  
BRANCH  10  11
HETATM   11  C   UNL     1     -10.227   5.105  66.713  1.00  0.00    -0.253 C  
HETATM   12  C   UNL     1      -8.801   5.560  66.424  1.00  0.00    -0.126 C  
HETATM   13  O   UNL     1      -8.031   4.475  65.889  1.00  0.00    -0.097 OA 
HETATM   14  C   UNL     1      -8.724   3.796  64.917  1.00  0.00    -0.115 A  
HETATM   15  C   UNL     1     -10.095   3.958  64.700  1.00  0.00    -0.213 A  
HETATM   16  O   UNL     1     -10.885   4.773  65.471  1.00  0.00    -0.239 OA 
HETATM   17  C   UNL     1     -10.720   3.273  63.660  1.00  0.00    -0.247 A  
HETATM   18  C   UNL     1      -9.985   2.391  62.867  1.00  0.00    -0.100 A  
HETATM   19  C   UNL     1      -8.623   2.196  63.113  1.00  0.00    -0.084 A  
HETATM   20  C   UNL     1      -7.991   2.903  64.137  1.00  0.00    -0.082 A  
ENDBRANCH  10  11
ENDBRANCH   6  10
TORSDOF 2
ENDMDL
MODEL      227
REMARK 921   NORMALIZED FREE ENERGY PREDICTED BY IDOCK:   -2.60 KCAL/MOL
REMARK 922        TOTAL FREE ENERGY PREDICTED BY IDOCK:   -3.05 KCAL/MOL
REMARK 923 INTER-LIGAND FREE ENERGY PREDICTED BY IDOCK:   -3.01 KCAL/MOL
REMARK 924 INTRA-LIGAND FREE ENERGY PREDICTED BY IDOCK:   -0.03 KCAL/MOL
REMARK 927      BINDING AFFINITY PREDICTED BY RF-SCORE:    0.00 PKD
ROOT
HETATM    1  N   UNL     1      -9.254   2.537  73.127  1.00  0.00    -0.087 NA 
HETATM    2  C   UNL     1      -8.740   3.017  71.980  1.00  0.00    -0.081 C  
HETATM    3  H2  UNL     1      -8.670   2.541  73.963  1.00  0.00     0.000 HD 
HETATM    4  H1  UNL     1     -10.203   2.169  73.195  1.00  0.00     0.000 HD 
HETATM    5  N   UNL     1      -7.547   3.480  71.895  1.00  0.00    -0.055 NA 
HETATM    6  N   UNL     1      -9.586   2.915  70.933  1.00  0.00    -0.156 NA 
HETATM    7  H1  UNL     1      -7.157   3.845  71.026  1.00  0.00     0.000 HD 
HETATM    8  H2  UNL     1      -6.962   3.484  72.731  1.00  0.00     0.000 HD 
HETATM    9  H   UNL     1     -10.469   2.417  71.046  1.00  0.00     0.000 HD 
ENDROOT
BRANCH   6  10
HETATM   10  C   UNL     1      -9.256   3.508  69.641  1.00  0.00    -0.153 C  
BRANCH  10  11
HETATM   11  C   UNL     1      -9.783   4.945  69.563  1.00  0.00    -0.195 C  
HETATM   12  C   UNL     1      -8.664   5.908  69.181  1.00  0.00    -0.118 C  
HETATM   13  O   UNL     1      -9.188   7.229  68.990  1.00  0.00    -0.140 OA 
HETATM   14  C   UNL     1     -10.055   7.578  69.995  1.00  0.00    -0.199 A  
HETATM   15  C   UNL     1     -10.579   6.659  70.909  1.00  0.00    -0.224 A  
HETATM   16  O   UNL     1     -10.315   5.314  70.853  1.00  0.00    -0.227 OA 
HETATM   17  C   UNL     1     -11.413   7.097  71.935  1.00  0.00    -0.305 A  
HETATM   18  C   UNL     1     -11.762   8.445  72.021  1.00  0.00    -0.417 A  
HETATM   19  C   UNL     1     -11.274   9.357  71.081  1.00  0.00    -0.427 A  
HETATM   20  C   UNL     1     -10.416   8.922  70.069  1.00  0.00    -0.227 A  
ENDBRANCH  10  11
ENDBRANCH   6  10
TORSDOF 2
ENDMDL
MODEL      228
REMARK 921   NORMALIZED FREE ENERGY PREDICTED BY IDOCK:   -2.60 KCAL/MOL
REMARK 922        TOTAL FREE ENERGY PREDICTED BY IDOCK:   -3.04 KCAL/MOL
REMARK 923 INTER-LIGAND FREE ENERGY PREDICTED BY IDOCK:   -2.88 KCAL/MOL
REMARK 924 INTRA-LIGAND FREE ENERGY PREDICTED BY IDOCK:   -0.17 KCAL/MOL
REMARK 927      BINDING AFFINITY PREDICTED BY RF-SCORE:    0.00 PKD
ROOT
HETATM    1  N   UNL     1      -8.433   6.309  64.525  1.00  0.00    -0.340 NA 
HETATM    2  C   UNL     1      -7.956   6.423  65.778  1.00  0.00    -0.117 C  
HETATM    3  H2  UNL     1      -8.008   6.872  63.788  1.00  0.00     0.000 HD 
HETATM    4  H1  UNL     1      -9.202   5.685  64.282  1.00  0.00     0.000 HD 
HETATM    5  N   UNL     1      -6.989   7.208  66.084  1.00  0.00    -0.064 NA 
HETATM    6  N   UNL     1      -8.628   5.669  66.674  1.00  0.00    -0.116 NA 
HETATM    7  H1  UNL     1      -6.627   7.294  67.033  1.00  0.00     0.000 HD 
HETATM    8  H2  UNL     1      -6.564   7.771  65.347  1.00  0.00     0.000 HD 
HETATM    9  H   UNL     1      -9.469   5.171  66.383  1.00  0.00     0.000 HD 
ENDROOT
BRANCH   6  10
HETATM   10  C   UNL     1      -8.168   5.557  68.055  1.00  0.00    -0.100 C  
BRANCH  10  11
HETATM   11  C   UNL     1      -9.238   6.084  69.018  1.00  0.00    -0.121 C  
HETATM   12  C   UNL     1      -9.416   7.589  68.851  1.00  0.00    -0.145 C  
HETATM   13  O   UNL     1     -10.502   8.055  69.664  1.00  0.00    -0.218 OA 
HETATM   14  C   UNL     1     -10.447   7.525  70.930  1.00  0.00    -0.213 A  
HETATM   15  C   UNL     1      -9.620   6.453  71.277  1.00  0.00    -0.170 A  
HETATM   16  O   UNL     1      -8.825   5.797  70.371  1.00  0.00    -0.138 OA 
HETATM   17  C   UNL     1      -9.580   6.003  72.594  1.00  0.00    -0.156 A  
HETATM   18  C   UNL     1     -10.400   6.594  73.557  1.00  0.00    -0.318 A  
HETATM   19  C   UNL     1     -11.259   7.638  73.200  1.00  0.00    -0.311 A  
HETATM   20  C   UNL     1     -11.279   8.106  71.885  1.00  0.00    -0.351 A  
ENDBRANCH  10  11
ENDBRANCH   6  10
TORSDOF 2
ENDMDL
MODEL      229
REMARK 921   NORMALIZED FREE ENERGY PREDICTED BY IDOCK:   -2.60 KCAL/MOL
REMARK 922        TOTAL FREE ENERGY PREDICTED BY IDOCK:   -3.04 KCAL/MOL
REMARK 923 INTER-LIGAND FREE ENERGY PREDICTED BY IDOCK:   -2.88 KCAL/MOL
REMARK 924 INTRA-LIGAND FREE ENERGY PREDICTED BY IDOCK:   -0.16 KCAL/MOL
REMARK 927      BINDING AFFINITY PREDICTED BY RF-SCORE:    0.00 PKD
ROOT
HETATM    1  N   UNL     1      -9.387   4.916  63.640  1.00  0.00    -0.351 NA 
HETATM    2  C   UNL     1      -8.812   4.760  64.845  1.00  0.00    -0.153 C  
HETATM    3  H2  UNL     1      -8.825   5.294  62.876  1.00  0.00     0.000 HD 
HETATM    4  H1  UNL     1     -10.360   4.673  63.457  1.00  0.00     0.000 HD 
HETATM    5  N   UNL     1      -7.587   5.066  65.076  1.00  0.00    -0.076 NA 
HETATM    6  N   UNL     1      -9.663   4.300  65.787  1.00  0.00    -0.190 NA 
HETATM    7  H1  UNL     1      -7.151   4.948  65.990  1.00  0.00     0.000 HD 
HETATM    8  H2  UNL     1      -7.026   5.445  64.312  1.00  0.00     0.000 HD 
HETATM    9  H   UNL     1     -10.654   4.203  65.565  1.00  0.00     0.000 HD 
ENDROOT
BRANCH   6  10
HETATM   10  C   UNL     1      -9.186   3.939  67.118  1.00  0.00    -0.176 C  
BRANCH  10  11
HETATM   11  C   UNL     1      -9.845   4.827  68.180  1.00  0.00    -0.120 C  
HETATM   12  C   UNL     1     -10.774   5.845  67.527  1.00  0.00    -0.276 C  
HETATM   13  O   UNL     1     -11.479   6.589  68.529  1.00  0.00    -0.193 OA 
HETATM   14  C   UNL     1     -10.641   7.000  69.536  1.00  0.00    -0.234 A  
HETATM   15  C   UNL     1      -9.346   6.503  69.705  1.00  0.00    -0.142 A  
HETATM   16  O   UNL     1      -8.811   5.520  68.910  1.00  0.00    -0.107 OA 
HETATM   17  C   UNL     1      -8.535   7.005  70.719  1.00  0.00    -0.135 A  
HETATM   18  C   UNL     1      -9.033   7.971  71.595  1.00  0.00    -0.192 A  
HETATM   19  C   UNL     1     -10.344   8.437  71.453  1.00  0.00    -0.285 A  
HETATM   20  C   UNL     1     -11.147   7.952  70.419  1.00  0.00    -0.249 A  
ENDBRANCH  10  11
ENDBRANCH   6  10
TORSDOF 2
ENDMDL
MODEL      230
REMARK 921   NORMALIZED FREE ENERGY PREDICTED BY IDOCK:   -2.58 KCAL/MOL
REMARK 922        TOTAL FREE ENERGY PREDICTED BY IDOCK:   -3.02 KCAL/MOL
REMARK 923 INTER-LIGAND FREE ENERGY PREDICTED BY IDOCK:   -2.96 KCAL/MOL
REMARK 924 INTRA-LIGAND FREE ENERGY PREDICTED BY IDOCK:   -0.06 KCAL/MOL
REMARK 927      BINDING AFFINITY PREDICTED BY RF-SCORE:    0.00 PKD
ROOT
HETATM    1  N   UNL     1      -7.700   7.090  65.832  1.00  0.00    -0.096 NA 
HETATM    2  C   UNL     1      -7.616   7.683  67.036  1.00  0.00    -0.103 C  
HETATM    3  H2  UNL     1      -7.552   7.657  64.997  1.00  0.00     0.000 HD 
HETATM    4  H1  UNL     1      -7.906   6.098  65.720  1.00  0.00     0.000 HD 
HETATM    5  N   UNL     1      -7.356   8.932  67.178  1.00  0.00    -0.083 NA 
HETATM    6  N   UNL     1      -7.878   6.847  68.063  1.00  0.00    -0.112 NA 
HETATM    7  H1  UNL     1      -7.291   9.382  68.091  1.00  0.00     0.000 HD 
HETATM    8  H2  UNL     1      -7.208   9.499  66.343  1.00  0.00     0.000 HD 
HETATM    9  H   UNL     1      -8.206   5.901  67.869  1.00  0.00     0.000 HD 
ENDROOT
BRANCH   6  10
HETATM   10  C   UNL     1      -7.701   7.278  69.446  1.00  0.00    -0.107 C  
BRANCH  10  11
HETATM   11  C   UNL     1      -8.940   8.036  69.932  1.00  0.00    -0.145 C  
HETATM   12  C   UNL     1      -8.695   8.641  71.310  1.00  0.00    -0.194 C  
HETATM   13  O   UNL     1      -9.810   9.451  71.705  1.00  0.00    -0.219 OA 
HETATM   14  C   UNL     1     -11.004   8.820  71.456  1.00  0.00    -0.307 A  
HETATM   15  C   UNL     1     -11.116   7.680  70.657  1.00  0.00    -0.257 A  
HETATM   16  O   UNL     1     -10.049   7.114  70.004  1.00  0.00    -0.185 OA 
HETATM   17  C   UNL     1     -12.354   7.064  70.492  1.00  0.00    -0.153 A  
HETATM   18  C   UNL     1     -13.490   7.614  71.088  1.00  0.00    -0.186 A  
HETATM   19  C   UNL     1     -13.385   8.780  71.852  1.00  0.00    -0.432 A  
HETATM   20  C   UNL     1     -12.139   9.381  72.039  1.00  0.00    -0.379 A  
ENDBRANCH  10  11
ENDBRANCH   6  10
TORSDOF 2
ENDMDL
MODEL      231
REMARK 921   NORMALIZED FREE ENERGY PREDICTED BY IDOCK:   -2.56 KCAL/MOL
REMARK 922        TOTAL FREE ENERGY PREDICTED BY IDOCK:   -3.01 KCAL/MOL
REMARK 923 INTER-LIGAND FREE ENERGY PREDICTED BY IDOCK:   -2.82 KCAL/MOL
REMARK 924 INTRA-LIGAND FREE ENERGY PREDICTED BY IDOCK:   -0.19 KCAL/MOL
REMARK 927      BINDING AFFINITY PREDICTED BY RF-SCORE:    0.00 PKD
ROOT
HETATM    1  N   UNL     1      -7.522   2.700  73.951  1.00  0.00    -0.045 NA 
HETATM    2  C   UNL     1      -8.638   3.418  74.167  1.00  0.00    -0.087 C  
HETATM    3  H2  UNL     1      -7.555   1.691  74.097  1.00  0.00     0.000 HD 
HETATM    4  H1  UNL     1      -6.645   3.122  73.648  1.00  0.00     0.000 HD 
HETATM    5  N   UNL     1      -9.743   2.887  74.548  1.00  0.00    -0.098 NA 
HETATM    6  N   UNL     1      -8.461   4.745  73.991  1.00  0.00    -0.103 NA 
HETATM    7  H1  UNL     1     -10.589   3.432  74.712  1.00  0.00     0.000 HD 
HETATM    8  H2  UNL     1      -9.775   1.878  74.694  1.00  0.00     0.000 HD 
HETATM    9  H   UNL     1      -7.525   5.109  73.816  1.00  0.00     0.000 HD 
ENDROOT
BRANCH   6  10
HETATM   10  C   UNL     1      -9.592   5.667  74.047  1.00  0.00    -0.146 C  
BRANCH  10  11
HETATM   11  C   UNL     1      -9.826   6.307  72.674  1.00  0.00    -0.166 C  
HETATM   12  C   UNL     1      -8.514   6.429  71.907  1.00  0.00    -0.123 C  
HETATM   13  O   UNL     1      -8.757   6.912  70.579  1.00  0.00    -0.147 OA 
HETATM   14  C   UNL     1      -9.630   7.972  70.580  1.00  0.00    -0.166 A  
HETATM   15  C   UNL     1     -10.400   8.329  71.690  1.00  0.00    -0.224 A  
HETATM   16  O   UNL     1     -10.393   7.621  72.866  1.00  0.00    -0.261 OA 
HETATM   17  C   UNL     1     -11.225   9.450  71.634  1.00  0.00    -0.431 A  
HETATM   18  C   UNL     1     -11.317  10.187  70.452  1.00  0.00    -0.401 A  
HETATM   19  C   UNL     1     -10.580   9.804  69.328  1.00  0.00    -0.240 A  
HETATM   20  C   UNL     1      -9.732   8.697  69.394  1.00  0.00    -0.176 A  
ENDBRANCH  10  11
ENDBRANCH   6  10
TORSDOF 2
ENDMDL
MODEL      232
REMARK 921   NORMALIZED FREE ENERGY PREDICTED BY IDOCK:   -2.56 KCAL/MOL
REMARK 922        TOTAL FREE ENERGY PREDICTED BY IDOCK:   -3.00 KCAL/MOL
REMARK 923 INTER-LIGAND FREE ENERGY PREDICTED BY IDOCK:   -2.83 KCAL/MOL
REMARK 924 INTRA-LIGAND FREE ENERGY PREDICTED BY IDOCK:   -0.17 KCAL/MOL
REMARK 927      BINDING AFFINITY PREDICTED BY RF-SCORE:    0.00 PKD
ROOT
HETATM    1  N   UNL     1      -9.076   8.484  65.100  1.00  0.00    -0.426 NA 
HETATM    2  C   UNL     1      -8.314   9.107  66.017  1.00  0.00    -0.121 C  
HETATM    3  H2  UNL     1      -8.947   8.720  64.116  1.00  0.00     0.000 HD 
HETATM    4  H1  UNL     1      -9.777   7.787  65.348  1.00  0.00     0.000 HD 
HETATM    5  N   UNL     1      -7.431   9.985  65.705  1.00  0.00    -0.114 NA 
HETATM    6  N   UNL     1      -8.608   8.751  67.286  1.00  0.00    -0.121 NA 
HETATM    7  H1  UNL     1      -6.853  10.457  66.400  1.00  0.00     0.000 HD 
HETATM    8  H2  UNL     1      -7.302  10.221  64.721  1.00  0.00     0.000 HD 
HETATM    9  H   UNL     1      -9.410   8.147  67.465  1.00  0.00     0.000 HD 
ENDROOT
BRANCH   6  10
HETATM   10  C   UNL     1      -7.794   9.219  68.404  1.00  0.00    -0.094 C  
BRANCH  10  11
HETATM   11  C   UNL     1      -8.123   8.422  69.671  1.00  0.00    -0.115 C  
HETATM   12  C   UNL     1      -8.058   6.924  69.396  1.00  0.00    -0.127 C  
HETATM   13  O   UNL     1      -8.244   6.186  70.612  1.00  0.00    -0.117 OA 
HETATM   14  C   UNL     1      -9.289   6.685  71.349  1.00  0.00    -0.151 A  
HETATM   15  C   UNL     1      -9.889   7.920  71.090  1.00  0.00    -0.165 A  
HETATM   16  O   UNL     1      -9.454   8.773  70.107  1.00  0.00    -0.159 OA 
HETATM   17  C   UNL     1     -10.980   8.337  71.849  1.00  0.00    -0.354 A  
HETATM   18  C   UNL     1     -11.443   7.541  72.898  1.00  0.00    -0.311 A  
HETATM   19  C   UNL     1     -10.816   6.325  73.184  1.00  0.00    -0.281 A  
HETATM   20  C   UNL     1      -9.740   5.896  72.406  1.00  0.00    -0.175 A  
ENDBRANCH  10  11
ENDBRANCH   6  10
TORSDOF 2
ENDMDL
MODEL      233
REMARK 921   NORMALIZED FREE ENERGY PREDICTED BY IDOCK:   -2.55 KCAL/MOL
REMARK 922        TOTAL FREE ENERGY PREDICTED BY IDOCK:   -2.99 KCAL/MOL
REMARK 923 INTER-LIGAND FREE ENERGY PREDICTED BY IDOCK:   -2.77 KCAL/MOL
REMARK 924 INTRA-LIGAND FREE ENERGY PREDICTED BY IDOCK:   -0.21 KCAL/MOL
REMARK 927      BINDING AFFINITY PREDICTED BY RF-SCORE:    0.00 PKD
ROOT
HETATM    1  N   UNL     1     -12.645   7.410  72.354  1.00  0.00    -0.506 NA 
HETATM    2  C   UNL     1     -12.063   6.775  71.320  1.00  0.00    -0.370 C  
HETATM    3  H2  UNL     1     -13.478   7.970  72.176  1.00  0.00     0.000 HD 
HETATM    4  H1  UNL     1     -12.287   7.353  73.307  1.00  0.00     0.000 HD 
HETATM    5  N   UNL     1     -12.512   6.846  70.120  1.00  0.00    -0.465 NA 
HETATM    6  N   UNL     1     -10.942   6.107  71.667  1.00  0.00    -0.257 NA 
HETATM    7  H1  UNL     1     -12.072   6.364  69.337  1.00  0.00     0.000 HD 
HETATM    8  H2  UNL     1     -13.346   7.406  69.942  1.00  0.00     0.000 HD 
HETATM    9  H   UNL     1     -10.572   6.203  72.612  1.00  0.00     0.000 HD 
ENDROOT
BRANCH   6  10
HETATM   10  C   UNL     1     -10.253   5.248  70.709  1.00  0.00    -0.246 C  
BRANCH  10  11
HETATM   11  C   UNL     1      -9.028   5.967  70.133  1.00  0.00    -0.147 C  
HETATM   12  C   UNL     1      -7.859   5.903  71.111  1.00  0.00    -0.111 C  
HETATM   13  O   UNL     1      -6.683   6.468  70.517  1.00  0.00    -0.053 OA 
HETATM   14  C   UNL     1      -6.958   7.654  69.883  1.00  0.00    -0.054 A  
HETATM   15  C   UNL     1      -8.255   8.090  69.603  1.00  0.00    -0.121 A  
HETATM   16  O   UNL     1      -9.374   7.348  69.889  1.00  0.00    -0.155 OA 
HETATM   17  C   UNL     1      -8.459   9.331  69.003  1.00  0.00    -0.132 A  
HETATM   18  C   UNL     1      -7.363  10.116  68.640  1.00  0.00    -0.082 A  
HETATM   19  C   UNL     1      -6.064   9.660  68.881  1.00  0.00    -0.042 A  
HETATM   20  C   UNL     1      -5.862   8.429  69.507  1.00  0.00    -0.030 A  
ENDBRANCH  10  11
ENDBRANCH   6  10
TORSDOF 2
ENDMDL
MODEL      234
REMARK 921   NORMALIZED FREE ENERGY PREDICTED BY IDOCK:   -2.52 KCAL/MOL
REMARK 922        TOTAL FREE ENERGY PREDICTED BY IDOCK:   -2.95 KCAL/MOL
REMARK 923 INTER-LIGAND FREE ENERGY PREDICTED BY IDOCK:   -2.69 KCAL/MOL
REMARK 924 INTRA-LIGAND FREE ENERGY PREDICTED BY IDOCK:   -0.26 KCAL/MOL
REMARK 927      BINDING AFFINITY PREDICTED BY RF-SCORE:    0.00 PKD
ROOT
HETATM    1  N   UNL     1      -8.431   6.311  64.528  1.00  0.00    -0.340 NA 
HETATM    2  C   UNL     1      -7.925   6.423  65.768  1.00  0.00    -0.117 C  
HETATM    3  H2  UNL     1      -8.020   6.870  63.780  1.00  0.00     0.000 HD 
HETATM    4  H1  UNL     1      -9.208   5.690  64.304  1.00  0.00     0.000 HD 
HETATM    5  N   UNL     1      -6.947   7.205  66.051  1.00  0.00    -0.063 NA 
HETATM    6  N   UNL     1      -8.579   5.674  66.682  1.00  0.00    -0.116 NA 
HETATM    7  H1  UNL     1      -6.562   7.290  66.992  1.00  0.00     0.000 HD 
HETATM    8  H2  UNL     1      -6.536   7.765  65.303  1.00  0.00     0.000 HD 
HETATM    9  H   UNL     1      -9.429   5.180  66.411  1.00  0.00     0.000 HD 
ENDROOT
BRANCH   6  10
HETATM   10  C   UNL     1      -8.087   5.562  68.052  1.00  0.00    -0.096 C  
BRANCH  10  11
HETATM   11  C   UNL     1      -9.128   6.103  69.038  1.00  0.00    -0.124 C  
HETATM   12  C   UNL     1     -10.475   5.421  68.825  1.00  0.00    -0.149 C  
HETATM   13  O   UNL     1     -11.410   5.840  69.828  1.00  0.00    -0.287 OA 
HETATM   14  C   UNL     1     -11.373   7.200  70.014  1.00  0.00    -0.206 A  
HETATM   15  C   UNL     1     -10.356   8.015  69.510  1.00  0.00    -0.221 A  
HETATM   16  O   UNL     1      -9.272   7.524  68.826  1.00  0.00    -0.145 OA 
HETATM   17  C   UNL     1     -10.413   9.394  69.694  1.00  0.00    -0.236 A  
HETATM   18  C   UNL     1     -11.463   9.956  70.424  1.00  0.00    -0.372 A  
HETATM   19  C   UNL     1     -12.457   9.136  70.966  1.00  0.00    -0.238 A  
HETATM   20  C   UNL     1     -12.413   7.756  70.757  1.00  0.00     0.019 A  
ENDBRANCH  10  11
ENDBRANCH   6  10
TORSDOF 2
ENDMDL
MODEL      235
REMARK 921   NORMALIZED FREE ENERGY PREDICTED BY IDOCK:   -2.52 KCAL/MOL
REMARK 922        TOTAL FREE ENERGY PREDICTED BY IDOCK:   -2.95 KCAL/MOL
REMARK 923 INTER-LIGAND FREE ENERGY PREDICTED BY IDOCK:   -2.77 KCAL/MOL
REMARK 924 INTRA-LIGAND FREE ENERGY PREDICTED BY IDOCK:   -0.18 KCAL/MOL
REMARK 927      BINDING AFFINITY PREDICTED BY RF-SCORE:    0.00 PKD
ROOT
HETATM    1  N   UNL     1     -12.993   9.538  71.395  1.00  0.00    -0.355 NA 
HETATM    2  C   UNL     1     -12.219   8.506  71.014  1.00  0.00    -0.168 C  
HETATM    3  H2  UNL     1     -13.937   9.343  71.730  1.00  0.00     0.000 HD 
HETATM    4  H1  UNL     1     -12.675  10.506  71.363  1.00  0.00     0.000 HD 
HETATM    5  N   UNL     1     -12.618   7.287  71.054  1.00  0.00    -0.536 NA 
HETATM    6  N   UNL     1     -11.012   8.889  70.545  1.00  0.00    -0.235 NA 
HETATM    7  H1  UNL     1     -12.031   6.504  70.766  1.00  0.00     0.000 HD 
HETATM    8  H2  UNL     1     -13.562   7.092  71.389  1.00  0.00     0.000 HD 
HETATM    9  H   UNL     1     -10.814   9.882  70.419  1.00  0.00     0.000 HD 
ENDROOT
BRANCH   6  10
HETATM   10  C   UNL     1      -9.988   7.903  70.214  1.00  0.00    -0.189 C  
BRANCH  10  11
HETATM   11  C   UNL     1      -9.414   8.177  68.820  1.00  0.00    -0.148 C  
HETATM   12  C   UNL     1     -10.496   8.028  67.755  1.00  0.00    -0.214 C  
HETATM   13  O   UNL     1      -9.984   8.405  66.470  1.00  0.00    -0.258 OA 
HETATM   14  C   UNL     1      -8.744   7.862  66.242  1.00  0.00    -0.154 A  
HETATM   15  C   UNL     1      -7.969   7.274  67.244  1.00  0.00    -0.111 A  
HETATM   16  O   UNL     1      -8.353   7.232  68.561  1.00  0.00    -0.124 OA 
HETATM   17  C   UNL     1      -6.742   6.697  66.927  1.00  0.00    -0.056 A  
HETATM   18  C   UNL     1      -6.267   6.748  65.616  1.00  0.00    -0.039 A  
HETATM   19  C   UNL     1      -7.023   7.375  64.621  1.00  0.00    -0.051 A  
HETATM   20  C   UNL     1      -8.265   7.929  64.934  1.00  0.00    -0.128 A  
ENDBRANCH  10  11
ENDBRANCH   6  10
TORSDOF 2
ENDMDL
MODEL      236
REMARK 921   NORMALIZED FREE ENERGY PREDICTED BY IDOCK:   -2.49 KCAL/MOL
REMARK 922        TOTAL FREE ENERGY PREDICTED BY IDOCK:   -2.92 KCAL/MOL
REMARK 923 INTER-LIGAND FREE ENERGY PREDICTED BY IDOCK:   -2.82 KCAL/MOL
REMARK 924 INTRA-LIGAND FREE ENERGY PREDICTED BY IDOCK:   -0.11 KCAL/MOL
REMARK 927      BINDING AFFINITY PREDICTED BY RF-SCORE:    0.00 PKD
ROOT
HETATM    1  N   UNL     1     -12.420   7.406  70.867  1.00  0.00    -0.540 NA 
HETATM    2  C   UNL     1     -11.397   6.936  70.132  1.00  0.00    -0.314 C  
HETATM    3  H2  UNL     1     -13.368   7.307  70.504  1.00  0.00     0.000 HD 
HETATM    4  H1  UNL     1     -12.287   7.858  71.771  1.00  0.00     0.000 HD 
HETATM    5  N   UNL     1     -11.563   6.367  68.994  1.00  0.00    -0.549 NA 
HETATM    6  N   UNL     1     -10.189   7.167  70.689  1.00  0.00    -0.195 NA 
HETATM    7  H1  UNL     1     -10.787   6.010  68.437  1.00  0.00     0.000 HD 
HETATM    8  H2  UNL     1     -12.511   6.268  68.630  1.00  0.00     0.000 HD 
HETATM    9  H   UNL     1     -10.125   7.741  71.530  1.00  0.00     0.000 HD 
ENDROOT
BRANCH   6  10
HETATM   10  C   UNL     1      -8.973   6.609  70.105  1.00  0.00    -0.152 C  
BRANCH  10  11
HETATM   11  C   UNL     1      -8.421   7.546  69.025  1.00  0.00    -0.133 C  
HETATM   12  C   UNL     1      -6.917   7.356  68.867  1.00  0.00    -0.078 C  
HETATM   13  O   UNL     1      -6.428   8.144  67.773  1.00  0.00    -0.051 OA 
HETATM   14  C   UNL     1      -6.940   9.417  67.801  1.00  0.00    -0.080 A  
HETATM   15  C   UNL     1      -8.016   9.793  68.610  1.00  0.00    -0.089 A  
HETATM   16  O   UNL     1      -8.694   8.910  69.413  1.00  0.00    -0.136 OA 
HETATM   17  C   UNL     1      -8.448  11.117  68.623  1.00  0.00    -0.153 A  
HETATM   18  C   UNL     1      -7.835  12.057  67.794  1.00  0.00    -0.145 A  
HETATM   19  C   UNL     1      -6.787  11.672  66.952  1.00  0.00    -0.129 A  
HETATM   20  C   UNL     1      -6.337  10.351  66.960  1.00  0.00    -0.072 A  
ENDBRANCH  10  11
ENDBRANCH   6  10
TORSDOF 2
ENDMDL
MODEL      237
REMARK 921   NORMALIZED FREE ENERGY PREDICTED BY IDOCK:   -2.49 KCAL/MOL
REMARK 922        TOTAL FREE ENERGY PREDICTED BY IDOCK:   -2.92 KCAL/MOL
REMARK 923 INTER-LIGAND FREE ENERGY PREDICTED BY IDOCK:   -2.68 KCAL/MOL
REMARK 924 INTRA-LIGAND FREE ENERGY PREDICTED BY IDOCK:   -0.23 KCAL/MOL
REMARK 927      BINDING AFFINITY PREDICTED BY RF-SCORE:    0.00 PKD
ROOT
HETATM    1  N   UNL     1      -8.527   6.423  72.566  1.00  0.00    -0.123 NA 
HETATM    2  C   UNL     1      -9.550   7.193  72.156  1.00  0.00    -0.142 C  
HETATM    3  H2  UNL     1      -8.082   6.635  73.459  1.00  0.00     0.000 HD 
HETATM    4  H1  UNL     1      -8.177   5.635  72.021  1.00  0.00     0.000 HD 
HETATM    5  N   UNL     1      -9.991   8.185  72.842  1.00  0.00    -0.281 NA 
HETATM    6  N   UNL     1     -10.024   6.848  70.940  1.00  0.00    -0.189 NA 
HETATM    7  H1  UNL     1     -10.767   8.769  72.531  1.00  0.00     0.000 HD 
HETATM    8  H2  UNL     1      -9.546   8.398  73.735  1.00  0.00     0.000 HD 
HETATM    9  H   UNL     1      -9.540   6.134  70.396  1.00  0.00     0.000 HD 
ENDROOT
BRANCH   6  10
HETATM   10  C   UNL     1     -11.220   7.482  70.393  1.00  0.00    -0.253 C  
BRANCH  10  11
HETATM   11  C   UNL     1     -10.909   8.127  69.038  1.00  0.00     0.010 C  
HETATM   12  C   UNL     1     -10.701   7.058  67.970  1.00  0.00    -0.194 C  
HETATM   13  O   UNL     1     -10.534   7.668  66.683  1.00  0.00    -0.281 OA 
HETATM   14  C   UNL     1      -9.670   8.733  66.738  1.00  0.00    -0.221 A  
HETATM   15  C   UNL     1      -9.252   9.319  67.936  1.00  0.00    -0.129 A  
HETATM   16  O   UNL     1      -9.708   8.917  69.166  1.00  0.00    -0.163 OA 
HETATM   17  C   UNL     1      -8.332  10.365  67.915  1.00  0.00    -0.114 A  
HETATM   18  C   UNL     1      -7.865  10.856  66.695  1.00  0.00    -0.145 A  
HETATM   19  C   UNL     1      -8.316  10.298  65.495  1.00  0.00    -0.165 A  
HETATM   20  C   UNL     1      -9.217   9.233  65.518  1.00  0.00    -0.292 A  
ENDBRANCH  10  11
ENDBRANCH   6  10
TORSDOF 2
ENDMDL
MODEL      238
REMARK 921   NORMALIZED FREE ENERGY PREDICTED BY IDOCK:   -2.48 KCAL/MOL
REMARK 922        TOTAL FREE ENERGY PREDICTED BY IDOCK:   -2.91 KCAL/MOL
REMARK 923 INTER-LIGAND FREE ENERGY PREDICTED BY IDOCK:   -2.74 KCAL/MOL
REMARK 924 INTRA-LIGAND FREE ENERGY PREDICTED BY IDOCK:   -0.17 KCAL/MOL
REMARK 927      BINDING AFFINITY PREDICTED BY RF-SCORE:    0.00 PKD
ROOT
HETATM    1  N   UNL     1     -11.134   3.051  73.866  1.00  0.00    -0.196 NA 
HETATM    2  C   UNL     1     -10.016   3.570  73.328  1.00  0.00    -0.126 C  
HETATM    3  H2  UNL     1     -11.072   2.598  74.779  1.00  0.00     0.000 HD 
HETATM    4  H1  UNL     1     -12.040   3.092  73.401  1.00  0.00     0.000 HD 
HETATM    5  N   UNL     1      -8.875   3.519  73.914  1.00  0.00    -0.088 NA 
HETATM    6  N   UNL     1     -10.210   4.098  72.101  1.00  0.00    -0.175 NA 
HETATM    7  H1  UNL     1      -8.027   3.912  73.506  1.00  0.00     0.000 HD 
HETATM    8  H2  UNL     1      -8.813   3.066  74.826  1.00  0.00     0.000 HD 
HETATM    9  H   UNL     1     -11.114   3.986  71.642  1.00  0.00     0.000 HD 
ENDROOT
BRANCH   6  10
HETATM   10  C   UNL     1      -9.144   4.828  71.420  1.00  0.00    -0.135 C  
BRANCH  10  11
HETATM   11  C   UNL     1      -9.573   6.275  71.156  1.00  0.00    -0.175 C  
HETATM   12  C   UNL     1     -11.070   6.443  71.391  1.00  0.00    -0.277 C  
HETATM   13  O   UNL     1     -11.443   7.821  71.262  1.00  0.00    -0.260 OA 
HETATM   14  C   UNL     1     -10.873   8.396  70.153  1.00  0.00    -0.236 A  
HETATM   15  C   UNL     1      -9.839   7.799  69.427  1.00  0.00    -0.176 A  
HETATM   16  O   UNL     1      -9.262   6.607  69.786  1.00  0.00    -0.146 OA 
HETATM   17  C   UNL     1      -9.345   8.419  68.281  1.00  0.00    -0.139 A  
HETATM   18  C   UNL     1      -9.853   9.658  67.887  1.00  0.00    -0.182 A  
HETATM   19  C   UNL     1     -10.857  10.275  68.638  1.00  0.00    -0.272 A  
HETATM   20  C   UNL     1     -11.370   9.641  69.771  1.00  0.00    -0.159 A  
ENDBRANCH  10  11
ENDBRANCH   6  10
TORSDOF 2
ENDMDL
MODEL      239
REMARK 921   NORMALIZED FREE ENERGY PREDICTED BY IDOCK:   -2.47 KCAL/MOL
REMARK 922        TOTAL FREE ENERGY PREDICTED BY IDOCK:   -2.90 KCAL/MOL
REMARK 923 INTER-LIGAND FREE ENERGY PREDICTED BY IDOCK:   -2.74 KCAL/MOL
REMARK 924 INTRA-LIGAND FREE ENERGY PREDICTED BY IDOCK:   -0.16 KCAL/MOL
REMARK 927      BINDING AFFINITY PREDICTED BY RF-SCORE:    0.00 PKD
ROOT
HETATM    1  N   UNL     1      -6.321   9.750  70.380  1.00  0.00    -0.080 NA 
HETATM    2  C   UNL     1      -6.795   9.883  69.129  1.00  0.00    -0.055 C  
HETATM    3  H2  UNL     1      -5.462   9.219  70.524  1.00  0.00     0.000 HD 
HETATM    4  H1  UNL     1      -6.785  10.158  71.192  1.00  0.00     0.000 HD 
HETATM    5  N   UNL     1      -6.212   9.370  68.108  1.00  0.00    -0.053 NA 
HETATM    6  N   UNL     1      -7.961  10.561  69.069  1.00  0.00    -0.126 NA 
HETATM    7  H1  UNL     1      -6.571   9.470  67.158  1.00  0.00     0.000 HD 
HETATM    8  H2  UNL     1      -5.352   8.839  68.251  1.00  0.00     0.000 HD 
HETATM    9  H   UNL     1      -8.434  10.826  69.933  1.00  0.00     0.000 HD 
ENDROOT
BRANCH   6  10
HETATM   10  C   UNL     1      -8.554  10.922  67.785  1.00  0.00    -0.128 C  
BRANCH  10  11
HETATM   11  C   UNL     1      -8.896  12.415  67.756  1.00  0.00    -0.176 C  
HETATM   12  C   UNL     1      -7.782  13.234  68.400  1.00  0.00    -0.138 C  
HETATM   13  O   UNL     1      -8.050  14.636  68.260  1.00  0.00    -0.129 OA 
HETATM   14  C   UNL     1      -9.356  14.932  68.562  1.00  0.00    -0.196 A  
HETATM   15  C   UNL     1     -10.351  13.960  68.695  1.00  0.00    -0.237 A  
HETATM   16  O   UNL     1     -10.126  12.623  68.484  1.00  0.00    -0.222 OA 
HETATM   17  C   UNL     1     -11.644  14.333  69.055  1.00  0.00    -0.342 A  
HETATM   18  C   UNL     1     -11.954  15.682  69.237  1.00  0.00    -0.338 A  
HETATM   19  C   UNL     1     -10.969  16.657  69.062  1.00  0.00    -0.279 A  
HETATM   20  C   UNL     1      -9.667  16.281  68.728  1.00  0.00    -0.240 A  
ENDBRANCH  10  11
ENDBRANCH   6  10
TORSDOF 2
ENDMDL
MODEL      240
REMARK 921   NORMALIZED FREE ENERGY PREDICTED BY IDOCK:   -2.46 KCAL/MOL
REMARK 922        TOTAL FREE ENERGY PREDICTED BY IDOCK:   -2.89 KCAL/MOL
REMARK 923 INTER-LIGAND FREE ENERGY PREDICTED BY IDOCK:   -2.49 KCAL/MOL
REMARK 924 INTRA-LIGAND FREE ENERGY PREDICTED BY IDOCK:   -0.39 KCAL/MOL
REMARK 927      BINDING AFFINITY PREDICTED BY RF-SCORE:    0.00 PKD
ROOT
HETATM    1  N   UNL     1     -11.495   9.398  71.686  1.00  0.00    -0.389 NA 
HETATM    2  C   UNL     1     -10.240   8.918  71.632  1.00  0.00    -0.345 C  
HETATM    3  H2  UNL     1     -12.119   9.054  72.416  1.00  0.00     0.000 HD 
HETATM    4  H1  UNL     1     -11.849  10.092  71.027  1.00  0.00     0.000 HD 
HETATM    5  N   UNL     1      -9.794   8.046  72.461  1.00  0.00    -0.235 NA 
HETATM    6  N   UNL     1      -9.525   9.408  70.597  1.00  0.00    -0.266 NA 
HETATM    7  H1  UNL     1      -8.843   7.682  72.421  1.00  0.00     0.000 HD 
HETATM    8  H2  UNL     1     -10.418   7.702  73.192  1.00  0.00     0.000 HD 
HETATM    9  H   UNL     1      -9.985   9.997  69.902  1.00  0.00     0.000 HD 
ENDROOT
BRANCH   6  10
HETATM   10  C   UNL     1      -8.103   9.108  70.458  1.00  0.00    -0.162 C  
BRANCH  10  11
HETATM   11  C   UNL     1      -7.884   8.067  69.354  1.00  0.00    -0.113 C  
HETATM   12  C   UNL     1      -8.714   8.409  68.121  1.00  0.00    -0.143 C  
HETATM   13  O   UNL     1      -8.411   7.504  67.051  1.00  0.00    -0.118 OA 
HETATM   14  C   UNL     1      -8.369   6.203  67.488  1.00  0.00    -0.109 A  
HETATM   15  C   UNL     1      -8.332   5.849  68.840  1.00  0.00    -0.102 A  
HETATM   16  O   UNL     1      -8.280   6.772  69.855  1.00  0.00    -0.123 OA 
HETATM   17  C   UNL     1      -8.344   4.506  69.208  1.00  0.00    -0.085 A  
HETATM   18  C   UNL     1      -8.346   3.515  68.226  1.00  0.00    -0.096 A  
HETATM   19  C   UNL     1      -8.340   3.869  66.874  1.00  0.00    -0.100 A  
HETATM   20  C   UNL     1      -8.356   5.215  66.505  1.00  0.00    -0.108 A  
ENDBRANCH  10  11
ENDBRANCH   6  10
TORSDOF 2
ENDMDL
MODEL      241
REMARK 921   NORMALIZED FREE ENERGY PREDICTED BY IDOCK:   -2.45 KCAL/MOL
REMARK 922        TOTAL FREE ENERGY PREDICTED BY IDOCK:   -2.87 KCAL/MOL
REMARK 923 INTER-LIGAND FREE ENERGY PREDICTED BY IDOCK:   -2.75 KCAL/MOL
REMARK 924 INTRA-LIGAND FREE ENERGY PREDICTED BY IDOCK:   -0.12 KCAL/MOL
REMARK 927      BINDING AFFINITY PREDICTED BY RF-SCORE:    0.00 PKD
ROOT
HETATM    1  N   UNL     1      -6.436   6.929  67.204  1.00  0.00    -0.048 NA 
HETATM    2  C   UNL     1      -6.711   7.873  68.121  1.00  0.00    -0.064 C  
HETATM    3  H2  UNL     1      -5.831   6.151  67.469  1.00  0.00     0.000 HD 
HETATM    4  H1  UNL     1      -6.807   6.958  66.254  1.00  0.00     0.000 HD 
HETATM    5  N   UNL     1      -6.244   7.836  69.317  1.00  0.00    -0.034 NA 
HETATM    6  N   UNL     1      -7.478   8.875  67.643  1.00  0.00    -0.092 NA 
HETATM    7  H1  UNL     1      -6.453   8.551  70.013  1.00  0.00     0.000 HD 
HETATM    8  H2  UNL     1      -5.640   7.058  69.582  1.00  0.00     0.000 HD 
HETATM    9  H   UNL     1      -7.702   8.906  66.648  1.00  0.00     0.000 HD 
ENDROOT
BRANCH   6  10
HETATM   10  C   UNL     1      -7.991   9.916  68.528  1.00  0.00    -0.086 C  
BRANCH  10  11
HETATM   11  C   UNL     1      -8.311  11.185  67.730  1.00  0.00    -0.123 C  
HETATM   12  C   UNL     1      -7.711  12.412  68.408  1.00  0.00    -0.144 C  
HETATM   13  O   UNL     1      -7.907  13.576  67.594  1.00  0.00    -0.147 OA 
HETATM   14  C   UNL     1      -9.190  13.642  67.110  1.00  0.00    -0.244 A  
HETATM   15  C   UNL     1     -10.084  12.569  67.159  1.00  0.00    -0.214 A  
HETATM   16  O   UNL     1      -9.745  11.334  67.651  1.00  0.00    -0.168 OA 
HETATM   17  C   UNL     1     -11.387  12.727  66.694  1.00  0.00    -0.364 A  
HETATM   18  C   UNL     1     -11.784  13.944  66.136  1.00  0.00    -0.393 A  
HETATM   19  C   UNL     1     -10.876  15.003  66.046  1.00  0.00    -0.334 A  
HETATM   20  C   UNL     1      -9.579  14.852  66.538  1.00  0.00    -0.297 A  
ENDBRANCH  10  11
ENDBRANCH   6  10
TORSDOF 2
ENDMDL
MODEL      242
REMARK 921   NORMALIZED FREE ENERGY PREDICTED BY IDOCK:   -2.40 KCAL/MOL
REMARK 922        TOTAL FREE ENERGY PREDICTED BY IDOCK:   -2.83 KCAL/MOL
REMARK 923 INTER-LIGAND FREE ENERGY PREDICTED BY IDOCK:   -2.91 KCAL/MOL
REMARK 924 INTRA-LIGAND FREE ENERGY PREDICTED BY IDOCK:    0.08 KCAL/MOL
REMARK 927      BINDING AFFINITY PREDICTED BY RF-SCORE:    0.00 PKD
ROOT
HETATM    1  N   UNL     1      -6.816   4.321  70.725  1.00  0.00    -0.035 NA 
HETATM    2  C   UNL     1      -8.039   4.873  70.638  1.00  0.00    -0.086 C  
HETATM    3  H2  UNL     1      -6.393   4.216  71.648  1.00  0.00     0.000 HD 
HETATM    4  H1  UNL     1      -6.295   4.004  69.909  1.00  0.00     0.000 HD 
HETATM    5  N   UNL     1      -8.696   5.273  71.665  1.00  0.00    -0.133 NA 
HETATM    6  N   UNL     1      -8.475   5.005  69.366  1.00  0.00    -0.084 NA 
HETATM    7  H1  UNL     1      -9.624   5.691  71.599  1.00  0.00     0.000 HD 
HETATM    8  H2  UNL     1      -8.273   5.168  72.587  1.00  0.00     0.000 HD 
HETATM    9  H   UNL     1      -7.846   4.787  68.594  1.00  0.00     0.000 HD 
ENDROOT
BRANCH   6  10
HETATM   10  C   UNL     1      -9.834   5.456  69.082  1.00  0.00    -0.177 C  
BRANCH  10  11
HETATM   11  C   UNL     1      -9.946   6.971  69.282  1.00  0.00    -0.162 C  
HETATM   12  C   UNL     1     -11.079   7.303  70.248  1.00  0.00    -0.266 C  
HETATM   13  O   UNL     1     -11.099   8.710  70.527  1.00  0.00    -0.240 OA 
HETATM   14  C   UNL     1     -10.960   9.453  69.381  1.00  0.00    -0.145 A  
HETATM   15  C   UNL     1     -10.555   8.908  68.159  1.00  0.00    -0.157 A  
HETATM   16  O   UNL     1     -10.209   7.589  68.004  1.00  0.00    -0.179 OA 
HETATM   17  C   UNL     1     -10.487   9.715  67.026  1.00  0.00    -0.302 A  
HETATM   18  C   UNL     1     -10.778  11.077  67.123  1.00  0.00    -0.313 A  
HETATM   19  C   UNL     1     -11.140  11.630  68.354  1.00  0.00    -0.285 A  
HETATM   20  C   UNL     1     -11.235  10.815  69.483  1.00  0.00    -0.342 A  
ENDBRANCH  10  11
ENDBRANCH   6  10
TORSDOF 2
ENDMDL
MODEL      243
REMARK 921   NORMALIZED FREE ENERGY PREDICTED BY IDOCK:   -2.36 KCAL/MOL
REMARK 922        TOTAL FREE ENERGY PREDICTED BY IDOCK:   -2.77 KCAL/MOL
REMARK 923 INTER-LIGAND FREE ENERGY PREDICTED BY IDOCK:   -2.53 KCAL/MOL
REMARK 924 INTRA-LIGAND FREE ENERGY PREDICTED BY IDOCK:   -0.25 KCAL/MOL
REMARK 927      BINDING AFFINITY PREDICTED BY RF-SCORE:    0.00 PKD
ROOT
HETATM    1  N   UNL     1     -10.318   2.486  72.943  1.00  0.00    -0.147 NA 
HETATM    2  C   UNL     1     -10.302   3.775  73.326  1.00  0.00    -0.167 C  
HETATM    3  H2  UNL     1      -9.635   1.847  73.351  1.00  0.00     0.000 HD 
HETATM    4  H1  UNL     1     -10.983   2.122  72.262  1.00  0.00     0.000 HD 
HETATM    5  N   UNL     1      -9.464   4.235  74.184  1.00  0.00    -0.105 NA 
HETATM    6  N   UNL     1     -11.215   4.534  72.684  1.00  0.00    -0.024 NA 
HETATM    7  H1  UNL     1      -9.452   5.212  74.474  1.00  0.00     0.000 HD 
HETATM    8  H2  UNL     1      -8.782   3.595  74.592  1.00  0.00     0.000 HD 
HETATM    9  H   UNL     1     -11.757   4.130  71.920  1.00  0.00     0.000 HD 
ENDROOT
BRANCH   6  10
HETATM   10  C   UNL     1     -11.438   5.925  73.066  1.00  0.00    -0.107 C  
BRANCH  10  11
HETATM   11  C   UNL     1     -11.110   6.859  71.895  1.00  0.00    -0.246 C  
HETATM   12  C   UNL     1     -11.098   6.087  70.580  1.00  0.00    -0.314 C  
HETATM   13  O   UNL     1     -10.913   6.986  69.478  1.00  0.00    -0.243 OA 
HETATM   14  C   UNL     1      -9.913   7.892  69.728  1.00  0.00    -0.186 A  
HETATM   15  C   UNL     1      -9.363   8.095  70.997  1.00  0.00    -0.152 A  
HETATM   16  O   UNL     1      -9.809   7.443  72.120  1.00  0.00    -0.168 OA 
HETATM   17  C   UNL     1      -8.314   8.995  71.165  1.00  0.00    -0.212 A  
HETATM   18  C   UNL     1      -7.845   9.728  70.074  1.00  0.00    -0.188 A  
HETATM   19  C   UNL     1      -8.424   9.557  68.813  1.00  0.00    -0.122 A  
HETATM   20  C   UNL     1      -9.457   8.635  68.641  1.00  0.00    -0.144 A  
ENDBRANCH  10  11
ENDBRANCH   6  10
TORSDOF 2
ENDMDL
MODEL      244
REMARK 921   NORMALIZED FREE ENERGY PREDICTED BY IDOCK:   -2.35 KCAL/MOL
REMARK 922        TOTAL FREE ENERGY PREDICTED BY IDOCK:   -2.77 KCAL/MOL
REMARK 923 INTER-LIGAND FREE ENERGY PREDICTED BY IDOCK:   -2.63 KCAL/MOL
REMARK 924 INTRA-LIGAND FREE ENERGY PREDICTED BY IDOCK:   -0.14 KCAL/MOL
REMARK 927      BINDING AFFINITY PREDICTED BY RF-SCORE:    0.00 PKD
ROOT
HETATM    1  N   UNL     1      -5.525   6.179  68.123  1.00  0.00    -0.004 NA 
HETATM    2  C   UNL     1      -6.063   7.094  68.950  1.00  0.00    -0.027 C  
HETATM    3  H2  UNL     1      -5.104   5.343  68.528  1.00  0.00     0.000 HD 
HETATM    4  H1  UNL     1      -5.521   6.287  67.109  1.00  0.00     0.000 HD 
HETATM    5  N   UNL     1      -6.069   6.959  70.226  1.00  0.00    -0.024 NA 
HETATM    6  N   UNL     1      -6.545   8.178  68.305  1.00  0.00    -0.058 NA 
HETATM    7  H1  UNL     1      -6.477   7.652  70.852  1.00  0.00     0.000 HD 
HETATM    8  H2  UNL     1      -5.647   6.122  70.631  1.00  0.00     0.000 HD 
HETATM    9  H   UNL     1      -6.388   8.277  67.302  1.00  0.00     0.000 HD 
ENDROOT
BRANCH   6  10
HETATM   10  C   UNL     1      -7.287   9.210  69.022  1.00  0.00    -0.073 C  
BRANCH  10  11
HETATM   11  C   UNL     1      -8.454   9.718  68.168  1.00  0.00    -0.114 C  
HETATM   12  C   UNL     1      -7.976  10.077  66.765  1.00  0.00    -0.114 C  
HETATM   13  O   UNL     1      -9.091  10.433  65.936  1.00  0.00    -0.155 OA 
HETATM   14  C   UNL     1      -9.951  11.284  66.586  1.00  0.00    -0.209 A  
HETATM   15  C   UNL     1      -9.897  11.524  67.962  1.00  0.00    -0.188 A  
HETATM   16  O   UNL     1      -9.012  10.891  68.799  1.00  0.00    -0.162 OA 
HETATM   17  C   UNL     1     -10.770  12.441  68.543  1.00  0.00    -0.262 A  
HETATM   18  C   UNL     1     -11.728  13.084  67.757  1.00  0.00    -0.405 A  
HETATM   19  C   UNL     1     -11.810  12.811  66.389  1.00  0.00    -0.472 A  
HETATM   20  C   UNL     1     -10.917  11.912  65.802  1.00  0.00    -0.359 A  
ENDBRANCH  10  11
ENDBRANCH   6  10
TORSDOF 2
ENDMDL
MODEL      245
REMARK 921   NORMALIZED FREE ENERGY PREDICTED BY IDOCK:   -2.27 KCAL/MOL
REMARK 922        TOTAL FREE ENERGY PREDICTED BY IDOCK:   -2.68 KCAL/MOL
REMARK 923 INTER-LIGAND FREE ENERGY PREDICTED BY IDOCK:   -2.54 KCAL/MOL
REMARK 924 INTRA-LIGAND FREE ENERGY PREDICTED BY IDOCK:   -0.14 KCAL/MOL
REMARK 927      BINDING AFFINITY PREDICTED BY RF-SCORE:    0.00 PKD
ROOT
HETATM    1  N   UNL     1      -7.509   5.163  63.468  1.00  0.00    -0.051 NA 
HETATM    2  C   UNL     1      -7.326   5.483  64.762  1.00  0.00    -0.064 C  
HETATM    3  H2  UNL     1      -6.705   5.189  62.841  1.00  0.00     0.000 HD 
HETATM    4  H1  UNL     1      -8.417   4.897  63.089  1.00  0.00     0.000 HD 
HETATM    5  N   UNL     1      -6.183   5.818  65.240  1.00  0.00    -0.035 NA 
HETATM    6  N   UNL     1      -8.468   5.462  65.483  1.00  0.00    -0.136 NA 
HETATM    7  H1  UNL     1      -6.045   6.060  66.220  1.00  0.00     0.000 HD 
HETATM    8  H2  UNL     1      -5.379   5.844  64.612  1.00  0.00     0.000 HD 
HETATM    9  H   UNL     1      -9.359   5.315  65.009  1.00  0.00     0.000 HD 
ENDROOT
BRANCH   6  10
HETATM   10  C   UNL     1      -8.444   5.647  66.931  1.00  0.00    -0.111 C  
BRANCH  10  11
HETATM   11  C   UNL     1      -9.335   6.827  67.332  1.00  0.00    -0.130 C  
HETATM   12  C   UNL     1      -8.977   8.069  66.523  1.00  0.00    -0.157 C  
HETATM   13  O   UNL     1      -9.893   9.134  66.813  1.00  0.00    -0.187 OA 
HETATM   14  C   UNL     1     -10.110   9.257  68.163  1.00  0.00    -0.187 A  
HETATM   15  C   UNL     1      -9.725   8.288  69.093  1.00  0.00    -0.171 A  
HETATM   16  O   UNL     1      -9.140   7.098  68.737  1.00  0.00    -0.135 OA 
HETATM   17  C   UNL     1      -9.932   8.506  70.453  1.00  0.00    -0.203 A  
HETATM   18  C   UNL     1     -10.566   9.673  70.881  1.00  0.00    -0.386 A  
HETATM   19  C   UNL     1     -10.991  10.623  69.948  1.00  0.00    -0.337 A  
HETATM   20  C   UNL     1     -10.758  10.416  68.587  1.00  0.00    -0.250 A  
ENDBRANCH  10  11
ENDBRANCH   6  10
TORSDOF 2
ENDMDL
MODEL      246
REMARK 921   NORMALIZED FREE ENERGY PREDICTED BY IDOCK:   -2.18 KCAL/MOL
REMARK 922        TOTAL FREE ENERGY PREDICTED BY IDOCK:   -2.58 KCAL/MOL
REMARK 923 INTER-LIGAND FREE ENERGY PREDICTED BY IDOCK:   -2.36 KCAL/MOL
REMARK 924 INTRA-LIGAND FREE ENERGY PREDICTED BY IDOCK:   -0.22 KCAL/MOL
REMARK 927      BINDING AFFINITY PREDICTED BY RF-SCORE:    0.00 PKD
ROOT
HETATM    1  N   UNL     1      -8.594   6.568  72.032  1.00  0.00    -0.125 NA 
HETATM    2  C   UNL     1      -8.350   7.878  71.849  1.00  0.00    -0.121 C  
HETATM    3  H2  UNL     1      -8.004   6.048  72.682  1.00  0.00     0.000 HD 
HETATM    4  H1  UNL     1      -9.343   6.074  71.549  1.00  0.00     0.000 HD 
HETATM    5  N   UNL     1      -7.407   8.501  72.458  1.00  0.00    -0.279 NA 
HETATM    6  N   UNL     1      -9.160   8.449  70.932  1.00  0.00    -0.150 NA 
HETATM    7  H1  UNL     1      -7.223   9.494  72.320  1.00  0.00     0.000 HD 
HETATM    8  H2  UNL     1      -6.818   7.980  73.108  1.00  0.00     0.000 HD 
HETATM    9  H   UNL     1      -9.798   7.864  70.392  1.00  0.00     0.000 HD 
ENDROOT
BRANCH   6  10
HETATM   10  C   UNL     1      -9.135   9.890  70.701  1.00  0.00     0.301 C  
BRANCH  10  11
HETATM   11  C   UNL     1      -9.245  10.192  69.203  1.00  0.00    -0.197 C  
HETATM   12  C   UNL     1     -10.687  10.044  68.729  1.00  0.00    -0.223 C  
HETATM   13  O   UNL     1     -10.804  10.446  67.358  1.00  0.00    -0.273 OA 
HETATM   14  C   UNL     1      -9.793   9.923  66.591  1.00  0.00    -0.207 A  
HETATM   15  C   UNL     1      -8.649   9.331  67.132  1.00  0.00    -0.128 A  
HETATM   16  O   UNL     1      -8.405   9.265  68.481  1.00  0.00    -0.116 OA 
HETATM   17  C   UNL     1      -7.688   8.775  66.290  1.00  0.00    -0.098 A  
HETATM   18  C   UNL     1      -7.849   8.851  64.905  1.00  0.00    -0.121 A  
HETATM   19  C   UNL     1      -8.972   9.482  64.364  1.00  0.00    -0.255 A  
HETATM   20  C   UNL     1      -9.947  10.015  65.208  1.00  0.00    -0.368 A  
ENDBRANCH  10  11
ENDBRANCH   6  10
TORSDOF 2
ENDMDL
MODEL      247
REMARK 921   NORMALIZED FREE ENERGY PREDICTED BY IDOCK:   -2.15 KCAL/MOL
REMARK 922        TOTAL FREE ENERGY PREDICTED BY IDOCK:   -2.54 KCAL/MOL
REMARK 923 INTER-LIGAND FREE ENERGY PREDICTED BY IDOCK:   -2.36 KCAL/MOL
REMARK 924 INTRA-LIGAND FREE ENERGY PREDICTED BY IDOCK:   -0.18 KCAL/MOL
REMARK 927      BINDING AFFINITY PREDICTED BY RF-SCORE:    0.00 PKD
ROOT
HETATM    1  N   UNL     1      -8.138   7.279  67.181  1.00  0.00    -0.113 NA 
HETATM    2  C   UNL     1      -8.166   7.704  68.457  1.00  0.00    -0.125 C  
HETATM    3  H2  UNL     1      -8.366   7.943  66.440  1.00  0.00     0.000 HD 
HETATM    4  H1  UNL     1      -7.898   6.322  66.924  1.00  0.00     0.000 HD 
HETATM    5  N   UNL     1      -8.467   8.909  68.781  1.00  0.00    -0.130 NA 
HETATM    6  N   UNL     1      -7.895   6.729  69.350  1.00  0.00    -0.111 NA 
HETATM    7  H1  UNL     1      -8.488   9.231  69.748  1.00  0.00     0.000 HD 
HETATM    8  H2  UNL     1      -8.696   9.572  68.040  1.00  0.00     0.000 HD 
HETATM    9  H   UNL     1      -7.794   5.766  69.028  1.00  0.00     0.000 HD 
ENDROOT
BRANCH   6  10
HETATM   10  C   UNL     1      -7.745   7.032  70.770  1.00  0.00    -0.095 C  
BRANCH  10  11
HETATM   11  C   UNL     1      -8.806   6.289  71.589  1.00  0.00    -0.138 C  
HETATM   12  C   UNL     1      -8.633   6.573  73.077  1.00  0.00    -0.118 C  
HETATM   13  O   UNL     1      -9.700   5.976  73.825  1.00  0.00    -0.152 OA 
HETATM   14  C   UNL     1      -9.944   4.689  73.416  1.00  0.00    -0.150 A  
HETATM   15  C   UNL     1      -9.425   4.148  72.237  1.00  0.00    -0.133 A  
HETATM   16  O   UNL     1      -8.665   4.871  71.352  1.00  0.00    -0.124 OA 
HETATM   17  C   UNL     1      -9.673   2.816  71.914  1.00  0.00    -0.221 A  
HETATM   18  C   UNL     1     -10.479   2.037  72.745  1.00  0.00    -0.238 A  
HETATM   19  C   UNL     1     -11.035   2.591  73.902  1.00  0.00    -0.281 A  
HETATM   20  C   UNL     1     -10.763   3.918  74.240  1.00  0.00    -0.233 A  
ENDBRANCH  10  11
ENDBRANCH   6  10
TORSDOF 2
ENDMDL
MODEL      248
REMARK 921   NORMALIZED FREE ENERGY PREDICTED BY IDOCK:   -2.13 KCAL/MOL
REMARK 922        TOTAL FREE ENERGY PREDICTED BY IDOCK:   -2.52 KCAL/MOL
REMARK 923 INTER-LIGAND FREE ENERGY PREDICTED BY IDOCK:   -2.65 KCAL/MOL
REMARK 924 INTRA-LIGAND FREE ENERGY PREDICTED BY IDOCK:    0.14 KCAL/MOL
REMARK 927      BINDING AFFINITY PREDICTED BY RF-SCORE:    0.00 PKD
ROOT
HETATM    1  N   UNL     1     -12.662   7.372  70.963  1.00  0.00    -0.558 NA 
HETATM    2  C   UNL     1     -11.564   7.089  70.241  1.00  0.00    -0.262 C  
HETATM    3  H2  UNL     1     -13.571   7.079  70.604  1.00  0.00     0.000 HD 
HETATM    4  H1  UNL     1     -12.624   7.867  71.854  1.00  0.00     0.000 HD 
HETATM    5  N   UNL     1     -11.611   6.467  69.119  1.00  0.00    -0.583 NA 
HETATM    6  N   UNL     1     -10.426   7.568  70.790  1.00  0.00    -0.211 NA 
HETATM    7  H1  UNL     1     -10.778   6.252  68.572  1.00  0.00     0.000 HD 
HETATM    8  H2  UNL     1     -12.520   6.174  68.760  1.00  0.00     0.000 HD 
HETATM    9  H   UNL     1     -10.480   8.167  71.614  1.00  0.00     0.000 HD 
ENDROOT
BRANCH   6  10
HETATM   10  C   UNL     1      -9.123   7.241  70.220  1.00  0.00    -0.152 C  
BRANCH  10  11
HETATM   11  C   UNL     1      -8.570   8.435  69.434  1.00  0.00    -0.129 C  
HETATM   12  C   UNL     1      -9.702   9.349  68.979  1.00  0.00    -0.166 C  
HETATM   13  O   UNL     1      -9.172  10.525  68.353  1.00  0.00    -0.143 OA 
HETATM   14  C   UNL     1      -8.167  10.216  67.469  1.00  0.00    -0.114 A  
HETATM   15  C   UNL     1      -7.552   8.962  67.417  1.00  0.00    -0.089 A  
HETATM   16  O   UNL     1      -7.859   7.940  68.279  1.00  0.00    -0.115 OA 
HETATM   17  C   UNL     1      -6.575   8.706  66.457  1.00  0.00    -0.063 A  
HETATM   18  C   UNL     1      -6.179   9.717  65.580  1.00  0.00    -0.068 A  
HETATM   19  C   UNL     1      -6.764  10.984  65.662  1.00  0.00     0.147 A  
HETATM   20  C   UNL     1      -7.762  11.232  66.605  1.00  0.00    -0.148 A  
ENDBRANCH  10  11
ENDBRANCH   6  10
TORSDOF 2
ENDMDL
MODEL      249
REMARK 921   NORMALIZED FREE ENERGY PREDICTED BY IDOCK:   -2.12 KCAL/MOL
REMARK 922        TOTAL FREE ENERGY PREDICTED BY IDOCK:   -2.50 KCAL/MOL
REMARK 923 INTER-LIGAND FREE ENERGY PREDICTED BY IDOCK:   -2.37 KCAL/MOL
REMARK 924 INTRA-LIGAND FREE ENERGY PREDICTED BY IDOCK:   -0.13 KCAL/MOL
REMARK 927      BINDING AFFINITY PREDICTED BY RF-SCORE:    0.00 PKD
ROOT
HETATM    1  N   UNL     1      -8.580   8.737  72.370  1.00  0.00    -0.406 NA 
HETATM    2  C   UNL     1      -8.998   8.827  71.095  1.00  0.00    -0.222 C  
HETATM    3  H2  UNL     1      -8.928   9.417  73.047  1.00  0.00     0.000 HD 
HETATM    4  H1  UNL     1      -7.930   8.019  72.688  1.00  0.00     0.000 HD 
HETATM    5  N   UNL     1      -9.815   9.731  70.694  1.00  0.00    -0.347 NA 
HETATM    6  N   UNL     1      -8.434   7.907  70.282  1.00  0.00    -0.127 NA 
HETATM    7  H1  UNL     1     -10.133   9.799  69.727  1.00  0.00     0.000 HD 
HETATM    8  H2  UNL     1     -10.163  10.411  71.371  1.00  0.00     0.000 HD 
HETATM    9  H   UNL     1      -7.693   7.305  70.643  1.00  0.00     0.000 HD 
ENDROOT
BRANCH   6  10
HETATM   10  C   UNL     1      -8.868   7.763  68.896  1.00  0.00    -0.135 C  
BRANCH  10  11
HETATM   11  C   UNL     1      -8.824   6.290  68.475  1.00  0.00    -0.114 C  
HETATM   12  C   UNL     1      -7.400   5.750  68.558  1.00  0.00    -0.084 C  
HETATM   13  O   UNL     1      -7.385   4.343  68.282  1.00  0.00    -0.063 OA 
HETATM   14  C   UNL     1      -8.152   4.036  67.186  1.00  0.00    -0.096 A  
HETATM   15  C   UNL     1      -9.056   4.931  66.608  1.00  0.00    -0.119 A  
HETATM   16  O   UNL     1      -9.299   6.184  67.115  1.00  0.00    -0.116 OA 
HETATM   17  C   UNL     1      -9.762   4.567  65.464  1.00  0.00    -0.204 A  
HETATM   18  C   UNL     1      -9.600   3.290  64.924  1.00  0.00    -0.140 A  
HETATM   19  C   UNL     1      -8.729   2.379  65.527  1.00  0.00    -0.120 A  
HETATM   20  C   UNL     1      -8.001   2.755  66.658  1.00  0.00    -0.077 A  
ENDBRANCH  10  11
ENDBRANCH   6  10
TORSDOF 2
ENDMDL
MODEL      250
REMARK 921   NORMALIZED FREE ENERGY PREDICTED BY IDOCK:   -2.04 KCAL/MOL
REMARK 922        TOTAL FREE ENERGY PREDICTED BY IDOCK:   -2.42 KCAL/MOL
REMARK 923 INTER-LIGAND FREE ENERGY PREDICTED BY IDOCK:   -2.22 KCAL/MOL
REMARK 924 INTRA-LIGAND FREE ENERGY PREDICTED BY IDOCK:   -0.20 KCAL/MOL
REMARK 927      BINDING AFFINITY PREDICTED BY RF-SCORE:    0.00 PKD
ROOT
HETATM    1  N   UNL     1      -7.022   8.766  66.227  1.00  0.00    -0.080 NA 
HETATM    2  C   UNL     1      -6.736   9.162  67.480  1.00  0.00    -0.069 C  
HETATM    3  H2  UNL     1      -7.103   9.475  65.497  1.00  0.00     0.000 HD 
HETATM    4  H1  UNL     1      -7.162   7.788  65.976  1.00  0.00     0.000 HD 
HETATM    5  N   UNL     1      -6.559  10.393  67.796  1.00  0.00    -0.065 NA 
HETATM    6  N   UNL     1      -6.703   8.144  68.366  1.00  0.00    -0.062 NA 
HETATM    7  H1  UNL     1      -6.341  10.693  68.746  1.00  0.00     0.000 HD 
HETATM    8  H2  UNL     1      -6.640  11.102  67.066  1.00  0.00     0.000 HD 
HETATM    9  H   UNL     1      -6.983   7.210  68.069  1.00  0.00     0.000 HD 
ENDROOT
BRANCH   6  10
HETATM   10  C   UNL     1      -6.274   8.363  69.744  1.00  0.00    -0.032 C  
BRANCH  10  11
HETATM   11  C   UNL     1      -7.474   8.286  70.695  1.00  0.00    -0.062 C  
HETATM   12  C   UNL     1      -7.011   8.314  72.148  1.00  0.00    -0.088 C  
HETATM   13  O   UNL     1      -8.141   8.367  73.029  1.00  0.00    -0.281 OA 
HETATM   14  C   UNL     1      -9.113   7.472  72.656  1.00  0.00    -0.150 A  
HETATM   15  C   UNL     1      -9.122   6.822  71.419  1.00  0.00    -0.142 A  
HETATM   16  O   UNL     1      -8.187   7.056  70.442  1.00  0.00    -0.120 OA 
HETATM   17  C   UNL     1     -10.114   5.887  71.132  1.00  0.00    -0.249 A  
HETATM   18  C   UNL     1     -11.124   5.636  72.061  1.00  0.00    -0.291 A  
HETATM   19  C   UNL     1     -11.140   6.320  73.280  1.00  0.00    -0.145 A  
HETATM   20  C   UNL     1     -10.131   7.236  73.579  1.00  0.00    -0.387 A  
ENDBRANCH  10  11
ENDBRANCH   6  10
TORSDOF 2
ENDMDL
MODEL      251
REMARK 921   NORMALIZED FREE ENERGY PREDICTED BY IDOCK:   -1.99 KCAL/MOL
REMARK 922        TOTAL FREE ENERGY PREDICTED BY IDOCK:   -2.36 KCAL/MOL
REMARK 923 INTER-LIGAND FREE ENERGY PREDICTED BY IDOCK:   -2.15 KCAL/MOL
REMARK 924 INTRA-LIGAND FREE ENERGY PREDICTED BY IDOCK:   -0.21 KCAL/MOL
REMARK 927      BINDING AFFINITY PREDICTED BY RF-SCORE:    0.00 PKD
ROOT
HETATM    1  N   UNL     1      -5.539   6.178  68.117  1.00  0.00    -0.011 NA 
HETATM    2  C   UNL     1      -5.834   7.313  68.777  1.00  0.00    -0.023 C  
HETATM    3  H2  UNL     1      -5.313   5.343  68.658  1.00  0.00     0.000 HD 
HETATM    4  H1  UNL     1      -5.533   6.118  67.099  1.00  0.00     0.000 HD 
HETATM    5  N   UNL     1      -5.843   7.389  70.058  1.00  0.00    -0.024 NA 
HETATM    6  N   UNL     1      -6.067   8.361  67.958  1.00  0.00    -0.050 NA 
HETATM    7  H1  UNL     1      -6.066   8.249  70.558  1.00  0.00     0.000 HD 
HETATM    8  H2  UNL     1      -5.616   6.554  70.599  1.00  0.00     0.000 HD 
HETATM    9  H   UNL     1      -5.913   8.259  66.955  1.00  0.00     0.000 HD 
ENDROOT
BRANCH   6  10
HETATM   10  C   UNL     1      -6.535   9.638  68.488  1.00  0.00    -0.051 C  
BRANCH  10  11
HETATM   11  C   UNL     1      -7.531  10.284  67.519  1.00  0.00    -0.090 C  
HETATM   12  C   UNL     1      -8.965   9.963  67.928  1.00  0.00    -0.128 C  
HETATM   13  O   UNL     1      -9.891  10.670  67.093  1.00  0.00    -0.168 OA 
HETATM   14  C   UNL     1      -9.541  10.586  65.768  1.00  0.00    -0.210 A  
HETATM   15  C   UNL     1      -8.294  10.129  65.333  1.00  0.00    -0.157 A  
HETATM   16  O   UNL     1      -7.285   9.771  66.192  1.00  0.00    -0.095 OA 
HETATM   17  C   UNL     1      -8.029  10.022  63.969  1.00  0.00    -0.151 A  
HETATM   18  C   UNL     1      -8.993  10.416  63.040  1.00  0.00    -0.247 A  
HETATM   19  C   UNL     1     -10.224  10.914  63.476  1.00  0.00    -0.379 A  
HETATM   20  C   UNL     1     -10.499  10.995  64.842  1.00  0.00    -0.371 A  
ENDBRANCH  10  11
ENDBRANCH   6  10
TORSDOF 2
ENDMDL
MODEL      252
REMARK 921   NORMALIZED FREE ENERGY PREDICTED BY IDOCK:   -1.97 KCAL/MOL
REMARK 922        TOTAL FREE ENERGY PREDICTED BY IDOCK:   -2.34 KCAL/MOL
REMARK 923 INTER-LIGAND FREE ENERGY PREDICTED BY IDOCK:   -2.13 KCAL/MOL
REMARK 924 INTRA-LIGAND FREE ENERGY PREDICTED BY IDOCK:   -0.21 KCAL/MOL
REMARK 927      BINDING AFFINITY PREDICTED BY RF-SCORE:    0.00 PKD
ROOT
HETATM    1  N   UNL     1      -6.436   1.589  69.834  1.00  0.00    -0.025 NA 
HETATM    2  C   UNL     1      -6.262   2.345  70.933  1.00  0.00    -0.019 C  
HETATM    3  H2  UNL     1      -6.518   0.578  69.944  1.00  0.00     0.000 HD 
HETATM    4  H1  UNL     1      -6.490   1.985  68.895  1.00  0.00     0.000 HD 
HETATM    5  N   UNL     1      -6.195   1.847  72.114  1.00  0.00    -0.013 NA 
HETATM    6  N   UNL     1      -6.118   3.659  70.659  1.00  0.00    -0.018 NA 
HETATM    7  H1  UNL     1      -6.064   2.420  72.947  1.00  0.00     0.000 HD 
HETATM    8  H2  UNL     1      -6.276   0.836  72.224  1.00  0.00     0.000 HD 
HETATM    9  H   UNL     1      -6.051   3.966  69.689  1.00  0.00     0.000 HD 
ENDROOT
BRANCH   6  10
HETATM   10  C   UNL     1      -6.058   4.647  71.733  1.00  0.00    -0.021 C  
BRANCH  10  11
HETATM   11  C   UNL     1      -7.059   5.777  71.474  1.00  0.00    -0.077 C  
HETATM   12  C   UNL     1      -7.203   6.660  72.709  1.00  0.00    -0.080 C  
HETATM   13  O   UNL     1      -8.045   7.785  72.421  1.00  0.00    -0.104 OA 
HETATM   14  C   UNL     1      -9.173   7.408  71.736  1.00  0.00    -0.140 A  
HETATM   15  C   UNL     1      -9.326   6.151  71.144  1.00  0.00    -0.164 A  
HETATM   16  O   UNL     1      -8.340   5.196  71.149  1.00  0.00    -0.116 OA 
HETATM   17  C   UNL     1     -10.521   5.821  70.509  1.00  0.00    -0.331 A  
HETATM   18  C   UNL     1     -11.547   6.763  70.424  1.00  0.00    -0.422 A  
HETATM   19  C   UNL     1     -11.378   8.035  70.978  1.00  0.00    -0.294 A  
HETATM   20  C   UNL     1     -10.190   8.356  71.639  1.00  0.00    -0.310 A  
ENDBRANCH  10  11
ENDBRANCH   6  10
TORSDOF 2
ENDMDL
MODEL      253
REMARK 921   NORMALIZED FREE ENERGY PREDICTED BY IDOCK:   -1.86 KCAL/MOL
REMARK 922        TOTAL FREE ENERGY PREDICTED BY IDOCK:   -2.22 KCAL/MOL
REMARK 923 INTER-LIGAND FREE ENERGY PREDICTED BY IDOCK:   -2.00 KCAL/MOL
REMARK 924 INTRA-LIGAND FREE ENERGY PREDICTED BY IDOCK:   -0.22 KCAL/MOL
REMARK 927      BINDING AFFINITY PREDICTED BY RF-SCORE:    0.00 PKD
ROOT
HETATM    1  N   UNL     1      -7.290   5.840  63.312  1.00  0.00    -0.056 NA 
HETATM    2  C   UNL     1      -7.005   5.805  64.626  1.00  0.00    -0.052 C  
HETATM    3  H2  UNL     1      -6.520   5.788  62.644  1.00  0.00     0.000 HD 
HETATM    4  H1  UNL     1      -8.242   5.917  62.955  1.00  0.00     0.000 HD 
HETATM    5  N   UNL     1      -5.807   5.707  65.075  1.00  0.00    -0.021 NA 
HETATM    6  N   UNL     1      -8.097   5.931  65.411  1.00  0.00    -0.123 NA 
HETATM    7  H1  UNL     1      -5.592   5.680  66.071  1.00  0.00     0.000 HD 
HETATM    8  H2  UNL     1      -5.037   5.655  64.407  1.00  0.00     0.000 HD 
HETATM    9  H   UNL     1      -9.001   6.137  64.986  1.00  0.00     0.000 HD 
ENDROOT
BRANCH   6  10
HETATM   10  C   UNL     1      -8.001   5.777  66.860  1.00  0.00    -0.102 C  
BRANCH  10  11
HETATM   11  C   UNL     1      -8.237   7.122  67.555  1.00  0.00    -0.117 C  
HETATM   12  C   UNL     1      -9.274   6.979  68.664  1.00  0.00    -0.131 C  
HETATM   13  O   UNL     1      -9.399   8.210  69.390  1.00  0.00    -0.154 OA 
HETATM   14  C   UNL     1      -9.471   9.289  68.544  1.00  0.00    -0.146 A  
HETATM   15  C   UNL     1      -9.162   9.218  67.183  1.00  0.00    -0.130 A  
HETATM   16  O   UNL     1      -8.709   8.073  66.576  1.00  0.00    -0.131 OA 
HETATM   17  C   UNL     1      -9.309  10.344  66.377  1.00  0.00    -0.197 A  
HETATM   18  C   UNL     1      -9.719  11.554  66.939  1.00  0.00    -0.205 A  
HETATM   19  C   UNL     1      -9.985  11.635  68.308  1.00  0.00    -0.201 A  
HETATM   20  C   UNL     1      -9.865  10.500  69.111  1.00  0.00    -0.233 A  
ENDBRANCH  10  11
ENDBRANCH   6  10
TORSDOF 2
ENDMDL
MODEL      254
REMARK 921   NORMALIZED FREE ENERGY PREDICTED BY IDOCK:   -1.81 KCAL/MOL
REMARK 922        TOTAL FREE ENERGY PREDICTED BY IDOCK:   -2.17 KCAL/MOL
REMARK 923 INTER-LIGAND FREE ENERGY PREDICTED BY IDOCK:   -1.97 KCAL/MOL
REMARK 924 INTRA-LIGAND FREE ENERGY PREDICTED BY IDOCK:   -0.20 KCAL/MOL
REMARK 927      BINDING AFFINITY PREDICTED BY RF-SCORE:    0.00 PKD
ROOT
HETATM    1  N   UNL     1     -10.323   7.628  73.165  1.00  0.00    -0.331 NA 
HETATM    2  C   UNL     1     -10.351   7.831  71.836  1.00  0.00    -0.207 C  
HETATM    3  H2  UNL     1     -10.302   8.440  73.783  1.00  0.00     0.000 HD 
HETATM    4  H1  UNL     1     -10.321   6.697  73.581  1.00  0.00     0.000 HD 
HETATM    5  N   UNL     1     -10.353   9.002  71.312  1.00  0.00    -0.284 NA 
HETATM    6  N   UNL     1     -10.327   6.685  71.121  1.00  0.00    -0.205 NA 
HETATM    7  H1  UNL     1     -10.375   9.156  70.305  1.00  0.00     0.000 HD 
HETATM    8  H2  UNL     1     -10.332   9.814  71.930  1.00  0.00     0.000 HD 
HETATM    9  H   UNL     1     -10.193   5.796  71.601  1.00  0.00     0.000 HD 
ENDROOT
BRANCH   6  10
HETATM   10  C   UNL     1     -10.490   6.703  69.671  1.00  0.00    -0.213 C  
BRANCH  10  11
HETATM   11  C   UNL     1      -9.661   5.586  69.028  1.00  0.00    -0.136 C  
HETATM   12  C   UNL     1      -9.289   4.529  70.062  1.00  0.00    -0.153 C  
HETATM   13  O   UNL     1      -8.621   3.428  69.431  1.00  0.00    -0.063 OA 
HETATM   14  C   UNL     1      -7.665   3.861  68.545  1.00  0.00    -0.061 A  
HETATM   15  C   UNL     1      -7.570   5.183  68.105  1.00  0.00    -0.080 A  
HETATM   16  O   UNL     1      -8.456   6.163  68.478  1.00  0.00    -0.113 OA 
HETATM   17  C   UNL     1      -6.540   5.559  67.246  1.00  0.00    -0.053 A  
HETATM   18  C   UNL     1      -5.632   4.603  66.789  1.00  0.00    -0.014 A  
HETATM   19  C   UNL     1      -5.753   3.271  67.194  1.00  0.00    -0.022 A  
HETATM   20  C   UNL     1      -6.769   2.901  68.077  1.00  0.00    -0.037 A  
ENDBRANCH  10  11
ENDBRANCH   6  10
TORSDOF 2
ENDMDL
MODEL      255
REMARK 921   NORMALIZED FREE ENERGY PREDICTED BY IDOCK:   -1.76 KCAL/MOL
REMARK 922        TOTAL FREE ENERGY PREDICTED BY IDOCK:   -2.11 KCAL/MOL
REMARK 923 INTER-LIGAND FREE ENERGY PREDICTED BY IDOCK:   -1.91 KCAL/MOL
REMARK 924 INTRA-LIGAND FREE ENERGY PREDICTED BY IDOCK:   -0.20 KCAL/MOL
REMARK 927      BINDING AFFINITY PREDICTED BY RF-SCORE:    0.00 PKD
ROOT
HETATM    1  N   UNL     1      -8.387   4.295  62.882  1.00  0.00    -0.084 NA 
HETATM    2  C   UNL     1      -7.716   4.143  64.037  1.00  0.00    -0.083 C  
HETATM    3  H2  UNL     1      -7.879   4.627  62.062  1.00  0.00     0.000 HD 
HETATM    4  H1  UNL     1      -9.383   4.094  62.791  1.00  0.00     0.000 HD 
HETATM    5  N   UNL     1      -6.463   4.396  64.151  1.00  0.00    -0.037 NA 
HETATM    6  N   UNL     1      -8.502   3.747  65.062  1.00  0.00    -0.107 NA 
HETATM    7  H1  UNL     1      -5.954   4.279  65.027  1.00  0.00     0.000 HD 
HETATM    8  H2  UNL     1      -5.955   4.727  63.331  1.00  0.00     0.000 HD 
HETATM    9  H   UNL     1      -9.511   3.693  64.929  1.00  0.00     0.000 HD 
ENDROOT
BRANCH   6  10
HETATM   10  C   UNL     1      -7.926   3.398  66.357  1.00  0.00    -0.084 C  
BRANCH  10  11
HETATM   11  C   UNL     1      -8.386   4.390  67.430  1.00  0.00    -0.100 C  
HETATM   12  C   UNL     1      -9.233   3.686  68.486  1.00  0.00    -0.161 C  
HETATM   13  O   UNL     1      -9.556   4.591  69.550  1.00  0.00    -0.161 OA 
HETATM   14  C   UNL     1      -9.968   5.809  69.068  1.00  0.00    -0.169 A  
HETATM   15  C   UNL     1      -9.805   6.201  67.736  1.00  0.00    -0.123 A  
HETATM   16  O   UNL     1      -9.171   5.425  66.798  1.00  0.00    -0.123 OA 
HETATM   17  C   UNL     1     -10.295   7.432  67.308  1.00  0.00    -0.356 A  
HETATM   18  C   UNL     1     -10.907   8.293  68.221  1.00  0.00     0.025 A  
HETATM   19  C   UNL     1     -11.031   7.919  69.562  1.00  0.00    -0.078 A  
HETATM   20  C   UNL     1     -10.564   6.673  69.984  1.00  0.00    -0.266 A  
ENDBRANCH  10  11
ENDBRANCH   6  10
TORSDOF 2
ENDMDL
MODEL      256
REMARK 921   NORMALIZED FREE ENERGY PREDICTED BY IDOCK:   -1.59 KCAL/MOL
REMARK 922        TOTAL FREE ENERGY PREDICTED BY IDOCK:   -1.92 KCAL/MOL
REMARK 923 INTER-LIGAND FREE ENERGY PREDICTED BY IDOCK:   -2.23 KCAL/MOL
REMARK 924 INTRA-LIGAND FREE ENERGY PREDICTED BY IDOCK:    0.31 KCAL/MOL
REMARK 927      BINDING AFFINITY PREDICTED BY RF-SCORE:    0.00 PKD
ROOT
HETATM    1  N   UNL     1     -11.289   7.446  73.734  1.00  0.00    -0.232 NA 
HETATM    2  C   UNL     1     -11.135   7.880  72.470  1.00  0.00    -0.362 C  
HETATM    3  H2  UNL     1     -10.631   7.768  74.444  1.00  0.00     0.000 HD 
HETATM    4  H1  UNL     1     -12.035   6.809  74.011  1.00  0.00     0.000 HD 
HETATM    5  N   UNL     1     -10.196   8.682  72.121  1.00  0.00    -0.326 NA 
HETATM    6  N   UNL     1     -12.031   7.350  71.611  1.00  0.00    -0.293 NA 
HETATM    7  H1  UNL     1     -10.079   9.011  71.163  1.00  0.00     0.000 HD 
HETATM    8  H2  UNL     1      -9.538   9.004  72.832  1.00  0.00     0.000 HD 
HETATM    9  H   UNL     1     -12.665   6.619  71.934  1.00  0.00     0.000 HD 
ENDROOT
BRANCH   6  10
HETATM   10  C   UNL     1     -12.106   7.807  70.227  1.00  0.00     0.324 C  
BRANCH  10  11
HETATM   11  C   UNL     1     -11.140   7.006  69.348  1.00  0.00    -0.157 C  
HETATM   12  C   UNL     1     -10.403   5.959  70.176  1.00  0.00    -0.241 C  
HETATM   13  O   UNL     1      -9.594   5.133  69.327  1.00  0.00    -0.135 OA 
HETATM   14  C   UNL     1      -8.889   5.882  68.418  1.00  0.00    -0.111 A  
HETATM   15  C   UNL     1      -9.157   7.229  68.164  1.00  0.00    -0.134 A  
HETATM   16  O   UNL     1     -10.184   7.916  68.763  1.00  0.00    -0.197 OA 
HETATM   17  C   UNL     1      -8.365   7.939  67.264  1.00  0.00    -0.122 A  
HETATM   18  C   UNL     1      -7.335   7.289  66.582  1.00  0.00    -0.080 A  
HETATM   19  C   UNL     1      -7.095   5.930  66.804  1.00  0.00    -0.070 A  
HETATM   20  C   UNL     1      -7.871   5.227  67.726  1.00  0.00    -0.092 A  
ENDBRANCH  10  11
ENDBRANCH   6  10
TORSDOF 2
ENDMDL
MODEL      257
REMARK 921   NORMALIZED FREE ENERGY PREDICTED BY IDOCK:   -1.48 KCAL/MOL
REMARK 922        TOTAL FREE ENERGY PREDICTED BY IDOCK:   -1.79 KCAL/MOL
REMARK 923 INTER-LIGAND FREE ENERGY PREDICTED BY IDOCK:   -1.49 KCAL/MOL
REMARK 924 INTRA-LIGAND FREE ENERGY PREDICTED BY IDOCK:   -0.30 KCAL/MOL
REMARK 927      BINDING AFFINITY PREDICTED BY RF-SCORE:    0.00 PKD
ROOT
HETATM    1  N   UNL     1      -6.168   1.593  69.750  1.00  0.00    -0.024 NA 
HETATM    2  C   UNL     1      -5.880   2.656  70.521  1.00  0.00    -0.018 C  
HETATM    3  H2  UNL     1      -6.389   0.706  70.204  1.00  0.00     0.000 HD 
HETATM    4  H1  UNL     1      -6.173   1.635  68.731  1.00  0.00     0.000 HD 
HETATM    5  N   UNL     1      -5.873   2.603  71.803  1.00  0.00    -0.012 NA 
HETATM    6  N   UNL     1      -5.555   3.758  69.811  1.00  0.00    -0.016 NA 
HETATM    7  H1  UNL     1      -5.655   3.409  72.388  1.00  0.00     0.000 HD 
HETATM    8  H2  UNL     1      -6.095   1.716  72.257  1.00  0.00     0.000 HD 
HETATM    9  H   UNL     1      -5.453   3.691  68.798  1.00  0.00     0.000 HD 
ENDROOT
BRANCH   6  10
HETATM   10  C   UNL     1      -5.347   5.043  70.472  1.00  0.00    -0.004 C  
BRANCH  10  11
HETATM   11  C   UNL     1      -6.474   6.016  70.111  1.00  0.00    -0.039 C  
HETATM   12  C   UNL     1      -7.553   6.012  71.188  1.00  0.00    -0.100 C  
HETATM   13  O   UNL     1      -8.541   7.013  70.907  1.00  0.00    -0.136 OA 
HETATM   14  C   UNL     1      -8.916   6.993  69.587  1.00  0.00    -0.141 A  
HETATM   15  C   UNL     1      -8.213   6.297  68.600  1.00  0.00    -0.112 A  
HETATM   16  O   UNL     1      -7.052   5.609  68.852  1.00  0.00    -0.065 OA 
HETATM   17  C   UNL     1      -8.684   6.280  67.290  1.00  0.00    -0.105 A  
HETATM   18  C   UNL     1      -9.833   6.999  66.954  1.00  0.00    -0.259 A  
HETATM   19  C   UNL     1     -10.512   7.731  67.932  1.00  0.00    -0.263 A  
HETATM   20  C   UNL     1     -10.054   7.725  69.251  1.00  0.00    -0.199 A  
ENDBRANCH  10  11
ENDBRANCH   6  10
TORSDOF 2
ENDMDL
MODEL      258
REMARK 921   NORMALIZED FREE ENERGY PREDICTED BY IDOCK:   -0.59 KCAL/MOL
REMARK 922        TOTAL FREE ENERGY PREDICTED BY IDOCK:   -0.80 KCAL/MOL
REMARK 923 INTER-LIGAND FREE ENERGY PREDICTED BY IDOCK:   -0.60 KCAL/MOL
REMARK 924 INTRA-LIGAND FREE ENERGY PREDICTED BY IDOCK:   -0.20 KCAL/MOL
REMARK 927      BINDING AFFINITY PREDICTED BY RF-SCORE:    0.00 PKD
ROOT
HETATM    1  N   UNL     1     -13.068  16.403  69.012  1.00  0.00     1.045 NA 
HETATM    2  C   UNL     1     -11.760  16.376  69.323  1.00  0.00     0.005 C  
HETATM    3  H2  UNL     1     -13.707  16.902  69.631  1.00  0.00     0.000 HD 
HETATM    4  H1  UNL     1     -13.448  15.945  68.184  1.00  0.00     0.000 HD 
HETATM    5  N   UNL     1     -11.282  16.952  70.365  1.00  0.00    -0.295 NA 
HETATM    6  N   UNL     1     -11.021  15.645  68.460  1.00  0.00    -0.286 NA 
HETATM    7  H1  UNL     1     -10.290  16.931  70.601  1.00  0.00     0.000 HD 
HETATM    8  H2  UNL     1     -11.921  17.451  70.985  1.00  0.00     0.000 HD 
HETATM    9  H   UNL     1     -11.488  15.107  67.730  1.00  0.00     0.000 HD 
ENDROOT
BRANCH   6  10
HETATM   10  C   UNL     1      -9.565  15.614  68.558  1.00  0.00    -0.199 C  
BRANCH  10  11
HETATM   11  C   UNL     1      -8.941  16.536  67.505  1.00  0.00    -0.196 C  
HETATM   12  C   UNL     1      -8.145  15.726  66.487  1.00  0.00    -0.196 C  
HETATM   13  O   UNL     1      -7.667  16.578  65.437  1.00  0.00     0.965 OA 
HETATM   14  C   UNL     1      -7.128  17.738  65.936  1.00  0.00    -0.243 A  
HETATM   15  C   UNL     1      -7.296  18.155  67.259  1.00  0.00    -0.206 A  
HETATM   16  O   UNL     1      -8.061  17.468  68.169  1.00  0.00    -0.232 OA 
HETATM   17  C   UNL     1      -6.675  19.318  67.707  1.00  0.00    -0.246 A  
HETATM   18  C   UNL     1      -5.922  20.090  66.821  1.00  0.00    -0.190 A  
HETATM   19  C   UNL     1      -5.790  19.697  65.487  1.00  0.00    -0.207 A  
HETATM   20  C   UNL     1      -6.390  18.516  65.045  1.00  0.00    -0.117 A  
ENDBRANCH  10  11
ENDBRANCH   6  10
TORSDOF 2
ENDMDL
MODEL      259
REMARK 921   NORMALIZED FREE ENERGY PREDICTED BY IDOCK:    3.51 KCAL/MOL
REMARK 922        TOTAL FREE ENERGY PREDICTED BY IDOCK:    3.78 KCAL/MOL
REMARK 923 INTER-LIGAND FREE ENERGY PREDICTED BY IDOCK:   -2.59 KCAL/MOL
REMARK 924 INTRA-LIGAND FREE ENERGY PREDICTED BY IDOCK:    6.38 KCAL/MOL
REMARK 927      BINDING AFFINITY PREDICTED BY RF-SCORE:    0.00 PKD
ROOT
HETATM    1  N   UNL     1     -11.838  16.258  68.184  1.00  0.00    -0.038 NA 
HETATM    2  C   UNL     1     -10.761  16.580  67.446  1.00  0.00    -0.260 C  
HETATM    3  H2  UNL     1     -11.750  15.517  68.879  1.00  0.00     0.000 HD 
HETATM    4  H1  UNL     1     -12.739  16.724  68.077  1.00  0.00     0.000 HD 
HETATM    5  N   UNL     1      -9.627  15.993  67.580  1.00  0.00    -0.221 NA 
HETATM    6  N   UNL     1     -11.010  17.538  66.527  1.00  0.00     0.092 NA 
HETATM    7  H1  UNL     1      -8.810  16.237  67.020  1.00  0.00     0.000 HD 
HETATM    8  H2  UNL     1      -9.539  15.252  68.275  1.00  0.00     0.000 HD 
HETATM    9  H   UNL     1     -11.966  17.864  66.388  1.00  0.00     0.000 HD 
ENDROOT
BRANCH   6  10
HETATM   10  C   UNL     1      -9.931  18.112  65.730  1.00  0.00     0.064 C  
BRANCH  10  11
HETATM   11  C   UNL     1      -8.599  18.006  66.480  1.00  0.00    -0.258 C  
HETATM   12  C   UNL     1      -8.336  16.565  66.907  1.00  0.00    -0.212 C  
HETATM   13  O   UNL     1      -7.035  16.451  67.498  1.00  0.00    -0.123 OA 
HETATM   14  C   UNL     1      -6.796  17.466  68.391  1.00  0.00    -0.194 A  
HETATM   15  C   UNL     1      -7.593  18.610  68.482  1.00  0.00    -0.311 A  
HETATM   16  O   UNL     1      -8.658  18.849  67.650  1.00  0.00    -0.275 OA 
HETATM   17  C   UNL     1      -7.319  19.574  69.450  1.00  0.00    -0.244 A  
HETATM   18  C   UNL     1      -6.221  19.417  70.296  1.00  0.00    -0.184 A  
HETATM   19  C   UNL     1      -5.398  18.294  70.177  1.00  0.00    -0.240 A  
HETATM   20  C   UNL     1      -5.689  17.315  69.225  1.00  0.00    -0.191 A  
ENDBRANCH  10  11
ENDBRANCH   6  10
TORSDOF 2
ENDMDL
MODEL      260
REMARK 921   NORMALIZED FREE ENERGY PREDICTED BY IDOCK:   10.94 KCAL/MOL
REMARK 922        TOTAL FREE ENERGY PREDICTED BY IDOCK:   12.08 KCAL/MOL
REMARK 923 INTER-LIGAND FREE ENERGY PREDICTED BY IDOCK:   11.46 KCAL/MOL
REMARK 924 INTRA-LIGAND FREE ENERGY PREDICTED BY IDOCK:    0.62 KCAL/MOL
REMARK 927      BINDING AFFINITY PREDICTED BY RF-SCORE:    0.00 PKD
ROOT
HETATM    1  N   UNL     1     -13.425   5.246  70.208  1.00  0.00     9.604 NA 
HETATM    2  C   UNL     1     -12.368   6.014  69.891  1.00  0.00     2.146 C  
HETATM    3  H2  UNL     1     -14.133   5.070  69.494  1.00  0.00     0.000 HD 
HETATM    4  H1  UNL     1     -13.550   4.832  71.131  1.00  0.00     0.000 HD 
HETATM    5  N   UNL     1     -12.211   6.535  68.728  1.00  0.00     0.967 NA 
HETATM    6  N   UNL     1     -11.526   6.217  70.927  1.00  0.00    -0.297 NA 
HETATM    7  H1  UNL     1     -11.409   7.117  68.488  1.00  0.00     0.000 HD 
HETATM    8  H2  UNL     1     -12.918   6.359  68.014  1.00  0.00     0.000 HD 
HETATM    9  H   UNL     1     -11.782   5.882  71.856  1.00  0.00     0.000 HD 
ENDROOT
BRANCH   6  10
HETATM   10  C   UNL     1     -10.255   6.909  70.738  1.00  0.00    -0.195 C  
BRANCH  10  11
HETATM   11  C   UNL     1      -9.432   6.223  69.642  1.00  0.00    -0.146 C  
HETATM   12  C   UNL     1      -9.454   4.709  69.823  1.00  0.00    -0.168 C  
HETATM   13  O   UNL     1      -8.787   4.067  68.728  1.00  0.00    -0.093 OA 
HETATM   14  C   UNL     1      -7.599   4.687  68.428  1.00  0.00    -0.069 A  
HETATM   15  C   UNL     1      -7.243   5.942  68.927  1.00  0.00    -0.082 A  
HETATM   16  O   UNL     1      -8.071   6.696  69.721  1.00  0.00    -0.121 OA 
HETATM   17  C   UNL     1      -5.997   6.485  68.621  1.00  0.00    -0.021 A  
HETATM   18  C   UNL     1      -5.125   5.793  67.779  1.00  0.00    -0.004 A  
HETATM   19  C   UNL     1      -5.499   4.557  67.245  1.00  0.00    -0.013 A  
HETATM   20  C   UNL     1      -6.737   4.002  67.574  1.00  0.00    -0.047 A  
ENDBRANCH  10  11
ENDBRANCH   6  10
TORSDOF 2
ENDMDL
