MODEL        1
REMARK 921   NORMALIZED FREE ENERGY PREDICTED BY IDOCK:   -6.16 KCAL/MOL
REMARK 922        TOTAL FREE ENERGY PREDICTED BY IDOCK:   -7.21 KCAL/MOL
REMARK 923 INTER-LIGAND FREE ENERGY PREDICTED BY IDOCK:   -6.87 KCAL/MOL
REMARK 924 INTRA-LIGAND FREE ENERGY PREDICTED BY IDOCK:   -0.34 KCAL/MOL
REMARK 927      BINDING AFFINITY PREDICTED BY RF-SCORE:    0.00 PKD
ROOT
HETATM    1  N   UNL     1     -12.646  14.341  63.863  1.00  0.00    -0.886 NA 
HETATM    2  C   UNL     1     -11.741  15.205  64.360  1.00  0.00    -0.295 C  
HETATM    3  H2  UNL     1     -13.159  14.612  63.024  1.00  0.00     0.000 HD 
HETATM    4  H1  UNL     1     -12.848  13.432  64.279  1.00  0.00     0.000 HD 
HETATM    5  N   UNL     1     -11.487  16.348  63.837  1.00  0.00    -1.618 NA 
HETATM    6  N   UNL     1     -11.026  14.907  65.479  1.00  0.00    -0.334 N  
HETATM    7  H1  UNL     1     -10.801  17.001  64.214  1.00  0.00     0.000 HD 
HETATM    8  H2  UNL     1     -11.999  16.618  62.998  1.00  0.00     0.000 HD 
HETATM    9  C   UNL     1     -11.070  13.734  66.211  1.00  0.00    -0.302 C  
HETATM   10  H   UNL     1     -10.388  15.628  65.815  1.00  0.00     0.000 HD 
HETATM   11  O   UNL     1     -11.638  12.712  65.830  1.00  0.00    -0.352 OA 
ENDROOT
BRANCH   9  12
HETATM   12  C   UNL     1     -10.331  13.812  67.534  1.00  0.00    -0.241 C  
BRANCH  12  13
HETATM   13  C   UNL     1     -11.234  13.984  68.735  1.00  0.00    -0.298 A  
HETATM   14  C   UNL     1     -11.735  12.870  69.438  1.00  0.00    -0.321 A  
HETATM   15  C   UNL     1     -12.485  13.027  70.610  1.00  0.00    -0.347 A  
HETATM   16 CL   UNL     1     -11.447  11.248  68.911  1.00  0.00    -0.326 Cl 
HETATM   17  C   UNL     1     -12.765  14.299  71.098  1.00  0.00    -0.430 A  
HETATM   18  C   UNL     1     -12.327  15.414  70.392  1.00  0.00    -0.443 A  
HETATM   19  C   UNL     1     -11.581  15.261  69.216  1.00  0.00    -0.332 A  
HETATM   20 CL   UNL     1     -11.101  16.712  68.408  1.00  0.00    -0.350 Cl 
ENDBRANCH  12  13
ENDBRANCH   9  12
TORSDOF 2
ENDMDL
MODEL        2
REMARK 921   NORMALIZED FREE ENERGY PREDICTED BY IDOCK:   -6.08 KCAL/MOL
REMARK 922        TOTAL FREE ENERGY PREDICTED BY IDOCK:   -7.13 KCAL/MOL
REMARK 923 INTER-LIGAND FREE ENERGY PREDICTED BY IDOCK:   -6.81 KCAL/MOL
REMARK 924 INTRA-LIGAND FREE ENERGY PREDICTED BY IDOCK:   -0.32 KCAL/MOL
REMARK 927      BINDING AFFINITY PREDICTED BY RF-SCORE:    0.00 PKD
ROOT
HETATM    1  N   UNL     1     -12.778  14.540  63.947  1.00  0.00    -0.804 NA 
HETATM    2  C   UNL     1     -11.770  15.310  64.398  1.00  0.00    -0.285 C  
HETATM    3  H2  UNL     1     -13.300  14.860  63.131  1.00  0.00     0.000 HD 
HETATM    4  H1  UNL     1     -13.048  13.654  64.374  1.00  0.00     0.000 HD 
HETATM    5  N   UNL     1     -11.431  16.423  63.860  1.00  0.00    -1.618 NA 
HETATM    6  N   UNL     1     -11.037  14.942  65.483  1.00  0.00    -0.340 N  
HETATM    7  H1  UNL     1     -10.667  17.006  64.202  1.00  0.00     0.000 HD 
HETATM    8  H2  UNL     1     -11.953  16.744  63.045  1.00  0.00     0.000 HD 
HETATM    9  C   UNL     1     -11.160  13.779  66.220  1.00  0.00    -0.302 C  
HETATM   10  H   UNL     1     -10.316  15.597  65.787  1.00  0.00     0.000 HD 
HETATM   11  O   UNL     1     -11.842  12.817  65.870  1.00  0.00    -0.393 OA 
ENDROOT
BRANCH   9  12
HETATM   12  C   UNL     1     -10.356  13.783  67.507  1.00  0.00    -0.241 C  
BRANCH  12  13
HETATM   13  C   UNL     1     -11.185  14.008  68.752  1.00  0.00    -0.298 A  
HETATM   14  C   UNL     1     -11.541  15.307  69.168  1.00  0.00    -0.332 A  
HETATM   15  C   UNL     1     -12.393  15.512  70.259  1.00  0.00    -0.431 A  
HETATM   16 CL   UNL     1     -10.962  16.720  68.356  1.00  0.00    -0.354 Cl 
HETATM   17  C   UNL     1     -12.898  14.428  70.969  1.00  0.00    -0.423 A  
HETATM   18  C   UNL     1     -12.518  13.139  70.609  1.00  0.00    -0.363 A  
HETATM   19  C   UNL     1     -11.661  12.930  69.522  1.00  0.00    -0.323 A  
HETATM   20 CL   UNL     1     -11.239  11.290  69.172  1.00  0.00    -0.303 Cl 
ENDBRANCH  12  13
ENDBRANCH   9  12
TORSDOF 2
ENDMDL
MODEL        3
REMARK 921   NORMALIZED FREE ENERGY PREDICTED BY IDOCK:   -6.01 KCAL/MOL
REMARK 922        TOTAL FREE ENERGY PREDICTED BY IDOCK:   -7.05 KCAL/MOL
REMARK 923 INTER-LIGAND FREE ENERGY PREDICTED BY IDOCK:   -6.84 KCAL/MOL
REMARK 924 INTRA-LIGAND FREE ENERGY PREDICTED BY IDOCK:   -0.21 KCAL/MOL
REMARK 927      BINDING AFFINITY PREDICTED BY RF-SCORE:    0.00 PKD
ROOT
HETATM    1  N   UNL     1     -11.422  16.563  63.924  1.00  0.00    -1.599 NA 
HETATM    2  C   UNL     1     -10.789  15.883  64.898  1.00  0.00    -0.400 C  
HETATM    3  H2  UNL     1     -11.148  17.531  63.757  1.00  0.00     0.000 HD 
HETATM    4  H1  UNL     1     -12.160  16.164  63.344  1.00  0.00     0.000 HD 
HETATM    5  N   UNL     1      -9.861  16.385  65.628  1.00  0.00    -0.530 NA 
HETATM    6  N   UNL     1     -11.110  14.590  65.176  1.00  0.00    -0.348 N  
HETATM    7  H1  UNL     1      -9.382  15.869  66.365  1.00  0.00     0.000 HD 
HETATM    8  H2  UNL     1      -9.587  17.353  65.460  1.00  0.00     0.000 HD 
HETATM    9  C   UNL     1     -12.035  13.800  64.519  1.00  0.00    -0.427 C  
HETATM   10  H   UNL     1     -10.612  14.156  65.954  1.00  0.00     0.000 HD 
HETATM   11  O   UNL     1     -12.569  14.112  63.457  1.00  0.00    -0.834 OA 
ENDROOT
BRANCH   9  12
HETATM   12  C   UNL     1     -12.326  12.488  65.224  1.00  0.00    -0.469 C  
BRANCH  12  13
HETATM   13  C   UNL     1     -11.100  11.811  65.797  1.00  0.00    -0.351 A  
HETATM   14  C   UNL     1     -10.872  11.769  67.187  1.00  0.00    -0.258 A  
HETATM   15  C   UNL     1      -9.794  11.055  67.725  1.00  0.00    -0.190 A  
HETATM   16 CL   UNL     1     -11.907  12.579  68.311  1.00  0.00    -0.381 Cl 
HETATM   17  C   UNL     1      -8.912  10.380  66.888  1.00  0.00    -0.151 A  
HETATM   18  C   UNL     1      -9.087  10.451  65.510  1.00  0.00    -0.208 A  
HETATM   19  C   UNL     1     -10.160  11.169  64.968  1.00  0.00    -0.283 A  
HETATM   20 CL   UNL     1     -10.275  11.208  63.243  1.00  0.00    -0.411 Cl 
ENDBRANCH  12  13
ENDBRANCH   9  12
TORSDOF 2
ENDMDL
MODEL        4
REMARK 921   NORMALIZED FREE ENERGY PREDICTED BY IDOCK:   -6.00 KCAL/MOL
REMARK 922        TOTAL FREE ENERGY PREDICTED BY IDOCK:   -7.04 KCAL/MOL
REMARK 923 INTER-LIGAND FREE ENERGY PREDICTED BY IDOCK:   -6.78 KCAL/MOL
REMARK 924 INTRA-LIGAND FREE ENERGY PREDICTED BY IDOCK:   -0.26 KCAL/MOL
REMARK 927      BINDING AFFINITY PREDICTED BY RF-SCORE:    0.00 PKD
ROOT
HETATM    1  N   UNL     1     -11.746  16.314  63.716  1.00  0.00    -1.488 NA 
HETATM    2  C   UNL     1     -11.879  15.075  64.226  1.00  0.00    -0.275 C  
HETATM    3  H2  UNL     1     -12.140  16.499  62.793  1.00  0.00     0.000 HD 
HETATM    4  H1  UNL     1     -11.275  17.077  64.200  1.00  0.00     0.000 HD 
HETATM    5  N   UNL     1     -12.472  14.115  63.617  1.00  0.00    -1.071 NA 
HETATM    6  N   UNL     1     -11.372  14.761  65.450  1.00  0.00    -0.348 N  
HETATM    7  H1  UNL     1     -12.572  13.177  64.004  1.00  0.00     0.000 HD 
HETATM    8  H2  UNL     1     -12.866  14.300  62.695  1.00  0.00     0.000 HD 
HETATM    9  C   UNL     1     -10.730  15.611  66.331  1.00  0.00    -0.291 C  
HETATM   10  H   UNL     1     -11.479  13.792  65.750  1.00  0.00     0.000 HD 
HETATM   11  O   UNL     1     -10.694  16.833  66.199  1.00  0.00    -0.240 OA 
ENDROOT
BRANCH   9  12
HETATM   12  C   UNL     1     -10.078  14.898  67.501  1.00  0.00    -0.228 C  
BRANCH  12  13
HETATM   13  C   UNL     1     -10.933  14.851  68.748  1.00  0.00    -0.259 A  
HETATM   14  C   UNL     1     -11.680  13.702  69.079  1.00  0.00    -0.333 A  
HETATM   15  C   UNL     1     -12.389  13.619  70.283  1.00  0.00    -0.392 A  
HETATM   16 CL   UNL     1     -11.759  12.327  68.033  1.00  0.00    -0.410 Cl 
HETATM   17  C   UNL     1     -12.382  14.684  71.177  1.00  0.00    -0.403 A  
HETATM   18  C   UNL     1     -11.695  15.848  70.848  1.00  0.00    -0.456 A  
HETATM   19  C   UNL     1     -10.990  15.937  69.642  1.00  0.00    -0.319 A  
HETATM   20 CL   UNL     1     -10.186  17.435  69.323  1.00  0.00    -0.266 Cl 
ENDBRANCH  12  13
ENDBRANCH   9  12
TORSDOF 2
ENDMDL
MODEL        5
REMARK 921   NORMALIZED FREE ENERGY PREDICTED BY IDOCK:   -5.96 KCAL/MOL
REMARK 922        TOTAL FREE ENERGY PREDICTED BY IDOCK:   -7.00 KCAL/MOL
REMARK 923 INTER-LIGAND FREE ENERGY PREDICTED BY IDOCK:   -6.79 KCAL/MOL
REMARK 924 INTRA-LIGAND FREE ENERGY PREDICTED BY IDOCK:   -0.21 KCAL/MOL
REMARK 927      BINDING AFFINITY PREDICTED BY RF-SCORE:    0.00 PKD
ROOT
HETATM    1  N   UNL     1     -11.505  16.714  63.962  1.00  0.00    -1.551 NA 
HETATM    2  C   UNL     1     -10.855  16.030  64.921  1.00  0.00    -0.372 C  
HETATM    3  H2  UNL     1     -11.250  17.690  63.809  1.00  0.00     0.000 HD 
HETATM    4  H1  UNL     1     -12.239  16.312  63.379  1.00  0.00     0.000 HD 
HETATM    5  N   UNL     1      -9.933  16.536  65.654  1.00  0.00    -0.549 NA 
HETATM    6  N   UNL     1     -11.151  14.727  65.179  1.00  0.00    -0.362 N  
HETATM    7  H1  UNL     1      -9.440  16.018  66.381  1.00  0.00     0.000 HD 
HETATM    8  H2  UNL     1      -9.677  17.512  65.502  1.00  0.00     0.000 HD 
HETATM    9  C   UNL     1     -12.066  13.931  64.514  1.00  0.00    -0.443 C  
HETATM   10  H   UNL     1     -10.642  14.289  65.947  1.00  0.00     0.000 HD 
HETATM   11  O   UNL     1     -12.611  14.251  63.459  1.00  0.00    -0.814 OA 
ENDROOT
BRANCH   9  12
HETATM   12  C   UNL     1     -12.329  12.602  65.197  1.00  0.00    -0.547 C  
BRANCH  12  13
HETATM   13  C   UNL     1     -11.088  11.936  65.750  1.00  0.00    -0.367 A  
HETATM   14  C   UNL     1     -10.132  11.349  64.897  1.00  0.00    -0.274 A  
HETATM   15  C   UNL     1      -8.935  10.825  65.400  1.00  0.00    -0.211 A  
HETATM   16 CL   UNL     1     -10.368  11.250  63.186  1.00  0.00    -0.374 Cl 
HETATM   17  C   UNL     1      -8.671  10.861  66.765  1.00  0.00    -0.147 A  
HETATM   18  C   UNL     1      -9.623  11.388  67.631  1.00  0.00    -0.176 A  
HETATM   19  C   UNL     1     -10.824  11.907  67.133  1.00  0.00    -0.255 A  
HETATM   20 CL   UNL     1     -11.946  12.521  68.298  1.00  0.00    -0.345 Cl 
ENDBRANCH  12  13
ENDBRANCH   9  12
TORSDOF 2
ENDMDL
MODEL        6
REMARK 921   NORMALIZED FREE ENERGY PREDICTED BY IDOCK:   -5.89 KCAL/MOL
REMARK 922        TOTAL FREE ENERGY PREDICTED BY IDOCK:   -6.91 KCAL/MOL
REMARK 923 INTER-LIGAND FREE ENERGY PREDICTED BY IDOCK:   -6.60 KCAL/MOL
REMARK 924 INTRA-LIGAND FREE ENERGY PREDICTED BY IDOCK:   -0.31 KCAL/MOL
REMARK 927      BINDING AFFINITY PREDICTED BY RF-SCORE:    0.00 PKD
ROOT
HETATM    1  N   UNL     1     -12.450  13.927  63.237  1.00  0.00    -1.112 NA 
HETATM    2  C   UNL     1     -12.103  12.737  63.762  1.00  0.00    -0.517 C  
HETATM    3  H2  UNL     1     -12.887  13.938  62.316  1.00  0.00     0.000 HD 
HETATM    4  H1  UNL     1     -12.299  14.819  63.709  1.00  0.00     0.000 HD 
HETATM    5  N   UNL     1     -12.293  11.616  63.169  1.00  0.00    -0.966 NA 
HETATM    6  N   UNL     1     -11.511  12.654  64.984  1.00  0.00    -0.317 N  
HETATM    7  H1  UNL     1     -12.030  10.715  63.567  1.00  0.00     0.000 HD 
HETATM    8  H2  UNL     1     -12.730  11.627  62.247  1.00  0.00     0.000 HD 
HETATM    9  C   UNL     1     -11.233  13.695  65.851  1.00  0.00    -0.304 C  
HETATM   10  H   UNL     1     -11.244  11.720  65.296  1.00  0.00     0.000 HD 
HETATM   11  O   UNL     1     -11.662  14.838  65.705  1.00  0.00    -0.336 OA 
ENDROOT
BRANCH   9  12
HETATM   12  C   UNL     1     -10.356  13.296  67.023  1.00  0.00    -0.246 C  
BRANCH  12  13
HETATM   13  C   UNL     1     -11.127  12.872  68.254  1.00  0.00    -0.294 A  
HETATM   14  C   UNL     1     -11.383  11.513  68.525  1.00  0.00    -0.277 A  
HETATM   15  C   UNL     1     -12.004  11.113  69.714  1.00  0.00    -0.428 A  
HETATM   16 CL   UNL     1     -10.936  10.258  67.420  1.00  0.00    -0.342 Cl 
HETATM   17  C   UNL     1     -12.400  12.060  70.652  1.00  0.00    -0.394 A  
HETATM   18  C   UNL     1     -12.206  13.411  70.382  1.00  0.00    -0.415 A  
HETATM   19  C   UNL     1     -11.590  13.815  69.192  1.00  0.00    -0.317 A  
HETATM   20 CL   UNL     1     -11.414  15.518  68.948  1.00  0.00    -0.337 Cl 
ENDBRANCH  12  13
ENDBRANCH   9  12
TORSDOF 2
ENDMDL
MODEL        7
REMARK 921   NORMALIZED FREE ENERGY PREDICTED BY IDOCK:   -5.86 KCAL/MOL
REMARK 922        TOTAL FREE ENERGY PREDICTED BY IDOCK:   -6.88 KCAL/MOL
REMARK 923 INTER-LIGAND FREE ENERGY PREDICTED BY IDOCK:   -6.57 KCAL/MOL
REMARK 924 INTRA-LIGAND FREE ENERGY PREDICTED BY IDOCK:   -0.30 KCAL/MOL
REMARK 927      BINDING AFFINITY PREDICTED BY RF-SCORE:    0.00 PKD
ROOT
HETATM    1  N   UNL     1     -13.119  12.494  64.690  1.00  0.00    -0.837 NA 
HETATM    2  C   UNL     1     -12.330  13.570  64.871  1.00  0.00    -0.407 C  
HETATM    3  H2  UNL     1     -13.726  12.475  63.871  1.00  0.00     0.000 HD 
HETATM    4  H1  UNL     1     -13.143  11.698  65.326  1.00  0.00     0.000 HD 
HETATM    5  N   UNL     1     -12.300  14.572  64.071  1.00  0.00    -0.974 NA 
HETATM    6  N   UNL     1     -11.501  13.660  65.946  1.00  0.00    -0.310 N  
HETATM    7  H1  UNL     1     -11.702  15.386  64.208  1.00  0.00     0.000 HD 
HETATM    8  H2  UNL     1     -12.907  14.553  63.251  1.00  0.00     0.000 HD 
HETATM    9  C   UNL     1     -11.305  12.711  66.932  1.00  0.00    -0.320 C  
HETATM   10  H   UNL     1     -10.964  14.523  66.033  1.00  0.00     0.000 HD 
HETATM   11  O   UNL     1     -11.728  11.558  66.865  1.00  0.00    -0.533 OA 
ENDROOT
BRANCH   9  12
HETATM   12  C   UNL     1     -10.497  13.216  68.113  1.00  0.00    -0.255 C  
BRANCH  12  13
HETATM   13  C   UNL     1     -11.338  13.698  69.274  1.00  0.00    -0.323 A  
HETATM   14  C   UNL     1     -11.602  15.070  69.465  1.00  0.00    -0.311 A  
HETATM   15  C   UNL     1     -12.463  15.509  70.477  1.00  0.00    -0.472 A  
HETATM   16 CL   UNL     1     -10.895  16.288  68.461  1.00  0.00    -0.312 Cl 
HETATM   17  C   UNL     1     -13.068  14.593  71.331  1.00  0.00    -0.414 A  
HETATM   18  C   UNL     1     -12.780  13.239  71.196  1.00  0.00    -0.404 A  
HETATM   19  C   UNL     1     -11.915  12.796  70.188  1.00  0.00    -0.296 A  
HETATM   20 CL   UNL     1     -11.611  11.095  70.119  1.00  0.00    -0.406 Cl 
ENDBRANCH  12  13
ENDBRANCH   9  12
TORSDOF 2
ENDMDL
MODEL        8
REMARK 921   NORMALIZED FREE ENERGY PREDICTED BY IDOCK:   -5.82 KCAL/MOL
REMARK 922        TOTAL FREE ENERGY PREDICTED BY IDOCK:   -6.83 KCAL/MOL
REMARK 923 INTER-LIGAND FREE ENERGY PREDICTED BY IDOCK:   -6.56 KCAL/MOL
REMARK 924 INTRA-LIGAND FREE ENERGY PREDICTED BY IDOCK:   -0.28 KCAL/MOL
REMARK 927      BINDING AFFINITY PREDICTED BY RF-SCORE:    0.00 PKD
ROOT
HETATM    1  N   UNL     1     -11.764  16.288  63.806  1.00  0.00    -1.488 NA 
HETATM    2  C   UNL     1     -11.840  14.983  64.127  1.00  0.00    -0.167 C  
HETATM    3  H2  UNL     1     -12.180  16.592  62.926  1.00  0.00     0.000 HD 
HETATM    4  H1  UNL     1     -11.315  16.990  64.394  1.00  0.00     0.000 HD 
HETATM    5  N   UNL     1     -12.405  14.101  63.388  1.00  0.00    -1.144 NA 
HETATM    6  N   UNL     1     -11.302  14.512  65.285  1.00  0.00    -0.339 N  
HETATM    7  H1  UNL     1     -12.463  13.113  63.632  1.00  0.00     0.000 HD 
HETATM    8  H2  UNL     1     -12.821  14.405  62.507  1.00  0.00     0.000 HD 
HETATM    9  C   UNL     1     -10.679  15.247  66.277  1.00  0.00    -0.315 C  
HETATM   10  H   UNL     1     -11.366  13.505  65.438  1.00  0.00     0.000 HD 
HETATM   11  O   UNL     1     -10.693  16.475  66.328  1.00  0.00    -0.259 OA 
ENDROOT
BRANCH   9  12
HETATM   12  C   UNL     1      -9.981  14.395  67.320  1.00  0.00    -0.247 C  
BRANCH  12  13
HETATM   13  C   UNL     1     -10.636  14.430  68.684  1.00  0.00    -0.253 A  
HETATM   14  C   UNL     1     -10.376  15.475  69.593  1.00  0.00    -0.283 A  
HETATM   15  C   UNL     1     -11.059  15.565  70.811  1.00  0.00    -0.383 A  
HETATM   16 CL   UNL     1      -9.215  16.713  69.259  1.00  0.00    -0.150 Cl 
HETATM   17  C   UNL     1     -12.005  14.606  71.158  1.00  0.00    -0.405 A  
HETATM   18  C   UNL     1     -12.240  13.536  70.300  1.00  0.00    -0.417 A  
HETATM   19  C   UNL     1     -11.554  13.440  69.083  1.00  0.00    -0.315 A  
HETATM   20 CL   UNL     1     -11.908  12.062  68.100  1.00  0.00    -0.393 Cl 
ENDBRANCH  12  13
ENDBRANCH   9  12
TORSDOF 2
ENDMDL
MODEL        9
REMARK 921   NORMALIZED FREE ENERGY PREDICTED BY IDOCK:   -5.80 KCAL/MOL
REMARK 922        TOTAL FREE ENERGY PREDICTED BY IDOCK:   -6.82 KCAL/MOL
REMARK 923 INTER-LIGAND FREE ENERGY PREDICTED BY IDOCK:   -6.48 KCAL/MOL
REMARK 924 INTRA-LIGAND FREE ENERGY PREDICTED BY IDOCK:   -0.33 KCAL/MOL
REMARK 927      BINDING AFFINITY PREDICTED BY RF-SCORE:    0.00 PKD
ROOT
HETATM    1  N   UNL     1     -12.496  14.313  63.615  1.00  0.00    -1.083 NA 
HETATM    2  C   UNL     1     -11.681  15.203  64.210  1.00  0.00    -0.224 C  
HETATM    3  H2  UNL     1     -13.113  14.646  62.874  1.00  0.00     0.000 HD 
HETATM    4  H1  UNL     1     -12.531  13.324  63.862  1.00  0.00     0.000 HD 
HETATM    5  N   UNL     1     -11.637  16.446  63.899  1.00  0.00    -1.602 NA 
HETATM    6  N   UNL     1     -10.836  14.825  65.208  1.00  0.00    -0.356 N  
HETATM    7  H1  UNL     1     -11.019  17.120  64.350  1.00  0.00     0.000 HD 
HETATM    8  H2  UNL     1     -12.254  16.779  63.158  1.00  0.00     0.000 HD 
HETATM    9  C   UNL     1     -10.650  13.548  65.706  1.00  0.00    -0.283 C  
HETATM   10  H   UNL     1     -10.278  15.565  65.635  1.00  0.00     0.000 HD 
HETATM   11  O   UNL     1     -11.100  12.535  65.174  1.00  0.00    -0.285 OA 
ENDROOT
BRANCH   9  12
HETATM   12  C   UNL     1      -9.816  13.503  66.973  1.00  0.00    -0.251 C  
BRANCH  12  13
HETATM   13  C   UNL     1     -10.588  13.081  68.204  1.00  0.00    -0.257 A  
HETATM   14  C   UNL     1     -11.191  14.033  69.051  1.00  0.00    -0.276 A  
HETATM   15  C   UNL     1     -11.991  13.641  70.131  1.00  0.00    -0.407 A  
HETATM   16 CL   UNL     1     -10.994  15.734  68.805  1.00  0.00    -0.272 Cl 
HETATM   17  C   UNL     1     -12.195  12.292  70.400  1.00  0.00    -0.371 A  
HETATM   18  C   UNL     1     -11.567  11.335  69.610  1.00  0.00    -0.401 A  
HETATM   19  C   UNL     1     -10.762  11.723  68.533  1.00  0.00    -0.220 A  
HETATM   20 CL   UNL     1     -10.014  10.453  67.627  1.00  0.00    -0.196 Cl 
ENDBRANCH  12  13
ENDBRANCH   9  12
TORSDOF 2
ENDMDL
MODEL       10
REMARK 921   NORMALIZED FREE ENERGY PREDICTED BY IDOCK:   -5.77 KCAL/MOL
REMARK 922        TOTAL FREE ENERGY PREDICTED BY IDOCK:   -6.79 KCAL/MOL
REMARK 923 INTER-LIGAND FREE ENERGY PREDICTED BY IDOCK:   -6.50 KCAL/MOL
REMARK 924 INTRA-LIGAND FREE ENERGY PREDICTED BY IDOCK:   -0.29 KCAL/MOL
REMARK 927      BINDING AFFINITY PREDICTED BY RF-SCORE:    0.00 PKD
ROOT
HETATM    1  N   UNL     1      -9.740  16.304  65.601  1.00  0.00    -0.500 NA 
HETATM    2  C   UNL     1     -10.818  15.898  64.906  1.00  0.00    -0.400 C  
HETATM    3  H2  UNL     1      -9.269  17.159  65.304  1.00  0.00     0.000 HD 
HETATM    4  H1  UNL     1      -9.366  15.805  66.408  1.00  0.00     0.000 HD 
HETATM    5  N   UNL     1     -11.288  16.526  63.891  1.00  0.00    -1.559 NA 
HETATM    6  N   UNL     1     -11.489  14.765  65.248  1.00  0.00    -0.350 N  
HETATM    7  H1  UNL     1     -12.105  16.218  63.365  1.00  0.00     0.000 HD 
HETATM    8  H2  UNL     1     -10.817  17.381  63.593  1.00  0.00     0.000 HD 
HETATM    9  C   UNL     1     -11.226  13.929  66.317  1.00  0.00    -0.309 C  
HETATM   10  H   UNL     1     -12.273  14.503  64.649  1.00  0.00     0.000 HD 
HETATM   11  O   UNL     1     -10.447  14.208  67.227  1.00  0.00    -0.269 OA 
ENDROOT
BRANCH   9  12
HETATM   12  C   UNL     1     -12.004  12.627  66.280  1.00  0.00    -0.439 C  
BRANCH  12  13
HETATM   13  C   UNL     1     -11.140  11.389  66.388  1.00  0.00    -0.301 A  
HETATM   14  C   UNL     1     -11.081  10.640  67.581  1.00  0.00    -0.319 A  
HETATM   15  C   UNL     1     -10.365   9.440  67.650  1.00  0.00    -0.303 A  
HETATM   16 CL   UNL     1     -11.894  11.147  69.022  1.00  0.00    -0.397 Cl 
HETATM   17  C   UNL     1      -9.680   8.966  66.536  1.00  0.00    -0.322 A  
HETATM   18  C   UNL     1      -9.680   9.714  65.364  1.00  0.00    -0.365 A  
HETATM   19  C   UNL     1     -10.390  10.919  65.293  1.00  0.00    -0.268 A  
HETATM   20 CL   UNL     1     -10.310  11.779  63.794  1.00  0.00    -0.401 Cl 
ENDBRANCH  12  13
ENDBRANCH   9  12
TORSDOF 2
ENDMDL
MODEL       11
REMARK 921   NORMALIZED FREE ENERGY PREDICTED BY IDOCK:   -5.73 KCAL/MOL
REMARK 922        TOTAL FREE ENERGY PREDICTED BY IDOCK:   -6.74 KCAL/MOL
REMARK 923 INTER-LIGAND FREE ENERGY PREDICTED BY IDOCK:   -6.39 KCAL/MOL
REMARK 924 INTRA-LIGAND FREE ENERGY PREDICTED BY IDOCK:   -0.35 KCAL/MOL
REMARK 927      BINDING AFFINITY PREDICTED BY RF-SCORE:    0.00 PKD
ROOT
HETATM    1  N   UNL     1     -12.482  13.934  63.318  1.00  0.00    -1.112 NA 
HETATM    2  C   UNL     1     -12.070  12.740  63.785  1.00  0.00    -0.517 C  
HETATM    3  H2  UNL     1     -12.957  13.960  62.415  1.00  0.00     0.000 HD 
HETATM    4  H1  UNL     1     -12.346  14.813  63.816  1.00  0.00     0.000 HD 
HETATM    5  N   UNL     1     -12.242  11.634  63.158  1.00  0.00    -0.966 NA 
HETATM    6  N   UNL     1     -11.427  12.637  64.979  1.00  0.00    -0.317 N  
HETATM    7  H1  UNL     1     -11.930  10.731  63.512  1.00  0.00     0.000 HD 
HETATM    8  H2  UNL     1     -12.717  11.660  62.256  1.00  0.00     0.000 HD 
HETATM    9  C   UNL     1     -11.153  13.657  65.872  1.00  0.00    -0.284 C  
HETATM   10  H   UNL     1     -11.112  11.704  65.246  1.00  0.00     0.000 HD 
HETATM   11  O   UNL     1     -11.630  14.788  65.785  1.00  0.00    -0.347 OA 
ENDROOT
BRANCH   9  12
HETATM   12  C   UNL     1     -10.215  13.252  66.993  1.00  0.00    -0.244 C  
BRANCH  12  13
HETATM   13  C   UNL     1     -10.918  12.878  68.280  1.00  0.00    -0.282 A  
HETATM   14  C   UNL     1     -11.299  13.860  69.216  1.00  0.00    -0.272 A  
HETATM   15  C   UNL     1     -12.040  13.528  70.356  1.00  0.00    -0.415 A  
HETATM   16 CL   UNL     1     -10.892  15.529  69.012  1.00  0.00    -0.236 Cl 
HETATM   17  C   UNL     1     -12.403  12.207  70.597  1.00  0.00    -0.385 A  
HETATM   18  C   UNL     1     -11.992  11.213  69.715  1.00  0.00    -0.428 A  
HETATM   19  C   UNL     1     -11.246  11.541  68.576  1.00  0.00    -0.258 A  
HETATM   20 CL   UNL     1     -10.772  10.228  67.555  1.00  0.00    -0.327 Cl 
ENDBRANCH  12  13
ENDBRANCH   9  12
TORSDOF 2
ENDMDL
MODEL       12
REMARK 921   NORMALIZED FREE ENERGY PREDICTED BY IDOCK:   -5.72 KCAL/MOL
REMARK 922        TOTAL FREE ENERGY PREDICTED BY IDOCK:   -6.72 KCAL/MOL
REMARK 923 INTER-LIGAND FREE ENERGY PREDICTED BY IDOCK:   -6.38 KCAL/MOL
REMARK 924 INTRA-LIGAND FREE ENERGY PREDICTED BY IDOCK:   -0.34 KCAL/MOL
REMARK 927      BINDING AFFINITY PREDICTED BY RF-SCORE:    0.00 PKD
ROOT
HETATM    1  N   UNL     1     -12.659  14.471  63.589  1.00  0.00    -0.992 NA 
HETATM    2  C   UNL     1     -11.708  15.229  64.167  1.00  0.00    -0.103 C  
HETATM    3  H2  UNL     1     -13.251  14.900  62.878  1.00  0.00     0.000 HD 
HETATM    4  H1  UNL     1     -12.820  13.491  63.822  1.00  0.00     0.000 HD 
HETATM    5  N   UNL     1     -11.505  16.461  63.873  1.00  0.00    -1.618 NA 
HETATM    6  N   UNL     1     -10.888  14.718  65.125  1.00  0.00    -0.375 N  
HETATM    7  H1  UNL     1     -10.785  17.035  64.311  1.00  0.00     0.000 HD 
HETATM    8  H2  UNL     1     -12.097  16.890  63.162  1.00  0.00     0.000 HD 
HETATM    9  C   UNL     1     -10.861  13.418  65.595  1.00  0.00    -0.283 C  
HETATM   10  H   UNL     1     -10.219  15.366  65.542  1.00  0.00     0.000 HD 
HETATM   11  O   UNL     1     -11.464  12.487  65.066  1.00  0.00    -0.306 OA 
ENDROOT
BRANCH   9  12
HETATM   12  C   UNL     1      -9.996  13.233  66.828  1.00  0.00    -0.263 C  
BRANCH  12  13
HETATM   13  C   UNL     1     -10.704  12.559  67.983  1.00  0.00    -0.242 A  
HETATM   14  C   UNL     1     -10.608  11.167  68.187  1.00  0.00    -0.193 A  
HETATM   15  C   UNL     1     -11.176  10.557  69.311  1.00  0.00    -0.320 A  
HETATM   16 CL   UNL     1      -9.777  10.133  67.076  1.00  0.00    -0.211 Cl 
HETATM   17  C   UNL     1     -11.866  11.318  70.249  1.00  0.00    -0.446 A  
HETATM   18  C   UNL     1     -12.020  12.684  70.041  1.00  0.00    -0.377 A  
HETATM   19  C   UNL     1     -11.458  13.297  68.915  1.00  0.00    -0.298 A  
HETATM   20 CL   UNL     1     -11.723  14.998  68.744  1.00  0.00    -0.356 Cl 
ENDBRANCH  12  13
ENDBRANCH   9  12
TORSDOF 2
ENDMDL
MODEL       13
REMARK 921   NORMALIZED FREE ENERGY PREDICTED BY IDOCK:   -5.71 KCAL/MOL
REMARK 922        TOTAL FREE ENERGY PREDICTED BY IDOCK:   -6.71 KCAL/MOL
REMARK 923 INTER-LIGAND FREE ENERGY PREDICTED BY IDOCK:   -6.50 KCAL/MOL
REMARK 924 INTRA-LIGAND FREE ENERGY PREDICTED BY IDOCK:   -0.21 KCAL/MOL
REMARK 927      BINDING AFFINITY PREDICTED BY RF-SCORE:    0.00 PKD
ROOT
HETATM    1  N   UNL     1     -12.570  14.798  63.689  1.00  0.00    -0.960 NA 
HETATM    2  C   UNL     1     -12.101  14.151  64.772  1.00  0.00    -0.441 C  
HETATM    3  H2  UNL     1     -13.328  14.366  63.161  1.00  0.00     0.000 HD 
HETATM    4  H1  UNL     1     -12.209  15.696  63.366  1.00  0.00     0.000 HD 
HETATM    5  N   UNL     1     -12.556  13.022  65.177  1.00  0.00    -0.577 NA 
HETATM    6  N   UNL     1     -11.088  14.670  65.517  1.00  0.00    -0.331 N  
HETATM    7  H1  UNL     1     -12.201  12.532  65.998  1.00  0.00     0.000 HD 
HETATM    8  H2  UNL     1     -13.314  12.590  64.649  1.00  0.00     0.000 HD 
HETATM    9  C   UNL     1     -10.451  15.883  65.331  1.00  0.00    -0.405 C  
HETATM   10  H   UNL     1     -10.763  14.102  66.300  1.00  0.00     0.000 HD 
HETATM   11  O   UNL     1     -10.850  16.754  64.561  1.00  0.00    -0.886 OA 
ENDROOT
BRANCH   9  12
HETATM   12  C   UNL     1      -9.208  16.057  66.185  1.00  0.00    -0.388 C  
BRANCH  12  13
HETATM   13  C   UNL     1      -9.183  17.342  66.983  1.00  0.00    -0.252 A  
HETATM   14  C   UNL     1      -8.267  18.371  66.682  1.00  0.00    -0.266 A  
HETATM   15  C   UNL     1      -8.311  19.600  67.350  1.00  0.00    -0.335 A  
HETATM   16 CL   UNL     1      -7.049  18.188  65.468  1.00  0.00    -0.160 Cl 
HETATM   17  C   UNL     1      -9.258  19.826  68.344  1.00  0.00    -0.370 A  
HETATM   18  C   UNL     1     -10.137  18.806  68.695  1.00  0.00    -0.432 A  
HETATM   19  C   UNL     1     -10.092  17.573  68.032  1.00  0.00    -0.332 A  
HETATM   20 CL   UNL     1     -11.217  16.370  68.558  1.00  0.00    -0.363 Cl 
ENDBRANCH  12  13
ENDBRANCH   9  12
TORSDOF 2
ENDMDL
MODEL       14
REMARK 921   NORMALIZED FREE ENERGY PREDICTED BY IDOCK:   -5.70 KCAL/MOL
REMARK 922        TOTAL FREE ENERGY PREDICTED BY IDOCK:   -6.71 KCAL/MOL
REMARK 923 INTER-LIGAND FREE ENERGY PREDICTED BY IDOCK:   -6.35 KCAL/MOL
REMARK 924 INTRA-LIGAND FREE ENERGY PREDICTED BY IDOCK:   -0.35 KCAL/MOL
REMARK 927      BINDING AFFINITY PREDICTED BY RF-SCORE:    0.00 PKD
ROOT
HETATM    1  N   UNL     1     -10.142  16.701  65.749  1.00  0.00    -0.517 NA 
HETATM    2  C   UNL     1     -11.023  16.068  64.953  1.00  0.00    -0.384 C  
HETATM    3  H2  UNL     1      -9.821  17.628  65.470  1.00  0.00     0.000 HD 
HETATM    4  H1  UNL     1      -9.779  16.307  66.617  1.00  0.00     0.000 HD 
HETATM    5  N   UNL     1     -11.480  16.564  63.862  1.00  0.00    -1.599 NA 
HETATM    6  N   UNL     1     -11.489  14.828  65.266  1.00  0.00    -0.350 N  
HETATM    7  H1  UNL     1     -12.148  16.084  63.259  1.00  0.00     0.000 HD 
HETATM    8  H2  UNL     1     -11.158  17.491  63.583  1.00  0.00     0.000 HD 
HETATM    9  C   UNL     1     -11.197  14.087  66.396  1.00  0.00    -0.319 C  
HETATM   10  H   UNL     1     -12.124  14.398  64.593  1.00  0.00     0.000 HD 
HETATM   11  O   UNL     1     -10.609  14.539  67.377  1.00  0.00    -0.266 OA 
ENDROOT
BRANCH   9  12
HETATM   12  C   UNL     1     -11.687  12.652  66.328  1.00  0.00    -0.460 C  
BRANCH  12  13
HETATM   13  C   UNL     1     -10.723  11.703  65.649  1.00  0.00    -0.330 A  
HETATM   14  C   UNL     1     -10.850  11.389  64.281  1.00  0.00    -0.349 A  
HETATM   15  C   UNL     1      -9.900  10.595  63.627  1.00  0.00    -0.392 A  
HETATM   16 CL   UNL     1     -12.168  11.972  63.324  1.00  0.00    -0.593 Cl 
HETATM   17  C   UNL     1      -8.813  10.082  64.327  1.00  0.00    -0.245 A  
HETATM   18  C   UNL     1      -8.696  10.335  65.690  1.00  0.00    -0.176 A  
HETATM   19  C   UNL     1      -9.647  11.124  66.348  1.00  0.00    -0.200 A  
HETATM   20 CL   UNL     1      -9.417  11.361  68.045  1.00  0.00    -0.174 Cl 
ENDBRANCH  12  13
ENDBRANCH   9  12
TORSDOF 2
ENDMDL
MODEL       15
REMARK 921   NORMALIZED FREE ENERGY PREDICTED BY IDOCK:   -5.69 KCAL/MOL
REMARK 922        TOTAL FREE ENERGY PREDICTED BY IDOCK:   -6.69 KCAL/MOL
REMARK 923 INTER-LIGAND FREE ENERGY PREDICTED BY IDOCK:   -6.46 KCAL/MOL
REMARK 924 INTRA-LIGAND FREE ENERGY PREDICTED BY IDOCK:   -0.22 KCAL/MOL
REMARK 927      BINDING AFFINITY PREDICTED BY RF-SCORE:    0.00 PKD
ROOT
HETATM    1  N   UNL     1     -12.519  14.464  63.344  1.00  0.00    -1.068 NA 
HETATM    2  C   UNL     1     -11.838  15.180  64.257  1.00  0.00    -0.251 C  
HETATM    3  H2  UNL     1     -12.656  14.870  62.418  1.00  0.00     0.000 HD 
HETATM    4  H1  UNL     1     -12.906  13.538  63.525  1.00  0.00     0.000 HD 
HETATM    5  N   UNL     1     -11.351  16.345  64.029  1.00  0.00    -1.539 NA 
HETATM    6  N   UNL     1     -11.624  14.698  65.512  1.00  0.00    -0.346 N  
HETATM    7  H1  UNL     1     -10.835  16.887  64.721  1.00  0.00     0.000 HD 
HETATM    8  H2  UNL     1     -11.488  16.751  63.103  1.00  0.00     0.000 HD 
HETATM    9  C   UNL     1     -11.998  13.462  66.007  1.00  0.00    -0.415 C  
HETATM   10  H   UNL     1     -11.133  15.316  66.158  1.00  0.00     0.000 HD 
HETATM   11  O   UNL     1     -12.421  12.545  65.306  1.00  0.00    -0.608 OA 
ENDROOT
BRANCH   9  12
HETATM   12  C   UNL     1     -11.824  13.328  67.508  1.00  0.00    -0.403 C  
BRANCH  12  13
HETATM   13  C   UNL     1     -10.518  13.887  68.030  1.00  0.00    -0.243 A  
HETATM   14  C   UNL     1      -9.294  13.235  67.784  1.00  0.00    -0.209 A  
HETATM   15  C   UNL     1      -8.076  13.803  68.176  1.00  0.00    -0.155 A  
HETATM   16 CL   UNL     1      -9.215  11.707  66.976  1.00  0.00    -0.179 Cl 
HETATM   17  C   UNL     1      -8.053  15.027  68.835  1.00  0.00    -0.176 A  
HETATM   18  C   UNL     1      -9.253  15.664  69.136  1.00  0.00    -0.254 A  
HETATM   19  C   UNL     1     -10.473  15.096  68.751  1.00  0.00    -0.234 A  
HETATM   20 CL   UNL     1     -11.904  15.961  69.190  1.00  0.00    -0.384 Cl 
ENDBRANCH  12  13
ENDBRANCH   9  12
TORSDOF 2
ENDMDL
MODEL       16
REMARK 921   NORMALIZED FREE ENERGY PREDICTED BY IDOCK:   -5.67 KCAL/MOL
REMARK 922        TOTAL FREE ENERGY PREDICTED BY IDOCK:   -6.66 KCAL/MOL
REMARK 923 INTER-LIGAND FREE ENERGY PREDICTED BY IDOCK:   -6.34 KCAL/MOL
REMARK 924 INTRA-LIGAND FREE ENERGY PREDICTED BY IDOCK:   -0.33 KCAL/MOL
REMARK 927      BINDING AFFINITY PREDICTED BY RF-SCORE:    0.00 PKD
ROOT
HETATM    1  N   UNL     1      -9.920  16.277  65.507  1.00  0.00    -0.530 NA 
HETATM    2  C   UNL     1     -11.011  15.839  64.851  1.00  0.00    -0.427 C  
HETATM    3  H2  UNL     1      -9.500  17.158  65.209  1.00  0.00     0.000 HD 
HETATM    4  H1  UNL     1      -9.490  15.778  66.286  1.00  0.00     0.000 HD 
HETATM    5  N   UNL     1     -11.551  16.467  63.872  1.00  0.00    -1.578 NA 
HETATM    6  N   UNL     1     -11.616  14.670  65.195  1.00  0.00    -0.362 N  
HETATM    7  H1  UNL     1     -12.377  16.135  63.375  1.00  0.00     0.000 HD 
HETATM    8  H2  UNL     1     -11.131  17.348  63.574  1.00  0.00     0.000 HD 
HETATM    9  C   UNL     1     -11.270  13.824  66.233  1.00  0.00    -0.306 C  
HETATM   10  H   UNL     1     -12.414  14.387  64.626  1.00  0.00     0.000 HD 
HETATM   11  O   UNL     1     -10.464  14.117  67.114  1.00  0.00    -0.267 OA 
ENDROOT
BRANCH   9  12
HETATM   12  C   UNL     1     -11.992  12.490  66.199  1.00  0.00    -0.432 C  
BRANCH  12  13
HETATM   13  C   UNL     1     -11.071  11.290  66.187  1.00  0.00    -0.207 A  
HETATM   14  C   UNL     1     -10.407  10.890  65.009  1.00  0.00    -0.288 A  
HETATM   15  C   UNL     1      -9.476   9.845  65.020  1.00  0.00    -0.343 A  
HETATM   16 CL   UNL     1     -10.687  11.668  63.490  1.00  0.00    -0.472 Cl 
HETATM   17  C   UNL     1      -9.198   9.164  66.200  1.00  0.00    -0.259 A  
HETATM   18  C   UNL     1      -9.881   9.506  67.363  1.00  0.00    -0.218 A  
HETATM   19  C   UNL     1     -10.817  10.547  67.356  1.00  0.00    -0.291 A  
HETATM   20 CL   UNL     1     -11.621  10.878  68.851  1.00  0.00    -0.356 Cl 
ENDBRANCH  12  13
ENDBRANCH   9  12
TORSDOF 2
ENDMDL
MODEL       17
REMARK 921   NORMALIZED FREE ENERGY PREDICTED BY IDOCK:   -5.66 KCAL/MOL
REMARK 922        TOTAL FREE ENERGY PREDICTED BY IDOCK:   -6.66 KCAL/MOL
REMARK 923 INTER-LIGAND FREE ENERGY PREDICTED BY IDOCK:   -6.48 KCAL/MOL
REMARK 924 INTRA-LIGAND FREE ENERGY PREDICTED BY IDOCK:   -0.18 KCAL/MOL
REMARK 927      BINDING AFFINITY PREDICTED BY RF-SCORE:    0.00 PKD
ROOT
HETATM    1  N   UNL     1     -12.632  14.312  63.335  1.00  0.00    -1.004 NA 
HETATM    2  C   UNL     1     -11.945  15.059  64.218  1.00  0.00    -0.295 C  
HETATM    3  H2  UNL     1     -12.794  14.694  62.403  1.00  0.00     0.000 HD 
HETATM    4  H1  UNL     1     -13.001  13.385  63.545  1.00  0.00     0.000 HD 
HETATM    5  N   UNL     1     -11.481  16.225  63.953  1.00  0.00    -1.539 NA 
HETATM    6  N   UNL     1     -11.699  14.610  65.478  1.00  0.00    -0.341 N  
HETATM    7  H1  UNL     1     -10.960  16.791  64.622  1.00  0.00     0.000 HD 
HETATM    8  H2  UNL     1     -11.642  16.608  63.021  1.00  0.00     0.000 HD 
HETATM    9  C   UNL     1     -12.044  13.381  66.009  1.00  0.00    -0.438 C  
HETATM   10  H   UNL     1     -11.205  15.250  66.100  1.00  0.00     0.000 HD 
HETATM   11  O   UNL     1     -12.467  12.441  65.338  1.00  0.00    -0.637 OA 
ENDROOT
BRANCH   9  12
HETATM   12  C   UNL     1     -11.839  13.284  67.509  1.00  0.00    -0.403 C  
BRANCH  12  13
HETATM   13  C   UNL     1     -10.517  13.843  67.988  1.00  0.00    -0.243 A  
HETATM   14  C   UNL     1     -10.460  15.005  68.785  1.00  0.00    -0.238 A  
HETATM   15  C   UNL     1      -9.248  15.464  69.313  1.00  0.00    -0.259 A  
HETATM   16 CL   UNL     1     -11.874  15.923  69.169  1.00  0.00    -0.384 Cl 
HETATM   17  C   UNL     1      -8.063  14.785  69.047  1.00  0.00    -0.145 A  
HETATM   18  C   UNL     1      -8.088  13.667  68.219  1.00  0.00    -0.155 A  
HETATM   19  C   UNL     1      -9.297  13.208  67.684  1.00  0.00    -0.205 A  
HETATM   20 CL   UNL     1      -9.213  11.822  66.654  1.00  0.00    -0.193 Cl 
ENDBRANCH  12  13
ENDBRANCH   9  12
TORSDOF 2
ENDMDL
MODEL       18
REMARK 921   NORMALIZED FREE ENERGY PREDICTED BY IDOCK:   -5.54 KCAL/MOL
REMARK 922        TOTAL FREE ENERGY PREDICTED BY IDOCK:   -6.53 KCAL/MOL
REMARK 923 INTER-LIGAND FREE ENERGY PREDICTED BY IDOCK:   -6.28 KCAL/MOL
REMARK 924 INTRA-LIGAND FREE ENERGY PREDICTED BY IDOCK:   -0.25 KCAL/MOL
REMARK 927      BINDING AFFINITY PREDICTED BY RF-SCORE:    0.00 PKD
ROOT
HETATM    1  N   UNL     1     -12.391  11.606  63.111  1.00  0.00    -0.966 NA 
HETATM    2  C   UNL     1     -12.015  12.841  63.493  1.00  0.00    -0.555 C  
HETATM    3  H2  UNL     1     -13.090  11.522  62.374  1.00  0.00     0.000 HD 
HETATM    4  H1  UNL     1     -12.014  10.750  63.517  1.00  0.00     0.000 HD 
HETATM    5  N   UNL     1     -12.488  13.918  62.982  1.00  0.00    -1.009 NA 
HETATM    6  N   UNL     1     -11.090  13.022  64.474  1.00  0.00    -0.332 N  
HETATM    7  H1  UNL     1     -12.204  14.853  63.272  1.00  0.00     0.000 HD 
HETATM    8  H2  UNL     1     -13.188  13.834  62.245  1.00  0.00     0.000 HD 
HETATM    9  C   UNL     1     -10.393  12.042  65.157  1.00  0.00    -0.276 C  
HETATM   10  H   UNL     1     -10.887  13.987  64.734  1.00  0.00     0.000 HD 
HETATM   11  O   UNL     1     -10.385  10.856  64.830  1.00  0.00    -0.295 OA 
ENDROOT
BRANCH   9  12
HETATM   12  C   UNL     1      -9.614  12.565  66.349  1.00  0.00    -0.247 C  
BRANCH  12  13
HETATM   13  C   UNL     1     -10.419  13.460  67.266  1.00  0.00    -0.248 A  
HETATM   14  C   UNL     1     -11.314  12.921  68.213  1.00  0.00    -0.291 A  
HETATM   15  C   UNL     1     -11.981  13.740  69.131  1.00  0.00    -0.403 A  
HETATM   16 CL   UNL     1     -11.634  11.223  68.309  1.00  0.00    -0.372 Cl 
HETATM   17  C   UNL     1     -11.782  15.117  69.116  1.00  0.00    -0.349 A  
HETATM   18  C   UNL     1     -10.945  15.676  68.157  1.00  0.00    -0.314 A  
HETATM   19  C   UNL     1     -10.281  14.860  67.233  1.00  0.00    -0.241 A  
HETATM   20 CL   UNL     1      -9.277  15.659  66.073  1.00  0.00    -0.381 Cl 
ENDBRANCH  12  13
ENDBRANCH   9  12
TORSDOF 2
ENDMDL
MODEL       19
REMARK 921   NORMALIZED FREE ENERGY PREDICTED BY IDOCK:   -5.41 KCAL/MOL
REMARK 922        TOTAL FREE ENERGY PREDICTED BY IDOCK:   -6.38 KCAL/MOL
REMARK 923 INTER-LIGAND FREE ENERGY PREDICTED BY IDOCK:   -6.02 KCAL/MOL
REMARK 924 INTRA-LIGAND FREE ENERGY PREDICTED BY IDOCK:   -0.36 KCAL/MOL
REMARK 927      BINDING AFFINITY PREDICTED BY RF-SCORE:    0.00 PKD
ROOT
HETATM    1  N   UNL     1     -12.576  14.272  63.352  1.00  0.00    -1.004 NA 
HETATM    2  C   UNL     1     -11.955  15.102  64.210  1.00  0.00    -0.262 C  
HETATM    3  H2  UNL     1     -12.753  14.604  62.404  1.00  0.00     0.000 HD 
HETATM    4  H1  UNL     1     -12.879  13.329  63.596  1.00  0.00     0.000 HD 
HETATM    5  N   UNL     1     -11.573  16.287  63.903  1.00  0.00    -1.573 NA 
HETATM    6  N   UNL     1     -11.694  14.722  65.490  1.00  0.00    -0.316 N  
HETATM    7  H1  UNL     1     -11.103  16.915  64.553  1.00  0.00     0.000 HD 
HETATM    8  H2  UNL     1     -11.750  16.619  62.954  1.00  0.00     0.000 HD 
HETATM    9  C   UNL     1     -11.956  13.493  66.068  1.00  0.00    -0.409 C  
HETATM   10  H   UNL     1     -11.255  15.421  66.091  1.00  0.00     0.000 HD 
HETATM   11  O   UNL     1     -12.301  12.499  65.431  1.00  0.00    -0.579 OA 
ENDROOT
BRANCH   9  12
HETATM   12  C   UNL     1     -11.763  13.472  67.572  1.00  0.00    -0.403 C  
BRANCH  12  13
HETATM   13  C   UNL     1     -10.420  12.932  68.014  1.00  0.00    -0.237 A  
HETATM   14  C   UNL     1     -10.214  11.550  68.203  1.00  0.00    -0.194 A  
HETATM   15  C   UNL     1      -8.948  11.040  68.511  1.00  0.00    -0.163 A  
HETATM   16 CL   UNL     1     -11.501  10.403  68.056  1.00  0.00    -0.278 Cl 
HETATM   17  C   UNL     1      -7.861  11.897  68.652  1.00  0.00    -0.104 A  
HETATM   18  C   UNL     1      -8.051  13.269  68.522  1.00  0.00    -0.094 A  
HETATM   19  C   UNL     1      -9.318  13.783  68.221  1.00  0.00    -0.209 A  
HETATM   20 CL   UNL     1      -9.448  15.504  68.099  1.00  0.00    -0.197 Cl 
ENDBRANCH  12  13
ENDBRANCH   9  12
TORSDOF 2
ENDMDL
MODEL       20
REMARK 921   NORMALIZED FREE ENERGY PREDICTED BY IDOCK:   -5.37 KCAL/MOL
REMARK 922        TOTAL FREE ENERGY PREDICTED BY IDOCK:   -6.34 KCAL/MOL
REMARK 923 INTER-LIGAND FREE ENERGY PREDICTED BY IDOCK:   -6.02 KCAL/MOL
REMARK 924 INTRA-LIGAND FREE ENERGY PREDICTED BY IDOCK:   -0.31 KCAL/MOL
REMARK 927      BINDING AFFINITY PREDICTED BY RF-SCORE:    0.00 PKD
ROOT
HETATM    1  N   UNL     1     -12.419  14.322  63.319  1.00  0.00    -1.068 NA 
HETATM    2  C   UNL     1     -12.218  13.641  64.463  1.00  0.00    -0.401 C  
HETATM    3  H2  UNL     1     -13.096  13.952  62.652  1.00  0.00     0.000 HD 
HETATM    4  H1  UNL     1     -11.932  15.186  63.083  1.00  0.00     0.000 HD 
HETATM    5  N   UNL     1     -12.830  12.554  64.761  1.00  0.00    -0.820 NA 
HETATM    6  N   UNL     1     -11.325  14.077  65.393  1.00  0.00    -0.308 N  
HETATM    7  H1  UNL     1     -12.677  12.039  65.627  1.00  0.00     0.000 HD 
HETATM    8  H2  UNL     1     -13.507  12.184  64.094  1.00  0.00     0.000 HD 
HETATM    9  C   UNL     1     -10.568  15.234  65.346  1.00  0.00    -0.394 C  
HETATM   10  H   UNL     1     -11.201  13.487  66.215  1.00  0.00     0.000 HD 
HETATM   11  O   UNL     1     -10.743  16.133  64.525  1.00  0.00    -0.586 OA 
ENDROOT
BRANCH   9  12
HETATM   12  C   UNL     1      -9.500  15.308  66.421  1.00  0.00    -0.326 C  
BRANCH  12  13
HETATM   13  C   UNL     1      -9.547  16.571  67.252  1.00  0.00    -0.242 A  
HETATM   14  C   UNL     1     -10.472  16.719  68.305  1.00  0.00    -0.341 A  
HETATM   15  C   UNL     1     -10.449  17.842  69.140  1.00  0.00    -0.069 A  
HETATM   16 CL   UNL     1     -11.678  15.524  68.641  1.00  0.00    -0.374 Cl 
HETATM   17  C   UNL     1      -9.514  18.851  68.934  1.00  0.00    -0.356 A  
HETATM   18  C   UNL     1      -8.626  18.752  67.868  1.00  0.00    -0.321 A  
HETATM   19  C   UNL     1      -8.650  17.633  67.027  1.00  0.00    -0.237 A  
HETATM   20 CL   UNL     1      -7.515  17.619  65.722  1.00  0.00    -0.180 Cl 
ENDBRANCH  12  13
ENDBRANCH   9  12
TORSDOF 2
ENDMDL
MODEL       21
REMARK 921   NORMALIZED FREE ENERGY PREDICTED BY IDOCK:   -5.31 KCAL/MOL
REMARK 922        TOTAL FREE ENERGY PREDICTED BY IDOCK:   -6.27 KCAL/MOL
REMARK 923 INTER-LIGAND FREE ENERGY PREDICTED BY IDOCK:   -6.28 KCAL/MOL
REMARK 924 INTRA-LIGAND FREE ENERGY PREDICTED BY IDOCK:    0.00 KCAL/MOL
REMARK 927      BINDING AFFINITY PREDICTED BY RF-SCORE:    0.00 PKD
ROOT
HETATM    1  N   UNL     1     -12.567  13.526  63.154  1.00  0.00    -0.897 NA 
HETATM    2  C   UNL     1     -11.956  12.508  63.788  1.00  0.00    -0.517 C  
HETATM    3  H2  UNL     1     -12.702  13.454  62.146  1.00  0.00     0.000 HD 
HETATM    4  H1  UNL     1     -12.903  14.366  63.626  1.00  0.00     0.000 HD 
HETATM    5  N   UNL     1     -11.534  11.453  63.194  1.00  0.00    -0.873 NA 
HETATM    6  N   UNL     1     -11.741  12.544  65.131  1.00  0.00    -0.360 N  
HETATM    7  H1  UNL     1     -11.071  10.682  63.675  1.00  0.00     0.000 HD 
HETATM    8  H2  UNL     1     -11.669  11.380  62.186  1.00  0.00     0.000 HD 
HETATM    9  C   UNL     1     -12.130  13.535  66.013  1.00  0.00    -0.445 C  
HETATM   10  H   UNL     1     -11.237  11.752  65.531  1.00  0.00     0.000 HD 
HETATM   11  O   UNL     1     -12.902  14.447  65.720  1.00  0.00    -0.389 OA 
ENDROOT
BRANCH   9  12
HETATM   12  C   UNL     1     -11.530  13.389  67.399  1.00  0.00    -0.368 C  
BRANCH  12  13
HETATM   13  C   UNL     1     -11.045  14.690  68.001  1.00  0.00    -0.291 A  
HETATM   14  C   UNL     1     -10.116  15.506  67.325  1.00  0.00    -0.250 A  
HETATM   15  C   UNL     1      -9.745  16.757  67.832  1.00  0.00    -0.245 A  
HETATM   16 CL   UNL     1      -9.390  15.025  65.831  1.00  0.00    -0.312 Cl 
HETATM   17  C   UNL     1     -10.280  17.216  69.031  1.00  0.00    -0.315 A  
HETATM   18  C   UNL     1     -11.158  16.404  69.742  1.00  0.00    -0.305 A  
HETATM   19  C   UNL     1     -11.527  15.150  69.242  1.00  0.00    -0.311 A  
HETATM   20 CL   UNL     1     -12.609  14.214  70.213  1.00  0.00    -0.397 Cl 
ENDBRANCH  12  13
ENDBRANCH   9  12
TORSDOF 2
ENDMDL
MODEL       22
REMARK 921   NORMALIZED FREE ENERGY PREDICTED BY IDOCK:   -5.28 KCAL/MOL
REMARK 922        TOTAL FREE ENERGY PREDICTED BY IDOCK:   -6.23 KCAL/MOL
REMARK 923 INTER-LIGAND FREE ENERGY PREDICTED BY IDOCK:   -5.99 KCAL/MOL
REMARK 924 INTRA-LIGAND FREE ENERGY PREDICTED BY IDOCK:   -0.24 KCAL/MOL
REMARK 927      BINDING AFFINITY PREDICTED BY RF-SCORE:    0.00 PKD
ROOT
HETATM    1  N   UNL     1     -12.487  13.715  63.159  1.00  0.00    -1.045 NA 
HETATM    2  C   UNL     1     -12.120  12.537  63.697  1.00  0.00    -0.554 C  
HETATM    3  H2  UNL     1     -12.571  13.776  62.144  1.00  0.00     0.000 HD 
HETATM    4  H1  UNL     1     -12.685  14.551  63.709  1.00  0.00     0.000 HD 
HETATM    5  N   UNL     1     -11.870  11.487  63.005  1.00  0.00    -0.897 NA 
HETATM    6  N   UNL     1     -11.984  12.391  65.043  1.00  0.00    -0.404 N  
HETATM    7  H1  UNL     1     -11.592  10.595  63.412  1.00  0.00     0.000 HD 
HETATM    8  H2  UNL     1     -11.955  11.547  61.990  1.00  0.00     0.000 HD 
HETATM    9  C   UNL     1     -12.232  13.342  66.016  1.00  0.00    -0.424 C  
HETATM   10  H   UNL     1     -11.666  11.479  65.370  1.00  0.00     0.000 HD 
HETATM   11  O   UNL     1     -12.796  14.412  65.797  1.00  0.00    -0.389 OA 
ENDROOT
BRANCH   9  12
HETATM   12  C   UNL     1     -11.756  12.938  67.399  1.00  0.00    -0.428 C  
BRANCH  12  13
HETATM   13  C   UNL     1     -10.480  13.623  67.836  1.00  0.00    -0.249 A  
HETATM   14  C   UNL     1     -10.508  14.742  68.693  1.00  0.00    -0.250 A  
HETATM   15  C   UNL     1      -9.327  15.313  69.182  1.00  0.00    -0.236 A  
HETATM   16 CL   UNL     1     -11.993  15.468  69.205  1.00  0.00    -0.357 Cl 
HETATM   17  C   UNL     1      -8.091  14.791  68.814  1.00  0.00    -0.158 A  
HETATM   18  C   UNL     1      -8.037  13.721  67.926  1.00  0.00    -0.166 A  
HETATM   19  C   UNL     1      -9.217  13.151  67.432  1.00  0.00    -0.213 A  
HETATM   20 CL   UNL     1      -9.037  11.837  66.322  1.00  0.00    -0.216 Cl 
ENDBRANCH  12  13
ENDBRANCH   9  12
TORSDOF 2
ENDMDL
MODEL       23
REMARK 921   NORMALIZED FREE ENERGY PREDICTED BY IDOCK:   -5.27 KCAL/MOL
REMARK 922        TOTAL FREE ENERGY PREDICTED BY IDOCK:   -6.23 KCAL/MOL
REMARK 923 INTER-LIGAND FREE ENERGY PREDICTED BY IDOCK:   -6.00 KCAL/MOL
REMARK 924 INTRA-LIGAND FREE ENERGY PREDICTED BY IDOCK:   -0.22 KCAL/MOL
REMARK 927      BINDING AFFINITY PREDICTED BY RF-SCORE:    0.00 PKD
ROOT
HETATM    1  N   UNL     1     -12.906  14.396  64.791  1.00  0.00    -0.603 NA 
HETATM    2  C   UNL     1     -12.630  13.135  65.173  1.00  0.00    -0.465 C  
HETATM    3  H2  UNL     1     -13.356  14.538  63.888  1.00  0.00     0.000 HD 
HETATM    4  H1  UNL     1     -12.689  15.218  65.356  1.00  0.00     0.000 HD 
HETATM    5  N   UNL     1     -12.902  12.102  64.463  1.00  0.00    -0.635 NA 
HETATM    6  N   UNL     1     -12.026  12.878  66.365  1.00  0.00    -0.410 N  
HETATM    7  H1  UNL     1     -12.693  11.147  64.753  1.00  0.00     0.000 HD 
HETATM    8  H2  UNL     1     -13.353  12.244  63.559  1.00  0.00     0.000 HD 
HETATM    9  C   UNL     1     -11.666  13.795  67.335  1.00  0.00    -0.382 C  
HETATM   10  H   UNL     1     -11.815  11.900  66.565  1.00  0.00     0.000 HD 
HETATM   11  O   UNL     1     -12.021  14.973  67.326  1.00  0.00    -0.252 OA 
ENDROOT
BRANCH   9  12
HETATM   12  C   UNL     1     -10.799  13.212  68.435  1.00  0.00    -0.283 C  
BRANCH  12  13
HETATM   13  C   UNL     1     -11.576  12.710  69.632  1.00  0.00    -0.321 A  
HETATM   14  C   UNL     1     -12.119  13.603  70.578  1.00  0.00    -0.339 A  
HETATM   15  C   UNL     1     -12.925  13.148  71.628  1.00  0.00    -0.429 A  
HETATM   16 CL   UNL     1     -11.837  15.308  70.496  1.00  0.00    -0.327 Cl 
HETATM   17  C   UNL     1     -13.195  11.791  71.768  1.00  0.00    -0.434 A  
HETATM   18  C   UNL     1     -12.626  10.886  70.877  1.00  0.00    -0.494 A  
HETATM   19  C   UNL     1     -11.815  11.337  69.829  1.00  0.00    -0.364 A  
HETATM   20 CL   UNL     1     -11.145  10.127  68.791  1.00  0.00    -0.264 Cl 
ENDBRANCH  12  13
ENDBRANCH   9  12
TORSDOF 2
ENDMDL
MODEL       24
REMARK 921   NORMALIZED FREE ENERGY PREDICTED BY IDOCK:   -5.24 KCAL/MOL
REMARK 922        TOTAL FREE ENERGY PREDICTED BY IDOCK:   -6.19 KCAL/MOL
REMARK 923 INTER-LIGAND FREE ENERGY PREDICTED BY IDOCK:   -5.84 KCAL/MOL
REMARK 924 INTRA-LIGAND FREE ENERGY PREDICTED BY IDOCK:   -0.35 KCAL/MOL
REMARK 927      BINDING AFFINITY PREDICTED BY RF-SCORE:    0.00 PKD
ROOT
HETATM    1  N   UNL     1     -13.995  15.415  70.990  1.00  0.00    -0.822 NA 
HETATM    2  C   UNL     1     -13.261  14.297  71.138  1.00  0.00    -0.321 C  
HETATM    3  H2  UNL     1     -14.787  15.557  71.618  1.00  0.00     0.000 HD 
HETATM    4  H1  UNL     1     -13.805  16.127  70.286  1.00  0.00     0.000 HD 
HETATM    5  N   UNL     1     -13.500  13.401  72.025  1.00  0.00    -0.465 NA 
HETATM    6  N   UNL     1     -12.195  14.044  70.331  1.00  0.00    -0.341 N  
HETATM    7  H1  UNL     1     -12.943  12.554  72.137  1.00  0.00     0.000 HD 
HETATM    8  H2  UNL     1     -14.291  13.543  72.652  1.00  0.00     0.000 HD 
HETATM    9  C   UNL     1     -11.693  14.856  69.331  1.00  0.00    -0.319 C  
HETATM   10  H   UNL     1     -11.712  13.158  70.481  1.00  0.00     0.000 HD 
HETATM   11  O   UNL     1     -12.041  16.023  69.159  1.00  0.00    -0.293 OA 
ENDROOT
BRANCH   9  12
HETATM   12  C   UNL     1     -10.649  14.181  68.461  1.00  0.00    -0.257 C  
BRANCH  12  13
HETATM   13  C   UNL     1     -11.109  13.906  67.046  1.00  0.00    -0.311 A  
HETATM   14  C   UNL     1     -11.732  12.689  66.704  1.00  0.00    -0.398 A  
HETATM   15  C   UNL     1     -12.250  12.474  65.421  1.00  0.00    -0.475 A  
HETATM   16 CL   UNL     1     -11.907  11.396  67.840  1.00  0.00    -0.301 Cl 
HETATM   17  C   UNL     1     -12.146  13.462  64.447  1.00  0.00    -0.468 A  
HETATM   18  C   UNL     1     -11.488  14.650  64.747  1.00  0.00    -0.410 A  
HETATM   19  C   UNL     1     -10.963  14.866  66.027  1.00  0.00    -0.334 A  
HETATM   20 CL   UNL     1     -10.149  16.370  66.288  1.00  0.00    -0.325 Cl 
ENDBRANCH  12  13
ENDBRANCH   9  12
TORSDOF 2
ENDMDL
MODEL       25
REMARK 921   NORMALIZED FREE ENERGY PREDICTED BY IDOCK:   -5.23 KCAL/MOL
REMARK 922        TOTAL FREE ENERGY PREDICTED BY IDOCK:   -6.17 KCAL/MOL
REMARK 923 INTER-LIGAND FREE ENERGY PREDICTED BY IDOCK:   -5.88 KCAL/MOL
REMARK 924 INTRA-LIGAND FREE ENERGY PREDICTED BY IDOCK:   -0.29 KCAL/MOL
REMARK 927      BINDING AFFINITY PREDICTED BY RF-SCORE:    0.00 PKD
ROOT
HETATM    1  N   UNL     1     -13.057  14.207  65.520  1.00  0.00    -0.645 NA 
HETATM    2  C   UNL     1     -12.158  14.324  64.525  1.00  0.00    -0.480 C  
HETATM    3  H2  UNL     1     -13.955  13.771  65.309  1.00  0.00     0.000 HD 
HETATM    4  H1  UNL     1     -12.891  14.529  66.473  1.00  0.00     0.000 HD 
HETATM    5  N   UNL     1     -12.368  13.918  63.326  1.00  0.00    -1.148 NA 
HETATM    6  N   UNL     1     -10.944  14.899  64.739  1.00  0.00    -0.547 N  
HETATM    7  H1  UNL     1     -11.687  14.007  62.573  1.00  0.00     0.000 HD 
HETATM    8  H2  UNL     1     -13.265  13.483  63.115  1.00  0.00     0.000 HD 
HETATM    9  C   UNL     1     -10.446  15.379  65.936  1.00  0.00    -0.340 C  
HETATM   10  H   UNL     1     -10.334  14.986  63.926  1.00  0.00     0.000 HD 
HETATM   11  O   UNL     1     -10.976  15.175  67.027  1.00  0.00    -0.314 OA 
ENDROOT
BRANCH   9  12
HETATM   12  C   UNL     1      -9.162  16.174  65.789  1.00  0.00    -0.183 C  
BRANCH  12  13
HETATM   13  C   UNL     1      -8.924  17.172  66.900  1.00  0.00    -0.253 A  
HETATM   14  C   UNL     1      -8.039  16.889  67.961  1.00  0.00    -0.194 A  
HETATM   15  C   UNL     1      -7.739  17.851  68.932  1.00  0.00    -0.206 A  
HETATM   16 CL   UNL     1      -7.262  15.352  68.120  1.00  0.00    -0.115 Cl 
HETATM   17  C   UNL     1      -8.327  19.110  68.879  1.00  0.00    -0.325 A  
HETATM   18  C   UNL     1      -9.244  19.395  67.872  1.00  0.00    -0.383 A  
HETATM   19  C   UNL     1      -9.551  18.433  66.901  1.00  0.00    -0.303 A  
HETATM   20 CL   UNL     1     -10.717  18.883  65.706  1.00  0.00    -0.446 Cl 
ENDBRANCH  12  13
ENDBRANCH   9  12
TORSDOF 2
ENDMDL
MODEL       26
REMARK 921   NORMALIZED FREE ENERGY PREDICTED BY IDOCK:   -5.22 KCAL/MOL
REMARK 922        TOTAL FREE ENERGY PREDICTED BY IDOCK:   -6.16 KCAL/MOL
REMARK 923 INTER-LIGAND FREE ENERGY PREDICTED BY IDOCK:   -5.80 KCAL/MOL
REMARK 924 INTRA-LIGAND FREE ENERGY PREDICTED BY IDOCK:   -0.36 KCAL/MOL
REMARK 927      BINDING AFFINITY PREDICTED BY RF-SCORE:    0.00 PKD
ROOT
HETATM    1  N   UNL     1     -12.517  13.436  62.903  1.00  0.00    -0.837 NA 
HETATM    2  C   UNL     1     -11.491  12.800  63.500  1.00  0.00    -0.459 C  
HETATM    3  H2  UNL     1     -13.090  12.911  62.243  1.00  0.00     0.000 HD 
HETATM    4  H1  UNL     1     -12.752  14.413  63.074  1.00  0.00     0.000 HD 
HETATM    5  N   UNL     1     -11.196  11.570  63.284  1.00  0.00    -0.809 NA 
HETATM    6  N   UNL     1     -10.685  13.444  64.386  1.00  0.00    -0.440 N  
HETATM    7  H1  UNL     1     -10.419  11.089  63.737  1.00  0.00     0.000 HD 
HETATM    8  H2  UNL     1     -11.769  11.045  62.624  1.00  0.00     0.000 HD 
HETATM    9  C   UNL     1     -10.805  14.748  64.830  1.00  0.00    -0.376 C  
HETATM   10  H   UNL     1      -9.907  12.905  64.767  1.00  0.00     0.000 HD 
HETATM   11  O   UNL     1     -11.788  15.456  64.615  1.00  0.00    -0.330 OA 
ENDROOT
BRANCH   9  12
HETATM   12  C   UNL     1      -9.611  15.233  65.630  1.00  0.00    -0.313 C  
BRANCH  12  13
HETATM   13  C   UNL     1      -9.938  15.610  67.059  1.00  0.00    -0.242 A  
HETATM   14  C   UNL     1     -10.207  16.946  67.419  1.00  0.00    -0.298 A  
HETATM   15  C   UNL     1     -10.611  17.280  68.717  1.00  0.00    -0.305 A  
HETATM   16 CL   UNL     1     -10.070  18.246  66.286  1.00  0.00    -0.383 Cl 
HETATM   17  C   UNL     1     -10.740  16.294  69.689  1.00  0.00    -0.338 A  
HETATM   18  C   UNL     1     -10.428  14.976  69.370  1.00  0.00    -0.254 A  
HETATM   19  C   UNL     1     -10.018  14.638  68.075  1.00  0.00    -0.220 A  
HETATM   20 CL   UNL     1      -9.638  12.975  67.791  1.00  0.00    -0.201 Cl 
ENDBRANCH  12  13
ENDBRANCH   9  12
TORSDOF 2
ENDMDL
MODEL       27
REMARK 921   NORMALIZED FREE ENERGY PREDICTED BY IDOCK:   -5.20 KCAL/MOL
REMARK 922        TOTAL FREE ENERGY PREDICTED BY IDOCK:   -6.15 KCAL/MOL
REMARK 923 INTER-LIGAND FREE ENERGY PREDICTED BY IDOCK:   -5.84 KCAL/MOL
REMARK 924 INTRA-LIGAND FREE ENERGY PREDICTED BY IDOCK:   -0.31 KCAL/MOL
REMARK 927      BINDING AFFINITY PREDICTED BY RF-SCORE:    0.00 PKD
ROOT
HETATM    1  N   UNL     1     -11.000  16.707  68.522  1.00  0.00    -0.350 NA 
HETATM    2  C   UNL     1     -11.866  15.785  68.984  1.00  0.00    -0.355 C  
HETATM    3  H2  UNL     1     -10.770  17.496  69.126  1.00  0.00     0.000 HD 
HETATM    4  H1  UNL     1     -10.562  16.660  67.602  1.00  0.00     0.000 HD 
HETATM    5  N   UNL     1     -12.417  15.844  70.141  1.00  0.00    -0.475 NA 
HETATM    6  N   UNL     1     -12.219  14.711  68.227  1.00  0.00    -0.604 N  
HETATM    7  H1  UNL     1     -13.072  15.145  70.490  1.00  0.00     0.000 HD 
HETATM    8  H2  UNL     1     -12.187  16.633  70.744  1.00  0.00     0.000 HD 
HETATM    9  C   UNL     1     -11.744  14.382  66.970  1.00  0.00    -0.399 C  
HETATM   10  H   UNL     1     -12.909  14.078  68.632  1.00  0.00     0.000 HD 
HETATM   11  O   UNL     1     -10.782  14.932  66.438  1.00  0.00    -0.302 OA 
ENDROOT
BRANCH   9  12
HETATM   12  C   UNL     1     -12.513  13.257  66.303  1.00  0.00    -0.283 C  
BRANCH  12  13
HETATM   13  C   UNL     1     -11.636  12.157  65.745  1.00  0.00    -0.414 A  
HETATM   14  C   UNL     1     -11.371  12.065  64.363  1.00  0.00    -0.345 A  
HETATM   15  C   UNL     1     -10.478  11.113  63.857  1.00  0.00    -0.445 A  
HETATM   16 CL   UNL     1     -12.115  13.122  63.214  1.00  0.00    -0.589 Cl 
HETATM   17  C   UNL     1      -9.842  10.222  64.715  1.00  0.00    -0.403 A  
HETATM   18  C   UNL     1     -10.129  10.259  66.076  1.00  0.00    -0.311 A  
HETATM   19  C   UNL     1     -11.026  11.206  66.584  1.00  0.00    -0.228 A  
HETATM   20 CL   UNL     1     -11.325  11.155  68.287  1.00  0.00    -0.336 Cl 
ENDBRANCH  12  13
ENDBRANCH   9  12
TORSDOF 2
ENDMDL
MODEL       28
REMARK 921   NORMALIZED FREE ENERGY PREDICTED BY IDOCK:   -5.17 KCAL/MOL
REMARK 922        TOTAL FREE ENERGY PREDICTED BY IDOCK:   -6.11 KCAL/MOL
REMARK 923 INTER-LIGAND FREE ENERGY PREDICTED BY IDOCK:   -5.89 KCAL/MOL
REMARK 924 INTRA-LIGAND FREE ENERGY PREDICTED BY IDOCK:   -0.22 KCAL/MOL
REMARK 927      BINDING AFFINITY PREDICTED BY RF-SCORE:    0.00 PKD
ROOT
HETATM    1  N   UNL     1     -12.642  14.193  63.353  1.00  0.00    -1.023 NA 
HETATM    2  C   UNL     1     -11.995  15.050  64.164  1.00  0.00    -0.201 C  
HETATM    3  H2  UNL     1     -12.888  14.510  62.415  1.00  0.00     0.000 HD 
HETATM    4  H1  UNL     1     -12.901  13.245  63.623  1.00  0.00     0.000 HD 
HETATM    5  N   UNL     1     -11.670  16.243  63.824  1.00  0.00    -1.488 NA 
HETATM    6  N   UNL     1     -11.643  14.691  65.428  1.00  0.00    -0.350 N  
HETATM    7  H1  UNL     1     -11.179  16.892  64.438  1.00  0.00     0.000 HD 
HETATM    8  H2  UNL     1     -11.915  16.561  62.886  1.00  0.00     0.000 HD 
HETATM    9  C   UNL     1     -11.831  13.461  66.030  1.00  0.00    -0.383 C  
HETATM   10  H   UNL     1     -11.189  15.409  65.994  1.00  0.00     0.000 HD 
HETATM   11  O   UNL     1     -12.184  12.450  65.425  1.00  0.00    -0.533 OA 
ENDROOT
BRANCH   9  12
HETATM   12  C   UNL     1     -11.543  13.460  67.520  1.00  0.00    -0.382 C  
BRANCH  12  13
HETATM   13  C   UNL     1     -10.180  12.913  67.885  1.00  0.00    -0.233 A  
HETATM   14  C   UNL     1      -9.033  13.731  67.852  1.00  0.00    -0.193 A  
HETATM   15  C   UNL     1      -7.790  13.256  68.288  1.00  0.00    -0.143 A  
HETATM   16 CL   UNL     1      -9.087  15.366  67.289  1.00  0.00    -0.208 Cl 
HETATM   17  C   UNL     1      -7.661  11.951  68.752  1.00  0.00    -0.090 A  
HETATM   18  C   UNL     1      -8.768  11.110  68.743  1.00  0.00    -0.130 A  
HETATM   19  C   UNL     1     -10.012  11.579  68.302  1.00  0.00    -0.202 A  
HETATM   20 CL   UNL     1     -11.318  10.446  68.316  1.00  0.00    -0.329 Cl 
ENDBRANCH  12  13
ENDBRANCH   9  12
TORSDOF 2
ENDMDL
MODEL       29
REMARK 921   NORMALIZED FREE ENERGY PREDICTED BY IDOCK:   -5.15 KCAL/MOL
REMARK 922        TOTAL FREE ENERGY PREDICTED BY IDOCK:   -6.09 KCAL/MOL
REMARK 923 INTER-LIGAND FREE ENERGY PREDICTED BY IDOCK:   -5.77 KCAL/MOL
REMARK 924 INTRA-LIGAND FREE ENERGY PREDICTED BY IDOCK:   -0.33 KCAL/MOL
REMARK 927      BINDING AFFINITY PREDICTED BY RF-SCORE:    0.00 PKD
ROOT
HETATM    1  N   UNL     1     -10.986  16.670  68.712  1.00  0.00    -0.328 NA 
HETATM    2  C   UNL     1     -11.949  15.806  69.081  1.00  0.00    -0.296 C  
HETATM    3  H2  UNL     1     -10.833  17.496  69.290  1.00  0.00     0.000 HD 
HETATM    4  H1  UNL     1     -10.400  16.546  67.886  1.00  0.00     0.000 HD 
HETATM    5  N   UNL     1     -12.685  15.962  70.119  1.00  0.00    -0.626 NA 
HETATM    6  N   UNL     1     -12.207  14.687  68.351  1.00  0.00    -0.610 N  
HETATM    7  H1  UNL     1     -13.415  15.307  70.399  1.00  0.00     0.000 HD 
HETATM    8  H2  UNL     1     -12.533  16.788  70.698  1.00  0.00     0.000 HD 
HETATM    9  C   UNL     1     -11.539  14.255  67.219  1.00  0.00    -0.377 C  
HETATM   10  H   UNL     1     -12.978  14.102  68.674  1.00  0.00     0.000 HD 
HETATM   11  O   UNL     1     -10.481  14.742  66.823  1.00  0.00    -0.274 OA 
ENDROOT
BRANCH   9  12
HETATM   12  C   UNL     1     -12.223  13.102  66.509  1.00  0.00    -0.358 C  
BRANCH  12  13
HETATM   13  C   UNL     1     -11.371  11.857  66.392  1.00  0.00    -0.400 A  
HETATM   14  C   UNL     1     -11.270  10.938  67.456  1.00  0.00    -0.293 A  
HETATM   15  C   UNL     1     -10.567   9.736  67.313  1.00  0.00    -0.320 A  
HETATM   16 CL   UNL     1     -12.014  11.227  68.991  1.00  0.00    -0.407 Cl 
HETATM   17  C   UNL     1      -9.935   9.431  66.112  1.00  0.00    -0.351 A  
HETATM   18  C   UNL     1      -9.976  10.347  65.066  1.00  0.00    -0.399 A  
HETATM   19  C   UNL     1     -10.674  11.553  65.207  1.00  0.00    -0.279 A  
HETATM   20 CL   UNL     1     -10.647  12.628  63.852  1.00  0.00    -0.448 Cl 
ENDBRANCH  12  13
ENDBRANCH   9  12
TORSDOF 2
ENDMDL
MODEL       30
REMARK 921   NORMALIZED FREE ENERGY PREDICTED BY IDOCK:   -5.15 KCAL/MOL
REMARK 922        TOTAL FREE ENERGY PREDICTED BY IDOCK:   -6.08 KCAL/MOL
REMARK 923 INTER-LIGAND FREE ENERGY PREDICTED BY IDOCK:   -5.77 KCAL/MOL
REMARK 924 INTRA-LIGAND FREE ENERGY PREDICTED BY IDOCK:   -0.31 KCAL/MOL
REMARK 927      BINDING AFFINITY PREDICTED BY RF-SCORE:    0.00 PKD
ROOT
HETATM    1  N   UNL     1     -14.271  15.344  71.043  1.00  0.00    -0.846 NA 
HETATM    2  C   UNL     1     -13.445  14.329  71.358  1.00  0.00    -0.330 C  
HETATM    3  H2  UNL     1     -15.110  15.476  71.609  1.00  0.00     0.000 HD 
HETATM    4  H1  UNL     1     -14.106  15.989  70.270  1.00  0.00     0.000 HD 
HETATM    5  N   UNL     1     -13.653  13.519  72.330  1.00  0.00    -0.581 NA 
HETATM    6  N   UNL     1     -12.313  14.096  70.641  1.00  0.00    -0.342 N  
HETATM    7  H1  UNL     1     -13.027  12.750  72.569  1.00  0.00     0.000 HD 
HETATM    8  H2  UNL     1     -14.492  13.651  72.896  1.00  0.00     0.000 HD 
HETATM    9  C   UNL     1     -11.829  14.837  69.578  1.00  0.00    -0.326 C  
HETATM   10  H   UNL     1     -11.759  13.285  70.917  1.00  0.00     0.000 HD 
HETATM   11  O   UNL     1     -12.274  15.937  69.253  1.00  0.00    -0.273 OA 
ENDROOT
BRANCH   9  12
HETATM   12  C   UNL     1     -10.675  14.176  68.848  1.00  0.00    -0.270 C  
BRANCH  12  13
HETATM   13  C   UNL     1     -10.969  13.846  67.401  1.00  0.00    -0.299 A  
HETATM   14  C   UNL     1     -10.716  14.776  66.372  1.00  0.00    -0.313 A  
HETATM   15  C   UNL     1     -10.890  14.435  65.026  1.00  0.00    -0.420 A  
HETATM   16 CL   UNL     1     -10.166  16.382  66.704  1.00  0.00    -0.286 Cl 
HETATM   17  C   UNL     1     -11.335  13.165  64.675  1.00  0.00    -0.363 A  
HETATM   18  C   UNL     1     -11.642  12.248  65.675  1.00  0.00    -0.433 A  
HETATM   19  C   UNL     1     -11.475  12.587  67.023  1.00  0.00    -0.356 A  
HETATM   20 CL   UNL     1     -11.903  11.380  68.185  1.00  0.00    -0.336 Cl 
ENDBRANCH  12  13
ENDBRANCH   9  12
TORSDOF 2
ENDMDL
MODEL       31
REMARK 921   NORMALIZED FREE ENERGY PREDICTED BY IDOCK:   -5.12 KCAL/MOL
REMARK 922        TOTAL FREE ENERGY PREDICTED BY IDOCK:   -6.06 KCAL/MOL
REMARK 923 INTER-LIGAND FREE ENERGY PREDICTED BY IDOCK:   -5.76 KCAL/MOL
REMARK 924 INTRA-LIGAND FREE ENERGY PREDICTED BY IDOCK:   -0.29 KCAL/MOL
REMARK 927      BINDING AFFINITY PREDICTED BY RF-SCORE:    0.00 PKD
ROOT
HETATM    1  N   UNL     1     -11.677   9.288  70.276  1.00  0.00    -0.461 NA 
HETATM    2  C   UNL     1     -10.445   9.830  70.285  1.00  0.00    -0.288 C  
HETATM    3  H2  UNL     1     -11.905   8.598  70.993  1.00  0.00     0.000 HD 
HETATM    4  H1  UNL     1     -12.396   9.528  69.594  1.00  0.00     0.000 HD 
HETATM    5  N   UNL     1      -9.542   9.528  71.144  1.00  0.00    -0.287 NA 
HETATM    6  N   UNL     1     -10.077  10.752  69.355  1.00  0.00    -0.385 N  
HETATM    7  H1  UNL     1      -8.609   9.939  71.151  1.00  0.00     0.000 HD 
HETATM    8  H2  UNL     1      -9.770   8.839  71.861  1.00  0.00     0.000 HD 
HETATM    9  C   UNL     1     -10.862  11.285  68.350  1.00  0.00    -0.205 C  
HETATM   10  H   UNL     1      -9.114  11.087  69.405  1.00  0.00     0.000 HD 
HETATM   11  O   UNL     1     -12.080  11.128  68.278  1.00  0.00    -0.620 OA 
ENDROOT
BRANCH   9  12
HETATM   12  C   UNL     1     -10.085  12.107  67.339  1.00  0.00    -0.208 C  
BRANCH  12  13
HETATM   13  C   UNL     1     -10.799  12.295  66.018  1.00  0.00    -0.310 A  
HETATM   14  C   UNL     1     -11.620  13.416  65.784  1.00  0.00    -0.332 A  
HETATM   15  C   UNL     1     -12.198  13.644  64.529  1.00  0.00    -0.444 A  
HETATM   16 CL   UNL     1     -11.955  14.581  67.018  1.00  0.00    -0.416 Cl 
HETATM   17  C   UNL     1     -11.982  12.752  63.484  1.00  0.00    -0.633 A  
HETATM   18  C   UNL     1     -11.219  11.611  63.707  1.00  0.00    -0.498 A  
HETATM   19  C   UNL     1     -10.645  11.376  64.962  1.00  0.00    -0.299 A  
HETATM   20 CL   UNL     1      -9.730   9.919  65.136  1.00  0.00    -0.374 Cl 
ENDBRANCH  12  13
ENDBRANCH   9  12
TORSDOF 2
ENDMDL
MODEL       32
REMARK 921   NORMALIZED FREE ENERGY PREDICTED BY IDOCK:   -5.05 KCAL/MOL
REMARK 922        TOTAL FREE ENERGY PREDICTED BY IDOCK:   -5.98 KCAL/MOL
REMARK 923 INTER-LIGAND FREE ENERGY PREDICTED BY IDOCK:   -5.87 KCAL/MOL
REMARK 924 INTRA-LIGAND FREE ENERGY PREDICTED BY IDOCK:   -0.10 KCAL/MOL
REMARK 927      BINDING AFFINITY PREDICTED BY RF-SCORE:    0.00 PKD
ROOT
HETATM    1  N   UNL     1     -10.927  11.109  62.842  1.00  0.00    -0.785 NA 
HETATM    2  C   UNL     1     -10.231  11.601  63.885  1.00  0.00    -0.365 C  
HETATM    3  H2  UNL     1     -10.431  10.534  62.161  1.00  0.00     0.000 HD 
HETATM    4  H1  UNL     1     -11.921  11.280  62.695  1.00  0.00     0.000 HD 
HETATM    5  N   UNL     1      -8.980  11.386  64.069  1.00  0.00    -0.400 NA 
HETATM    6  N   UNL     1     -10.832  12.378  64.826  1.00  0.00    -0.291 N  
HETATM    7  H1  UNL     1      -8.454  11.758  64.859  1.00  0.00     0.000 HD 
HETATM    8  H2  UNL     1      -8.485  10.811  63.388  1.00  0.00     0.000 HD 
HETATM    9  C   UNL     1     -12.168  12.727  64.893  1.00  0.00    -0.463 C  
HETATM   10  H   UNL     1     -10.230  12.744  65.564  1.00  0.00     0.000 HD 
HETATM   11  O   UNL     1     -13.044  12.217  64.196  1.00  0.00    -0.694 OA 
ENDROOT
BRANCH   9  12
HETATM   12  C   UNL     1     -12.469  13.797  65.926  1.00  0.00    -0.512 C  
BRANCH  12  13
HETATM   13  C   UNL     1     -11.240  14.495  66.467  1.00  0.00    -0.344 A  
HETATM   14  C   UNL     1     -10.623  14.068  67.660  1.00  0.00    -0.249 A  
HETATM   15  C   UNL     1      -9.428  14.645  68.107  1.00  0.00    -0.212 A  
HETATM   16 CL   UNL     1     -11.289  12.805  68.636  1.00  0.00    -0.307 Cl 
HETATM   17  C   UNL     1      -8.830  15.671  67.382  1.00  0.00    -0.204 A  
HETATM   18  C   UNL     1      -9.449  16.144  66.229  1.00  0.00    -0.347 A  
HETATM   19  C   UNL     1     -10.647  15.573  65.783  1.00  0.00    -0.356 A  
HETATM   20 CL   UNL     1     -11.341  16.248  64.350  1.00  0.00    -0.343 Cl 
ENDBRANCH  12  13
ENDBRANCH   9  12
TORSDOF 2
ENDMDL
MODEL       33
REMARK 921   NORMALIZED FREE ENERGY PREDICTED BY IDOCK:   -5.02 KCAL/MOL
REMARK 922        TOTAL FREE ENERGY PREDICTED BY IDOCK:   -5.94 KCAL/MOL
REMARK 923 INTER-LIGAND FREE ENERGY PREDICTED BY IDOCK:   -5.58 KCAL/MOL
REMARK 924 INTRA-LIGAND FREE ENERGY PREDICTED BY IDOCK:   -0.36 KCAL/MOL
REMARK 927      BINDING AFFINITY PREDICTED BY RF-SCORE:    0.00 PKD
ROOT
HETATM    1  N   UNL     1     -13.499  10.855  72.093  1.00  0.00    -0.527 NA 
HETATM    2  C   UNL     1     -13.094  12.128  71.929  1.00  0.00    -0.369 C  
HETATM    3  H2  UNL     1     -14.096  10.638  72.891  1.00  0.00     0.000 HD 
HETATM    4  H1  UNL     1     -13.241  10.095  71.463  1.00  0.00     0.000 HD 
HETATM    5  N   UNL     1     -13.418  13.084  72.721  1.00  0.00    -0.649 NA 
HETATM    6  N   UNL     1     -12.293  12.483  70.888  1.00  0.00    -0.384 N  
HETATM    7  H1  UNL     1     -13.112  14.049  72.596  1.00  0.00     0.000 HD 
HETATM    8  H2  UNL     1     -14.016  12.867  73.519  1.00  0.00     0.000 HD 
HETATM    9  C   UNL     1     -11.835  11.667  69.870  1.00  0.00    -0.358 C  
HETATM   10  H   UNL     1     -11.998  13.459  70.855  1.00  0.00     0.000 HD 
HETATM   11  O   UNL     1     -12.252  10.528  69.668  1.00  0.00    -0.244 OA 
ENDROOT
BRANCH   9  12
HETATM   12  C   UNL     1     -10.771  12.312  69.003  1.00  0.00    -0.149 C  
BRANCH  12  13
HETATM   13  C   UNL     1     -11.251  12.692  67.619  1.00  0.00    -0.329 A  
HETATM   14  C   UNL     1     -11.149  11.794  66.538  1.00  0.00    -0.310 A  
HETATM   15  C   UNL     1     -11.686  12.104  65.283  1.00  0.00    -0.364 A  
HETATM   16 CL   UNL     1     -10.373  10.256  66.694  1.00  0.00    -0.290 Cl 
HETATM   17  C   UNL     1     -12.322  13.323  65.073  1.00  0.00    -0.499 A  
HETATM   18  C   UNL     1     -12.387  14.247  66.110  1.00  0.00    -0.411 A  
HETATM   19  C   UNL     1     -11.846  13.943  67.365  1.00  0.00    -0.402 A  
HETATM   20 CL   UNL     1     -11.965  15.169  68.579  1.00  0.00    -0.294 Cl 
ENDBRANCH  12  13
ENDBRANCH   9  12
TORSDOF 2
ENDMDL
MODEL       34
REMARK 921   NORMALIZED FREE ENERGY PREDICTED BY IDOCK:   -5.01 KCAL/MOL
REMARK 922        TOTAL FREE ENERGY PREDICTED BY IDOCK:   -5.94 KCAL/MOL
REMARK 923 INTER-LIGAND FREE ENERGY PREDICTED BY IDOCK:   -5.68 KCAL/MOL
REMARK 924 INTRA-LIGAND FREE ENERGY PREDICTED BY IDOCK:   -0.25 KCAL/MOL
REMARK 927      BINDING AFFINITY PREDICTED BY RF-SCORE:    0.00 PKD
ROOT
HETATM    1  N   UNL     1     -10.742  17.146  64.963  1.00  0.00    -0.681 NA 
HETATM    2  C   UNL     1     -10.425  16.258  65.923  1.00  0.00    -0.345 C  
HETATM    3  H2  UNL     1     -10.275  18.053  64.972  1.00  0.00     0.000 HD 
HETATM    4  H1  UNL     1     -11.423  16.963  64.226  1.00  0.00     0.000 HD 
HETATM    5  N   UNL     1      -9.569  16.488  66.850  1.00  0.00    -0.235 NA 
HETATM    6  N   UNL     1     -11.014  15.033  65.970  1.00  0.00    -0.331 N  
HETATM    7  H1  UNL     1      -9.329  15.815  67.577  1.00  0.00     0.000 HD 
HETATM    8  H2  UNL     1      -9.102  17.395  66.859  1.00  0.00     0.000 HD 
HETATM    9  C   UNL     1     -11.932  14.512  65.076  1.00  0.00    -0.399 C  
HETATM   10  H   UNL     1     -10.750  14.431  66.750  1.00  0.00     0.000 HD 
HETATM   11  O   UNL     1     -12.203  15.032  63.995  1.00  0.00    -0.607 OA 
ENDROOT
BRANCH   9  12
HETATM   12  C   UNL     1     -12.573  13.218  65.542  1.00  0.00    -0.505 C  
BRANCH  12  13
HETATM   13  C   UNL     1     -11.581  12.128  65.884  1.00  0.00    -0.425 A  
HETATM   14  C   UNL     1     -11.344  11.749  67.221  1.00  0.00    -0.315 A  
HETATM   15  C   UNL     1     -10.506  10.672  67.533  1.00  0.00    -0.272 A  
HETATM   16 CL   UNL     1     -12.078  12.575  68.552  1.00  0.00    -0.237 Cl 
HETATM   17  C   UNL     1      -9.873   9.959  66.520  1.00  0.00    -0.274 A  
HETATM   18  C   UNL     1     -10.050  10.348  65.196  1.00  0.00    -0.379 A  
HETATM   19  C   UNL     1     -10.883  11.429  64.881  1.00  0.00    -0.257 A  
HETATM   20 CL   UNL     1     -11.019  11.840  63.207  1.00  0.00    -0.419 Cl 
ENDBRANCH  12  13
ENDBRANCH   9  12
TORSDOF 2
ENDMDL
MODEL       35
REMARK 921   NORMALIZED FREE ENERGY PREDICTED BY IDOCK:   -5.01 KCAL/MOL
REMARK 922        TOTAL FREE ENERGY PREDICTED BY IDOCK:   -5.94 KCAL/MOL
REMARK 923 INTER-LIGAND FREE ENERGY PREDICTED BY IDOCK:   -5.98 KCAL/MOL
REMARK 924 INTRA-LIGAND FREE ENERGY PREDICTED BY IDOCK:    0.05 KCAL/MOL
REMARK 927      BINDING AFFINITY PREDICTED BY RF-SCORE:    0.00 PKD
ROOT
HETATM    1  N   UNL     1      -8.993  17.579  65.814  1.00  0.00    -0.454 NA 
HETATM    2  C   UNL     1      -8.850  16.256  66.012  1.00  0.00    -0.273 C  
HETATM    3  H2  UNL     1      -8.258  18.199  66.154  1.00  0.00     0.000 HD 
HETATM    4  H1  UNL     1      -9.796  17.997  65.343  1.00  0.00     0.000 HD 
HETATM    5  N   UNL     1      -7.841  15.730  66.604  1.00  0.00    -0.235 NA 
HETATM    6  N   UNL     1      -9.796  15.375  65.587  1.00  0.00    -0.354 N  
HETATM    7  H1  UNL     1      -7.733  14.728  66.753  1.00  0.00     0.000 HD 
HETATM    8  H2  UNL     1      -7.106  16.350  66.944  1.00  0.00     0.000 HD 
HETATM    9  C   UNL     1     -10.954  15.665  64.887  1.00  0.00    -0.431 C  
HETATM   10  H   UNL     1      -9.634  14.393  65.808  1.00  0.00     0.000 HD 
HETATM   11  O   UNL     1     -11.192  16.763  64.386  1.00  0.00    -1.112 OA 
ENDROOT
BRANCH   9  12
HETATM   12  C   UNL     1     -11.909  14.492  64.775  1.00  0.00    -0.446 C  
BRANCH  12  13
HETATM   13  C   UNL     1     -11.517  13.295  65.612  1.00  0.00    -0.342 A  
HETATM   14  C   UNL     1     -11.691  13.293  67.011  1.00  0.00    -0.389 A  
HETATM   15  C   UNL     1     -11.426  12.150  67.774  1.00  0.00    -0.398 A  
HETATM   16 CL   UNL     1     -12.252  14.687  67.867  1.00  0.00    -0.202 Cl 
HETATM   17  C   UNL     1     -10.966  10.988  67.163  1.00  0.00    -0.344 A  
HETATM   18  C   UNL     1     -10.736  10.983  65.791  1.00  0.00    -0.216 A  
HETATM   19  C   UNL     1     -10.994  12.127  65.025  1.00  0.00    -0.309 A  
HETATM   20 CL   UNL     1     -10.657  12.019  63.332  1.00  0.00    -0.480 Cl 
ENDBRANCH  12  13
ENDBRANCH   9  12
TORSDOF 2
ENDMDL
MODEL       36
REMARK 921   NORMALIZED FREE ENERGY PREDICTED BY IDOCK:   -5.01 KCAL/MOL
REMARK 922        TOTAL FREE ENERGY PREDICTED BY IDOCK:   -5.93 KCAL/MOL
REMARK 923 INTER-LIGAND FREE ENERGY PREDICTED BY IDOCK:   -5.58 KCAL/MOL
REMARK 924 INTRA-LIGAND FREE ENERGY PREDICTED BY IDOCK:   -0.36 KCAL/MOL
REMARK 927      BINDING AFFINITY PREDICTED BY RF-SCORE:    0.00 PKD
ROOT
HETATM    1  N   UNL     1     -13.530   7.029  72.063  1.00  0.00    -0.556 NA 
HETATM    2  C   UNL     1     -13.463   8.351  72.309  1.00  0.00    -0.263 C  
HETATM    3  H2  UNL     1     -14.257   6.489  72.530  1.00  0.00     0.000 HD 
HETATM    4  H1  UNL     1     -12.894   6.539  71.434  1.00  0.00     0.000 HD 
HETATM    5  N   UNL     1     -14.263   8.968  73.099  1.00  0.00    -1.190 NA 
HETATM    6  N   UNL     1     -12.514   9.128  71.721  1.00  0.00    -0.346 N  
HETATM    7  H1  UNL     1     -14.212   9.969  73.286  1.00  0.00     0.000 HD 
HETATM    8  H2  UNL     1     -14.991   8.427  73.567  1.00  0.00     0.000 HD 
HETATM    9  C   UNL     1     -11.561   8.732  70.801  1.00  0.00    -0.251 C  
HETATM   10  H   UNL     1     -12.505  10.113  71.988  1.00  0.00     0.000 HD 
HETATM   11  O   UNL     1     -11.566   7.636  70.242  1.00  0.00    -0.195 OA 
ENDROOT
BRANCH   9  12
HETATM   12  C   UNL     1     -10.505   9.785  70.522  1.00  0.00    -0.366 C  
BRANCH  12  13
HETATM   13  C   UNL     1     -10.709  10.534  69.224  1.00  0.00    -0.269 A  
HETATM   14  C   UNL     1     -10.139  10.077  68.019  1.00  0.00    -0.167 A  
HETATM   15  C   UNL     1     -10.412  10.710  66.800  1.00  0.00    -0.303 A  
HETATM   16 CL   UNL     1      -9.086   8.705  67.965  1.00  0.00    -0.140 Cl 
HETATM   17  C   UNL     1     -11.245  11.822  66.758  1.00  0.00    -0.388 A  
HETATM   18  C   UNL     1     -11.776  12.324  67.942  1.00  0.00    -0.410 A  
HETATM   19  C   UNL     1     -11.501  11.697  69.163  1.00  0.00    -0.300 A  
HETATM   20 CL   UNL     1     -12.196  12.412  70.576  1.00  0.00    -0.432 Cl 
ENDBRANCH  12  13
ENDBRANCH   9  12
TORSDOF 2
ENDMDL
MODEL       37
REMARK 921   NORMALIZED FREE ENERGY PREDICTED BY IDOCK:   -5.00 KCAL/MOL
REMARK 922        TOTAL FREE ENERGY PREDICTED BY IDOCK:   -5.92 KCAL/MOL
REMARK 923 INTER-LIGAND FREE ENERGY PREDICTED BY IDOCK:   -5.66 KCAL/MOL
REMARK 924 INTRA-LIGAND FREE ENERGY PREDICTED BY IDOCK:   -0.26 KCAL/MOL
REMARK 927      BINDING AFFINITY PREDICTED BY RF-SCORE:    0.00 PKD
ROOT
HETATM    1  N   UNL     1     -11.380  16.403  63.971  1.00  0.00    -1.539 NA 
HETATM    2  C   UNL     1     -11.723  15.209  64.490  1.00  0.00    -0.328 C  
HETATM    3  H2  UNL     1     -11.619  16.591  62.997  1.00  0.00     0.000 HD 
HETATM    4  H1  UNL     1     -10.896  17.130  64.497  1.00  0.00     0.000 HD 
HETATM    5  N   UNL     1     -12.333  14.295  63.828  1.00  0.00    -1.063 NA 
HETATM    6  N   UNL     1     -11.431  14.894  65.780  1.00  0.00    -0.320 N  
HETATM    7  H1  UNL     1     -12.592  13.391  64.221  1.00  0.00     0.000 HD 
HETATM    8  H2  UNL     1     -12.571  14.483  62.854  1.00  0.00     0.000 HD 
HETATM    9  C   UNL     1     -10.823  15.704  66.722  1.00  0.00    -0.277 C  
HETATM   10  H   UNL     1     -11.689  13.956  66.088  1.00  0.00     0.000 HD 
HETATM   11  O   UNL     1     -10.629  16.908  66.564  1.00  0.00    -0.280 OA 
ENDROOT
BRANCH   9  12
HETATM   12  C   UNL     1     -10.425  14.974  67.991  1.00  0.00    -0.242 C  
BRANCH  12  13
HETATM   13  C   UNL     1      -9.642  13.701  67.751  1.00  0.00    -0.224 A  
HETATM   14  C   UNL     1     -10.262  12.437  67.823  1.00  0.00    -0.211 A  
HETATM   15  C   UNL     1      -9.565  11.267  67.500  1.00  0.00    -0.181 A  
HETATM   16 CL   UNL     1     -11.915  12.252  68.299  1.00  0.00    -0.349 Cl 
HETATM   17  C   UNL     1      -8.230  11.330  67.113  1.00  0.00    -0.149 A  
HETATM   18  C   UNL     1      -7.583  12.561  67.086  1.00  0.00    -0.087 A  
HETATM   19  C   UNL     1      -8.276  13.733  67.414  1.00  0.00    -0.184 A  
HETATM   20 CL   UNL     1      -7.372  15.207  67.365  1.00  0.00    -0.227 Cl 
ENDBRANCH  12  13
ENDBRANCH   9  12
TORSDOF 2
ENDMDL
MODEL       38
REMARK 921   NORMALIZED FREE ENERGY PREDICTED BY IDOCK:   -4.99 KCAL/MOL
REMARK 922        TOTAL FREE ENERGY PREDICTED BY IDOCK:   -5.91 KCAL/MOL
REMARK 923 INTER-LIGAND FREE ENERGY PREDICTED BY IDOCK:   -5.69 KCAL/MOL
REMARK 924 INTRA-LIGAND FREE ENERGY PREDICTED BY IDOCK:   -0.22 KCAL/MOL
REMARK 927      BINDING AFFINITY PREDICTED BY RF-SCORE:    0.00 PKD
ROOT
HETATM    1  N   UNL     1     -13.040  14.087  65.294  1.00  0.00    -0.765 NA 
HETATM    2  C   UNL     1     -12.099  14.194  64.337  1.00  0.00    -0.463 C  
HETATM    3  H2  UNL     1     -13.930  13.654  65.047  1.00  0.00     0.000 HD 
HETATM    4  H1  UNL     1     -12.913  14.414  66.251  1.00  0.00     0.000 HD 
HETATM    5  N   UNL     1     -12.259  13.782  63.133  1.00  0.00    -1.066 NA 
HETATM    6  N   UNL     1     -10.893  14.765  64.599  1.00  0.00    -0.608 N  
HETATM    7  H1  UNL     1     -11.546  13.863  62.409  1.00  0.00     0.000 HD 
HETATM    8  H2  UNL     1     -13.149  13.349  62.886  1.00  0.00     0.000 HD 
HETATM    9  C   UNL     1     -10.444  15.250  65.814  1.00  0.00    -0.349 C  
HETATM   10  H   UNL     1     -10.247  14.844  63.812  1.00  0.00     0.000 HD 
HETATM   11  O   UNL     1     -11.021  15.056  66.882  1.00  0.00    -0.314 OA 
ENDROOT
BRANCH   9  12
HETATM   12  C   UNL     1      -9.151  16.038  65.717  1.00  0.00    -0.168 C  
BRANCH  12  13
HETATM   13  C   UNL     1      -9.000  17.109  66.775  1.00  0.00    -0.263 A  
HETATM   14  C   UNL     1      -9.796  18.272  66.755  1.00  0.00    -0.341 A  
HETATM   15  C   UNL     1      -9.731  19.214  67.789  1.00  0.00    -0.391 A  
HETATM   16 CL   UNL     1     -10.905  18.603  65.469  1.00  0.00    -0.169 Cl 
HETATM   17  C   UNL     1      -8.860  19.025  68.857  1.00  0.00    -0.289 A  
HETATM   18  C   UNL     1      -8.027  17.911  68.871  1.00  0.00    -0.175 A  
HETATM   19  C   UNL     1      -8.085  16.970  67.836  1.00  0.00    -0.195 A  
HETATM   20 CL   UNL     1      -6.994  15.632  67.942  1.00  0.00    -0.138 Cl 
ENDBRANCH  12  13
ENDBRANCH   9  12
TORSDOF 2
ENDMDL
MODEL       39
REMARK 921   NORMALIZED FREE ENERGY PREDICTED BY IDOCK:   -4.98 KCAL/MOL
REMARK 922        TOTAL FREE ENERGY PREDICTED BY IDOCK:   -5.90 KCAL/MOL
REMARK 923 INTER-LIGAND FREE ENERGY PREDICTED BY IDOCK:   -5.59 KCAL/MOL
REMARK 924 INTRA-LIGAND FREE ENERGY PREDICTED BY IDOCK:   -0.31 KCAL/MOL
REMARK 927      BINDING AFFINITY PREDICTED BY RF-SCORE:    0.00 PKD
ROOT
HETATM    1  N   UNL     1     -13.194   7.089  71.908  1.00  0.00    -0.536 NA 
HETATM    2  C   UNL     1     -13.288   8.422  72.070  1.00  0.00    -0.343 C  
HETATM    3  H2  UNL     1     -13.868   6.497  72.393  1.00  0.00     0.000 HD 
HETATM    4  H1  UNL     1     -12.488   6.639  71.327  1.00  0.00     0.000 HD 
HETATM    5  N   UNL     1     -14.177   8.989  72.801  1.00  0.00    -1.052 NA 
HETATM    6  N   UNL     1     -12.418   9.268  71.455  1.00  0.00    -0.336 N  
HETATM    7  H1  UNL     1     -14.248   9.998  72.924  1.00  0.00     0.000 HD 
HETATM    8  H2  UNL     1     -14.851   8.396  73.286  1.00  0.00     0.000 HD 
HETATM    9  C   UNL     1     -11.399   8.930  70.584  1.00  0.00    -0.259 C  
HETATM   10  H   UNL     1     -12.530  10.261  71.659  1.00  0.00     0.000 HD 
HETATM   11  O   UNL     1     -11.260   7.809  70.097  1.00  0.00    -0.243 OA 
ENDROOT
BRANCH   9  12
HETATM   12  C   UNL     1     -10.463  10.081  70.263  1.00  0.00    -0.331 C  
BRANCH  12  13
HETATM   13  C   UNL     1     -10.870  10.884  69.047  1.00  0.00    -0.275 A  
HETATM   14  C   UNL     1     -11.643  12.057  69.171  1.00  0.00    -0.312 A  
HETATM   15  C   UNL     1     -11.932  12.857  68.060  1.00  0.00    -0.323 A  
HETATM   16 CL   UNL     1     -12.268  12.585  70.695  1.00  0.00    -0.436 Cl 
HETATM   17  C   UNL     1     -11.471  12.499  66.797  1.00  0.00    -0.422 A  
HETATM   18  C   UNL     1     -10.751  11.318  66.642  1.00  0.00    -0.321 A  
HETATM   19  C   UNL     1     -10.465  10.512  67.751  1.00  0.00    -0.224 A  
HETATM   20 CL   UNL     1      -9.580   9.058  67.445  1.00  0.00    -0.183 Cl 
ENDBRANCH  12  13
ENDBRANCH   9  12
TORSDOF 2
ENDMDL
MODEL       40
REMARK 921   NORMALIZED FREE ENERGY PREDICTED BY IDOCK:   -4.98 KCAL/MOL
REMARK 922        TOTAL FREE ENERGY PREDICTED BY IDOCK:   -5.90 KCAL/MOL
REMARK 923 INTER-LIGAND FREE ENERGY PREDICTED BY IDOCK:   -5.60 KCAL/MOL
REMARK 924 INTRA-LIGAND FREE ENERGY PREDICTED BY IDOCK:   -0.30 KCAL/MOL
REMARK 927      BINDING AFFINITY PREDICTED BY RF-SCORE:    0.00 PKD
ROOT
HETATM    1  N   UNL     1     -10.996  16.545  68.757  1.00  0.00    -0.333 NA 
HETATM    2  C   UNL     1     -11.910  15.625  69.118  1.00  0.00    -0.362 C  
HETATM    3  H2  UNL     1     -10.837  17.336  69.380  1.00  0.00     0.000 HD 
HETATM    4  H1  UNL     1     -10.453  16.494  67.895  1.00  0.00     0.000 HD 
HETATM    5  N   UNL     1     -12.592  15.689  70.202  1.00  0.00    -0.537 NA 
HETATM    6  N   UNL     1     -12.173  14.548  68.329  1.00  0.00    -0.593 N  
HETATM    7  H1  UNL     1     -13.285  14.992  70.476  1.00  0.00     0.000 HD 
HETATM    8  H2  UNL     1     -12.433  16.480  70.826  1.00  0.00     0.000 HD 
HETATM    9  C   UNL     1     -11.556  14.215  67.138  1.00  0.00    -0.377 C  
HETATM   10  H   UNL     1     -12.906  13.917  68.653  1.00  0.00     0.000 HD 
HETATM   11  O   UNL     1     -10.537  14.762  66.719  1.00  0.00    -0.291 OA 
ENDROOT
BRANCH   9  12
HETATM   12  C   UNL     1     -12.242  13.087  66.389  1.00  0.00    -0.350 C  
BRANCH  12  13
HETATM   13  C   UNL     1     -11.309  12.255  65.537  1.00  0.00    -0.394 A  
HETATM   14  C   UNL     1     -10.535  11.220  66.099  1.00  0.00    -0.254 A  
HETATM   15  C   UNL     1      -9.750  10.383  65.297  1.00  0.00    -0.339 A  
HETATM   16 CL   UNL     1     -10.513  10.910  67.801  1.00  0.00    -0.223 Cl 
HETATM   17  C   UNL     1      -9.708  10.568  63.919  1.00  0.00    -0.384 A  
HETATM   18  C   UNL     1     -10.422  11.617  63.348  1.00  0.00    -0.482 A  
HETATM   19  C   UNL     1     -11.203  12.460  64.148  1.00  0.00    -0.376 A  
HETATM   20 CL   UNL     1     -12.036  13.743  63.341  1.00  0.00    -0.306 Cl 
ENDBRANCH  12  13
ENDBRANCH   9  12
TORSDOF 2
ENDMDL
MODEL       41
REMARK 921   NORMALIZED FREE ENERGY PREDICTED BY IDOCK:   -4.98 KCAL/MOL
REMARK 922        TOTAL FREE ENERGY PREDICTED BY IDOCK:   -5.90 KCAL/MOL
REMARK 923 INTER-LIGAND FREE ENERGY PREDICTED BY IDOCK:   -5.58 KCAL/MOL
REMARK 924 INTRA-LIGAND FREE ENERGY PREDICTED BY IDOCK:   -0.32 KCAL/MOL
REMARK 927      BINDING AFFINITY PREDICTED BY RF-SCORE:    0.00 PKD
ROOT
HETATM    1  N   UNL     1     -13.337  10.736  72.195  1.00  0.00    -0.579 NA 
HETATM    2  C   UNL     1     -13.111  12.033  71.916  1.00  0.00    -0.370 C  
HETATM    3  H2  UNL     1     -13.931  10.512  72.994  1.00  0.00     0.000 HD 
HETATM    4  H1  UNL     1     -12.949   9.965  71.652  1.00  0.00     0.000 HD 
HETATM    5  N   UNL     1     -13.599  13.003  72.599  1.00  0.00    -0.671 NA 
HETATM    6  N   UNL     1     -12.325  12.400  70.868  1.00  0.00    -0.379 N  
HETATM    7  H1  UNL     1     -13.427  13.986  72.388  1.00  0.00     0.000 HD 
HETATM    8  H2  UNL     1     -14.192  12.779  73.398  1.00  0.00     0.000 HD 
HETATM    9  C   UNL     1     -11.714  11.566  69.949  1.00  0.00    -0.343 C  
HETATM   10  H   UNL     1     -12.170  13.401  70.745  1.00  0.00     0.000 HD 
HETATM   11  O   UNL     1     -11.958  10.364  69.850  1.00  0.00    -0.260 OA 
ENDROOT
BRANCH   9  12
HETATM   12  C   UNL     1     -10.717  12.273  69.051  1.00  0.00    -0.149 C  
BRANCH  12  13
HETATM   13  C   UNL     1     -11.260  12.626  67.684  1.00  0.00    -0.329 A  
HETATM   14  C   UNL     1     -11.839  13.887  67.431  1.00  0.00    -0.402 A  
HETATM   15  C   UNL     1     -12.247  14.253  66.143  1.00  0.00    -0.430 A  
HETATM   16 CL   UNL     1     -12.067  15.059  68.683  1.00  0.00    -0.254 Cl 
HETATM   17  C   UNL     1     -12.103  13.365  65.082  1.00  0.00    -0.442 A  
HETATM   18  C   UNL     1     -11.585  12.096  65.318  1.00  0.00    -0.376 A  
HETATM   19  C   UNL     1     -11.180  11.724  66.606  1.00  0.00    -0.323 A  
HETATM   20 CL   UNL     1     -10.566  10.119  66.792  1.00  0.00    -0.268 Cl 
ENDBRANCH  12  13
ENDBRANCH   9  12
TORSDOF 2
ENDMDL
MODEL       42
REMARK 921   NORMALIZED FREE ENERGY PREDICTED BY IDOCK:   -4.95 KCAL/MOL
REMARK 922        TOTAL FREE ENERGY PREDICTED BY IDOCK:   -5.87 KCAL/MOL
REMARK 923 INTER-LIGAND FREE ENERGY PREDICTED BY IDOCK:   -5.51 KCAL/MOL
REMARK 924 INTRA-LIGAND FREE ENERGY PREDICTED BY IDOCK:   -0.36 KCAL/MOL
REMARK 927      BINDING AFFINITY PREDICTED BY RF-SCORE:    0.00 PKD
ROOT
HETATM    1  N   UNL     1     -12.059  12.075  66.756  1.00  0.00    -0.542 NA 
HETATM    2  C   UNL     1     -11.877  12.690  67.940  1.00  0.00    -0.332 C  
HETATM    3  H2  UNL     1     -12.436  12.621  65.982  1.00  0.00     0.000 HD 
HETATM    4  H1  UNL     1     -11.840  11.093  66.591  1.00  0.00     0.000 HD 
HETATM    5  N   UNL     1     -12.152  13.926  68.148  1.00  0.00    -0.478 NA 
HETATM    6  N   UNL     1     -11.382  12.017  69.013  1.00  0.00    -0.255 N  
HETATM    7  H1  UNL     1     -12.014  14.391  69.045  1.00  0.00     0.000 HD 
HETATM    8  H2  UNL     1     -12.529  14.472  67.374  1.00  0.00     0.000 HD 
HETATM    9  C   UNL     1     -10.964  10.699  69.053  1.00  0.00    -0.248 C  
HETATM   10  H   UNL     1     -11.309  12.543  69.885  1.00  0.00     0.000 HD 
HETATM   11  O   UNL     1     -10.811  10.000  68.053  1.00  0.00    -0.244 OA 
ENDROOT
BRANCH   9  12
HETATM   12  C   UNL     1     -10.691  10.188  70.456  1.00  0.00    -0.295 C  
BRANCH  12  13
HETATM   13  C   UNL     1     -11.741   9.233  70.979  1.00  0.00    -0.378 A  
HETATM   14  C   UNL     1     -12.898   9.705  71.631  1.00  0.00    -0.405 A  
HETATM   15  C   UNL     1     -13.919   8.830  72.024  1.00  0.00    -0.511 A  
HETATM   16 CL   UNL     1     -13.137  11.383  71.975  1.00  0.00    -0.546 Cl 
HETATM   17  C   UNL     1     -13.802   7.465  71.789  1.00  0.00    -0.438 A  
HETATM   18  C   UNL     1     -12.645   6.970  71.195  1.00  0.00    -0.387 A  
HETATM   19  C   UNL     1     -11.620   7.841  70.806  1.00  0.00    -0.255 A  
HETATM   20 CL   UNL     1     -10.219   7.120  70.093  1.00  0.00    -0.198 Cl 
ENDBRANCH  12  13
ENDBRANCH   9  12
TORSDOF 2
ENDMDL
MODEL       43
REMARK 921   NORMALIZED FREE ENERGY PREDICTED BY IDOCK:   -4.94 KCAL/MOL
REMARK 922        TOTAL FREE ENERGY PREDICTED BY IDOCK:   -5.85 KCAL/MOL
REMARK 923 INTER-LIGAND FREE ENERGY PREDICTED BY IDOCK:   -5.70 KCAL/MOL
REMARK 924 INTRA-LIGAND FREE ENERGY PREDICTED BY IDOCK:   -0.15 KCAL/MOL
REMARK 927      BINDING AFFINITY PREDICTED BY RF-SCORE:    0.00 PKD
ROOT
HETATM    1  N   UNL     1     -13.285  12.317  64.332  1.00  0.00    -0.749 NA 
HETATM    2  C   UNL     1     -12.038  12.310  63.823  1.00  0.00    -0.532 C  
HETATM    3  H2  UNL     1     -13.935  11.594  64.022  1.00  0.00     0.000 HD 
HETATM    4  H1  UNL     1     -13.616  13.004  65.009  1.00  0.00     0.000 HD 
HETATM    5  N   UNL     1     -11.622  11.446  62.972  1.00  0.00    -0.853 NA 
HETATM    6  N   UNL     1     -11.125  13.249  64.191  1.00  0.00    -0.471 N  
HETATM    7  H1  UNL     1     -10.678  11.441  62.588  1.00  0.00     0.000 HD 
HETATM    8  H2  UNL     1     -12.272  10.723  62.663  1.00  0.00     0.000 HD 
HETATM    9  C   UNL     1     -11.293  14.262  65.117  1.00  0.00    -0.345 C  
HETATM   10  H   UNL     1     -10.214  13.200  63.733  1.00  0.00     0.000 HD 
HETATM   11  O   UNL     1     -12.253  14.335  65.882  1.00  0.00    -0.417 OA 
ENDROOT
BRANCH   9  12
HETATM   12  C   UNL     1     -10.168  15.280  65.120  1.00  0.00    -0.374 C  
BRANCH  12  13
HETATM   13  C   UNL     1      -9.760  15.743  66.502  1.00  0.00    -0.285 A  
HETATM   14  C   UNL     1      -9.147  14.864  67.416  1.00  0.00    -0.189 A  
HETATM   15  C   UNL     1      -8.676  15.316  68.654  1.00  0.00    -0.182 A  
HETATM   16 CL   UNL     1      -8.926  13.184  67.066  1.00  0.00    -0.226 Cl 
HETATM   17  C   UNL     1      -8.820  16.652  69.015  1.00  0.00    -0.201 A  
HETATM   18  C   UNL     1      -9.470  17.527  68.151  1.00  0.00    -0.291 A  
HETATM   19  C   UNL     1      -9.947  17.077  66.914  1.00  0.00    -0.289 A  
HETATM   20 CL   UNL     1     -10.755  18.242  65.924  1.00  0.00    -0.298 Cl 
ENDBRANCH  12  13
ENDBRANCH   9  12
TORSDOF 2
ENDMDL
MODEL       44
REMARK 921   NORMALIZED FREE ENERGY PREDICTED BY IDOCK:   -4.94 KCAL/MOL
REMARK 922        TOTAL FREE ENERGY PREDICTED BY IDOCK:   -5.85 KCAL/MOL
REMARK 923 INTER-LIGAND FREE ENERGY PREDICTED BY IDOCK:   -5.50 KCAL/MOL
REMARK 924 INTRA-LIGAND FREE ENERGY PREDICTED BY IDOCK:   -0.35 KCAL/MOL
REMARK 927      BINDING AFFINITY PREDICTED BY RF-SCORE:    0.00 PKD
ROOT
HETATM    1  N   UNL     1     -11.391   6.728  67.550  1.00  0.00    -0.707 NA 
HETATM    2  C   UNL     1     -10.434   6.962  66.633  1.00  0.00    -0.143 C  
HETATM    3  H2  UNL     1     -11.761   5.781  67.628  1.00  0.00     0.000 HD 
HETATM    4  H1  UNL     1     -11.766   7.444  68.172  1.00  0.00     0.000 HD 
HETATM    5  N   UNL     1      -9.963   6.062  65.851  1.00  0.00    -0.381 NA 
HETATM    6  N   UNL     1      -9.901   8.204  66.475  1.00  0.00    -0.336 N  
HETATM    7  H1  UNL     1      -9.238   6.240  65.156  1.00  0.00     0.000 HD 
HETATM    8  H2  UNL     1     -10.334   5.115  65.928  1.00  0.00     0.000 HD 
HETATM    9  C   UNL     1     -10.193   9.338  67.210  1.00  0.00    -0.252 C  
HETATM   10  H   UNL     1      -9.209   8.310  65.733  1.00  0.00     0.000 HD 
HETATM   11  O   UNL     1     -10.854   9.329  68.247  1.00  0.00    -0.179 OA 
ENDROOT
BRANCH   9  12
HETATM   12  C   UNL     1      -9.606  10.611  66.629  1.00  0.00    -0.209 C  
BRANCH  12  13
HETATM   13  C   UNL     1     -10.510  11.311  65.638  1.00  0.00    -0.317 A  
HETATM   14  C   UNL     1     -10.377  11.098  64.251  1.00  0.00    -0.351 A  
HETATM   15  C   UNL     1     -11.277  11.663  63.340  1.00  0.00    -0.401 A  
HETATM   16 CL   UNL     1      -9.111  10.121  63.590  1.00  0.00    -0.262 Cl 
HETATM   17  C   UNL     1     -12.321  12.465  63.790  1.00  0.00    -0.625 A  
HETATM   18  C   UNL     1     -12.439  12.733  65.150  1.00  0.00    -0.565 A  
HETATM   19  C   UNL     1     -11.537  12.174  66.063  1.00  0.00    -0.358 A  
HETATM   20 CL   UNL     1     -11.765  12.585  67.728  1.00  0.00    -0.411 Cl 
ENDBRANCH  12  13
ENDBRANCH   9  12
TORSDOF 2
ENDMDL
MODEL       45
REMARK 921   NORMALIZED FREE ENERGY PREDICTED BY IDOCK:   -4.94 KCAL/MOL
REMARK 922        TOTAL FREE ENERGY PREDICTED BY IDOCK:   -5.85 KCAL/MOL
REMARK 923 INTER-LIGAND FREE ENERGY PREDICTED BY IDOCK:   -5.58 KCAL/MOL
REMARK 924 INTRA-LIGAND FREE ENERGY PREDICTED BY IDOCK:   -0.26 KCAL/MOL
REMARK 927      BINDING AFFINITY PREDICTED BY RF-SCORE:    0.00 PKD
ROOT
HETATM    1  N   UNL     1     -12.227   8.922  70.708  1.00  0.00    -0.484 NA 
HETATM    2  C   UNL     1     -10.990   9.430  70.855  1.00  0.00    -0.320 C  
HETATM    3  H2  UNL     1     -12.537   8.209  71.368  1.00  0.00     0.000 HD 
HETATM    4  H1  UNL     1     -12.873   9.209  69.973  1.00  0.00     0.000 HD 
HETATM    5  N   UNL     1     -10.178   9.068  71.780  1.00  0.00    -0.344 NA 
HETATM    6  N   UNL     1     -10.515  10.380  70.005  1.00  0.00    -0.419 N  
HETATM    7  H1  UNL     1      -9.241   9.454  71.891  1.00  0.00     0.000 HD 
HETATM    8  H2  UNL     1     -10.487   8.355  72.440  1.00  0.00     0.000 HD 
HETATM    9  C   UNL     1     -11.191  10.976  68.956  1.00  0.00    -0.258 C  
HETATM   10  H   UNL     1      -9.554  10.687  70.159  1.00  0.00     0.000 HD 
HETATM   11  O   UNL     1     -12.399  10.855  68.765  1.00  0.00    -0.495 OA 
ENDROOT
BRANCH   9  12
HETATM   12  C   UNL     1     -10.304  11.819  68.059  1.00  0.00    -0.212 C  
BRANCH  12  13
HETATM   13  C   UNL     1     -10.982  12.296  66.793  1.00  0.00    -0.321 A  
HETATM   14  C   UNL     1     -10.897  11.558  65.595  1.00  0.00    -0.252 A  
HETATM   15  C   UNL     1     -11.609  11.943  64.453  1.00  0.00    -0.369 A  
HETATM   16 CL   UNL     1      -9.927  10.132  65.464  1.00  0.00    -0.359 Cl 
HETATM   17  C   UNL     1     -12.408  13.081  64.474  1.00  0.00    -0.461 A  
HETATM   18  C   UNL     1     -12.465  13.855  65.629  1.00  0.00    -0.538 A  
HETATM   19  C   UNL     1     -11.751  13.476  66.772  1.00  0.00    -0.391 A  
HETATM   20 CL   UNL     1     -11.878  14.517  68.146  1.00  0.00    -0.361 Cl 
ENDBRANCH  12  13
ENDBRANCH   9  12
TORSDOF 2
ENDMDL
MODEL       46
REMARK 921   NORMALIZED FREE ENERGY PREDICTED BY IDOCK:   -4.93 KCAL/MOL
REMARK 922        TOTAL FREE ENERGY PREDICTED BY IDOCK:   -5.84 KCAL/MOL
REMARK 923 INTER-LIGAND FREE ENERGY PREDICTED BY IDOCK:   -5.52 KCAL/MOL
REMARK 924 INTRA-LIGAND FREE ENERGY PREDICTED BY IDOCK:   -0.32 KCAL/MOL
REMARK 927      BINDING AFFINITY PREDICTED BY RF-SCORE:    0.00 PKD
ROOT
HETATM    1  N   UNL     1     -11.387   6.930  67.623  1.00  0.00    -0.604 NA 
HETATM    2  C   UNL     1     -10.391   7.186  66.755  1.00  0.00    -0.227 C  
HETATM    3  H2  UNL     1     -11.710   5.966  67.714  1.00  0.00     0.000 HD 
HETATM    4  H1  UNL     1     -11.837   7.644  68.195  1.00  0.00     0.000 HD 
HETATM    5  N   UNL     1      -9.826   6.288  66.036  1.00  0.00    -0.388 NA 
HETATM    6  N   UNL     1      -9.917   8.450  66.583  1.00  0.00    -0.268 N  
HETATM    7  H1  UNL     1      -9.071   6.482  65.378  1.00  0.00     0.000 HD 
HETATM    8  H2  UNL     1     -10.148   5.324  66.127  1.00  0.00     0.000 HD 
HETATM    9  C   UNL     1     -10.314   9.590  67.257  1.00  0.00    -0.255 C  
HETATM   10  H   UNL     1      -9.188   8.570  65.879  1.00  0.00     0.000 HD 
HETATM   11  O   UNL     1     -11.035   9.579  68.253  1.00  0.00    -0.182 OA 
ENDROOT
BRANCH   9  12
HETATM   12  C   UNL     1      -9.762  10.873  66.664  1.00  0.00    -0.222 C  
BRANCH  12  13
HETATM   13  C   UNL     1     -10.682  11.534  65.660  1.00  0.00    -0.323 A  
HETATM   14  C   UNL     1     -11.675  12.446  66.068  1.00  0.00    -0.410 A  
HETATM   15  C   UNL     1     -12.457  13.135  65.134  1.00  0.00    -0.539 A  
HETATM   16 CL   UNL     1     -11.983  12.780  67.738  1.00  0.00    -0.371 Cl 
HETATM   17  C   UNL     1     -12.276  12.920  63.772  1.00  0.00    -0.555 A  
HETATM   18  C   UNL     1     -11.338  11.985  63.347  1.00  0.00    -0.484 A  
HETATM   19  C   UNL     1     -10.558  11.289  64.279  1.00  0.00    -0.358 A  
HETATM   20 CL   UNL     1      -9.435  10.137  63.644  1.00  0.00    -0.335 Cl 
ENDBRANCH  12  13
ENDBRANCH   9  12
TORSDOF 2
ENDMDL
MODEL       47
REMARK 921   NORMALIZED FREE ENERGY PREDICTED BY IDOCK:   -4.92 KCAL/MOL
REMARK 922        TOTAL FREE ENERGY PREDICTED BY IDOCK:   -5.84 KCAL/MOL
REMARK 923 INTER-LIGAND FREE ENERGY PREDICTED BY IDOCK:   -5.51 KCAL/MOL
REMARK 924 INTRA-LIGAND FREE ENERGY PREDICTED BY IDOCK:   -0.32 KCAL/MOL
REMARK 927      BINDING AFFINITY PREDICTED BY RF-SCORE:    0.00 PKD
ROOT
HETATM    1  N   UNL     1     -11.910  12.566  70.246  1.00  0.00    -0.538 NA 
HETATM    2  C   UNL     1     -11.663  11.569  69.376  1.00  0.00    -0.346 C  
HETATM    3  H2  UNL     1     -12.569  12.391  71.005  1.00  0.00     0.000 HD 
HETATM    4  H1  UNL     1     -11.474  13.486  70.189  1.00  0.00     0.000 HD 
HETATM    5  N   UNL     1     -12.211  10.411  69.447  1.00  0.00    -0.592 NA 
HETATM    6  N   UNL     1     -10.799  11.739  68.339  1.00  0.00    -0.211 N  
HETATM    7  H1  UNL     1     -12.024   9.656  68.788  1.00  0.00     0.000 HD 
HETATM    8  H2  UNL     1     -12.870  10.236  70.206  1.00  0.00     0.000 HD 
HETATM    9  C   UNL     1     -10.045  12.863  68.056  1.00  0.00    -0.235 C  
HETATM   10  H   UNL     1     -10.694  10.950  67.701  1.00  0.00     0.000 HD 
HETATM   11  O   UNL     1      -9.916  13.812  68.827  1.00  0.00    -0.203 OA 
ENDROOT
BRANCH   9  12
HETATM   12  C   UNL     1      -9.366  12.816  66.699  1.00  0.00    -0.242 C  
BRANCH  12  13
HETATM   13  C   UNL     1     -10.316  12.946  65.529  1.00  0.00    -0.304 A  
HETATM   14  C   UNL     1     -10.725  11.817  64.791  1.00  0.00    -0.302 A  
HETATM   15  C   UNL     1     -11.682  11.920  63.776  1.00  0.00    -0.554 A  
HETATM   16 CL   UNL     1     -10.084  10.239  65.099  1.00  0.00    -0.384 Cl 
HETATM   17  C   UNL     1     -12.243  13.154  63.463  1.00  0.00    -0.552 A  
HETATM   18  C   UNL     1     -11.816  14.291  64.142  1.00  0.00    -0.338 A  
HETATM   19  C   UNL     1     -10.854  14.192  65.154  1.00  0.00    -0.372 A  
HETATM   20 CL   UNL     1     -10.381  15.668  65.922  1.00  0.00    -0.341 Cl 
ENDBRANCH  12  13
ENDBRANCH   9  12
TORSDOF 2
ENDMDL
MODEL       48
REMARK 921   NORMALIZED FREE ENERGY PREDICTED BY IDOCK:   -4.92 KCAL/MOL
REMARK 922        TOTAL FREE ENERGY PREDICTED BY IDOCK:   -5.83 KCAL/MOL
REMARK 923 INTER-LIGAND FREE ENERGY PREDICTED BY IDOCK:   -5.57 KCAL/MOL
REMARK 924 INTRA-LIGAND FREE ENERGY PREDICTED BY IDOCK:   -0.26 KCAL/MOL
REMARK 927      BINDING AFFINITY PREDICTED BY RF-SCORE:    0.00 PKD
ROOT
HETATM    1  N   UNL     1     -10.030   7.962  66.111  1.00  0.00    -0.457 NA 
HETATM    2  C   UNL     1     -10.666   7.532  67.217  1.00  0.00    -0.295 C  
HETATM    3  H2  UNL     1     -10.145   7.427  65.250  1.00  0.00     0.000 HD 
HETATM    4  H1  UNL     1      -9.439   8.793  66.086  1.00  0.00     0.000 HD 
HETATM    5  N   UNL     1     -11.409   6.487  67.248  1.00  0.00    -0.769 NA 
HETATM    6  N   UNL     1     -10.550   8.197  68.398  1.00  0.00    -0.378 N  
HETATM    7  H1  UNL     1     -11.891   6.162  68.086  1.00  0.00     0.000 HD 
HETATM    8  H2  UNL     1     -11.524   5.952  66.388  1.00  0.00     0.000 HD 
HETATM    9  C   UNL     1      -9.853   9.368  68.632  1.00  0.00    -0.163 C  
HETATM   10  H   UNL     1     -11.031   7.787  69.199  1.00  0.00     0.000 HD 
HETATM   11  O   UNL     1      -9.387  10.077  67.741  1.00  0.00    -0.140 OA 
ENDROOT
BRANCH   9  12
HETATM   12  C   UNL     1      -9.725   9.719  70.103  1.00  0.00    -0.299 C  
BRANCH  12  13
HETATM   13  C   UNL     1     -11.030   9.663  70.866  1.00  0.00    -0.412 A  
HETATM   14  C   UNL     1     -11.998  10.680  70.733  1.00  0.00    -0.374 A  
HETATM   15  C   UNL     1     -13.247  10.579  71.357  1.00  0.00    -0.441 A  
HETATM   16 CL   UNL     1     -11.712  12.100  69.788  1.00  0.00    -0.390 Cl 
HETATM   17  C   UNL     1     -13.554   9.471  72.139  1.00  0.00    -0.500 A  
HETATM   18  C   UNL     1     -12.595   8.481  72.328  1.00  0.00    -0.438 A  
HETATM   19  C   UNL     1     -11.342   8.581  71.711  1.00  0.00    -0.307 A  
HETATM   20 CL   UNL     1     -10.218   7.305  72.026  1.00  0.00    -0.205 Cl 
ENDBRANCH  12  13
ENDBRANCH   9  12
TORSDOF 2
ENDMDL
MODEL       49
REMARK 921   NORMALIZED FREE ENERGY PREDICTED BY IDOCK:   -4.91 KCAL/MOL
REMARK 922        TOTAL FREE ENERGY PREDICTED BY IDOCK:   -5.82 KCAL/MOL
REMARK 923 INTER-LIGAND FREE ENERGY PREDICTED BY IDOCK:   -5.50 KCAL/MOL
REMARK 924 INTRA-LIGAND FREE ENERGY PREDICTED BY IDOCK:   -0.32 KCAL/MOL
REMARK 927      BINDING AFFINITY PREDICTED BY RF-SCORE:    0.00 PKD
ROOT
HETATM    1  N   UNL     1     -12.633  14.833  69.850  1.00  0.00    -0.559 NA 
HETATM    2  C   UNL     1     -11.841  13.771  69.612  1.00  0.00    -0.333 C  
HETATM    3  H2  UNL     1     -13.309  14.769  70.611  1.00  0.00     0.000 HD 
HETATM    4  H1  UNL     1     -12.596  15.698  69.311  1.00  0.00     0.000 HD 
HETATM    5  N   UNL     1     -11.888  12.683  70.290  1.00  0.00    -0.537 NA 
HETATM    6  N   UNL     1     -10.922  13.790  68.609  1.00  0.00    -0.257 N  
HETATM    7  H1  UNL     1     -11.287  11.879  70.110  1.00  0.00     0.000 HD 
HETATM    8  H2  UNL     1     -12.563  12.619  71.052  1.00  0.00     0.000 HD 
HETATM    9  C   UNL     1     -10.633  14.843  67.760  1.00  0.00    -0.262 C  
HETATM   10  H   UNL     1     -10.386  12.934  68.468  1.00  0.00     0.000 HD 
HETATM   11  O   UNL     1     -11.052  15.988  67.925  1.00  0.00    -0.338 OA 
ENDROOT
BRANCH   9  12
HETATM   12  C   UNL     1      -9.730  14.464  66.602  1.00  0.00    -0.289 C  
BRANCH  12  13
HETATM   13  C   UNL     1     -10.419  13.659  65.521  1.00  0.00    -0.314 A  
HETATM   14  C   UNL     1     -10.243  12.263  65.425  1.00  0.00    -0.270 A  
HETATM   15  C   UNL     1     -10.958  11.504  64.493  1.00  0.00    -0.367 A  
HETATM   16 CL   UNL     1      -9.149  11.404  66.455  1.00  0.00    -0.192 Cl 
HETATM   17  C   UNL     1     -11.854  12.119  63.625  1.00  0.00    -0.608 A  
HETATM   18  C   UNL     1     -12.004  13.502  63.665  1.00  0.00    -0.439 A  
HETATM   19  C   UNL     1     -11.285  14.266  64.593  1.00  0.00    -0.366 A  
HETATM   20 CL   UNL     1     -11.533  15.976  64.546  1.00  0.00    -0.369 Cl 
ENDBRANCH  12  13
ENDBRANCH   9  12
TORSDOF 2
ENDMDL
MODEL       50
REMARK 921   NORMALIZED FREE ENERGY PREDICTED BY IDOCK:   -4.91 KCAL/MOL
REMARK 922        TOTAL FREE ENERGY PREDICTED BY IDOCK:   -5.82 KCAL/MOL
REMARK 923 INTER-LIGAND FREE ENERGY PREDICTED BY IDOCK:   -5.46 KCAL/MOL
REMARK 924 INTRA-LIGAND FREE ENERGY PREDICTED BY IDOCK:   -0.36 KCAL/MOL
REMARK 927      BINDING AFFINITY PREDICTED BY RF-SCORE:    0.00 PKD
ROOT
HETATM    1  N   UNL     1     -12.824  11.343  70.727  1.00  0.00    -0.222 NA 
HETATM    2  C   UNL     1     -12.239  12.528  70.470  1.00  0.00    -0.297 C  
HETATM    3  H2  UNL     1     -13.359  11.248  71.591  1.00  0.00     0.000 HD 
HETATM    4  H1  UNL     1     -12.763  10.536  70.108  1.00  0.00     0.000 HD 
HETATM    5  N   UNL     1     -12.317  13.544  71.249  1.00  0.00    -0.350 NA 
HETATM    6  N   UNL     1     -11.508  12.719  69.338  1.00  0.00    -0.373 N  
HETATM    7  H1  UNL     1     -11.874  14.441  71.053  1.00  0.00     0.000 HD 
HETATM    8  H2  UNL     1     -12.852  13.449  72.112  1.00  0.00     0.000 HD 
HETATM    9  C   UNL     1     -11.301  11.813  68.314  1.00  0.00    -0.282 C  
HETATM   10  H   UNL     1     -11.065  13.632  69.233  1.00  0.00     0.000 HD 
HETATM   11  O   UNL     1     -11.916  10.754  68.203  1.00  0.00    -0.527 OA 
ENDROOT
BRANCH   9  12
HETATM   12  C   UNL     1     -10.246  12.252  67.315  1.00  0.00    -0.222 C  
BRANCH  12  13
HETATM   13  C   UNL     1     -10.790  12.546  65.934  1.00  0.00    -0.302 A  
HETATM   14  C   UNL     1     -10.773  11.568  64.919  1.00  0.00    -0.297 A  
HETATM   15  C   UNL     1     -11.368  11.803  63.674  1.00  0.00    -0.525 A  
HETATM   16 CL   UNL     1     -10.033  10.021  65.148  1.00  0.00    -0.395 Cl 
HETATM   17  C   UNL     1     -11.979  13.023  63.407  1.00  0.00    -0.592 A  
HETATM   18  C   UNL     1     -11.961  14.023  64.375  1.00  0.00    -0.480 A  
HETATM   19  C   UNL     1     -11.362  13.793  65.620  1.00  0.00    -0.305 A  
HETATM   20 CL   UNL     1     -11.380  15.107  66.743  1.00  0.00    -0.296 Cl 
ENDBRANCH  12  13
ENDBRANCH   9  12
TORSDOF 2
ENDMDL
MODEL       51
REMARK 921   NORMALIZED FREE ENERGY PREDICTED BY IDOCK:   -4.90 KCAL/MOL
REMARK 922        TOTAL FREE ENERGY PREDICTED BY IDOCK:   -5.81 KCAL/MOL
REMARK 923 INTER-LIGAND FREE ENERGY PREDICTED BY IDOCK:   -5.47 KCAL/MOL
REMARK 924 INTRA-LIGAND FREE ENERGY PREDICTED BY IDOCK:   -0.34 KCAL/MOL
REMARK 927      BINDING AFFINITY PREDICTED BY RF-SCORE:    0.00 PKD
ROOT
HETATM    1  N   UNL     1     -11.149  19.805  65.435  1.00  0.00    -0.262 NA 
HETATM    2  C   UNL     1     -10.049  19.631  66.191  1.00  0.00    -0.480 C  
HETATM    3  H2  UNL     1     -11.516  20.751  65.330  1.00  0.00     0.000 HD 
HETATM    4  H1  UNL     1     -11.637  19.045  64.962  1.00  0.00     0.000 HD 
HETATM    5  N   UNL     1      -9.436  20.587  66.786  1.00  0.00    -0.626 NA 
HETATM    6  N   UNL     1      -9.512  18.394  66.375  1.00  0.00    -0.312 N  
HETATM    7  H1  UNL     1      -8.602  20.455  67.357  1.00  0.00     0.000 HD 
HETATM    8  H2  UNL     1      -9.802  21.533  66.681  1.00  0.00     0.000 HD 
HETATM    9  C   UNL     1      -9.943  17.204  65.817  1.00  0.00    -0.119 C  
HETATM   10  H   UNL     1      -8.701  18.339  66.991  1.00  0.00     0.000 HD 
HETATM   11  O   UNL     1     -10.776  17.135  64.915  1.00  0.00    -0.737 OA 
ENDROOT
BRANCH   9  12
HETATM   12  C   UNL     1      -9.278  15.976  66.410  1.00  0.00    -0.339 C  
BRANCH  12  13
HETATM   13  C   UNL     1     -10.248  14.965  66.982  1.00  0.00    -0.256 A  
HETATM   14  C   UNL     1     -10.654  13.839  66.237  1.00  0.00    -0.289 A  
HETATM   15  C   UNL     1     -11.468  12.851  66.801  1.00  0.00    -0.391 A  
HETATM   16 CL   UNL     1     -10.164  13.601  64.595  1.00  0.00    -0.402 Cl 
HETATM   17  C   UNL     1     -11.910  12.970  68.115  1.00  0.00    -0.381 A  
HETATM   18  C   UNL     1     -11.566  14.099  68.852  1.00  0.00    -0.345 A  
HETATM   19  C   UNL     1     -10.756  15.093  68.289  1.00  0.00    -0.251 A  
HETATM   20 CL   UNL     1     -10.403  16.462  69.285  1.00  0.00    -0.274 Cl 
ENDBRANCH  12  13
ENDBRANCH   9  12
TORSDOF 2
ENDMDL
MODEL       52
REMARK 921   NORMALIZED FREE ENERGY PREDICTED BY IDOCK:   -4.88 KCAL/MOL
REMARK 922        TOTAL FREE ENERGY PREDICTED BY IDOCK:   -5.79 KCAL/MOL
REMARK 923 INTER-LIGAND FREE ENERGY PREDICTED BY IDOCK:   -5.48 KCAL/MOL
REMARK 924 INTRA-LIGAND FREE ENERGY PREDICTED BY IDOCK:   -0.31 KCAL/MOL
REMARK 927      BINDING AFFINITY PREDICTED BY RF-SCORE:    0.00 PKD
ROOT
HETATM    1  N   UNL     1     -10.405  19.636  68.736  1.00  0.00    -0.565 NA 
HETATM    2  C   UNL     1      -9.928  19.622  67.477  1.00  0.00    -0.388 C  
HETATM    3  H2  UNL     1     -10.555  20.540  69.184  1.00  0.00     0.000 HD 
HETATM    4  H1  UNL     1     -10.625  18.793  69.266  1.00  0.00     0.000 HD 
HETATM    5  N   UNL     1      -9.652  20.682  66.810  1.00  0.00    -0.665 NA 
HETATM    6  N   UNL     1      -9.702  18.450  66.824  1.00  0.00    -0.311 N  
HETATM    7  H1  UNL     1      -9.291  20.671  65.856  1.00  0.00     0.000 HD 
HETATM    8  H2  UNL     1      -9.802  21.586  67.258  1.00  0.00     0.000 HD 
HETATM    9  C   UNL     1      -9.952  17.172  67.290  1.00  0.00    -0.274 C  
HETATM   10  H   UNL     1      -9.303  18.522  65.888  1.00  0.00     0.000 HD 
HETATM   11  O   UNL     1     -10.599  16.930  68.307  1.00  0.00    -0.329 OA 
ENDROOT
BRANCH   9  12
HETATM   12  C   UNL     1      -9.367  16.078  66.416  1.00  0.00    -0.329 C  
BRANCH  12  13
HETATM   13  C   UNL     1     -10.250  14.856  66.283  1.00  0.00    -0.306 A  
HETATM   14  C   UNL     1     -10.067  13.730  67.111  1.00  0.00    -0.241 A  
HETATM   15  C   UNL     1     -10.947  12.642  67.060  1.00  0.00    -0.300 A  
HETATM   16 CL   UNL     1      -8.764  13.625  68.243  1.00  0.00    -0.171 Cl 
HETATM   17  C   UNL     1     -12.018  12.646  66.173  1.00  0.00    -0.458 A  
HETATM   18  C   UNL     1     -12.186  13.723  65.309  1.00  0.00    -0.461 A  
HETATM   19  C   UNL     1     -11.305  14.811  65.353  1.00  0.00    -0.356 A  
HETATM   20 CL   UNL     1     -11.595  16.088  64.224  1.00  0.00    -0.323 Cl 
ENDBRANCH  12  13
ENDBRANCH   9  12
TORSDOF 2
ENDMDL
MODEL       53
REMARK 921   NORMALIZED FREE ENERGY PREDICTED BY IDOCK:   -4.88 KCAL/MOL
REMARK 922        TOTAL FREE ENERGY PREDICTED BY IDOCK:   -5.79 KCAL/MOL
REMARK 923 INTER-LIGAND FREE ENERGY PREDICTED BY IDOCK:   -5.71 KCAL/MOL
REMARK 924 INTRA-LIGAND FREE ENERGY PREDICTED BY IDOCK:   -0.08 KCAL/MOL
REMARK 927      BINDING AFFINITY PREDICTED BY RF-SCORE:    0.00 PKD
ROOT
HETATM    1  N   UNL     1     -12.423  14.282  63.984  1.00  0.00    -0.863 NA 
HETATM    2  C   UNL     1     -11.665  15.248  64.535  1.00  0.00    -0.305 C  
HETATM    3  H2  UNL     1     -12.923  14.496  63.121  1.00  0.00     0.000 HD 
HETATM    4  H1  UNL     1     -12.526  13.348  64.381  1.00  0.00     0.000 HD 
HETATM    5  N   UNL     1     -11.535  16.422  64.036  1.00  0.00    -1.573 NA 
HETATM    6  N   UNL     1     -10.976  15.029  65.688  1.00  0.00    -0.342 N  
HETATM    7  H1  UNL     1     -10.961  17.153  64.453  1.00  0.00     0.000 HD 
HETATM    8  H2  UNL     1     -12.035  16.636  63.173  1.00  0.00     0.000 HD 
HETATM    9  C   UNL     1     -10.903  13.850  66.407  1.00  0.00    -0.291 C  
HETATM   10  H   UNL     1     -10.455  15.822  66.063  1.00  0.00     0.000 HD 
HETATM   11  O   UNL     1     -11.313  12.768  65.989  1.00  0.00    -0.295 OA 
ENDROOT
BRANCH   9  12
HETATM   12  C   UNL     1     -10.250  14.003  67.767  1.00  0.00    -0.240 C  
BRANCH  12  13
HETATM   13  C   UNL     1      -9.830  15.420  68.093  1.00  0.00    -0.213 A  
HETATM   14  C   UNL     1      -8.523  15.875  67.826  1.00  0.00    -0.158 A  
HETATM   15  C   UNL     1      -8.163  17.212  68.030  1.00  0.00    -0.216 A  
HETATM   16 CL   UNL     1      -7.292  14.822  67.219  1.00  0.00    -0.204 Cl 
HETATM   17  C   UNL     1      -9.094  18.122  68.521  1.00  0.00    -0.318 A  
HETATM   18  C   UNL     1     -10.374  17.684  68.843  1.00  0.00    -0.323 A  
HETATM   19  C   UNL     1     -10.736  16.346  68.645  1.00  0.00    -0.317 A  
HETATM   20 CL   UNL     1     -12.346  15.903  69.094  1.00  0.00    -0.052 Cl 
ENDBRANCH  12  13
ENDBRANCH   9  12
TORSDOF 2
ENDMDL
MODEL       54
REMARK 921   NORMALIZED FREE ENERGY PREDICTED BY IDOCK:   -4.87 KCAL/MOL
REMARK 922        TOTAL FREE ENERGY PREDICTED BY IDOCK:   -5.77 KCAL/MOL
REMARK 923 INTER-LIGAND FREE ENERGY PREDICTED BY IDOCK:   -5.51 KCAL/MOL
REMARK 924 INTRA-LIGAND FREE ENERGY PREDICTED BY IDOCK:   -0.26 KCAL/MOL
REMARK 927      BINDING AFFINITY PREDICTED BY RF-SCORE:    0.00 PKD
ROOT
HETATM    1  N   UNL     1     -10.030   8.289  66.036  1.00  0.00    -0.444 NA 
HETATM    2  C   UNL     1     -10.657   7.697  67.070  1.00  0.00    -0.336 C  
HETATM    3  H2  UNL     1     -10.144   7.882  65.108  1.00  0.00     0.000 HD 
HETATM    4  H1  UNL     1      -9.448   9.121  66.129  1.00  0.00     0.000 HD 
HETATM    5  N   UNL     1     -11.390   6.651  66.953  1.00  0.00    -0.824 NA 
HETATM    6  N   UNL     1     -10.543   8.187  68.335  1.00  0.00    -0.378 N  
HETATM    7  H1  UNL     1     -11.864   6.203  67.737  1.00  0.00     0.000 HD 
HETATM    8  H2  UNL     1     -11.503   6.244  66.025  1.00  0.00     0.000 HD 
HETATM    9  C   UNL     1      -9.856   9.319  68.733  1.00  0.00    -0.165 C  
HETATM   10  H   UNL     1     -11.016   7.661  69.070  1.00  0.00     0.000 HD 
HETATM   11  O   UNL     1      -9.402  10.153  67.952  1.00  0.00    -0.140 OA 
ENDROOT
BRANCH   9  12
HETATM   12  C   UNL     1      -9.726   9.456  70.239  1.00  0.00    -0.292 C  
BRANCH  12  13
HETATM   13  C   UNL     1     -11.035   9.328  70.986  1.00  0.00    -0.390 A  
HETATM   14  C   UNL     1     -11.370   8.146  71.677  1.00  0.00    -0.264 A  
HETATM   15  C   UNL     1     -12.532   8.063  72.453  1.00  0.00    -0.256 A  
HETATM   16 CL   UNL     1     -10.368   6.737  71.623  1.00  0.00    -0.212 Cl 
HETATM   17  C   UNL     1     -13.394   9.151  72.545  1.00  0.00    -0.481 A  
HETATM   18  C   UNL     1     -13.112  10.309  71.828  1.00  0.00    -0.570 A  
HETATM   19  C   UNL     1     -11.953  10.394  71.046  1.00  0.00    -0.382 A  
HETATM   20 CL   UNL     1     -11.707  11.872  70.183  1.00  0.00    -0.376 Cl 
ENDBRANCH  12  13
ENDBRANCH   9  12
TORSDOF 2
ENDMDL
MODEL       55
REMARK 921   NORMALIZED FREE ENERGY PREDICTED BY IDOCK:   -4.85 KCAL/MOL
REMARK 922        TOTAL FREE ENERGY PREDICTED BY IDOCK:   -5.75 KCAL/MOL
REMARK 923 INTER-LIGAND FREE ENERGY PREDICTED BY IDOCK:   -5.41 KCAL/MOL
REMARK 924 INTRA-LIGAND FREE ENERGY PREDICTED BY IDOCK:   -0.35 KCAL/MOL
REMARK 927      BINDING AFFINITY PREDICTED BY RF-SCORE:    0.00 PKD
ROOT
HETATM    1  N   UNL     1     -10.189  18.233  65.899  1.00  0.00    -0.587 NA 
HETATM    2  C   UNL     1     -10.222  17.464  67.003  1.00  0.00    -0.323 C  
HETATM    3  H2  UNL     1      -9.889  19.203  65.997  1.00  0.00     0.000 HD 
HETATM    4  H1  UNL     1     -10.447  17.901  64.970  1.00  0.00     0.000 HD 
HETATM    5  N   UNL     1      -9.897  17.882  68.171  1.00  0.00    -0.315 NA 
HETATM    6  N   UNL     1     -10.616  16.163  66.941  1.00  0.00    -0.306 N  
HETATM    7  H1  UNL     1      -9.922  17.299  69.007  1.00  0.00     0.000 HD 
HETATM    8  H2  UNL     1      -9.598  18.852  68.269  1.00  0.00     0.000 HD 
HETATM    9  C   UNL     1     -10.974  15.451  65.811  1.00  0.00    -0.309 C  
HETATM   10  H   UNL     1     -10.651  15.657  67.826  1.00  0.00     0.000 HD 
HETATM   11  O   UNL     1     -10.802  15.858  64.664  1.00  0.00    -0.557 OA 
ENDROOT
BRANCH   9  12
HETATM   12  C   UNL     1     -11.591  14.098  66.112  1.00  0.00    -0.377 C  
BRANCH  12  13
HETATM   13  C   UNL     1     -10.792  12.926  65.586  1.00  0.00    -0.296 A  
HETATM   14  C   UNL     1      -9.783  12.321  66.362  1.00  0.00    -0.234 A  
HETATM   15  C   UNL     1      -9.115  11.173  65.919  1.00  0.00    -0.218 A  
HETATM   16 CL   UNL     1      -9.318  12.944  67.908  1.00  0.00    -0.201 Cl 
HETATM   17  C   UNL     1      -9.427  10.612  64.685  1.00  0.00    -0.308 A  
HETATM   18  C   UNL     1     -10.381  11.223  63.878  1.00  0.00    -0.439 A  
HETATM   19  C   UNL     1     -11.047  12.374  64.315  1.00  0.00    -0.349 A  
HETATM   20 CL   UNL     1     -12.201  13.063  63.227  1.00  0.00    -0.589 Cl 
ENDBRANCH  12  13
ENDBRANCH   9  12
TORSDOF 2
ENDMDL
MODEL       56
REMARK 921   NORMALIZED FREE ENERGY PREDICTED BY IDOCK:   -4.84 KCAL/MOL
REMARK 922        TOTAL FREE ENERGY PREDICTED BY IDOCK:   -5.75 KCAL/MOL
REMARK 923 INTER-LIGAND FREE ENERGY PREDICTED BY IDOCK:   -5.41 KCAL/MOL
REMARK 924 INTRA-LIGAND FREE ENERGY PREDICTED BY IDOCK:   -0.33 KCAL/MOL
REMARK 927      BINDING AFFINITY PREDICTED BY RF-SCORE:    0.00 PKD
ROOT
HETATM    1  N   UNL     1     -10.157  10.112  64.973  1.00  0.00    -0.305 NA 
HETATM    2  C   UNL     1     -10.635  11.188  64.320  1.00  0.00    -0.357 C  
HETATM    3  H2  UNL     1      -9.734   9.364  64.423  1.00  0.00     0.000 HD 
HETATM    4  H1  UNL     1     -10.195  10.002  65.986  1.00  0.00     0.000 HD 
HETATM    5  N   UNL     1     -10.587  11.325  63.046  1.00  0.00    -0.771 NA 
HETATM    6  N   UNL     1     -11.215  12.218  64.994  1.00  0.00    -0.313 N  
HETATM    7  H1  UNL     1     -10.949  12.141  62.552  1.00  0.00     0.000 HD 
HETATM    8  H2  UNL     1     -10.165  10.578  62.496  1.00  0.00     0.000 HD 
HETATM    9  C   UNL     1     -11.355  12.347  66.363  1.00  0.00    -0.342 C  
HETATM   10  H   UNL     1     -11.586  12.980  64.426  1.00  0.00     0.000 HD 
HETATM   11  O   UNL     1     -10.797  11.616  67.180  1.00  0.00    -0.234 OA 
ENDROOT
BRANCH   9  12
HETATM   12  C   UNL     1     -12.257  13.494  66.779  1.00  0.00    -0.392 C  
BRANCH  12  13
HETATM   13  C   UNL     1     -11.537  14.616  67.496  1.00  0.00    -0.396 A  
HETATM   14  C   UNL     1     -10.896  15.647  66.781  1.00  0.00    -0.277 A  
HETATM   15  C   UNL     1     -10.319  16.739  67.441  1.00  0.00    -0.302 A  
HETATM   16 CL   UNL     1     -10.793  15.639  65.054  1.00  0.00    -0.452 Cl 
HETATM   17  C   UNL     1     -10.354  16.818  68.829  1.00  0.00    -0.318 A  
HETATM   18  C   UNL     1     -10.934  15.786  69.558  1.00  0.00    -0.295 A  
HETATM   19  C   UNL     1     -11.507  14.689  68.902  1.00  0.00    -0.298 A  
HETATM   20 CL   UNL     1     -12.185  13.453  69.903  1.00  0.00    -0.364 Cl 
ENDBRANCH  12  13
ENDBRANCH   9  12
TORSDOF 2
ENDMDL
MODEL       57
REMARK 921   NORMALIZED FREE ENERGY PREDICTED BY IDOCK:   -4.82 KCAL/MOL
REMARK 922        TOTAL FREE ENERGY PREDICTED BY IDOCK:   -5.72 KCAL/MOL
REMARK 923 INTER-LIGAND FREE ENERGY PREDICTED BY IDOCK:   -5.37 KCAL/MOL
REMARK 924 INTRA-LIGAND FREE ENERGY PREDICTED BY IDOCK:   -0.35 KCAL/MOL
REMARK 927      BINDING AFFINITY PREDICTED BY RF-SCORE:    0.00 PKD
ROOT
HETATM    1  N   UNL     1     -14.312   8.902  72.846  1.00  0.00    -1.124 NA 
HETATM    2  C   UNL     1     -13.413   9.716  72.262  1.00  0.00    -0.400 C  
HETATM    3  H2  UNL     1     -15.131   9.325  73.282  1.00  0.00     0.000 HD 
HETATM    4  H1  UNL     1     -14.219   7.887  72.877  1.00  0.00     0.000 HD 
HETATM    5  N   UNL     1     -13.529  10.993  72.224  1.00  0.00    -0.525 NA 
HETATM    6  N   UNL     1     -12.295   9.217  71.667  1.00  0.00    -0.348 N  
HETATM    7  H1  UNL     1     -12.848  11.609  71.781  1.00  0.00     0.000 HD 
HETATM    8  H2  UNL     1     -14.349  11.415  72.659  1.00  0.00     0.000 HD 
HETATM    9  C   UNL     1     -11.947   7.886  71.527  1.00  0.00    -0.301 C  
HETATM   10  H   UNL     1     -11.643   9.900  71.281  1.00  0.00     0.000 HD 
HETATM   11  O   UNL     1     -12.709   6.951  71.766  1.00  0.00    -0.357 OA 
ENDROOT
BRANCH   9  12
HETATM   12  C   UNL     1     -10.529   7.676  71.030  1.00  0.00    -0.218 C  
BRANCH  12  13
HETATM   13  C   UNL     1     -10.443   7.165  69.608  1.00  0.00    -0.241 A  
HETATM   14  C   UNL     1     -10.336   5.787  69.332  1.00  0.00    -0.262 A  
HETATM   15  C   UNL     1     -10.361   5.306  68.018  1.00  0.00    -0.183 A  
HETATM   16 CL   UNL     1     -10.183   4.609  70.590  1.00  0.00    -0.260 Cl 
HETATM   17  C   UNL     1     -10.477   6.188  66.949  1.00  0.00    -0.340 A  
HETATM   18  C   UNL     1     -10.530   7.556  67.195  1.00  0.00    -0.407 A  
HETATM   19  C   UNL     1     -10.500   8.042  68.508  1.00  0.00    -0.164 A  
HETATM   20 CL   UNL     1     -10.553   9.759  68.701  1.00  0.00    -0.239 Cl 
ENDBRANCH  12  13
ENDBRANCH   9  12
TORSDOF 2
ENDMDL
MODEL       58
REMARK 921   NORMALIZED FREE ENERGY PREDICTED BY IDOCK:   -4.82 KCAL/MOL
REMARK 922        TOTAL FREE ENERGY PREDICTED BY IDOCK:   -5.72 KCAL/MOL
REMARK 923 INTER-LIGAND FREE ENERGY PREDICTED BY IDOCK:   -5.44 KCAL/MOL
REMARK 924 INTRA-LIGAND FREE ENERGY PREDICTED BY IDOCK:   -0.28 KCAL/MOL
REMARK 927      BINDING AFFINITY PREDICTED BY RF-SCORE:    0.00 PKD
ROOT
HETATM    1  N   UNL     1     -12.364  14.606  72.484  1.00  0.00    -0.291 NA 
HETATM    2  C   UNL     1     -11.829  14.343  71.277  1.00  0.00    -0.220 C  
HETATM    3  H2  UNL     1     -12.187  15.519  72.901  1.00  0.00     0.000 HD 
HETATM    4  H1  UNL     1     -12.936  13.942  73.005  1.00  0.00     0.000 HD 
HETATM    5  N   UNL     1     -11.109  15.179  70.621  1.00  0.00    -0.435 NA 
HETATM    6  N   UNL     1     -12.024  13.142  70.668  1.00  0.00    -0.533 N  
HETATM    7  H1  UNL     1     -10.705  14.980  69.707  1.00  0.00     0.000 HD 
HETATM    8  H2  UNL     1     -10.932  16.093  71.038  1.00  0.00     0.000 HD 
HETATM    9  C   UNL     1     -12.788  12.086  71.128  1.00  0.00    -0.235 C  
HETATM   10  H   UNL     1     -11.554  13.006  69.772  1.00  0.00     0.000 HD 
HETATM   11  O   UNL     1     -13.559  12.165  72.083  1.00  0.00    -0.431 OA 
ENDROOT
BRANCH   9  12
HETATM   12  C   UNL     1     -12.605  10.807  70.332  1.00  0.00    -0.395 C  
BRANCH  12  13
HETATM   13  C   UNL     1     -11.758   9.764  71.028  1.00  0.00    -0.453 A  
HETATM   14  C   UNL     1     -10.389   9.615  70.728  1.00  0.00    -0.286 A  
HETATM   15  C   UNL     1      -9.582   8.722  71.443  1.00  0.00    -0.337 A  
HETATM   16 CL   UNL     1      -9.620  10.529  69.476  1.00  0.00    -0.177 Cl 
HETATM   17  C   UNL     1     -10.125   7.946  72.461  1.00  0.00    -0.325 A  
HETATM   18  C   UNL     1     -11.485   8.037  72.739  1.00  0.00    -0.420 A  
HETATM   19  C   UNL     1     -12.297   8.925  72.022  1.00  0.00    -0.390 A  
HETATM   20 CL   UNL     1     -13.976   8.946  72.435  1.00  0.00    -0.514 Cl 
ENDBRANCH  12  13
ENDBRANCH   9  12
TORSDOF 2
ENDMDL
MODEL       59
REMARK 921   NORMALIZED FREE ENERGY PREDICTED BY IDOCK:   -4.81 KCAL/MOL
REMARK 922        TOTAL FREE ENERGY PREDICTED BY IDOCK:   -5.71 KCAL/MOL
REMARK 923 INTER-LIGAND FREE ENERGY PREDICTED BY IDOCK:   -5.35 KCAL/MOL
REMARK 924 INTRA-LIGAND FREE ENERGY PREDICTED BY IDOCK:   -0.36 KCAL/MOL
REMARK 927      BINDING AFFINITY PREDICTED BY RF-SCORE:    0.00 PKD
ROOT
HETATM    1  N   UNL     1     -10.017   9.967  64.803  1.00  0.00    -0.397 NA 
HETATM    2  C   UNL     1     -10.534  11.045  64.184  1.00  0.00    -0.366 C  
HETATM    3  H2  UNL     1      -9.599   9.236  64.228  1.00  0.00     0.000 HD 
HETATM    4  H1  UNL     1     -10.021   9.840  65.815  1.00  0.00     0.000 HD 
HETATM    5  N   UNL     1     -10.529  11.203  62.911  1.00  0.00    -0.778 NA 
HETATM    6  N   UNL     1     -11.110  12.053  64.892  1.00  0.00    -0.309 N  
HETATM    7  H1  UNL     1     -10.921  12.020  62.442  1.00  0.00     0.000 HD 
HETATM    8  H2  UNL     1     -10.111  10.472  62.336  1.00  0.00     0.000 HD 
HETATM    9  C   UNL     1     -11.209  12.158  66.267  1.00  0.00    -0.334 C  
HETATM   10  H   UNL     1     -11.513  12.817  64.349  1.00  0.00     0.000 HD 
HETATM   11  O   UNL     1     -10.613  11.424  67.053  1.00  0.00    -0.225 OA 
ENDROOT
BRANCH   9  12
HETATM   12  C   UNL     1     -12.117  13.282  66.730  1.00  0.00    -0.403 C  
BRANCH  12  13
HETATM   13  C   UNL     1     -11.399  14.388  67.473  1.00  0.00    -0.345 A  
HETATM   14  C   UNL     1     -11.300  14.379  68.879  1.00  0.00    -0.274 A  
HETATM   15  C   UNL     1     -10.549  15.344  69.561  1.00  0.00    -0.270 A  
HETATM   16 CL   UNL     1     -12.083  13.176  69.846  1.00  0.00    -0.375 Cl 
HETATM   17  C   UNL     1      -9.893  16.348  68.857  1.00  0.00    -0.260 A  
HETATM   18  C   UNL     1     -10.020  16.408  67.473  1.00  0.00    -0.250 A  
HETATM   19  C   UNL     1     -10.775  15.448  66.789  1.00  0.00    -0.310 A  
HETATM   20 CL   UNL     1     -10.882  15.625  65.072  1.00  0.00    -0.452 Cl 
ENDBRANCH  12  13
ENDBRANCH   9  12
TORSDOF 2
ENDMDL
MODEL       60
REMARK 921   NORMALIZED FREE ENERGY PREDICTED BY IDOCK:   -4.80 KCAL/MOL
REMARK 922        TOTAL FREE ENERGY PREDICTED BY IDOCK:   -5.70 KCAL/MOL
REMARK 923 INTER-LIGAND FREE ENERGY PREDICTED BY IDOCK:   -5.74 KCAL/MOL
REMARK 924 INTRA-LIGAND FREE ENERGY PREDICTED BY IDOCK:    0.04 KCAL/MOL
REMARK 927      BINDING AFFINITY PREDICTED BY RF-SCORE:    0.00 PKD
ROOT
HETATM    1  N   UNL     1     -11.568  16.045  64.028  1.00  0.00    -1.278 NA 
HETATM    2  C   UNL     1     -11.775  14.968  64.809  1.00  0.00    -0.370 C  
HETATM    3  H2  UNL     1     -11.922  16.020  63.071  1.00  0.00     0.000 HD 
HETATM    4  H1  UNL     1     -11.079  16.883  64.339  1.00  0.00     0.000 HD 
HETATM    5  N   UNL     1     -12.391  13.914  64.418  1.00  0.00    -0.623 NA 
HETATM    6  N   UNL     1     -11.326  14.935  66.093  1.00  0.00    -0.335 N  
HETATM    7  H1  UNL     1     -12.548  13.099  65.010  1.00  0.00     0.000 HD 
HETATM    8  H2  UNL     1     -12.744  13.889  63.461  1.00  0.00     0.000 HD 
HETATM    9  C   UNL     1     -10.675  15.945  66.777  1.00  0.00    -0.281 C  
HETATM   10  H   UNL     1     -11.488  14.069  66.608  1.00  0.00     0.000 HD 
HETATM   11  O   UNL     1     -10.578  17.099  66.362  1.00  0.00    -0.274 OA 
ENDROOT
BRANCH   9  12
HETATM   12  C   UNL     1     -10.096  15.506  68.109  1.00  0.00    -0.218 C  
BRANCH  12  13
HETATM   13  C   UNL     1     -10.632  14.181  68.607  1.00  0.00    -0.253 A  
HETATM   14  C   UNL     1     -11.676  14.124  69.552  1.00  0.00    -0.312 A  
HETATM   15  C   UNL     1     -12.242  12.902  69.935  1.00  0.00    -0.258 A  
HETATM   16 CL   UNL     1     -12.331  15.549  70.283  1.00  0.00    -0.430 Cl 
HETATM   17  C   UNL     1     -11.769  11.710  69.398  1.00  0.00    -0.405 A  
HETATM   18  C   UNL     1     -10.703  11.738  68.504  1.00  0.00    -0.251 A  
HETATM   19  C   UNL     1     -10.131  12.958  68.123  1.00  0.00    -0.240 A  
HETATM   20 CL   UNL     1      -8.800  12.879  67.021  1.00  0.00    -0.211 Cl 
ENDBRANCH  12  13
ENDBRANCH   9  12
TORSDOF 2
ENDMDL
MODEL       61
REMARK 921   NORMALIZED FREE ENERGY PREDICTED BY IDOCK:   -4.80 KCAL/MOL
REMARK 922        TOTAL FREE ENERGY PREDICTED BY IDOCK:   -5.69 KCAL/MOL
REMARK 923 INTER-LIGAND FREE ENERGY PREDICTED BY IDOCK:   -5.34 KCAL/MOL
REMARK 924 INTRA-LIGAND FREE ENERGY PREDICTED BY IDOCK:   -0.35 KCAL/MOL
REMARK 927      BINDING AFFINITY PREDICTED BY RF-SCORE:    0.00 PKD
ROOT
HETATM    1  N   UNL     1      -9.996  18.199  65.874  1.00  0.00    -0.564 NA 
HETATM    2  C   UNL     1     -10.115  17.449  66.985  1.00  0.00    -0.313 C  
HETATM    3  H2  UNL     1      -9.610  19.139  65.966  1.00  0.00     0.000 HD 
HETATM    4  H1  UNL     1     -10.271  17.881  64.945  1.00  0.00     0.000 HD 
HETATM    5  N   UNL     1      -9.769  17.849  68.153  1.00  0.00    -0.304 NA 
HETATM    6  N   UNL     1     -10.626  16.189  66.931  1.00  0.00    -0.306 N  
HETATM    7  H1  UNL     1      -9.859  17.280  68.995  1.00  0.00     0.000 HD 
HETATM    8  H2  UNL     1      -9.383  18.789  68.246  1.00  0.00     0.000 HD 
HETATM    9  C   UNL     1     -11.033  15.500  65.803  1.00  0.00    -0.283 C  
HETATM   10  H   UNL     1     -10.720  15.699  67.820  1.00  0.00     0.000 HD 
HETATM   11  O   UNL     1     -10.808  15.877  64.654  1.00  0.00    -0.557 OA 
ENDROOT
BRANCH   9  12
HETATM   12  C   UNL     1     -11.775  14.213  66.109  1.00  0.00    -0.402 C  
BRANCH  12  13
HETATM   13  C   UNL     1     -11.034  12.960  65.695  1.00  0.00    -0.297 A  
HETATM   14  C   UNL     1     -11.177  12.421  64.400  1.00  0.00    -0.332 A  
HETATM   15  C   UNL     1     -10.414  11.324  63.983  1.00  0.00    -0.440 A  
HETATM   16 CL   UNL     1     -12.286  13.082  63.249  1.00  0.00    -0.589 Cl 
HETATM   17  C   UNL     1      -9.504  10.730  64.851  1.00  0.00    -0.288 A  
HETATM   18  C   UNL     1      -9.384  11.213  66.150  1.00  0.00    -0.227 A  
HETATM   19  C   UNL     1     -10.150  12.306  66.573  1.00  0.00    -0.215 A  
HETATM   20 CL   UNL     1      -9.937  12.814  68.213  1.00  0.00    -0.228 Cl 
ENDBRANCH  12  13
ENDBRANCH   9  12
TORSDOF 2
ENDMDL
MODEL       62
REMARK 921   NORMALIZED FREE ENERGY PREDICTED BY IDOCK:   -4.79 KCAL/MOL
REMARK 922        TOTAL FREE ENERGY PREDICTED BY IDOCK:   -5.69 KCAL/MOL
REMARK 923 INTER-LIGAND FREE ENERGY PREDICTED BY IDOCK:   -5.35 KCAL/MOL
REMARK 924 INTRA-LIGAND FREE ENERGY PREDICTED BY IDOCK:   -0.34 KCAL/MOL
REMARK 927      BINDING AFFINITY PREDICTED BY RF-SCORE:    0.00 PKD
ROOT
HETATM    1  N   UNL     1     -11.233  19.805  65.396  1.00  0.00    -0.152 NA 
HETATM    2  C   UNL     1     -10.119  19.468  66.073  1.00  0.00    -0.436 C  
HETATM    3  H2  UNL     1     -11.502  20.788  65.370  1.00  0.00     0.000 HD 
HETATM    4  H1  UNL     1     -11.823  19.132  64.907  1.00  0.00     0.000 HD 
HETATM    5  N   UNL     1      -9.377  20.315  66.687  1.00  0.00    -0.549 NA 
HETATM    6  N   UNL     1      -9.708  18.174  66.150  1.00  0.00    -0.258 N  
HETATM    7  H1  UNL     1      -8.534  20.060  67.200  1.00  0.00     0.000 HD 
HETATM    8  H2  UNL     1      -9.646  21.299  66.661  1.00  0.00     0.000 HD 
HETATM    9  C   UNL     1     -10.292  17.074  65.548  1.00  0.00    -0.143 C  
HETATM   10  H   UNL     1      -8.876  17.995  66.713  1.00  0.00     0.000 HD 
HETATM   11  O   UNL     1     -11.174  17.150  64.695  1.00  0.00    -1.003 OA 
ENDROOT
BRANCH   9  12
HETATM   12  C   UNL     1      -9.731  15.748  66.025  1.00  0.00    -0.377 C  
BRANCH  12  13
HETATM   13  C   UNL     1     -10.333  15.255  67.323  1.00  0.00    -0.264 A  
HETATM   14  C   UNL     1      -9.715  15.519  68.562  1.00  0.00    -0.203 A  
HETATM   15  C   UNL     1     -10.322  15.155  69.769  1.00  0.00    -0.225 A  
HETATM   16 CL   UNL     1      -8.184  16.318  68.671  1.00  0.00    -0.202 Cl 
HETATM   17  C   UNL     1     -11.551  14.504  69.768  1.00  0.00    -0.345 A  
HETATM   18  C   UNL     1     -12.155  14.185  68.556  1.00  0.00    -0.312 A  
HETATM   19  C   UNL     1     -11.547  14.543  67.346  1.00  0.00    -0.385 A  
HETATM   20 CL   UNL     1     -12.373  14.083  65.898  1.00  0.00    -0.493 Cl 
ENDBRANCH  12  13
ENDBRANCH   9  12
TORSDOF 2
ENDMDL
MODEL       63
REMARK 921   NORMALIZED FREE ENERGY PREDICTED BY IDOCK:   -4.79 KCAL/MOL
REMARK 922        TOTAL FREE ENERGY PREDICTED BY IDOCK:   -5.68 KCAL/MOL
REMARK 923 INTER-LIGAND FREE ENERGY PREDICTED BY IDOCK:   -5.45 KCAL/MOL
REMARK 924 INTRA-LIGAND FREE ENERGY PREDICTED BY IDOCK:   -0.23 KCAL/MOL
REMARK 927      BINDING AFFINITY PREDICTED BY RF-SCORE:    0.00 PKD
ROOT
HETATM    1  N   UNL     1     -13.008  13.408  71.420  1.00  0.00    -0.349 NA 
HETATM    2  C   UNL     1     -13.123  14.474  70.605  1.00  0.00    -0.250 C  
HETATM    3  H2  UNL     1     -13.520  13.420  72.302  1.00  0.00     0.000 HD 
HETATM    4  H1  UNL     1     -12.438  12.591  71.205  1.00  0.00     0.000 HD 
HETATM    5  N   UNL     1     -13.840  15.502  70.876  1.00  0.00    -0.854 NA 
HETATM    6  N   UNL     1     -12.463  14.524  69.417  1.00  0.00    -0.566 N  
HETATM    7  H1  UNL     1     -13.927  16.308  70.259  1.00  0.00     0.000 HD 
HETATM    8  H2  UNL     1     -14.352  15.513  71.758  1.00  0.00     0.000 HD 
HETATM    9  C   UNL     1     -11.663  13.541  68.863  1.00  0.00    -0.339 C  
HETATM   10  H   UNL     1     -12.570  15.381  68.874  1.00  0.00     0.000 HD 
HETATM   11  O   UNL     1     -11.590  12.393  69.299  1.00  0.00    -0.282 OA 
ENDROOT
BRANCH   9  12
HETATM   12  C   UNL     1     -10.885  14.002  67.645  1.00  0.00    -0.270 C  
BRANCH  12  13
HETATM   13  C   UNL     1     -10.730  12.943  66.575  1.00  0.00    -0.285 A  
HETATM   14  C   UNL     1     -11.624  12.867  65.488  1.00  0.00    -0.358 A  
HETATM   15  C   UNL     1     -11.422  11.955  64.445  1.00  0.00    -0.393 A  
HETATM   16 CL   UNL     1     -13.009  13.895  65.366  1.00  0.00    -0.468 Cl 
HETATM   17  C   UNL     1     -10.334  11.089  64.470  1.00  0.00    -0.420 A  
HETATM   18  C   UNL     1      -9.469  11.109  65.559  1.00  0.00    -0.251 A  
HETATM   19  C   UNL     1      -9.671  12.016  66.607  1.00  0.00    -0.208 A  
HETATM   20 CL   UNL     1      -8.548  11.945  67.920  1.00  0.00    -0.154 Cl 
ENDBRANCH  12  13
ENDBRANCH   9  12
TORSDOF 2
ENDMDL
MODEL       64
REMARK 921   NORMALIZED FREE ENERGY PREDICTED BY IDOCK:   -4.77 KCAL/MOL
REMARK 922        TOTAL FREE ENERGY PREDICTED BY IDOCK:   -5.67 KCAL/MOL
REMARK 923 INTER-LIGAND FREE ENERGY PREDICTED BY IDOCK:   -5.33 KCAL/MOL
REMARK 924 INTRA-LIGAND FREE ENERGY PREDICTED BY IDOCK:   -0.34 KCAL/MOL
REMARK 927      BINDING AFFINITY PREDICTED BY RF-SCORE:    0.00 PKD
ROOT
HETATM    1  N   UNL     1      -9.836   8.624  72.255  1.00  0.00    -0.309 NA 
HETATM    2  C   UNL     1     -11.175   8.597  72.126  1.00  0.00    -0.367 C  
HETATM    3  H2  UNL     1      -9.407   8.022  72.958  1.00  0.00     0.000 HD 
HETATM    4  H1  UNL     1      -9.225   9.212  71.688  1.00  0.00     0.000 HD 
HETATM    5  N   UNL     1     -11.943   7.856  72.838  1.00  0.00    -0.619 NA 
HETATM    6  N   UNL     1     -11.809   9.378  71.209  1.00  0.00    -0.333 N  
HETATM    7  H1  UNL     1     -12.958   7.836  72.740  1.00  0.00     0.000 HD 
HETATM    8  H2  UNL     1     -11.515   7.255  73.541  1.00  0.00     0.000 HD 
HETATM    9  C   UNL     1     -11.224  10.230  70.291  1.00  0.00    -0.323 C  
HETATM   10  H   UNL     1     -12.828   9.329  71.199  1.00  0.00     0.000 HD 
HETATM   11  O   UNL     1     -10.018  10.254  70.053  1.00  0.00    -0.208 OA 
ENDROOT
BRANCH   9  12
HETATM   12  C   UNL     1     -12.214  11.132  69.579  1.00  0.00    -0.347 C  
BRANCH  12  13
HETATM   13  C   UNL     1     -12.025  12.605  69.869  1.00  0.00    -0.365 A  
HETATM   14  C   UNL     1     -12.514  13.184  71.057  1.00  0.00    -0.318 A  
HETATM   15  C   UNL     1     -12.250  14.522  71.375  1.00  0.00    -0.425 A  
HETATM   16 CL   UNL     1     -13.451  12.284  72.198  1.00  0.00    -0.561 Cl 
HETATM   17  C   UNL     1     -11.507  15.316  70.508  1.00  0.00    -0.342 A  
HETATM   18  C   UNL     1     -11.061  14.781  69.304  1.00  0.00    -0.283 A  
HETATM   19  C   UNL     1     -11.328  13.445  68.980  1.00  0.00    -0.287 A  
HETATM   20 CL   UNL     1     -10.742  12.886  67.452  1.00  0.00    -0.243 Cl 
ENDBRANCH  12  13
ENDBRANCH   9  12
TORSDOF 2
ENDMDL
MODEL       65
REMARK 921   NORMALIZED FREE ENERGY PREDICTED BY IDOCK:   -4.76 KCAL/MOL
REMARK 922        TOTAL FREE ENERGY PREDICTED BY IDOCK:   -5.65 KCAL/MOL
REMARK 923 INTER-LIGAND FREE ENERGY PREDICTED BY IDOCK:   -5.36 KCAL/MOL
REMARK 924 INTRA-LIGAND FREE ENERGY PREDICTED BY IDOCK:   -0.29 KCAL/MOL
REMARK 927      BINDING AFFINITY PREDICTED BY RF-SCORE:    0.00 PKD
ROOT
HETATM    1  N   UNL     1     -12.717  14.800  69.663  1.00  0.00    -0.584 NA 
HETATM    2  C   UNL     1     -11.839  13.793  69.502  1.00  0.00    -0.339 C  
HETATM    3  H2  UNL     1     -13.376  14.745  70.440  1.00  0.00     0.000 HD 
HETATM    4  H1  UNL     1     -12.760  15.615  69.052  1.00  0.00     0.000 HD 
HETATM    5  N   UNL     1     -11.784  12.768  70.271  1.00  0.00    -0.548 NA 
HETATM    6  N   UNL     1     -10.937  13.803  68.484  1.00  0.00    -0.253 N  
HETATM    7  H1  UNL     1     -11.118  12.005  70.149  1.00  0.00     0.000 HD 
HETATM    8  H2  UNL     1     -12.443  12.713  71.048  1.00  0.00     0.000 HD 
HETATM    9  C   UNL     1     -10.750  14.799  67.543  1.00  0.00    -0.269 C  
HETATM   10  H   UNL     1     -10.331  12.986  68.406  1.00  0.00     0.000 HD 
HETATM   11  O   UNL     1     -11.263  15.914  67.617  1.00  0.00    -0.308 OA 
ENDROOT
BRANCH   9  12
HETATM   12  C   UNL     1      -9.831  14.398  66.404  1.00  0.00    -0.309 C  
BRANCH  12  13
HETATM   13  C   UNL     1     -10.432  13.386  65.453  1.00  0.00    -0.310 A  
HETATM   14  C   UNL     1     -11.299  13.784  64.416  1.00  0.00    -0.360 A  
HETATM   15  C   UNL     1     -11.774  12.864  63.473  1.00  0.00    -0.576 A  
HETATM   16 CL   UNL     1     -11.819  15.424  64.233  1.00  0.00    -0.319 Cl 
HETATM   17  C   UNL     1     -11.407  11.525  63.553  1.00  0.00    -0.375 A  
HETATM   18  C   UNL     1     -10.595  11.100  64.599  1.00  0.00    -0.386 A  
HETATM   19  C   UNL     1     -10.123  12.016  65.547  1.00  0.00    -0.252 A  
HETATM   20 CL   UNL     1      -9.135  11.379  66.816  1.00  0.00    -0.172 Cl 
ENDBRANCH  12  13
ENDBRANCH   9  12
TORSDOF 2
ENDMDL
MODEL       66
REMARK 921   NORMALIZED FREE ENERGY PREDICTED BY IDOCK:   -4.76 KCAL/MOL
REMARK 922        TOTAL FREE ENERGY PREDICTED BY IDOCK:   -5.65 KCAL/MOL
REMARK 923 INTER-LIGAND FREE ENERGY PREDICTED BY IDOCK:   -5.40 KCAL/MOL
REMARK 924 INTRA-LIGAND FREE ENERGY PREDICTED BY IDOCK:   -0.25 KCAL/MOL
REMARK 927      BINDING AFFINITY PREDICTED BY RF-SCORE:    0.00 PKD
ROOT
HETATM    1  N   UNL     1     -12.578  16.075  72.028  1.00  0.00    -0.477 NA 
HETATM    2  C   UNL     1     -13.269  15.454  71.054  1.00  0.00    -0.496 C  
HETATM    3  H2  UNL     1     -12.984  16.103  72.963  1.00  0.00     0.000 HD 
HETATM    4  H1  UNL     1     -11.671  16.518  71.884  1.00  0.00     0.000 HD 
HETATM    5  N   UNL     1     -14.410  14.896  71.236  1.00  0.00    -0.638 NA 
HETATM    6  N   UNL     1     -12.786  15.385  69.784  1.00  0.00    -0.623 N  
HETATM    7  H1  UNL     1     -14.933  14.427  70.497  1.00  0.00     0.000 HD 
HETATM    8  H2  UNL     1     -14.816  14.924  72.171  1.00  0.00     0.000 HD 
HETATM    9  C   UNL     1     -11.571  15.861  69.325  1.00  0.00    -0.369 C  
HETATM   10  H   UNL     1     -13.385  14.933  69.094  1.00  0.00     0.000 HD 
HETATM   11  O   UNL     1     -10.668  16.254  70.063  1.00  0.00    -0.321 OA 
ENDROOT
BRANCH   9  12
HETATM   12  C   UNL     1     -11.438  15.840  67.814  1.00  0.00    -0.175 C  
BRANCH  12  13
HETATM   13  C   UNL     1     -10.093  16.313  67.307  1.00  0.00    -0.264 A  
HETATM   14  C   UNL     1      -9.810  17.686  67.160  1.00  0.00    -0.306 A  
HETATM   15  C   UNL     1      -8.535  18.129  66.790  1.00  0.00    -0.273 A  
HETATM   16 CL   UNL     1     -11.006  18.904  67.439  1.00  0.00    -0.437 Cl 
HETATM   17  C   UNL     1      -7.518  17.213  66.543  1.00  0.00    -0.318 A  
HETATM   18  C   UNL     1      -7.789  15.851  66.629  1.00  0.00    -0.236 A  
HETATM   19  C   UNL     1      -9.065  15.404  66.993  1.00  0.00    -0.227 A  
HETATM   20 CL   UNL     1      -9.299  13.692  67.053  1.00  0.00    -0.239 Cl 
ENDBRANCH  12  13
ENDBRANCH   9  12
TORSDOF 2
ENDMDL
MODEL       67
REMARK 921   NORMALIZED FREE ENERGY PREDICTED BY IDOCK:   -4.76 KCAL/MOL
REMARK 922        TOTAL FREE ENERGY PREDICTED BY IDOCK:   -5.65 KCAL/MOL
REMARK 923 INTER-LIGAND FREE ENERGY PREDICTED BY IDOCK:   -5.40 KCAL/MOL
REMARK 924 INTRA-LIGAND FREE ENERGY PREDICTED BY IDOCK:   -0.25 KCAL/MOL
REMARK 927      BINDING AFFINITY PREDICTED BY RF-SCORE:    0.00 PKD
ROOT
HETATM    1  N   UNL     1     -10.697  19.438  68.134  1.00  0.00    -0.399 NA 
HETATM    2  C   UNL     1     -10.228  19.355  66.875  1.00  0.00    -0.410 C  
HETATM    3  H2  UNL     1     -10.831  20.365  68.538  1.00  0.00     0.000 HD 
HETATM    4  H1  UNL     1     -10.925  18.625  68.707  1.00  0.00     0.000 HD 
HETATM    5  N   UNL     1      -9.941  20.377  66.155  1.00  0.00    -0.606 NA 
HETATM    6  N   UNL     1     -10.023  18.149  66.279  1.00  0.00    -0.352 N  
HETATM    7  H1  UNL     1      -9.587  20.314  65.201  1.00  0.00     0.000 HD 
HETATM    8  H2  UNL     1     -10.075  21.304  66.559  1.00  0.00     0.000 HD 
HETATM    9  C   UNL     1     -10.289  16.900  66.809  1.00  0.00    -0.298 C  
HETATM   10  H   UNL     1      -9.630  18.169  65.338  1.00  0.00     0.000 HD 
HETATM   11  O   UNL     1     -10.933  16.717  67.841  1.00  0.00    -0.337 OA 
ENDROOT
BRANCH   9  12
HETATM   12  C   UNL     1      -9.726  15.756  65.986  1.00  0.00    -0.377 C  
BRANCH  12  13
HETATM   13  C   UNL     1     -10.348  14.411  66.293  1.00  0.00    -0.300 A  
HETATM   14  C   UNL     1     -11.421  13.910  65.529  1.00  0.00    -0.316 A  
HETATM   15  C   UNL     1     -11.929  12.624  65.745  1.00  0.00    -0.503 A  
HETATM   16 CL   UNL     1     -12.166  14.841  64.275  1.00  0.00    -0.489 Cl 
HETATM   17  C   UNL     1     -11.389  11.814  66.738  1.00  0.00    -0.385 A  
HETATM   18  C   UNL     1     -10.365  12.306  67.540  1.00  0.00    -0.214 A  
HETATM   19  C   UNL     1      -9.858  13.595  67.331  1.00  0.00    -0.234 A  
HETATM   20 CL   UNL     1      -8.598  14.115  68.395  1.00  0.00    -0.173 Cl 
ENDBRANCH  12  13
ENDBRANCH   9  12
TORSDOF 2
ENDMDL
MODEL       68
REMARK 921   NORMALIZED FREE ENERGY PREDICTED BY IDOCK:   -4.73 KCAL/MOL
REMARK 922        TOTAL FREE ENERGY PREDICTED BY IDOCK:   -5.61 KCAL/MOL
REMARK 923 INTER-LIGAND FREE ENERGY PREDICTED BY IDOCK:   -5.27 KCAL/MOL
REMARK 924 INTRA-LIGAND FREE ENERGY PREDICTED BY IDOCK:   -0.35 KCAL/MOL
REMARK 927      BINDING AFFINITY PREDICTED BY RF-SCORE:    0.00 PKD
ROOT
HETATM    1  N   UNL     1     -12.923  14.880  73.393  1.00  0.00    -0.520 NA 
HETATM    2  C   UNL     1     -13.296  14.047  72.403  1.00  0.00    -0.518 C  
HETATM    3  H2  UNL     1     -13.188  14.642  74.348  1.00  0.00     0.000 HD 
HETATM    4  H1  UNL     1     -12.391  15.737  73.240  1.00  0.00     0.000 HD 
HETATM    5  N   UNL     1     -13.965  12.970  72.595  1.00  0.00    -0.729 NA 
HETATM    6  N   UNL     1     -12.979  14.310  71.106  1.00  0.00    -0.341 N  
HETATM    7  H1  UNL     1     -14.247  12.339  71.846  1.00  0.00     0.000 HD 
HETATM    8  H2  UNL     1     -14.230  12.731  73.551  1.00  0.00     0.000 HD 
HETATM    9  C   UNL     1     -12.232  15.370  70.627  1.00  0.00    -0.385 C  
HETATM   10  H   UNL     1     -13.330  13.651  70.411  1.00  0.00     0.000 HD 
HETATM   11  O   UNL     1     -11.587  16.132  71.345  1.00  0.00    -0.445 OA 
ENDROOT
BRANCH   9  12
HETATM   12  C   UNL     1     -12.263  15.505  69.116  1.00  0.00    -0.175 C  
BRANCH  12  13
HETATM   13  C   UNL     1     -10.941  15.208  68.443  1.00  0.00    -0.271 A  
HETATM   14  C   UNL     1     -10.614  13.904  68.018  1.00  0.00    -0.248 A  
HETATM   15  C   UNL     1      -9.438  13.647  67.304  1.00  0.00    -0.230 A  
HETATM   16 CL   UNL     1     -11.643  12.551  68.337  1.00  0.00    -0.343 Cl 
HETATM   17  C   UNL     1      -8.554  14.680  67.011  1.00  0.00    -0.249 A  
HETATM   18  C   UNL     1      -8.830  15.965  67.466  1.00  0.00    -0.199 A  
HETATM   19  C   UNL     1     -10.002  16.225  68.186  1.00  0.00    -0.239 A  
HETATM   20 CL   UNL     1     -10.239  17.853  68.721  1.00  0.00    -0.376 Cl 
ENDBRANCH  12  13
ENDBRANCH   9  12
TORSDOF 2
ENDMDL
MODEL       69
REMARK 921   NORMALIZED FREE ENERGY PREDICTED BY IDOCK:   -4.70 KCAL/MOL
REMARK 922        TOTAL FREE ENERGY PREDICTED BY IDOCK:   -5.58 KCAL/MOL
REMARK 923 INTER-LIGAND FREE ENERGY PREDICTED BY IDOCK:   -5.48 KCAL/MOL
REMARK 924 INTRA-LIGAND FREE ENERGY PREDICTED BY IDOCK:   -0.11 KCAL/MOL
REMARK 927      BINDING AFFINITY PREDICTED BY RF-SCORE:    0.00 PKD
ROOT
HETATM    1  N   UNL     1     -11.854  13.755  64.125  1.00  0.00    -0.533 NA 
HETATM    2  C   UNL     1     -10.745  13.164  64.609  1.00  0.00    -0.380 C  
HETATM    3  H2  UNL     1     -11.953  13.837  63.113  1.00  0.00     0.000 HD 
HETATM    4  H1  UNL     1     -12.599  14.126  64.713  1.00  0.00     0.000 HD 
HETATM    5  N   UNL     1      -9.808  12.697  63.869  1.00  0.00    -0.675 NA 
HETATM    6  N   UNL     1     -10.549  13.027  65.948  1.00  0.00    -0.271 N  
HETATM    7  H1  UNL     1      -8.968  12.250  64.235  1.00  0.00     0.000 HD 
HETATM    8  H2  UNL     1      -9.907  12.779  62.857  1.00  0.00     0.000 HD 
HETATM    9  C   UNL     1     -11.414  13.399  66.961  1.00  0.00    -0.337 C  
HETATM   10  H   UNL     1      -9.667  12.604  66.237  1.00  0.00     0.000 HD 
HETATM   11  O   UNL     1     -12.580  13.742  66.773  1.00  0.00    -0.296 OA 
ENDROOT
BRANCH   9  12
HETATM   12  C   UNL     1     -10.797  13.331  68.346  1.00  0.00    -0.279 C  
BRANCH  12  13
HETATM   13  C   UNL     1     -11.440  12.307  69.257  1.00  0.00    -0.352 A  
HETATM   14  C   UNL     1     -11.246  10.925  69.055  1.00  0.00    -0.266 A  
HETATM   15  C   UNL     1     -11.754   9.982  69.956  1.00  0.00    -0.242 A  
HETATM   16 CL   UNL     1     -10.365  10.312  67.698  1.00  0.00    -0.245 Cl 
HETATM   17  C   UNL     1     -12.478  10.393  71.069  1.00  0.00    -0.488 A  
HETATM   18  C   UNL     1     -12.727  11.748  71.260  1.00  0.00    -0.420 A  
HETATM   19  C   UNL     1     -12.226  12.695  70.358  1.00  0.00    -0.288 A  
HETATM   20 CL   UNL     1     -12.609  14.350  70.679  1.00  0.00    -0.404 Cl 
ENDBRANCH  12  13
ENDBRANCH   9  12
TORSDOF 2
ENDMDL
MODEL       70
REMARK 921   NORMALIZED FREE ENERGY PREDICTED BY IDOCK:   -4.66 KCAL/MOL
REMARK 922        TOTAL FREE ENERGY PREDICTED BY IDOCK:   -5.54 KCAL/MOL
REMARK 923 INTER-LIGAND FREE ENERGY PREDICTED BY IDOCK:   -5.20 KCAL/MOL
REMARK 924 INTRA-LIGAND FREE ENERGY PREDICTED BY IDOCK:   -0.35 KCAL/MOL
REMARK 927      BINDING AFFINITY PREDICTED BY RF-SCORE:    0.00 PKD
ROOT
HETATM    1  N   UNL     1      -9.108  17.618  65.923  1.00  0.00    -0.514 NA 
HETATM    2  C   UNL     1      -9.701  17.117  67.023  1.00  0.00    -0.265 C  
HETATM    3  H2  UNL     1      -8.463  18.400  66.038  1.00  0.00     0.000 HD 
HETATM    4  H1  UNL     1      -9.268  17.261  64.982  1.00  0.00     0.000 HD 
HETATM    5  N   UNL     1      -9.499  17.566  68.207  1.00  0.00    -0.285 NA 
HETATM    6  N   UNL     1     -10.575  16.077  66.938  1.00  0.00    -0.314 N  
HETATM    7  H1  UNL     1      -9.948  17.186  69.039  1.00  0.00     0.000 HD 
HETATM    8  H2  UNL     1      -8.854  18.348  68.322  1.00  0.00     0.000 HD 
HETATM    9  C   UNL     1     -10.936  15.380  65.799  1.00  0.00    -0.309 C  
HETATM   10  H   UNL     1     -11.011  15.779  67.810  1.00  0.00     0.000 HD 
HETATM   11  O   UNL     1     -10.361  15.492  64.718  1.00  0.00    -0.376 OA 
ENDROOT
BRANCH   9  12
HETATM   12  C   UNL     1     -12.108  14.439  66.006  1.00  0.00    -0.370 C  
BRANCH  12  13
HETATM   13  C   UNL     1     -11.707  13.025  66.365  1.00  0.00    -0.444 A  
HETATM   14  C   UNL     1     -11.348  12.093  65.370  1.00  0.00    -0.338 A  
HETATM   15  C   UNL     1     -10.878  10.817  65.706  1.00  0.00    -0.076 A  
HETATM   16 CL   UNL     1     -11.450  12.465  63.684  1.00  0.00    -0.524 Cl 
HETATM   17  C   UNL     1     -10.771  10.437  67.040  1.00  0.00    -0.298 A  
HETATM   18  C   UNL     1     -11.171  11.322  68.037  1.00  0.00    -0.351 A  
HETATM   19  C   UNL     1     -11.647  12.596  67.704  1.00  0.00    -0.357 A  
HETATM   20 CL   UNL     1     -12.133  13.609  69.019  1.00  0.00    -0.375 Cl 
ENDBRANCH  12  13
ENDBRANCH   9  12
TORSDOF 2
ENDMDL
MODEL       71
REMARK 921   NORMALIZED FREE ENERGY PREDICTED BY IDOCK:   -4.63 KCAL/MOL
REMARK 922        TOTAL FREE ENERGY PREDICTED BY IDOCK:   -5.51 KCAL/MOL
REMARK 923 INTER-LIGAND FREE ENERGY PREDICTED BY IDOCK:   -5.17 KCAL/MOL
REMARK 924 INTRA-LIGAND FREE ENERGY PREDICTED BY IDOCK:   -0.34 KCAL/MOL
REMARK 927      BINDING AFFINITY PREDICTED BY RF-SCORE:    0.00 PKD
ROOT
HETATM    1  N   UNL     1     -10.845  14.826  64.556  1.00  0.00    -0.625 NA 
HETATM    2  C   UNL     1     -11.212  14.588  65.829  1.00  0.00    -0.334 C  
HETATM    3  H2  UNL     1     -10.938  14.069  63.879  1.00  0.00     0.000 HD 
HETATM    4  H1  UNL     1     -10.478  15.720  64.231  1.00  0.00     0.000 HD 
HETATM    5  N   UNL     1     -11.673  13.463  66.238  1.00  0.00    -0.349 NA 
HETATM    6  N   UNL     1     -11.109  15.553  66.782  1.00  0.00    -0.261 N  
HETATM    7  H1  UNL     1     -11.951  13.283  67.202  1.00  0.00     0.000 HD 
HETATM    8  H2  UNL     1     -11.766  12.706  65.561  1.00  0.00     0.000 HD 
HETATM    9  C   UNL     1     -10.689  16.859  66.607  1.00  0.00    -0.094 C  
HETATM   10  H   UNL     1     -11.371  15.285  67.731  1.00  0.00     0.000 HD 
HETATM   11  O   UNL     1     -10.525  17.382  65.506  1.00  0.00    -0.624 OA 
ENDROOT
BRANCH   9  12
HETATM   12  C   UNL     1     -10.461  17.607  67.908  1.00  0.00    -0.392 C  
BRANCH  12  13
HETATM   13  C   UNL     1      -9.066  18.174  68.057  1.00  0.00    -0.289 A  
HETATM   14  C   UNL     1      -8.025  17.414  68.625  1.00  0.00    -0.271 A  
HETATM   15  C   UNL     1      -6.712  17.898  68.669  1.00  0.00    -0.239 A  
HETATM   16 CL   UNL     1      -8.296  15.839  69.288  1.00  0.00    -0.244 Cl 
HETATM   17  C   UNL     1      -6.411  19.158  68.162  1.00  0.00    -0.249 A  
HETATM   18  C   UNL     1      -7.433  19.948  67.645  1.00  0.00    -0.320 A  
HETATM   19  C   UNL     1      -8.748  19.469  67.604  1.00  0.00    -0.315 A  
HETATM   20 CL   UNL     1      -9.943  20.539  66.958  1.00  0.00    -0.569 Cl 
ENDBRANCH  12  13
ENDBRANCH   9  12
TORSDOF 2
ENDMDL
MODEL       72
REMARK 921   NORMALIZED FREE ENERGY PREDICTED BY IDOCK:   -4.63 KCAL/MOL
REMARK 922        TOTAL FREE ENERGY PREDICTED BY IDOCK:   -5.50 KCAL/MOL
REMARK 923 INTER-LIGAND FREE ENERGY PREDICTED BY IDOCK:   -5.22 KCAL/MOL
REMARK 924 INTRA-LIGAND FREE ENERGY PREDICTED BY IDOCK:   -0.29 KCAL/MOL
REMARK 927      BINDING AFFINITY PREDICTED BY RF-SCORE:    0.00 PKD
ROOT
HETATM    1  N   UNL     1      -9.771  10.166  69.925  1.00  0.00    -0.377 NA 
HETATM    2  C   UNL     1     -11.115  10.234  69.899  1.00  0.00    -0.304 C  
HETATM    3  H2  UNL     1      -9.339   9.374  70.400  1.00  0.00     0.000 HD 
HETATM    4  H1  UNL     1      -9.162  10.862  69.496  1.00  0.00     0.000 HD 
HETATM    5  N   UNL     1     -11.882   9.359  70.438  1.00  0.00    -0.454 NA 
HETATM    6  N   UNL     1     -11.755  11.267  69.286  1.00  0.00    -0.305 N  
HETATM    7  H1  UNL     1     -12.900   9.411  70.418  1.00  0.00     0.000 HD 
HETATM    8  H2  UNL     1     -11.449   8.566  70.913  1.00  0.00     0.000 HD 
HETATM    9  C   UNL     1     -11.177  12.315  68.594  1.00  0.00    -0.259 C  
HETATM   10  H   UNL     1     -12.774  11.267  69.343  1.00  0.00     0.000 HD 
HETATM   11  O   UNL     1      -9.989  12.353  68.278  1.00  0.00    -0.216 OA 
ENDROOT
BRANCH   9  12
HETATM   12  C   UNL     1     -12.151  13.423  68.238  1.00  0.00    -0.271 C  
BRANCH  12  13
HETATM   13  C   UNL     1     -11.617  14.412  67.226  1.00  0.00    -0.401 A  
HETATM   14  C   UNL     1     -10.956  15.589  67.633  1.00  0.00    -0.315 A  
HETATM   15  C   UNL     1     -10.371  16.453  66.700  1.00  0.00    -0.292 A  
HETATM   16 CL   UNL     1     -10.814  16.031  69.300  1.00  0.00    -0.276 Cl 
HETATM   17  C   UNL     1     -10.445  16.172  65.340  1.00  0.00    -0.396 A  
HETATM   18  C   UNL     1     -11.138  15.044  64.912  1.00  0.00    -0.425 A  
HETATM   19  C   UNL     1     -11.730  14.181  65.842  1.00  0.00    -0.365 A  
HETATM   20 CL   UNL     1     -12.583  12.819  65.203  1.00  0.00    -0.565 Cl 
ENDBRANCH  12  13
ENDBRANCH   9  12
TORSDOF 2
ENDMDL
MODEL       73
REMARK 921   NORMALIZED FREE ENERGY PREDICTED BY IDOCK:   -4.62 KCAL/MOL
REMARK 922        TOTAL FREE ENERGY PREDICTED BY IDOCK:   -5.50 KCAL/MOL
REMARK 923 INTER-LIGAND FREE ENERGY PREDICTED BY IDOCK:   -5.16 KCAL/MOL
REMARK 924 INTRA-LIGAND FREE ENERGY PREDICTED BY IDOCK:   -0.34 KCAL/MOL
REMARK 927      BINDING AFFINITY PREDICTED BY RF-SCORE:    0.00 PKD
ROOT
HETATM    1  N   UNL     1     -12.705  14.957  73.340  1.00  0.00    -0.514 NA 
HETATM    2  C   UNL     1     -13.297  14.237  72.369  1.00  0.00    -0.474 C  
HETATM    3  H2  UNL     1     -12.937  14.740  74.309  1.00  0.00     0.000 HD 
HETATM    4  H1  UNL     1     -12.037  15.706  73.160  1.00  0.00     0.000 HD 
HETATM    5  N   UNL     1     -14.137  13.294  72.595  1.00  0.00    -0.707 NA 
HETATM    6  N   UNL     1     -13.035  14.478  71.056  1.00  0.00    -0.345 N  
HETATM    7  H1  UNL     1     -14.586  12.749  71.860  1.00  0.00     0.000 HD 
HETATM    8  H2  UNL     1     -14.369  13.078  73.565  1.00  0.00     0.000 HD 
HETATM    9  C   UNL     1     -12.144  15.399  70.537  1.00  0.00    -0.371 C  
HETATM   10  H   UNL     1     -13.553  13.916  70.379  1.00  0.00     0.000 HD 
HETATM   11  O   UNL     1     -11.319  16.008  71.215  1.00  0.00    -0.389 OA 
ENDROOT
BRANCH   9  12
HETATM   12  C   UNL     1     -12.263  15.585  69.036  1.00  0.00    -0.147 C  
BRANCH  12  13
HETATM   13  C   UNL     1     -10.987  15.296  68.276  1.00  0.00    -0.276 A  
HETATM   14  C   UNL     1     -10.052  16.315  68.004  1.00  0.00    -0.245 A  
HETATM   15  C   UNL     1      -8.825  16.031  67.393  1.00  0.00    -0.197 A  
HETATM   16 CL   UNL     1     -10.352  17.969  68.416  1.00  0.00    -0.386 Cl 
HETATM   17  C   UNL     1      -8.509  14.727  67.026  1.00  0.00    -0.250 A  
HETATM   18  C   UNL     1      -9.438  13.714  67.236  1.00  0.00    -0.230 A  
HETATM   19  C   UNL     1     -10.669  13.995  67.841  1.00  0.00    -0.240 A  
HETATM   20 CL   UNL     1     -11.758  12.666  68.040  1.00  0.00    -0.389 Cl 
ENDBRANCH  12  13
ENDBRANCH   9  12
TORSDOF 2
ENDMDL
MODEL       74
REMARK 921   NORMALIZED FREE ENERGY PREDICTED BY IDOCK:   -4.62 KCAL/MOL
REMARK 922        TOTAL FREE ENERGY PREDICTED BY IDOCK:   -5.50 KCAL/MOL
REMARK 923 INTER-LIGAND FREE ENERGY PREDICTED BY IDOCK:   -5.20 KCAL/MOL
REMARK 924 INTRA-LIGAND FREE ENERGY PREDICTED BY IDOCK:   -0.30 KCAL/MOL
REMARK 927      BINDING AFFINITY PREDICTED BY RF-SCORE:    0.00 PKD
ROOT
HETATM    1  N   UNL     1     -13.952   8.966  73.178  1.00  0.00    -1.215 NA 
HETATM    2  C   UNL     1     -13.284   9.830  72.391  1.00  0.00    -0.275 C  
HETATM    3  H2  UNL     1     -14.777   9.305  73.672  1.00  0.00     0.000 HD 
HETATM    4  H1  UNL     1     -13.679   7.992  73.307  1.00  0.00     0.000 HD 
HETATM    5  N   UNL     1     -13.627  11.055  72.228  1.00  0.00    -0.464 NA 
HETATM    6  N   UNL     1     -12.173   9.443  71.708  1.00  0.00    -0.376 N  
HETATM    7  H1  UNL     1     -13.120  11.709  71.632  1.00  0.00     0.000 HD 
HETATM    8  H2  UNL     1     -14.452  11.394  72.723  1.00  0.00     0.000 HD 
HETATM    9  C   UNL     1     -11.614   8.178  71.669  1.00  0.00    -0.279 C  
HETATM   10  H   UNL     1     -11.700  10.165  71.163  1.00  0.00     0.000 HD 
HETATM   11  O   UNL     1     -12.167   7.173  72.110  1.00  0.00    -0.284 OA 
ENDROOT
BRANCH   9  12
HETATM   12  C   UNL     1     -10.248   8.135  71.009  1.00  0.00    -0.221 C  
BRANCH  12  13
HETATM   13  C   UNL     1     -10.294   7.969  69.506  1.00  0.00    -0.221 A  
HETATM   14  C   UNL     1     -10.232   9.084  68.646  1.00  0.00    -0.205 A  
HETATM   15  C   UNL     1     -10.169   8.926  67.256  1.00  0.00    -0.326 A  
HETATM   16 CL   UNL     1     -10.214  10.706  69.247  1.00  0.00    -0.238 Cl 
HETATM   17  C   UNL     1     -10.184   7.654  66.693  1.00  0.00    -0.272 A  
HETATM   18  C   UNL     1     -10.298   6.542  67.520  1.00  0.00    -0.252 A  
HETATM   19  C   UNL     1     -10.367   6.696  68.910  1.00  0.00    -0.193 A  
HETATM   20 CL   UNL     1     -10.526   5.249  69.843  1.00  0.00    -0.377 Cl 
ENDBRANCH  12  13
ENDBRANCH   9  12
TORSDOF 2
ENDMDL
MODEL       75
REMARK 921   NORMALIZED FREE ENERGY PREDICTED BY IDOCK:   -4.62 KCAL/MOL
REMARK 922        TOTAL FREE ENERGY PREDICTED BY IDOCK:   -5.50 KCAL/MOL
REMARK 923 INTER-LIGAND FREE ENERGY PREDICTED BY IDOCK:   -5.14 KCAL/MOL
REMARK 924 INTRA-LIGAND FREE ENERGY PREDICTED BY IDOCK:   -0.36 KCAL/MOL
REMARK 927      BINDING AFFINITY PREDICTED BY RF-SCORE:    0.00 PKD
ROOT
HETATM    1  N   UNL     1      -9.496  10.387  69.507  1.00  0.00    -0.366 NA 
HETATM    2  C   UNL     1     -10.818  10.146  69.581  1.00  0.00    -0.263 C  
HETATM    3  H2  UNL     1      -8.858   9.592  69.551  1.00  0.00     0.000 HD 
HETATM    4  H1  UNL     1      -9.096  11.320  69.409  1.00  0.00     0.000 HD 
HETATM    5  N   UNL     1     -11.321   8.973  69.704  1.00  0.00    -0.438 NA 
HETATM    6  N   UNL     1     -11.722  11.162  69.534  1.00  0.00    -0.303 N  
HETATM    7  H1  UNL     1     -12.323   8.790  69.760  1.00  0.00     0.000 HD 
HETATM    8  H2  UNL     1     -10.684   8.177  69.747  1.00  0.00     0.000 HD 
HETATM    9  C   UNL     1     -11.457  12.509  69.363  1.00  0.00    -0.263 C  
HETATM   10  H   UNL     1     -12.703  10.902  69.635  1.00  0.00     0.000 HD 
HETATM   11  O   UNL     1     -10.356  12.953  69.039  1.00  0.00    -0.094 OA 
ENDROOT
BRANCH   9  12
HETATM   12  C   UNL     1     -12.661  13.402  69.594  1.00  0.00     0.098 C  
BRANCH  12  13
HETATM   13  C   UNL     1     -12.547  14.285  70.818  1.00  0.00    -0.427 A  
HETATM   14  C   UNL     1     -12.979  13.838  72.083  1.00  0.00    -0.343 A  
HETATM   15  C   UNL     1     -12.780  14.612  73.233  1.00  0.00    -0.552 A  
HETATM   16 CL   UNL     1     -13.764  12.312  72.298  1.00  0.00    -0.380 Cl 
HETATM   17  C   UNL     1     -12.161  15.854  73.145  1.00  0.00    -0.622 A  
HETATM   18  C   UNL     1     -11.775  16.339  71.899  1.00  0.00    -0.518 A  
HETATM   19  C   UNL     1     -11.978  15.570  70.747  1.00  0.00    -0.378 A  
HETATM   20 CL   UNL     1     -11.477  16.274  69.248  1.00  0.00    -0.292 Cl 
ENDBRANCH  12  13
ENDBRANCH   9  12
TORSDOF 2
ENDMDL
MODEL       76
REMARK 921   NORMALIZED FREE ENERGY PREDICTED BY IDOCK:   -4.59 KCAL/MOL
REMARK 922        TOTAL FREE ENERGY PREDICTED BY IDOCK:   -5.47 KCAL/MOL
REMARK 923 INTER-LIGAND FREE ENERGY PREDICTED BY IDOCK:   -5.13 KCAL/MOL
REMARK 924 INTRA-LIGAND FREE ENERGY PREDICTED BY IDOCK:   -0.34 KCAL/MOL
REMARK 927      BINDING AFFINITY PREDICTED BY RF-SCORE:    0.00 PKD
ROOT
HETATM    1  N   UNL     1     -11.222   6.063  66.559  1.00  0.00    -0.750 NA 
HETATM    2  C   UNL     1     -10.292   7.012  66.772  1.00  0.00    -0.221 C  
HETATM    3  H2  UNL     1     -11.426   5.795  65.595  1.00  0.00     0.000 HD 
HETATM    4  H1  UNL     1     -11.735   5.596  67.306  1.00  0.00     0.000 HD 
HETATM    5  N   UNL     1      -9.647   7.598  65.831  1.00  0.00    -0.420 NA 
HETATM    6  N   UNL     1      -9.977   7.417  68.032  1.00  0.00    -0.158 N  
HETATM    7  H1  UNL     1      -8.942   8.317  65.993  1.00  0.00     0.000 HD 
HETATM    8  H2  UNL     1      -9.850   7.331  64.868  1.00  0.00     0.000 HD 
HETATM    9  C   UNL     1     -10.485   6.924  69.220  1.00  0.00    -0.214 C  
HETATM   10  H   UNL     1      -9.290   8.167  68.109  1.00  0.00     0.000 HD 
HETATM   11  O   UNL     1     -11.167   5.904  69.300  1.00  0.00    -0.363 OA 
ENDROOT
BRANCH   9  12
HETATM   12  C   UNL     1     -10.109   7.750  70.435  1.00  0.00    -0.194 C  
BRANCH  12  13
HETATM   13  C   UNL     1     -11.172   8.738  70.863  1.00  0.00    -0.320 A  
HETATM   14  C   UNL     1     -11.132  10.083  70.443  1.00  0.00    -0.327 A  
HETATM   15  C   UNL     1     -12.169  10.971  70.751  1.00  0.00    -0.480 A  
HETATM   16 CL   UNL     1      -9.817  10.714  69.514  1.00  0.00    -0.170 Cl 
HETATM   17  C   UNL     1     -13.261  10.543  71.499  1.00  0.00    -0.470 A  
HETATM   18  C   UNL     1     -13.296   9.234  71.970  1.00  0.00    -0.518 A  
HETATM   19  C   UNL     1     -12.258   8.344  71.668  1.00  0.00    -0.315 A  
HETATM   20 CL   UNL     1     -12.393   6.747  72.317  1.00  0.00    -0.205 Cl 
ENDBRANCH  12  13
ENDBRANCH   9  12
TORSDOF 2
ENDMDL
MODEL       77
REMARK 921   NORMALIZED FREE ENERGY PREDICTED BY IDOCK:   -4.58 KCAL/MOL
REMARK 922        TOTAL FREE ENERGY PREDICTED BY IDOCK:   -5.45 KCAL/MOL
REMARK 923 INTER-LIGAND FREE ENERGY PREDICTED BY IDOCK:   -5.13 KCAL/MOL
REMARK 924 INTRA-LIGAND FREE ENERGY PREDICTED BY IDOCK:   -0.32 KCAL/MOL
REMARK 927      BINDING AFFINITY PREDICTED BY RF-SCORE:    0.00 PKD
ROOT
HETATM    1  N   UNL     1     -13.656   9.822  70.860  1.00  0.00    -0.524 NA 
HETATM    2  C   UNL     1     -13.327   9.216  72.016  1.00  0.00    -0.445 C  
HETATM    3  H2  UNL     1     -14.638  10.046  70.697  1.00  0.00     0.000 HD 
HETATM    4  H1  UNL     1     -12.979  10.070  70.139  1.00  0.00     0.000 HD 
HETATM    5  N   UNL     1     -14.178   8.904  72.923  1.00  0.00    -1.123 NA 
HETATM    6  N   UNL     1     -12.036   8.886  72.294  1.00  0.00    -0.349 N  
HETATM    7  H1  UNL     1     -13.928   8.445  73.799  1.00  0.00     0.000 HD 
HETATM    8  H2  UNL     1     -15.160   9.128  72.760  1.00  0.00     0.000 HD 
HETATM    9  C   UNL     1     -10.922   9.145  71.517  1.00  0.00    -0.364 C  
HETATM   10  H   UNL     1     -11.873   8.395  73.173  1.00  0.00     0.000 HD 
HETATM   11  O   UNL     1     -10.930   9.887  70.536  1.00  0.00    -0.281 OA 
ENDROOT
BRANCH   9  12
HETATM   12  C   UNL     1      -9.667   8.438  71.995  1.00  0.00    -0.353 C  
BRANCH  12  13
HETATM   13  C   UNL     1      -9.609   6.971  71.629  1.00  0.00    -0.160 A  
HETATM   14  C   UNL     1      -9.913   5.970  72.573  1.00  0.00    -0.176 A  
HETATM   15  C   UNL     1      -9.960   4.619  72.209  1.00  0.00    -0.235 A  
HETATM   16 CL   UNL     1     -10.259   6.343  74.227  1.00  0.00    -0.359 Cl 
HETATM   17  C   UNL     1      -9.689   4.234  70.900  1.00  0.00    -0.266 A  
HETATM   18  C   UNL     1      -9.334   5.200  69.964  1.00  0.00    -0.201 A  
HETATM   19  C   UNL     1      -9.281   6.551  70.326  1.00  0.00    -0.155 A  
HETATM   20 CL   UNL     1      -8.811   7.667  69.090  1.00  0.00    -0.139 Cl 
ENDBRANCH  12  13
ENDBRANCH   9  12
TORSDOF 2
ENDMDL
MODEL       78
REMARK 921   NORMALIZED FREE ENERGY PREDICTED BY IDOCK:   -4.58 KCAL/MOL
REMARK 922        TOTAL FREE ENERGY PREDICTED BY IDOCK:   -5.45 KCAL/MOL
REMARK 923 INTER-LIGAND FREE ENERGY PREDICTED BY IDOCK:   -5.16 KCAL/MOL
REMARK 924 INTRA-LIGAND FREE ENERGY PREDICTED BY IDOCK:   -0.28 KCAL/MOL
REMARK 927      BINDING AFFINITY PREDICTED BY RF-SCORE:    0.00 PKD
ROOT
HETATM    1  N   UNL     1     -10.596  10.274  66.481  1.00  0.00    -0.175 NA 
HETATM    2  C   UNL     1     -11.191  11.057  67.399  1.00  0.00    -0.285 C  
HETATM    3  H2  UNL     1     -10.730  10.501  65.495  1.00  0.00     0.000 HD 
HETATM    4  H1  UNL     1     -10.019   9.466  66.715  1.00  0.00     0.000 HD 
HETATM    5  N   UNL     1     -11.916  12.073  67.105  1.00  0.00    -0.598 NA 
HETATM    6  N   UNL     1     -11.056  10.807  68.730  1.00  0.00    -0.238 N  
HETATM    7  H1  UNL     1     -12.367  12.667  67.801  1.00  0.00     0.000 HD 
HETATM    8  H2  UNL     1     -12.050  12.300  66.120  1.00  0.00     0.000 HD 
HETATM    9  C   UNL     1     -10.301   9.810  69.320  1.00  0.00    -0.215 C  
HETATM   10  H   UNL     1     -11.569  11.423  69.362  1.00  0.00     0.000 HD 
HETATM   11  O   UNL     1      -9.486   9.119  68.711  1.00  0.00    -0.145 OA 
ENDROOT
BRANCH   9  12
HETATM   12  C   UNL     1     -10.553   9.653  70.808  1.00  0.00    -0.392 C  
BRANCH  12  13
HETATM   13  C   UNL     1     -11.874   8.996  71.143  1.00  0.00    -0.362 A  
HETATM   14  C   UNL     1     -12.041   7.600  71.046  1.00  0.00    -0.258 A  
HETATM   15  C   UNL     1     -13.228   6.981  71.454  1.00  0.00    -0.352 A  
HETATM   16 CL   UNL     1     -10.795   6.568  70.435  1.00  0.00    -0.302 Cl 
HETATM   17  C   UNL     1     -14.281   7.740  71.953  1.00  0.00    -0.502 A  
HETATM   18  C   UNL     1     -14.159   9.125  72.007  1.00  0.00    -0.380 A  
HETATM   19  C   UNL     1     -12.975   9.749  71.595  1.00  0.00    -0.419 A  
HETATM   20 CL   UNL     1     -12.935  11.475  71.687  1.00  0.00    -0.543 Cl 
ENDBRANCH  12  13
ENDBRANCH   9  12
TORSDOF 2
ENDMDL
MODEL       79
REMARK 921   NORMALIZED FREE ENERGY PREDICTED BY IDOCK:   -4.58 KCAL/MOL
REMARK 922        TOTAL FREE ENERGY PREDICTED BY IDOCK:   -5.45 KCAL/MOL
REMARK 923 INTER-LIGAND FREE ENERGY PREDICTED BY IDOCK:   -5.14 KCAL/MOL
REMARK 924 INTRA-LIGAND FREE ENERGY PREDICTED BY IDOCK:   -0.31 KCAL/MOL
REMARK 927      BINDING AFFINITY PREDICTED BY RF-SCORE:    0.00 PKD
ROOT
HETATM    1  N   UNL     1     -10.148  11.052  69.578  1.00  0.00    -0.441 NA 
HETATM    2  C   UNL     1     -11.308  10.483  69.201  1.00  0.00    -0.257 C  
HETATM    3  H2  UNL     1      -9.837  11.886  69.080  1.00  0.00     0.000 HD 
HETATM    4  H1  UNL     1      -9.563  10.696  70.334  1.00  0.00     0.000 HD 
HETATM    5  N   UNL     1     -12.044  10.930  68.251  1.00  0.00    -0.810 NA 
HETATM    6  N   UNL     1     -11.777   9.366  69.821  1.00  0.00    -0.428 N  
HETATM    7  H1  UNL     1     -12.922  10.499  67.966  1.00  0.00     0.000 HD 
HETATM    8  H2  UNL     1     -11.733  11.765  67.753  1.00  0.00     0.000 HD 
HETATM    9  C   UNL     1     -11.209   8.706  70.896  1.00  0.00    -0.267 C  
HETATM   10  H   UNL     1     -12.643   8.972  69.453  1.00  0.00     0.000 HD 
HETATM   11  O   UNL     1     -10.282   9.160  71.564  1.00  0.00    -0.323 OA 
ENDROOT
BRANCH   9  12
HETATM   12  C   UNL     1     -11.849   7.363  71.194  1.00  0.00    -0.330 C  
BRANCH  12  13
HETATM   13  C   UNL     1     -10.903   6.188  71.071  1.00  0.00    -0.338 A  
HETATM   14  C   UNL     1     -10.334   5.585  72.210  1.00  0.00    -0.210 A  
HETATM   15  C   UNL     1      -9.543   4.436  72.104  1.00  0.00    -0.206 A  
HETATM   16 CL   UNL     1     -10.586   6.213  73.802  1.00  0.00    -0.278 Cl 
HETATM   17  C   UNL     1      -9.288   3.871  70.859  1.00  0.00    -0.222 A  
HETATM   18  C   UNL     1      -9.795   4.480  69.716  1.00  0.00    -0.295 A  
HETATM   19  C   UNL     1     -10.582   5.633  69.817  1.00  0.00    -0.329 A  
HETATM   20 CL   UNL     1     -11.147   6.319  68.334  1.00  0.00    -0.407 Cl 
ENDBRANCH  12  13
ENDBRANCH   9  12
TORSDOF 2
ENDMDL
MODEL       80
REMARK 921   NORMALIZED FREE ENERGY PREDICTED BY IDOCK:   -4.58 KCAL/MOL
REMARK 922        TOTAL FREE ENERGY PREDICTED BY IDOCK:   -5.45 KCAL/MOL
REMARK 923 INTER-LIGAND FREE ENERGY PREDICTED BY IDOCK:   -5.25 KCAL/MOL
REMARK 924 INTRA-LIGAND FREE ENERGY PREDICTED BY IDOCK:   -0.20 KCAL/MOL
REMARK 927      BINDING AFFINITY PREDICTED BY RF-SCORE:    0.00 PKD
ROOT
HETATM    1  N   UNL     1     -11.305  15.026  71.402  1.00  0.00    -0.531 NA 
HETATM    2  C   UNL     1     -12.236  15.111  70.433  1.00  0.00    -0.344 C  
HETATM    3  H2  UNL     1     -11.548  14.532  72.260  1.00  0.00     0.000 HD 
HETATM    4  H1  UNL     1     -10.371  15.429  71.325  1.00  0.00     0.000 HD 
HETATM    5  N   UNL     1     -13.411  14.605  70.529  1.00  0.00    -0.543 NA 
HETATM    6  N   UNL     1     -11.978  15.760  69.265  1.00  0.00    -0.465 N  
HETATM    7  H1  UNL     1     -14.115  14.669  69.795  1.00  0.00     0.000 HD 
HETATM    8  H2  UNL     1     -13.653  14.110  71.388  1.00  0.00     0.000 HD 
HETATM    9  C   UNL     1     -10.789  16.354  68.884  1.00  0.00    -0.334 C  
HETATM   10  H   UNL     1     -12.747  15.814  68.597  1.00  0.00     0.000 HD 
HETATM   11  O   UNL     1      -9.728  16.209  69.490  1.00  0.00    -0.244 OA 
ENDROOT
BRANCH   9  12
HETATM   12  C   UNL     1     -10.902  17.197  67.628  1.00  0.00    -0.241 C  
BRANCH  12  13
HETATM   13  C   UNL     1      -9.594  17.808  67.175  1.00  0.00    -0.276 A  
HETATM   14  C   UNL     1      -8.640  17.050  66.466  1.00  0.00    -0.270 A  
HETATM   15  C   UNL     1      -7.477  17.640  65.956  1.00  0.00    -0.282 A  
HETATM   16 CL   UNL     1      -8.850  15.359  66.168  1.00  0.00    -0.310 Cl 
HETATM   17  C   UNL     1      -7.231  18.994  66.157  1.00  0.00    -0.283 A  
HETATM   18  C   UNL     1      -8.132  19.750  66.900  1.00  0.00    -0.328 A  
HETATM   19  C   UNL     1      -9.293  19.162  67.416  1.00  0.00    -0.304 A  
HETATM   20 CL   UNL     1     -10.336  20.187  68.340  1.00  0.00    -0.492 Cl 
ENDBRANCH  12  13
ENDBRANCH   9  12
TORSDOF 2
ENDMDL
MODEL       81
REMARK 921   NORMALIZED FREE ENERGY PREDICTED BY IDOCK:   -4.57 KCAL/MOL
REMARK 922        TOTAL FREE ENERGY PREDICTED BY IDOCK:   -5.45 KCAL/MOL
REMARK 923 INTER-LIGAND FREE ENERGY PREDICTED BY IDOCK:   -5.22 KCAL/MOL
REMARK 924 INTRA-LIGAND FREE ENERGY PREDICTED BY IDOCK:   -0.23 KCAL/MOL
REMARK 927      BINDING AFFINITY PREDICTED BY RF-SCORE:    0.00 PKD
ROOT
HETATM    1  N   UNL     1      -9.767  20.527  67.155  1.00  0.00    -0.531 NA 
HETATM    2  C   UNL     1      -9.739  19.563  68.095  1.00  0.00    -0.388 C  
HETATM    3  H2  UNL     1     -10.170  21.430  67.404  1.00  0.00     0.000 HD 
HETATM    4  H1  UNL     1      -9.407  20.404  66.209  1.00  0.00     0.000 HD 
HETATM    5  N   UNL     1     -10.191  19.718  69.285  1.00  0.00    -0.621 NA 
HETATM    6  N   UNL     1      -9.219  18.335  67.827  1.00  0.00    -0.267 N  
HETATM    7  H1  UNL     1     -10.170  18.988  69.997  1.00  0.00     0.000 HD 
HETATM    8  H2  UNL     1     -10.594  20.621  69.534  1.00  0.00     0.000 HD 
HETATM    9  C   UNL     1      -8.629  17.917  66.648  1.00  0.00    -0.262 C  
HETATM   10  H   UNL     1      -9.269  17.647  68.578  1.00  0.00     0.000 HD 
HETATM   11  O   UNL     1      -8.325  18.675  65.729  1.00  0.00    -0.462 OA 
ENDROOT
BRANCH   9  12
HETATM   12  C   UNL     1      -8.369  16.423  66.592  1.00  0.00    -0.305 C  
BRANCH  12  13
HETATM   13  C   UNL     1      -9.493  15.580  67.155  1.00  0.00    -0.223 A  
HETATM   14  C   UNL     1      -9.421  15.041  68.455  1.00  0.00    -0.203 A  
HETATM   15  C   UNL     1     -10.502  14.350  69.015  1.00  0.00    -0.227 A  
HETATM   16 CL   UNL     1      -8.010  15.209  69.441  1.00  0.00    -0.213 Cl 
HETATM   17  C   UNL     1     -11.672  14.166  68.286  1.00  0.00    -0.383 A  
HETATM   18  C   UNL     1     -11.746  14.643  66.981  1.00  0.00    -0.379 A  
HETATM   19  C   UNL     1     -10.665  15.330  66.416  1.00  0.00    -0.318 A  
HETATM   20 CL   UNL     1     -10.855  15.865  64.782  1.00  0.00    -0.434 Cl 
ENDBRANCH  12  13
ENDBRANCH   9  12
TORSDOF 2
ENDMDL
MODEL       82
REMARK 921   NORMALIZED FREE ENERGY PREDICTED BY IDOCK:   -4.56 KCAL/MOL
REMARK 922        TOTAL FREE ENERGY PREDICTED BY IDOCK:   -5.43 KCAL/MOL
REMARK 923 INTER-LIGAND FREE ENERGY PREDICTED BY IDOCK:   -5.10 KCAL/MOL
REMARK 924 INTRA-LIGAND FREE ENERGY PREDICTED BY IDOCK:   -0.33 KCAL/MOL
REMARK 927      BINDING AFFINITY PREDICTED BY RF-SCORE:    0.00 PKD
ROOT
HETATM    1  N   UNL     1     -10.262   8.348  72.052  1.00  0.00    -0.265 NA 
HETATM    2  C   UNL     1     -11.580   8.428  71.793  1.00  0.00    -0.308 C  
HETATM    3  H2  UNL     1      -9.944   7.646  72.721  1.00  0.00     0.000 HD 
HETATM    4  H1  UNL     1      -9.562   8.950  71.618  1.00  0.00     0.000 HD 
HETATM    5  N   UNL     1     -12.459   7.671  72.339  1.00  0.00    -0.528 NA 
HETATM    6  N   UNL     1     -12.069   9.345  70.915  1.00  0.00    -0.381 N  
HETATM    7  H1  UNL     1     -13.458   7.731  72.142  1.00  0.00     0.000 HD 
HETATM    8  H2  UNL     1     -12.142   6.969  73.008  1.00  0.00     0.000 HD 
HETATM    9  C   UNL     1     -11.344  10.248  70.159  1.00  0.00    -0.316 C  
HETATM   10  H   UNL     1     -13.083   9.368  70.801  1.00  0.00     0.000 HD 
HETATM   11  O   UNL     1     -10.120  10.214  70.042  1.00  0.00    -0.247 OA 
ENDROOT
BRANCH   9  12
HETATM   12  C   UNL     1     -12.201  11.288  69.462  1.00  0.00    -0.325 C  
BRANCH  12  13
HETATM   13  C   UNL     1     -11.864  12.715  69.835  1.00  0.00    -0.364 A  
HETATM   14  C   UNL     1     -11.069  13.521  68.995  1.00  0.00    -0.250 A  
HETATM   15  C   UNL     1     -10.842  14.871  69.287  1.00  0.00    -0.272 A  
HETATM   16 CL   UNL     1     -10.339  12.903  67.553  1.00  0.00    -0.222 Cl 
HETATM   17  C   UNL     1     -11.389  15.444  70.430  1.00  0.00    -0.350 A  
HETATM   18  C   UNL     1     -12.133  14.654  71.301  1.00  0.00    -0.410 A  
HETATM   19  C   UNL     1     -12.357  13.302  71.015  1.00  0.00    -0.291 A  
HETATM   20 CL   UNL     1     -13.279  12.408  72.173  1.00  0.00    -0.572 Cl 
ENDBRANCH  12  13
ENDBRANCH   9  12
TORSDOF 2
ENDMDL
MODEL       83
REMARK 921   NORMALIZED FREE ENERGY PREDICTED BY IDOCK:   -4.56 KCAL/MOL
REMARK 922        TOTAL FREE ENERGY PREDICTED BY IDOCK:   -5.43 KCAL/MOL
REMARK 923 INTER-LIGAND FREE ENERGY PREDICTED BY IDOCK:   -5.16 KCAL/MOL
REMARK 924 INTRA-LIGAND FREE ENERGY PREDICTED BY IDOCK:   -0.27 KCAL/MOL
REMARK 927      BINDING AFFINITY PREDICTED BY RF-SCORE:    0.00 PKD
ROOT
HETATM    1  N   UNL     1     -12.482  12.273  70.704  1.00  0.00    -0.285 NA 
HETATM    2  C   UNL     1     -11.824  13.312  70.156  1.00  0.00    -0.263 C  
HETATM    3  H2  UNL     1     -12.878  12.392  71.637  1.00  0.00     0.000 HD 
HETATM    4  H1  UNL     1     -12.605  11.373  70.240  1.00  0.00     0.000 HD 
HETATM    5  N   UNL     1     -11.669  14.443  70.740  1.00  0.00    -0.452 NA 
HETATM    6  N   UNL     1     -11.268  13.217  68.918  1.00  0.00    -0.265 N  
HETATM    7  H1  UNL     1     -11.171  15.229  70.325  1.00  0.00     0.000 HD 
HETATM    8  H2  UNL     1     -12.065  14.562  71.673  1.00  0.00     0.000 HD 
HETATM    9  C   UNL     1     -11.324  12.136  68.057  1.00  0.00    -0.295 C  
HETATM   10  H   UNL     1     -10.754  14.034  68.588  1.00  0.00     0.000 HD 
HETATM   11  O   UNL     1     -12.057  11.163  68.228  1.00  0.00    -0.620 OA 
ENDROOT
BRANCH   9  12
HETATM   12  C   UNL     1     -10.403  12.262  66.858  1.00  0.00    -0.236 C  
BRANCH  12  13
HETATM   13  C   UNL     1     -10.570  13.552  66.085  1.00  0.00    -0.290 A  
HETATM   14  C   UNL     1     -11.653  13.739  65.202  1.00  0.00    -0.331 A  
HETATM   15  C   UNL     1     -11.867  14.967  64.566  1.00  0.00    -0.377 A  
HETATM   16 CL   UNL     1     -12.786  12.477  64.860  1.00  0.00    -0.506 Cl 
HETATM   17  C   UNL     1     -10.998  16.031  64.783  1.00  0.00    -0.373 A  
HETATM   18  C   UNL     1      -9.893  15.854  65.609  1.00  0.00    -0.337 A  
HETATM   19  C   UNL     1      -9.672  14.625  66.243  1.00  0.00    -0.307 A  
HETATM   20 CL   UNL     1      -8.259  14.506  67.233  1.00  0.00    -0.222 Cl 
ENDBRANCH  12  13
ENDBRANCH   9  12
TORSDOF 2
ENDMDL
MODEL       84
REMARK 921   NORMALIZED FREE ENERGY PREDICTED BY IDOCK:   -4.55 KCAL/MOL
REMARK 922        TOTAL FREE ENERGY PREDICTED BY IDOCK:   -5.42 KCAL/MOL
REMARK 923 INTER-LIGAND FREE ENERGY PREDICTED BY IDOCK:   -5.06 KCAL/MOL
REMARK 924 INTRA-LIGAND FREE ENERGY PREDICTED BY IDOCK:   -0.36 KCAL/MOL
REMARK 927      BINDING AFFINITY PREDICTED BY RF-SCORE:    0.00 PKD
ROOT
HETATM    1  N   UNL     1     -13.308  14.024  65.273  1.00  0.00    -0.580 NA 
HETATM    2  C   UNL     1     -12.245  13.550  64.597  1.00  0.00    -0.406 C  
HETATM    3  H2  UNL     1     -13.981  14.601  64.770  1.00  0.00     0.000 HD 
HETATM    4  H1  UNL     1     -13.477  13.838  66.262  1.00  0.00     0.000 HD 
HETATM    5  N   UNL     1     -12.032  13.783  63.354  1.00  0.00    -0.830 NA 
HETATM    6  N   UNL     1     -11.308  12.778  65.211  1.00  0.00    -0.295 N  
HETATM    7  H1  UNL     1     -11.227  13.424  62.841  1.00  0.00     0.000 HD 
HETATM    8  H2  UNL     1     -12.705  14.361  62.850  1.00  0.00     0.000 HD 
HETATM    9  C   UNL     1     -11.315  12.340  66.522  1.00  0.00    -0.351 C  
HETATM   10  H   UNL     1     -10.513  12.489  64.640  1.00  0.00     0.000 HD 
HETATM   11  O   UNL     1     -12.285  12.442  67.272  1.00  0.00    -0.478 OA 
ENDROOT
BRANCH   9  12
HETATM   12  C   UNL     1     -10.011  11.699  66.959  1.00  0.00    -0.226 C  
BRANCH  12  13
HETATM   13  C   UNL     1     -10.113  10.213  67.225  1.00  0.00    -0.254 A  
HETATM   14  C   UNL     1     -10.421   9.721  68.510  1.00  0.00    -0.210 A  
HETATM   15  C   UNL     1     -10.617   8.353  68.735  1.00  0.00    -0.154 A  
HETATM   16 CL   UNL     1     -10.587  10.767  69.877  1.00  0.00    -0.204 Cl 
HETATM   17  C   UNL     1     -10.496   7.445  67.689  1.00  0.00    -0.310 A  
HETATM   18  C   UNL     1     -10.140   7.902  66.424  1.00  0.00    -0.149 A  
HETATM   19  C   UNL     1      -9.937   9.269  66.196  1.00  0.00    -0.277 A  
HETATM   20 CL   UNL     1      -9.481   9.728  64.593  1.00  0.00    -0.336 Cl 
ENDBRANCH  12  13
ENDBRANCH   9  12
TORSDOF 2
ENDMDL
MODEL       85
REMARK 921   NORMALIZED FREE ENERGY PREDICTED BY IDOCK:   -4.54 KCAL/MOL
REMARK 922        TOTAL FREE ENERGY PREDICTED BY IDOCK:   -5.41 KCAL/MOL
REMARK 923 INTER-LIGAND FREE ENERGY PREDICTED BY IDOCK:   -5.21 KCAL/MOL
REMARK 924 INTRA-LIGAND FREE ENERGY PREDICTED BY IDOCK:   -0.20 KCAL/MOL
REMARK 927      BINDING AFFINITY PREDICTED BY RF-SCORE:    0.00 PKD
ROOT
HETATM    1  N   UNL     1      -9.826   7.984  66.176  1.00  0.00    -0.467 NA 
HETATM    2  C   UNL     1     -10.703   7.666  67.146  1.00  0.00    -0.290 C  
HETATM    3  H2  UNL     1      -9.659   7.302  65.436  1.00  0.00     0.000 HD 
HETATM    4  H1  UNL     1      -9.319   8.868  66.140  1.00  0.00     0.000 HD 
HETATM    5  N   UNL     1     -11.341   6.554  67.191  1.00  0.00    -0.771 NA 
HETATM    6  N   UNL     1     -10.968   8.529  68.164  1.00  0.00    -0.457 N  
HETATM    7  H1  UNL     1     -12.005   6.314  67.926  1.00  0.00     0.000 HD 
HETATM    8  H2  UNL     1     -11.173   5.872  66.451  1.00  0.00     0.000 HD 
HETATM    9  C   UNL     1     -10.458   9.803  68.334  1.00  0.00    -0.218 C  
HETATM   10  H   UNL     1     -11.616   8.200  68.881  1.00  0.00     0.000 HD 
HETATM   11  O   UNL     1      -9.825  10.406  67.470  1.00  0.00    -0.166 OA 
ENDROOT
BRANCH   9  12
HETATM   12  C   UNL     1     -10.765  10.407  69.692  1.00  0.00    -0.304 C  
BRANCH  12  13
HETATM   13  C   UNL     1     -10.642   9.432  70.843  1.00  0.00    -0.390 A  
HETATM   14  C   UNL     1      -9.382   8.992  71.296  1.00  0.00    -0.254 A  
HETATM   15  C   UNL     1      -9.262   8.173  72.425  1.00  0.00    -0.292 A  
HETATM   16 CL   UNL     1      -7.913   9.442  70.501  1.00  0.00    -0.184 Cl 
HETATM   17  C   UNL     1     -10.396   7.762  73.117  1.00  0.00    -0.403 A  
HETATM   18  C   UNL     1     -11.653   8.140  72.657  1.00  0.00    -0.441 A  
HETATM   19  C   UNL     1     -11.777   8.955  71.525  1.00  0.00    -0.324 A  
HETATM   20 CL   UNL     1     -13.386   9.352  71.028  1.00  0.00    -0.251 Cl 
ENDBRANCH  12  13
ENDBRANCH   9  12
TORSDOF 2
ENDMDL
MODEL       86
REMARK 921   NORMALIZED FREE ENERGY PREDICTED BY IDOCK:   -4.53 KCAL/MOL
REMARK 922        TOTAL FREE ENERGY PREDICTED BY IDOCK:   -5.40 KCAL/MOL
REMARK 923 INTER-LIGAND FREE ENERGY PREDICTED BY IDOCK:   -5.48 KCAL/MOL
REMARK 924 INTRA-LIGAND FREE ENERGY PREDICTED BY IDOCK:    0.09 KCAL/MOL
REMARK 927      BINDING AFFINITY PREDICTED BY RF-SCORE:    0.00 PKD
ROOT
HETATM    1  N   UNL     1     -13.166  12.523  64.757  1.00  0.00    -0.740 NA 
HETATM    2  C   UNL     1     -12.358  13.573  64.997  1.00  0.00    -0.428 C  
HETATM    3  H2  UNL     1     -13.815  12.586  63.973  1.00  0.00     0.000 HD 
HETATM    4  H1  UNL     1     -13.164  11.670  65.315  1.00  0.00     0.000 HD 
HETATM    5  N   UNL     1     -12.360  14.647  64.296  1.00  0.00    -0.748 NA 
HETATM    6  N   UNL     1     -11.472  13.556  66.030  1.00  0.00    -0.317 N  
HETATM    7  H1  UNL     1     -11.748  15.442  64.478  1.00  0.00     0.000 HD 
HETATM    8  H2  UNL     1     -13.009  14.709  63.512  1.00  0.00     0.000 HD 
HETATM    9  C   UNL     1     -11.233  12.516  66.909  1.00  0.00    -0.303 C  
HETATM   10  H   UNL     1     -10.922  14.404  66.170  1.00  0.00     0.000 HD 
HETATM   11  O   UNL     1     -11.671  11.377  66.755  1.00  0.00    -0.474 OA 
ENDROOT
BRANCH   9  12
HETATM   12  C   UNL     1     -10.359  12.901  68.088  1.00  0.00    -0.243 C  
BRANCH  12  13
HETATM   13  C   UNL     1     -10.428  14.368  68.453  1.00  0.00    -0.246 A  
HETATM   14  C   UNL     1     -11.281  14.826  69.478  1.00  0.00    -0.278 A  
HETATM   15  C   UNL     1     -11.270  16.165  69.887  1.00  0.00    -0.349 A  
HETATM   16 CL   UNL     1     -12.377  13.770  70.300  1.00  0.00    -0.410 Cl 
HETATM   17  C   UNL     1     -10.421  17.080  69.273  1.00  0.00    -0.293 A  
HETATM   18  C   UNL     1      -9.610  16.662  68.224  1.00  0.00    -0.233 A  
HETATM   19  C   UNL     1      -9.622  15.325  67.808  1.00  0.00    -0.206 A  
HETATM   20 CL   UNL     1      -8.588  14.915  66.484  1.00  0.00    -0.215 Cl 
ENDBRANCH  12  13
ENDBRANCH   9  12
TORSDOF 2
ENDMDL
MODEL       87
REMARK 921   NORMALIZED FREE ENERGY PREDICTED BY IDOCK:   -4.52 KCAL/MOL
REMARK 922        TOTAL FREE ENERGY PREDICTED BY IDOCK:   -5.39 KCAL/MOL
REMARK 923 INTER-LIGAND FREE ENERGY PREDICTED BY IDOCK:   -5.15 KCAL/MOL
REMARK 924 INTRA-LIGAND FREE ENERGY PREDICTED BY IDOCK:   -0.24 KCAL/MOL
REMARK 927      BINDING AFFINITY PREDICTED BY RF-SCORE:    0.00 PKD
ROOT
HETATM    1  N   UNL     1     -12.167  14.901  72.231  1.00  0.00    -0.344 NA 
HETATM    2  C   UNL     1     -11.670  14.630  71.009  1.00  0.00    -0.277 C  
HETATM    3  H2  UNL     1     -11.991  15.824  72.628  1.00  0.00     0.000 HD 
HETATM    4  H1  UNL     1     -12.709  14.236  72.781  1.00  0.00     0.000 HD 
HETATM    5  N   UNL     1     -10.989  15.468  70.317  1.00  0.00    -0.311 NA 
HETATM    6  N   UNL     1     -11.865  13.417  70.425  1.00  0.00    -0.527 N  
HETATM    7  H1  UNL     1     -10.613  15.262  69.392  1.00  0.00     0.000 HD 
HETATM    8  H2  UNL     1     -10.813  16.391  70.714  1.00  0.00     0.000 HD 
HETATM    9  C   UNL     1     -12.594  12.355  70.927  1.00  0.00    -0.246 C  
HETATM   10  H   UNL     1     -11.425  13.276  69.515  1.00  0.00     0.000 HD 
HETATM   11  O   UNL     1     -13.332  12.436  71.908  1.00  0.00    -0.468 OA 
ENDROOT
BRANCH   9  12
HETATM   12  C   UNL     1     -12.417  11.068  70.143  1.00  0.00    -0.344 C  
BRANCH  12  13
HETATM   13  C   UNL     1     -11.366  10.139  70.712  1.00  0.00    -0.436 A  
HETATM   14  C   UNL     1     -11.656   9.284  71.794  1.00  0.00    -0.388 A  
HETATM   15  C   UNL     1     -10.718   8.351  72.254  1.00  0.00    -0.417 A  
HETATM   16 CL   UNL     1     -13.181   9.320  72.609  1.00  0.00    -0.426 Cl 
HETATM   17  C   UNL     1      -9.465   8.262  71.656  1.00  0.00    -0.258 A  
HETATM   18  C   UNL     1      -9.138   9.133  70.622  1.00  0.00    -0.307 A  
HETATM   19  C   UNL     1     -10.071  10.071  70.163  1.00  0.00    -0.211 A  
HETATM   20 CL   UNL     1      -9.556  11.116  68.885  1.00  0.00    -0.188 Cl 
ENDBRANCH  12  13
ENDBRANCH   9  12
TORSDOF 2
ENDMDL
MODEL       88
REMARK 921   NORMALIZED FREE ENERGY PREDICTED BY IDOCK:   -4.50 KCAL/MOL
REMARK 922        TOTAL FREE ENERGY PREDICTED BY IDOCK:   -5.37 KCAL/MOL
REMARK 923 INTER-LIGAND FREE ENERGY PREDICTED BY IDOCK:   -5.08 KCAL/MOL
REMARK 924 INTRA-LIGAND FREE ENERGY PREDICTED BY IDOCK:   -0.29 KCAL/MOL
REMARK 927      BINDING AFFINITY PREDICTED BY RF-SCORE:    0.00 PKD
ROOT
HETATM    1  N   UNL     1     -12.967   9.967  70.462  1.00  0.00    -0.583 NA 
HETATM    2  C   UNL     1     -11.654  10.024  70.753  1.00  0.00    -0.360 C  
HETATM    3  H2  UNL     1     -13.564   9.375  71.041  1.00  0.00     0.000 HD 
HETATM    4  H1  UNL     1     -13.399  10.483  69.696  1.00  0.00     0.000 HD 
HETATM    5  N   UNL     1     -11.111   9.375  71.717  1.00  0.00    -0.342 NA 
HETATM    6  N   UNL     1     -10.804  10.790  70.018  1.00  0.00    -0.457 N  
HETATM    7  H1  UNL     1     -10.117   9.418  71.937  1.00  0.00     0.000 HD 
HETATM    8  H2  UNL     1     -11.707   8.783  72.295  1.00  0.00     0.000 HD 
HETATM    9  C   UNL     1     -11.129  11.618  68.959  1.00  0.00    -0.241 C  
HETATM   10  H   UNL     1      -9.818  10.750  70.276  1.00  0.00     0.000 HD 
HETATM   11  O   UNL     1     -12.282  11.918  68.654  1.00  0.00    -0.358 OA 
ENDROOT
BRANCH   9  12
HETATM   12  C   UNL     1      -9.923  12.147  68.205  1.00  0.00    -0.201 C  
BRANCH  12  13
HETATM   13  C   UNL     1     -10.270  13.048  67.040  1.00  0.00    -0.245 A  
HETATM   14  C   UNL     1     -10.421  14.439  67.212  1.00  0.00    -0.269 A  
HETATM   15  C   UNL     1     -10.639  15.286  66.119  1.00  0.00    -0.318 A  
HETATM   16 CL   UNL     1     -10.332  15.185  68.770  1.00  0.00    -0.229 Cl 
HETATM   17  C   UNL     1     -10.729  14.764  64.833  1.00  0.00    -0.438 A  
HETATM   18  C   UNL     1     -10.637  13.389  64.646  1.00  0.00    -0.431 A  
HETATM   19  C   UNL     1     -10.424  12.538  65.737  1.00  0.00    -0.271 A  
HETATM   20 CL   UNL     1     -10.342  10.844  65.395  1.00  0.00    -0.333 Cl 
ENDBRANCH  12  13
ENDBRANCH   9  12
TORSDOF 2
ENDMDL
MODEL       89
REMARK 921   NORMALIZED FREE ENERGY PREDICTED BY IDOCK:   -4.50 KCAL/MOL
REMARK 922        TOTAL FREE ENERGY PREDICTED BY IDOCK:   -5.37 KCAL/MOL
REMARK 923 INTER-LIGAND FREE ENERGY PREDICTED BY IDOCK:   -5.09 KCAL/MOL
REMARK 924 INTRA-LIGAND FREE ENERGY PREDICTED BY IDOCK:   -0.28 KCAL/MOL
REMARK 927      BINDING AFFINITY PREDICTED BY RF-SCORE:    0.00 PKD
ROOT
HETATM    1  N   UNL     1      -8.099  18.242  65.763  1.00  0.00    -0.488 NA 
HETATM    2  C   UNL     1      -7.707  17.055  66.262  1.00  0.00    -0.311 C  
HETATM    3  H2  UNL     1      -7.391  18.961  65.617  1.00  0.00     0.000 HD 
HETATM    4  H1  UNL     1      -9.066  18.463  65.523  1.00  0.00     0.000 HD 
HETATM    5  N   UNL     1      -6.492  16.777  66.563  1.00  0.00    -0.255 NA 
HETATM    6  N   UNL     1      -8.603  16.056  66.484  1.00  0.00    -0.280 N  
HETATM    7  H1  UNL     1      -6.195  15.878  66.941  1.00  0.00     0.000 HD 
HETATM    8  H2  UNL     1      -5.783  17.496  66.417  1.00  0.00     0.000 HD 
HETATM    9  C   UNL     1      -9.958  16.072  66.209  1.00  0.00    -0.310 C  
HETATM   10  H   UNL     1      -8.235  15.200  66.899  1.00  0.00     0.000 HD 
HETATM   11  O   UNL     1     -10.510  16.945  65.541  1.00  0.00    -0.560 OA 
ENDROOT
BRANCH   9  12
HETATM   12  C   UNL     1     -10.714  14.894  66.795  1.00  0.00    -0.312 C  
BRANCH  12  13
HETATM   13  C   UNL     1     -10.636  13.634  65.959  1.00  0.00    -0.290 A  
HETATM   14  C   UNL     1      -9.767  12.580  66.306  1.00  0.00    -0.254 A  
HETATM   15  C   UNL     1      -9.769  11.374  65.595  1.00  0.00    -0.263 A  
HETATM   16 CL   UNL     1      -8.659  12.703  67.629  1.00  0.00    -0.168 Cl 
HETATM   17  C   UNL     1     -10.626  11.198  64.514  1.00  0.00    -0.397 A  
HETATM   18  C   UNL     1     -11.455  12.243  64.121  1.00  0.00    -0.453 A  
HETATM   19  C   UNL     1     -11.452  13.453  64.826  1.00  0.00    -0.336 A  
HETATM   20 CL   UNL     1     -12.507  14.693  64.243  1.00  0.00    -0.412 Cl 
ENDBRANCH  12  13
ENDBRANCH   9  12
TORSDOF 2
ENDMDL
MODEL       90
REMARK 921   NORMALIZED FREE ENERGY PREDICTED BY IDOCK:   -4.50 KCAL/MOL
REMARK 922        TOTAL FREE ENERGY PREDICTED BY IDOCK:   -5.36 KCAL/MOL
REMARK 923 INTER-LIGAND FREE ENERGY PREDICTED BY IDOCK:   -5.24 KCAL/MOL
REMARK 924 INTRA-LIGAND FREE ENERGY PREDICTED BY IDOCK:   -0.12 KCAL/MOL
REMARK 927      BINDING AFFINITY PREDICTED BY RF-SCORE:    0.00 PKD
ROOT
HETATM    1  N   UNL     1      -9.985   7.859  66.152  1.00  0.00    -0.457 NA 
HETATM    2  C   UNL     1     -10.788   7.673  67.216  1.00  0.00    -0.193 C  
HETATM    3  H2  UNL     1      -9.923   7.113  65.459  1.00  0.00     0.000 HD 
HETATM    4  H1  UNL     1      -9.435   8.705  66.000  1.00  0.00     0.000 HD 
HETATM    5  N   UNL     1     -11.480   6.609  67.407  1.00  0.00    -0.740 NA 
HETATM    6  N   UNL     1     -10.912   8.626  68.179  1.00  0.00    -0.460 N  
HETATM    7  H1  UNL     1     -12.088   6.468  68.213  1.00  0.00     0.000 HD 
HETATM    8  H2  UNL     1     -11.417   5.864  66.714  1.00  0.00     0.000 HD 
HETATM    9  C   UNL     1     -10.319   9.875  68.199  1.00  0.00    -0.195 C  
HETATM   10  H   UNL     1     -11.510   8.394  68.973  1.00  0.00     0.000 HD 
HETATM   11  O   UNL     1      -9.733  10.369  67.238  1.00  0.00    -0.160 OA 
ENDROOT
BRANCH   9  12
HETATM   12  C   UNL     1     -10.469  10.600  69.524  1.00  0.00    -0.236 C  
BRANCH  12  13
HETATM   13  C   UNL     1     -10.640   9.682  70.714  1.00  0.00    -0.392 A  
HETATM   14  C   UNL     1     -11.895   9.516  71.334  1.00  0.00    -0.389 A  
HETATM   15  C   UNL     1     -12.077   8.590  72.368  1.00  0.00    -0.436 A  
HETATM   16 CL   UNL     1     -13.284  10.428  70.853  1.00  0.00    -0.404 Cl 
HETATM   17  C   UNL     1     -11.010   7.820  72.817  1.00  0.00    -0.447 A  
HETATM   18  C   UNL     1      -9.750   8.005  72.256  1.00  0.00    -0.294 A  
HETATM   19  C   UNL     1      -9.563   8.934  71.226  1.00  0.00    -0.278 A  
HETATM   20 CL   UNL     1      -7.954   9.098  70.612  1.00  0.00    -0.155 Cl 
ENDBRANCH  12  13
ENDBRANCH   9  12
TORSDOF 2
ENDMDL
MODEL       91
REMARK 921   NORMALIZED FREE ENERGY PREDICTED BY IDOCK:   -4.47 KCAL/MOL
REMARK 922        TOTAL FREE ENERGY PREDICTED BY IDOCK:   -5.33 KCAL/MOL
REMARK 923 INTER-LIGAND FREE ENERGY PREDICTED BY IDOCK:   -5.02 KCAL/MOL
REMARK 924 INTRA-LIGAND FREE ENERGY PREDICTED BY IDOCK:   -0.32 KCAL/MOL
REMARK 927      BINDING AFFINITY PREDICTED BY RF-SCORE:    0.00 PKD
ROOT
HETATM    1  N   UNL     1      -7.877  16.634  66.498  1.00  0.00    -0.280 NA 
HETATM    2  C   UNL     1      -9.035  17.250  66.803  1.00  0.00    -0.250 C  
HETATM    3  H2  UNL     1      -7.080  17.212  66.233  1.00  0.00     0.000 HD 
HETATM    4  H1  UNL     1      -7.753  15.622  66.518  1.00  0.00     0.000 HD 
HETATM    5  N   UNL     1      -9.190  18.523  66.778  1.00  0.00    -0.288 NA 
HETATM    6  N   UNL     1     -10.137  16.538  67.160  1.00  0.00    -0.268 N  
HETATM    7  H1  UNL     1     -10.067  18.989  67.008  1.00  0.00     0.000 HD 
HETATM    8  H2  UNL     1      -8.393  19.101  66.512  1.00  0.00     0.000 HD 
HETATM    9  C   UNL     1     -10.234  15.166  67.309  1.00  0.00    -0.243 C  
HETATM   10  H   UNL     1     -10.986  17.074  67.338  1.00  0.00     0.000 HD 
HETATM   11  O   UNL     1      -9.264  14.410  67.317  1.00  0.00    -0.193 OA 
ENDROOT
BRANCH   9  12
HETATM   12  C   UNL     1     -11.657  14.670  67.482  1.00  0.00    -0.396 C  
BRANCH  12  13
HETATM   13  C   UNL     1     -11.821  13.635  68.573  1.00  0.00    -0.406 A  
HETATM   14  C   UNL     1     -12.074  14.014  69.907  1.00  0.00    -0.345 A  
HETATM   15  C   UNL     1     -12.329  13.058  70.898  1.00  0.00    -0.376 A  
HETATM   16 CL   UNL     1     -12.100  15.672  70.400  1.00  0.00    -0.406 Cl 
HETATM   17  C   UNL     1     -12.321  11.703  70.584  1.00  0.00    -0.437 A  
HETATM   18  C   UNL     1     -12.021  11.303  69.286  1.00  0.00    -0.411 A  
HETATM   19  C   UNL     1     -11.760  12.256  68.294  1.00  0.00    -0.336 A  
HETATM   20 CL   UNL     1     -11.381  11.652  66.719  1.00  0.00    -0.380 Cl 
ENDBRANCH  12  13
ENDBRANCH   9  12
TORSDOF 2
ENDMDL
MODEL       92
REMARK 921   NORMALIZED FREE ENERGY PREDICTED BY IDOCK:   -4.46 KCAL/MOL
REMARK 922        TOTAL FREE ENERGY PREDICTED BY IDOCK:   -5.32 KCAL/MOL
REMARK 923 INTER-LIGAND FREE ENERGY PREDICTED BY IDOCK:   -4.98 KCAL/MOL
REMARK 924 INTRA-LIGAND FREE ENERGY PREDICTED BY IDOCK:   -0.34 KCAL/MOL
REMARK 927      BINDING AFFINITY PREDICTED BY RF-SCORE:    0.00 PKD
ROOT
HETATM    1  N   UNL     1      -7.194  14.353  69.555  1.00  0.00    -0.310 NA 
HETATM    2  C   UNL     1      -7.782  13.546  68.652  1.00  0.00    -0.093 C  
HETATM    3  H2  UNL     1      -6.182  14.293  69.667  1.00  0.00     0.000 HD 
HETATM    4  H1  UNL     1      -7.704  15.022  70.132  1.00  0.00     0.000 HD 
HETATM    5  N   UNL     1      -7.140  12.705  67.926  1.00  0.00    -0.099 NA 
HETATM    6  N   UNL     1      -9.128  13.572  68.456  1.00  0.00    -0.334 N  
HETATM    7  H1  UNL     1      -7.586  12.093  67.243  1.00  0.00     0.000 HD 
HETATM    8  H2  UNL     1      -6.128  12.645  68.039  1.00  0.00     0.000 HD 
HETATM    9  C   UNL     1     -10.045  14.407  69.069  1.00  0.00    -0.155 C  
HETATM   10  H   UNL     1      -9.502  12.903  67.783  1.00  0.00     0.000 HD 
HETATM   11  O   UNL     1      -9.733  15.382  69.750  1.00  0.00    -0.272 OA 
ENDROOT
BRANCH   9  12
HETATM   12  C   UNL     1     -11.489  14.022  68.809  1.00  0.00    -0.327 C  
BRANCH  12  13
HETATM   13  C   UNL     1     -12.107  13.176  69.901  1.00  0.00    -0.357 A  
HETATM   14  C   UNL     1     -12.016  11.770  69.876  1.00  0.00    -0.332 A  
HETATM   15  C   UNL     1     -12.496  10.992  70.935  1.00  0.00    -0.509 A  
HETATM   16 CL   UNL     1     -11.297  10.921  68.550  1.00  0.00    -0.337 Cl 
HETATM   17  C   UNL     1     -13.092  11.597  72.037  1.00  0.00    -0.433 A  
HETATM   18  C   UNL     1     -13.242  12.979  72.059  1.00  0.00    -0.543 A  
HETATM   19  C   UNL     1     -12.768  13.761  70.998  1.00  0.00    -0.343 A  
HETATM   20 CL   UNL     1     -13.021  15.467  71.119  1.00  0.00    -0.533 Cl 
ENDBRANCH  12  13
ENDBRANCH   9  12
TORSDOF 2
ENDMDL
MODEL       93
REMARK 921   NORMALIZED FREE ENERGY PREDICTED BY IDOCK:   -4.45 KCAL/MOL
REMARK 922        TOTAL FREE ENERGY PREDICTED BY IDOCK:   -5.31 KCAL/MOL
REMARK 923 INTER-LIGAND FREE ENERGY PREDICTED BY IDOCK:   -5.13 KCAL/MOL
REMARK 924 INTRA-LIGAND FREE ENERGY PREDICTED BY IDOCK:   -0.18 KCAL/MOL
REMARK 927      BINDING AFFINITY PREDICTED BY RF-SCORE:    0.00 PKD
ROOT
HETATM    1  N   UNL     1      -8.871  15.225  66.079  1.00  0.00    -0.439 NA 
HETATM    2  C   UNL     1     -10.134  15.027  65.656  1.00  0.00    -0.362 C  
HETATM    3  H2  UNL     1      -8.245  15.769  65.486  1.00  0.00     0.000 HD 
HETATM    4  H1  UNL     1      -8.506  14.863  66.960  1.00  0.00     0.000 HD 
HETATM    5  N   UNL     1     -10.593  15.483  64.549  1.00  0.00    -0.655 NA 
HETATM    6  N   UNL     1     -11.018  14.307  66.398  1.00  0.00    -0.307 N  
HETATM    7  H1  UNL     1     -11.549  15.333  64.229  1.00  0.00     0.000 HD 
HETATM    8  H2  UNL     1      -9.966  16.027  63.956  1.00  0.00     0.000 HD 
HETATM    9  C   UNL     1     -10.801  13.743  67.642  1.00  0.00    -0.254 C  
HETATM   10  H   UNL     1     -11.944  14.168  65.992  1.00  0.00     0.000 HD 
HETATM   11  O   UNL     1      -9.815  13.981  68.338  1.00  0.00    -0.224 OA 
ENDROOT
BRANCH   9  12
HETATM   12  C   UNL     1     -11.907  12.805  68.089  1.00  0.00    -0.372 C  
BRANCH  12  13
HETATM   13  C   UNL     1     -11.413  11.483  68.633  1.00  0.00    -0.354 A  
HETATM   14  C   UNL     1     -10.719  10.569  67.814  1.00  0.00    -0.272 A  
HETATM   15  C   UNL     1     -10.171   9.393  68.340  1.00  0.00    -0.224 A  
HETATM   16 CL   UNL     1     -10.490  10.846  66.122  1.00  0.00    -0.303 Cl 
HETATM   17  C   UNL     1     -10.316   9.094  69.691  1.00  0.00    -0.226 A  
HETATM   18  C   UNL     1     -11.043   9.955  70.507  1.00  0.00    -0.398 A  
HETATM   19  C   UNL     1     -11.597  11.129  69.983  1.00  0.00    -0.338 A  
HETATM   20 CL   UNL     1     -12.496  12.119  71.080  1.00  0.00    -0.406 Cl 
ENDBRANCH  12  13
ENDBRANCH   9  12
TORSDOF 2
ENDMDL
MODEL       94
REMARK 921   NORMALIZED FREE ENERGY PREDICTED BY IDOCK:   -4.45 KCAL/MOL
REMARK 922        TOTAL FREE ENERGY PREDICTED BY IDOCK:   -5.31 KCAL/MOL
REMARK 923 INTER-LIGAND FREE ENERGY PREDICTED BY IDOCK:   -4.98 KCAL/MOL
REMARK 924 INTRA-LIGAND FREE ENERGY PREDICTED BY IDOCK:   -0.33 KCAL/MOL
REMARK 927      BINDING AFFINITY PREDICTED BY RF-SCORE:    0.00 PKD
ROOT
HETATM    1  N   UNL     1     -10.411  10.577  69.797  1.00  0.00    -0.376 NA 
HETATM    2  C   UNL     1     -11.720  10.883  69.717  1.00  0.00    -0.338 C  
HETATM    3  H2  UNL     1     -10.131   9.820  70.421  1.00  0.00     0.000 HD 
HETATM    4  H1  UNL     1      -9.685  11.060  69.269  1.00  0.00     0.000 HD 
HETATM    5  N   UNL     1     -12.634  10.276  70.382  1.00  0.00    -0.499 NA 
HETATM    6  N   UNL     1     -12.159  11.885  68.908  1.00  0.00    -0.241 N  
HETATM    7  H1  UNL     1     -13.625  10.508  70.321  1.00  0.00     0.000 HD 
HETATM    8  H2  UNL     1     -12.354   9.519  71.005  1.00  0.00     0.000 HD 
HETATM    9  C   UNL     1     -11.399  12.665  68.056  1.00  0.00    -0.290 C  
HETATM   10  H   UNL     1     -13.160  12.081  68.932  1.00  0.00     0.000 HD 
HETATM   11  O   UNL     1     -10.226  12.427  67.776  1.00  0.00    -0.203 OA 
ENDROOT
BRANCH   9  12
HETATM   12  C   UNL     1     -12.153  13.847  67.476  1.00  0.00    -0.366 C  
BRANCH  12  13
HETATM   13  C   UNL     1     -11.454  15.176  67.663  1.00  0.00    -0.319 A  
HETATM   14  C   UNL     1     -11.493  15.854  68.899  1.00  0.00    -0.386 A  
HETATM   15  C   UNL     1     -10.763  17.030  69.105  1.00  0.00    -0.253 A  
HETATM   16 CL   UNL     1     -12.427  15.273  70.234  1.00  0.00    -0.403 Cl 
HETATM   17  C   UNL     1      -9.991  17.566  68.080  1.00  0.00    -0.310 A  
HETATM   18  C   UNL     1      -9.980  16.944  66.836  1.00  0.00    -0.279 A  
HETATM   19  C   UNL     1     -10.713  15.770  66.624  1.00  0.00    -0.287 A  
HETATM   20 CL   UNL     1     -10.644  15.088  65.036  1.00  0.00    -0.431 Cl 
ENDBRANCH  12  13
ENDBRANCH   9  12
TORSDOF 2
ENDMDL
MODEL       95
REMARK 921   NORMALIZED FREE ENERGY PREDICTED BY IDOCK:   -4.44 KCAL/MOL
REMARK 922        TOTAL FREE ENERGY PREDICTED BY IDOCK:   -5.30 KCAL/MOL
REMARK 923 INTER-LIGAND FREE ENERGY PREDICTED BY IDOCK:   -4.94 KCAL/MOL
REMARK 924 INTRA-LIGAND FREE ENERGY PREDICTED BY IDOCK:   -0.36 KCAL/MOL
REMARK 927      BINDING AFFINITY PREDICTED BY RF-SCORE:    0.00 PKD
ROOT
HETATM    1  N   UNL     1      -8.440   8.426  73.670  1.00  0.00    -0.348 NA 
HETATM    2  C   UNL     1      -9.620   7.825  73.431  1.00  0.00    -0.290 C  
HETATM    3  H2  UNL     1      -7.909   8.136  74.492  1.00  0.00     0.000 HD 
HETATM    4  H1  UNL     1      -8.046   9.154  73.075  1.00  0.00     0.000 HD 
HETATM    5  N   UNL     1     -10.115   6.908  74.179  1.00  0.00    -0.389 NA 
HETATM    6  N   UNL     1     -10.379   8.168  72.355  1.00  0.00    -0.285 N  
HETATM    7  H1  UNL     1     -11.009   6.453  73.998  1.00  0.00     0.000 HD 
HETATM    8  H2  UNL     1      -9.585   6.618  75.001  1.00  0.00     0.000 HD 
HETATM    9  C   UNL     1     -10.065   9.087  71.371  1.00  0.00    -0.329 C  
HETATM   10  H   UNL     1     -11.278   7.695  72.264  1.00  0.00     0.000 HD 
HETATM   11  O   UNL     1      -8.952   9.592  71.237  1.00  0.00    -0.234 OA 
ENDROOT
BRANCH   9  12
HETATM   12  C   UNL     1     -11.224   9.411  70.447  1.00  0.00    -0.309 C  
BRANCH  12  13
HETATM   13  C   UNL     1     -11.823  10.783  70.665  1.00  0.00    -0.460 A  
HETATM   14  C   UNL     1     -12.823  10.998  71.635  1.00  0.00    -0.435 A  
HETATM   15  C   UNL     1     -13.304  12.283  71.910  1.00  0.00    -0.431 A  
HETATM   16 CL   UNL     1     -13.507   9.698  72.550  1.00  0.00    -0.410 Cl 
HETATM   17  C   UNL     1     -12.809  13.381  71.215  1.00  0.00    -0.407 A  
HETATM   18  C   UNL     1     -11.860  13.187  70.216  1.00  0.00    -0.299 A  
HETATM   19  C   UNL     1     -11.381  11.902  69.934  1.00  0.00    -0.096 A  
HETATM   20 CL   UNL     1     -10.216  11.771  68.663  1.00  0.00    -0.221 Cl 
ENDBRANCH  12  13
ENDBRANCH   9  12
TORSDOF 2
ENDMDL
MODEL       96
REMARK 921   NORMALIZED FREE ENERGY PREDICTED BY IDOCK:   -4.43 KCAL/MOL
REMARK 922        TOTAL FREE ENERGY PREDICTED BY IDOCK:   -5.29 KCAL/MOL
REMARK 923 INTER-LIGAND FREE ENERGY PREDICTED BY IDOCK:   -5.04 KCAL/MOL
REMARK 924 INTRA-LIGAND FREE ENERGY PREDICTED BY IDOCK:   -0.25 KCAL/MOL
REMARK 927      BINDING AFFINITY PREDICTED BY RF-SCORE:    0.00 PKD
ROOT
HETATM    1  N   UNL     1     -12.981  11.467  71.543  1.00  0.00    -0.430 NA 
HETATM    2  C   UNL     1     -12.606  10.458  70.736  1.00  0.00    -0.371 C  
HETATM    3  H2  UNL     1     -13.454  11.235  72.416  1.00  0.00     0.000 HD 
HETATM    4  H1  UNL     1     -12.819  12.451  71.330  1.00  0.00     0.000 HD 
HETATM    5  N   UNL     1     -12.810   9.220  71.004  1.00  0.00    -0.511 NA 
HETATM    6  N   UNL     1     -11.975  10.699  69.555  1.00  0.00    -0.463 N  
HETATM    7  H1  UNL     1     -12.525   8.455  70.393  1.00  0.00     0.000 HD 
HETATM    8  H2  UNL     1     -13.283   8.988  71.878  1.00  0.00     0.000 HD 
HETATM    9  C   UNL     1     -11.596  11.928  69.046  1.00  0.00    -0.317 C  
HETATM   10  H   UNL     1     -11.757   9.884  68.982  1.00  0.00     0.000 HD 
HETATM   11  O   UNL     1     -11.616  12.972  69.696  1.00  0.00    -0.286 OA 
ENDROOT
BRANCH   9  12
HETATM   12  C   UNL     1     -11.131  11.874  67.603  1.00  0.00    -0.314 C  
BRANCH  12  13
HETATM   13  C   UNL     1     -10.509  13.161  67.107  1.00  0.00    -0.247 A  
HETATM   14  C   UNL     1      -9.168  13.484  67.396  1.00  0.00    -0.223 A  
HETATM   15  C   UNL     1      -8.562  14.623  66.852  1.00  0.00    -0.233 A  
HETATM   16 CL   UNL     1      -8.188  12.496  68.423  1.00  0.00    -0.158 Cl 
HETATM   17  C   UNL     1      -9.284  15.473  66.021  1.00  0.00    -0.361 A  
HETATM   18  C   UNL     1     -10.624  15.202  65.764  1.00  0.00    -0.364 A  
HETATM   19  C   UNL     1     -11.235  14.068  66.311  1.00  0.00    -0.320 A  
HETATM   20 CL   UNL     1     -12.909  13.836  65.943  1.00  0.00    -0.443 Cl 
ENDBRANCH  12  13
ENDBRANCH   9  12
TORSDOF 2
ENDMDL
MODEL       97
REMARK 921   NORMALIZED FREE ENERGY PREDICTED BY IDOCK:   -4.43 KCAL/MOL
REMARK 922        TOTAL FREE ENERGY PREDICTED BY IDOCK:   -5.29 KCAL/MOL
REMARK 923 INTER-LIGAND FREE ENERGY PREDICTED BY IDOCK:   -4.96 KCAL/MOL
REMARK 924 INTRA-LIGAND FREE ENERGY PREDICTED BY IDOCK:   -0.32 KCAL/MOL
REMARK 927      BINDING AFFINITY PREDICTED BY RF-SCORE:    0.00 PKD
ROOT
HETATM    1  N   UNL     1      -7.411  11.794  69.090  1.00  0.00    -0.314 NA 
HETATM    2  C   UNL     1      -8.403  10.885  69.041  1.00  0.00    -0.114 C  
HETATM    3  H2  UNL     1      -6.461  11.461  69.252  1.00  0.00     0.000 HD 
HETATM    4  H1  UNL     1      -7.557  12.796  68.973  1.00  0.00     0.000 HD 
HETATM    5  N   UNL     1      -8.220   9.624  69.188  1.00  0.00    -0.113 NA 
HETATM    6  N   UNL     1      -9.693  11.263  68.832  1.00  0.00    -0.356 N  
HETATM    7  H1  UNL     1      -8.972   8.936  69.150  1.00  0.00     0.000 HD 
HETATM    8  H2  UNL     1      -7.270   9.291  69.350  1.00  0.00     0.000 HD 
HETATM    9  C   UNL     1     -10.162  12.544  68.601  1.00  0.00    -0.154 C  
HETATM   10  H   UNL     1     -10.392  10.520  68.847  1.00  0.00     0.000 HD 
HETATM   11  O   UNL     1      -9.433  13.506  68.366  1.00  0.00    -0.211 OA 
ENDROOT
BRANCH   9  12
HETATM   12  C   UNL     1     -11.674  12.658  68.646  1.00  0.00    -0.364 C  
BRANCH  12  13
HETATM   13  C   UNL     1     -12.218  13.126  69.978  1.00  0.00    -0.323 A  
HETATM   14  C   UNL     1     -12.408  14.496  70.250  1.00  0.00    -0.349 A  
HETATM   15  C   UNL     1     -13.007  14.924  71.440  1.00  0.00    -0.427 A  
HETATM   16 CL   UNL     1     -11.929  15.727  69.133  1.00  0.00    -0.373 Cl 
HETATM   17  C   UNL     1     -13.415  13.997  72.393  1.00  0.00    -0.639 A  
HETATM   18  C   UNL     1     -13.190  12.642  72.170  1.00  0.00    -0.527 A  
HETATM   19  C   UNL     1     -12.585  12.211  70.983  1.00  0.00    -0.263 A  
HETATM   20 CL   UNL     1     -12.336  10.508  70.815  1.00  0.00    -0.438 Cl 
ENDBRANCH  12  13
ENDBRANCH   9  12
TORSDOF 2
ENDMDL
MODEL       98
REMARK 921   NORMALIZED FREE ENERGY PREDICTED BY IDOCK:   -4.39 KCAL/MOL
REMARK 922        TOTAL FREE ENERGY PREDICTED BY IDOCK:   -5.24 KCAL/MOL
REMARK 923 INTER-LIGAND FREE ENERGY PREDICTED BY IDOCK:   -4.92 KCAL/MOL
REMARK 924 INTRA-LIGAND FREE ENERGY PREDICTED BY IDOCK:   -0.31 KCAL/MOL
REMARK 927      BINDING AFFINITY PREDICTED BY RF-SCORE:    0.00 PKD
ROOT
HETATM    1  N   UNL     1     -11.382  10.096  68.393  1.00  0.00    -0.508 NA 
HETATM    2  C   UNL     1     -11.768  11.007  69.306  1.00  0.00    -0.326 C  
HETATM    3  H2  UNL     1     -11.228   9.138  68.706  1.00  0.00     0.000 HD 
HETATM    4  H1  UNL     1     -11.236  10.311  67.407  1.00  0.00     0.000 HD 
HETATM    5  N   UNL     1     -11.952  10.737  70.547  1.00  0.00    -0.331 NA 
HETATM    6  N   UNL     1     -11.986  12.304  68.957  1.00  0.00    -0.284 N  
HETATM    7  H1  UNL     1     -12.244  11.427  71.238  1.00  0.00     0.000 HD 
HETATM    8  H2  UNL     1     -11.797   9.778  70.859  1.00  0.00     0.000 HD 
HETATM    9  C   UNL     1     -11.905  12.853  67.690  1.00  0.00    -0.346 C  
HETATM   10  H   UNL     1     -12.239  12.941  69.712  1.00  0.00     0.000 HD 
HETATM   11  O   UNL     1     -11.801  12.186  66.662  1.00  0.00    -0.566 OA 
ENDROOT
BRANCH   9  12
HETATM   12  C   UNL     1     -11.972  14.368  67.676  1.00  0.00    -0.378 C  
BRANCH  12  13
HETATM   13  C   UNL     1     -10.623  15.047  67.765  1.00  0.00    -0.264 A  
HETATM   14  C   UNL     1      -9.866  15.324  66.609  1.00  0.00    -0.250 A  
HETATM   15  C   UNL     1      -8.667  16.043  66.681  1.00  0.00    -0.309 A  
HETATM   16 CL   UNL     1     -10.373  14.810  65.037  1.00  0.00    -0.434 Cl 
HETATM   17  C   UNL     1      -8.188  16.488  67.908  1.00  0.00    -0.172 A  
HETATM   18  C   UNL     1      -8.890  16.180  69.069  1.00  0.00    -0.251 A  
HETATM   19  C   UNL     1     -10.087  15.456  69.001  1.00  0.00    -0.234 A  
HETATM   20 CL   UNL     1     -10.870  15.111  70.504  1.00  0.00    -0.269 Cl 
ENDBRANCH  12  13
ENDBRANCH   9  12
TORSDOF 2
ENDMDL
MODEL       99
REMARK 921   NORMALIZED FREE ENERGY PREDICTED BY IDOCK:   -4.38 KCAL/MOL
REMARK 922        TOTAL FREE ENERGY PREDICTED BY IDOCK:   -5.22 KCAL/MOL
REMARK 923 INTER-LIGAND FREE ENERGY PREDICTED BY IDOCK:   -4.86 KCAL/MOL
REMARK 924 INTRA-LIGAND FREE ENERGY PREDICTED BY IDOCK:   -0.36 KCAL/MOL
REMARK 927      BINDING AFFINITY PREDICTED BY RF-SCORE:    0.00 PKD
ROOT
HETATM    1  N   UNL     1     -12.193  14.674  63.525  1.00  0.00    -0.981 NA 
HETATM    2  C   UNL     1     -12.350  14.250  64.792  1.00  0.00    -0.426 C  
HETATM    3  H2  UNL     1     -12.598  14.113  62.775  1.00  0.00     0.000 HD 
HETATM    4  H1  UNL     1     -11.691  15.525  63.272  1.00  0.00     0.000 HD 
HETATM    5  N   UNL     1     -12.981  13.179  65.110  1.00  0.00    -0.729 NA 
HETATM    6  N   UNL     1     -11.831  14.949  65.838  1.00  0.00    -0.191 N  
HETATM    7  H1  UNL     1     -13.100  12.858  66.071  1.00  0.00     0.000 HD 
HETATM    8  H2  UNL     1     -13.386  12.618  64.361  1.00  0.00     0.000 HD 
HETATM    9  C   UNL     1     -11.148  16.151  65.782  1.00  0.00     0.014 C  
HETATM   10  H   UNL     1     -11.959  14.542  66.764  1.00  0.00     0.000 HD 
HETATM   11  O   UNL     1     -11.081  16.852  64.774  1.00  0.00    -0.764 OA 
ENDROOT
BRANCH   9  12
HETATM   12  C   UNL     1     -10.495  16.543  67.094  1.00  0.00    -0.300 C  
BRANCH  12  13
HETATM   13  C   UNL     1      -8.995  16.347  67.119  1.00  0.00    -0.218 A  
HETATM   14  C   UNL     1      -8.425  15.119  67.510  1.00  0.00    -0.170 A  
HETATM   15  C   UNL     1      -7.044  14.903  67.435  1.00  0.00    -0.194 A  
HETATM   16 CL   UNL     1      -9.388  13.804  68.091  1.00  0.00    -0.206 Cl 
HETATM   17  C   UNL     1      -6.199  15.911  66.984  1.00  0.00     0.124 A  
HETATM   18  C   UNL     1      -6.734  17.149  66.643  1.00  0.00    -0.277 A  
HETATM   19  C   UNL     1      -8.114  17.371  66.723  1.00  0.00    -0.250 A  
HETATM   20 CL   UNL     1      -8.672  18.951  66.293  1.00  0.00    -0.294 Cl 
ENDBRANCH  12  13
ENDBRANCH   9  12
TORSDOF 2
ENDMDL
MODEL      100
REMARK 921   NORMALIZED FREE ENERGY PREDICTED BY IDOCK:   -4.37 KCAL/MOL
REMARK 922        TOTAL FREE ENERGY PREDICTED BY IDOCK:   -5.22 KCAL/MOL
REMARK 923 INTER-LIGAND FREE ENERGY PREDICTED BY IDOCK:   -4.92 KCAL/MOL
REMARK 924 INTRA-LIGAND FREE ENERGY PREDICTED BY IDOCK:   -0.30 KCAL/MOL
REMARK 927      BINDING AFFINITY PREDICTED BY RF-SCORE:    0.00 PKD
ROOT
HETATM    1  N   UNL     1     -12.474  14.128  68.905  1.00  0.00    -0.490 NA 
HETATM    2  C   UNL     1     -11.910  13.833  67.719  1.00  0.00    -0.369 C  
HETATM    3  H2  UNL     1     -13.071  13.425  69.341  1.00  0.00     0.000 HD 
HETATM    4  H1  UNL     1     -12.339  15.014  69.391  1.00  0.00     0.000 HD 
HETATM    5  N   UNL     1     -12.080  12.719  67.108  1.00  0.00    -0.433 NA 
HETATM    6  N   UNL     1     -11.107  14.728  67.082  1.00  0.00    -0.324 N  
HETATM    7  H1  UNL     1     -11.652  12.496  66.209  1.00  0.00     0.000 HD 
HETATM    8  H2  UNL     1     -12.677  12.016  67.544  1.00  0.00     0.000 HD 
HETATM    9  C   UNL     1     -10.723  15.977  67.534  1.00  0.00    -0.314 C  
HETATM   10  H   UNL     1     -10.748  14.446  66.169  1.00  0.00     0.000 HD 
HETATM   11  O   UNL     1     -10.914  16.376  68.682  1.00  0.00    -0.313 OA 
ENDROOT
BRANCH   9  12
HETATM   12  C   UNL     1     -10.022  16.818  66.484  1.00  0.00    -0.308 C  
BRANCH  12  13
HETATM   13  C   UNL     1      -9.008  17.790  67.048  1.00  0.00    -0.258 A  
HETATM   14  C   UNL     1      -9.348  19.134  67.302  1.00  0.00    -0.301 A  
HETATM   15  C   UNL     1      -8.444  20.007  67.919  1.00  0.00    -0.301 A  
HETATM   16 CL   UNL     1     -10.895  19.784  66.882  1.00  0.00    -0.545 Cl 
HETATM   17  C   UNL     1      -7.177  19.564  68.283  1.00  0.00    -0.338 A  
HETATM   18  C   UNL     1      -6.801  18.256  67.994  1.00  0.00    -0.212 A  
HETATM   19  C   UNL     1      -7.700  17.381  67.372  1.00  0.00    -0.192 A  
HETATM   20 CL   UNL     1      -7.126  15.784  67.042  1.00  0.00    -0.221 Cl 
ENDBRANCH  12  13
ENDBRANCH   9  12
TORSDOF 2
ENDMDL
MODEL      101
REMARK 921   NORMALIZED FREE ENERGY PREDICTED BY IDOCK:   -4.37 KCAL/MOL
REMARK 922        TOTAL FREE ENERGY PREDICTED BY IDOCK:   -5.21 KCAL/MOL
REMARK 923 INTER-LIGAND FREE ENERGY PREDICTED BY IDOCK:   -4.96 KCAL/MOL
REMARK 924 INTRA-LIGAND FREE ENERGY PREDICTED BY IDOCK:   -0.25 KCAL/MOL
REMARK 927      BINDING AFFINITY PREDICTED BY RF-SCORE:    0.00 PKD
ROOT
HETATM    1  N   UNL     1     -11.288   8.978  69.509  1.00  0.00    -0.432 NA 
HETATM    2  C   UNL     1     -10.121   8.954  68.837  1.00  0.00    -0.197 C  
HETATM    3  H2  UNL     1     -11.383   8.379  70.329  1.00  0.00     0.000 HD 
HETATM    4  H1  UNL     1     -12.081   9.562  69.244  1.00  0.00     0.000 HD 
HETATM    5  N   UNL     1      -9.124   8.221  69.171  1.00  0.00    -0.147 NA 
HETATM    6  N   UNL     1      -9.930   9.726  67.733  1.00  0.00    -0.160 N  
HETATM    7  H1  UNL     1      -8.240   8.203  68.662  1.00  0.00     0.000 HD 
HETATM    8  H2  UNL     1      -9.219   7.622  69.991  1.00  0.00     0.000 HD 
HETATM    9  C   UNL     1     -10.817  10.634  67.185  1.00  0.00    -0.270 C  
HETATM   10  H   UNL     1      -9.034   9.623  67.257  1.00  0.00     0.000 HD 
HETATM   11  O   UNL     1     -11.847  11.006  67.744  1.00  0.00    -0.605 OA 
ENDROOT
BRANCH   9  12
HETATM   12  C   UNL     1     -10.396  11.153  65.822  1.00  0.00    -0.316 C  
BRANCH  12  13
HETATM   13  C   UNL     1     -10.576  12.645  65.648  1.00  0.00    -0.299 A  
HETATM   14  C   UNL     1      -9.707  13.564  66.271  1.00  0.00    -0.277 A  
HETATM   15  C   UNL     1      -9.809  14.938  66.028  1.00  0.00    -0.345 A  
HETATM   16 CL   UNL     1      -8.461  13.055  67.357  1.00  0.00    -0.190 Cl 
HETATM   17  C   UNL     1     -10.788  15.429  65.171  1.00  0.00    -0.447 A  
HETATM   18  C   UNL     1     -11.690  14.546  64.587  1.00  0.00    -0.438 A  
HETATM   19  C   UNL     1     -11.596  13.171  64.832  1.00  0.00    -0.323 A  
HETATM   20 CL   UNL     1     -12.777  12.164  64.070  1.00  0.00    -0.513 Cl 
ENDBRANCH  12  13
ENDBRANCH   9  12
TORSDOF 2
ENDMDL
MODEL      102
REMARK 921   NORMALIZED FREE ENERGY PREDICTED BY IDOCK:   -4.36 KCAL/MOL
REMARK 922        TOTAL FREE ENERGY PREDICTED BY IDOCK:   -5.20 KCAL/MOL
REMARK 923 INTER-LIGAND FREE ENERGY PREDICTED BY IDOCK:   -5.12 KCAL/MOL
REMARK 924 INTRA-LIGAND FREE ENERGY PREDICTED BY IDOCK:   -0.08 KCAL/MOL
REMARK 927      BINDING AFFINITY PREDICTED BY RF-SCORE:    0.00 PKD
ROOT
HETATM    1  N   UNL     1     -12.975  11.467  71.556  1.00  0.00    -0.440 NA 
HETATM    2  C   UNL     1     -12.638  10.448  70.744  1.00  0.00    -0.371 C  
HETATM    3  H2  UNL     1     -13.408  11.245  72.453  1.00  0.00     0.000 HD 
HETATM    4  H1  UNL     1     -12.823  12.448  71.325  1.00  0.00     0.000 HD 
HETATM    5  N   UNL     1     -12.829   9.213  71.035  1.00  0.00    -0.517 NA 
HETATM    6  N   UNL     1     -12.061  10.676  69.533  1.00  0.00    -0.501 N  
HETATM    7  H1  UNL     1     -12.573   8.442  70.420  1.00  0.00     0.000 HD 
HETATM    8  H2  UNL     1     -13.261   8.991  71.932  1.00  0.00     0.000 HD 
HETATM    9  C   UNL     1     -11.706  11.898  68.993  1.00  0.00    -0.331 C  
HETATM   10  H   UNL     1     -11.870   9.854  68.959  1.00  0.00     0.000 HD 
HETATM   11  O   UNL     1     -11.696  12.950  69.631  1.00  0.00    -0.300 OA 
ENDROOT
BRANCH   9  12
HETATM   12  C   UNL     1     -11.307  11.828  67.531  1.00  0.00    -0.377 C  
BRANCH  12  13
HETATM   13  C   UNL     1     -10.713  13.110  66.991  1.00  0.00    -0.270 A  
HETATM   14  C   UNL     1     -11.415  13.909  66.066  1.00  0.00    -0.340 A  
HETATM   15  C   UNL     1     -10.912  15.146  65.646  1.00  0.00    -0.359 A  
HETATM   16 CL   UNL     1     -12.938  13.423  65.406  1.00  0.00    -0.383 Cl 
HETATM   17  C   UNL     1      -9.691  15.607  66.126  1.00  0.00    -0.348 A  
HETATM   18  C   UNL     1      -8.955  14.812  66.998  1.00  0.00    -0.258 A  
HETATM   19  C   UNL     1      -9.452  13.571  67.416  1.00  0.00    -0.225 A  
HETATM   20 CL   UNL     1      -8.449  12.656  68.487  1.00  0.00    -0.104 Cl 
ENDBRANCH  12  13
ENDBRANCH   9  12
TORSDOF 2
ENDMDL
MODEL      103
REMARK 921   NORMALIZED FREE ENERGY PREDICTED BY IDOCK:   -4.34 KCAL/MOL
REMARK 922        TOTAL FREE ENERGY PREDICTED BY IDOCK:   -5.19 KCAL/MOL
REMARK 923 INTER-LIGAND FREE ENERGY PREDICTED BY IDOCK:   -4.88 KCAL/MOL
REMARK 924 INTRA-LIGAND FREE ENERGY PREDICTED BY IDOCK:   -0.31 KCAL/MOL
REMARK 927      BINDING AFFINITY PREDICTED BY RF-SCORE:    0.00 PKD
ROOT
HETATM    1  N   UNL     1      -9.364  10.448  69.626  1.00  0.00    -0.399 NA 
HETATM    2  C   UNL     1     -10.671  10.363  69.318  1.00  0.00    -0.237 C  
HETATM    3  H2  UNL     1      -8.906   9.624  70.015  1.00  0.00     0.000 HD 
HETATM    4  H1  UNL     1      -8.805  11.291  69.492  1.00  0.00     0.000 HD 
HETATM    5  N   UNL     1     -11.374   9.303  69.487  1.00  0.00    -0.439 NA 
HETATM    6  N   UNL     1     -11.342  11.428  68.800  1.00  0.00    -0.243 N  
HETATM    7  H1  UNL     1     -12.364   9.239  69.253  1.00  0.00     0.000 HD 
HETATM    8  H2  UNL     1     -10.916   8.479  69.876  1.00  0.00     0.000 HD 
HETATM    9  C   UNL     1     -10.821  12.668  68.479  1.00  0.00    -0.252 C  
HETATM   10  H   UNL     1     -12.340  11.296  68.629  1.00  0.00     0.000 HD 
HETATM   11  O   UNL     1      -9.617  12.916  68.447  1.00  0.00    -0.221 OA 
ENDROOT
BRANCH   9  12
HETATM   12  C   UNL     1     -11.877  13.706  68.147  1.00  0.00    -0.407 C  
BRANCH  12  13
HETATM   13  C   UNL     1     -11.523  14.592  66.973  1.00  0.00    -0.379 A  
HETATM   14  C   UNL     1     -11.870  14.232  65.655  1.00  0.00    -0.373 A  
HETATM   15  C   UNL     1     -11.635  15.098  64.580  1.00  0.00    -0.357 A  
HETATM   16 CL   UNL     1     -12.614  12.715  65.285  1.00  0.00    -0.501 Cl 
HETATM   17  C   UNL     1     -11.036  16.335  64.793  1.00  0.00    -0.288 A  
HETATM   18  C   UNL     1     -10.637  16.689  66.078  1.00  0.00    -0.238 A  
HETATM   19  C   UNL     1     -10.864  15.823  67.154  1.00  0.00    -0.289 A  
HETATM   20 CL   UNL     1     -10.313  16.353  68.705  1.00  0.00    -0.257 Cl 
ENDBRANCH  12  13
ENDBRANCH   9  12
TORSDOF 2
ENDMDL
MODEL      104
REMARK 921   NORMALIZED FREE ENERGY PREDICTED BY IDOCK:   -4.34 KCAL/MOL
REMARK 922        TOTAL FREE ENERGY PREDICTED BY IDOCK:   -5.18 KCAL/MOL
REMARK 923 INTER-LIGAND FREE ENERGY PREDICTED BY IDOCK:   -4.88 KCAL/MOL
REMARK 924 INTRA-LIGAND FREE ENERGY PREDICTED BY IDOCK:   -0.30 KCAL/MOL
REMARK 927      BINDING AFFINITY PREDICTED BY RF-SCORE:    0.00 PKD
ROOT
HETATM    1  N   UNL     1      -7.485  15.209  69.284  1.00  0.00    -0.178 NA 
HETATM    2  C   UNL     1      -7.972  14.152  68.607  1.00  0.00    -0.132 C  
HETATM    3  H2  UNL     1      -6.474  15.282  69.400  1.00  0.00     0.000 HD 
HETATM    4  H1  UNL     1      -8.070  15.940  69.688  1.00  0.00     0.000 HD 
HETATM    5  N   UNL     1      -7.236  13.232  68.100  1.00  0.00    -0.097 NA 
HETATM    6  N   UNL     1      -9.310  13.993  68.421  1.00  0.00    -0.211 N  
HETATM    7  H1  UNL     1      -7.606  12.432  67.587  1.00  0.00     0.000 HD 
HETATM    8  H2  UNL     1      -6.225  13.305  68.216  1.00  0.00     0.000 HD 
HETATM    9  C   UNL     1     -10.318  14.852  68.821  1.00  0.00    -0.245 C  
HETATM   10  H   UNL     1      -9.603  13.148  67.931  1.00  0.00     0.000 HD 
HETATM   11  O   UNL     1     -10.118  15.989  69.246  1.00  0.00    -0.220 OA 
ENDROOT
BRANCH   9  12
HETATM   12  C   UNL     1     -11.711  14.270  68.673  1.00  0.00    -0.380 C  
BRANCH  12  13
HETATM   13  C   UNL     1     -12.149  13.413  69.841  1.00  0.00    -0.389 A  
HETATM   14  C   UNL     1     -12.762  13.982  70.975  1.00  0.00    -0.361 A  
HETATM   15  C   UNL     1     -13.260  13.181  72.009  1.00  0.00    -0.543 A  
HETATM   16 CL   UNL     1     -12.949  15.692  71.156  1.00  0.00    -0.547 Cl 
HETATM   17  C   UNL     1     -13.144  11.796  71.943  1.00  0.00    -0.482 A  
HETATM   18  C   UNL     1     -12.496  11.216  70.858  1.00  0.00    -0.509 A  
HETATM   19  C   UNL     1     -11.991  12.014  69.825  1.00  0.00    -0.300 A  
HETATM   20 CL   UNL     1     -11.187  11.193  68.532  1.00  0.00    -0.287 Cl 
ENDBRANCH  12  13
ENDBRANCH   9  12
TORSDOF 2
ENDMDL
MODEL      105
REMARK 921   NORMALIZED FREE ENERGY PREDICTED BY IDOCK:   -4.33 KCAL/MOL
REMARK 922        TOTAL FREE ENERGY PREDICTED BY IDOCK:   -5.17 KCAL/MOL
REMARK 923 INTER-LIGAND FREE ENERGY PREDICTED BY IDOCK:   -4.90 KCAL/MOL
REMARK 924 INTRA-LIGAND FREE ENERGY PREDICTED BY IDOCK:   -0.27 KCAL/MOL
REMARK 927      BINDING AFFINITY PREDICTED BY RF-SCORE:    0.00 PKD
ROOT
HETATM    1  N   UNL     1      -7.441   9.269  69.456  1.00  0.00    -0.075 NA 
HETATM    2  C   UNL     1      -7.813  10.563  69.475  1.00  0.00    -0.127 C  
HETATM    3  H2  UNL     1      -6.449   9.052  69.544  1.00  0.00     0.000 HD 
HETATM    4  H1  UNL     1      -8.097   8.494  69.358  1.00  0.00     0.000 HD 
HETATM    5  N   UNL     1      -6.988  11.537  69.598  1.00  0.00    -0.326 NA 
HETATM    6  N   UNL     1      -9.120  10.920  69.357  1.00  0.00    -0.400 N  
HETATM    7  H1  UNL     1      -7.269  12.517  69.612  1.00  0.00     0.000 HD 
HETATM    8  H2  UNL     1      -5.995  11.320  69.686  1.00  0.00     0.000 HD 
HETATM    9  C   UNL     1     -10.211  10.077  69.257  1.00  0.00    -0.214 C  
HETATM   10  H   UNL     1      -9.317  11.921  69.342  1.00  0.00     0.000 HD 
HETATM   11  O   UNL     1     -10.157   8.864  69.451  1.00  0.00    -0.190 OA 
ENDROOT
BRANCH   9  12
HETATM   12  C   UNL     1     -11.502  10.789  68.899  1.00  0.00    -0.362 C  
BRANCH  12  13
HETATM   13  C   UNL     1     -12.045  11.672  70.001  1.00  0.00    -0.395 A  
HETATM   14  C   UNL     1     -11.936  13.076  69.934  1.00  0.00    -0.311 A  
HETATM   15  C   UNL     1     -12.528  13.898  70.900  1.00  0.00    -0.447 A  
HETATM   16 CL   UNL     1     -11.082  13.868  68.655  1.00  0.00    -0.275 Cl 
HETATM   17  C   UNL     1     -13.228  13.339  71.963  1.00  0.00    -0.541 A  
HETATM   18  C   UNL     1     -13.304  11.955  72.080  1.00  0.00    -0.425 A  
HETATM   19  C   UNL     1     -12.708  11.129  71.119  1.00  0.00    -0.408 A  
HETATM   20 CL   UNL     1     -12.846   9.424  71.368  1.00  0.00    -0.404 Cl 
ENDBRANCH  12  13
ENDBRANCH   9  12
TORSDOF 2
ENDMDL
MODEL      106
REMARK 921   NORMALIZED FREE ENERGY PREDICTED BY IDOCK:   -4.33 KCAL/MOL
REMARK 922        TOTAL FREE ENERGY PREDICTED BY IDOCK:   -5.17 KCAL/MOL
REMARK 923 INTER-LIGAND FREE ENERGY PREDICTED BY IDOCK:   -4.84 KCAL/MOL
REMARK 924 INTRA-LIGAND FREE ENERGY PREDICTED BY IDOCK:   -0.33 KCAL/MOL
REMARK 927      BINDING AFFINITY PREDICTED BY RF-SCORE:    0.00 PKD
ROOT
HETATM    1  N   UNL     1      -7.183  10.695  70.088  1.00  0.00    -0.428 NA 
HETATM    2  C   UNL     1      -8.180   9.863  70.442  1.00  0.00     0.036 C  
HETATM    3  H2  UNL     1      -6.254  10.525  70.475  1.00  0.00     0.000 HD 
HETATM    4  H1  UNL     1      -7.304  11.486  69.456  1.00  0.00     0.000 HD 
HETATM    5  N   UNL     1      -8.028   8.868  71.237  1.00  0.00    -0.217 NA 
HETATM    6  N   UNL     1      -9.443  10.037  69.966  1.00  0.00    -0.381 N  
HETATM    7  H1  UNL     1      -8.784   8.238  71.505  1.00  0.00     0.000 HD 
HETATM    8  H2  UNL     1      -7.099   8.698  71.623  1.00  0.00     0.000 HD 
HETATM    9  C   UNL     1      -9.872  10.995  69.066  1.00  0.00    -0.149 C  
HETATM   10  H   UNL     1     -10.151   9.389  70.310  1.00  0.00     0.000 HD 
HETATM   11  O   UNL     1      -9.112  11.717  68.422  1.00  0.00    -0.185 OA 
ENDROOT
BRANCH   9  12
HETATM   12  C   UNL     1     -11.381  11.069  68.925  1.00  0.00    -0.346 C  
BRANCH  12  13
HETATM   13  C   UNL     1     -12.053  11.959  69.948  1.00  0.00    -0.344 A  
HETATM   14  C   UNL     1     -12.655  11.419  71.103  1.00  0.00    -0.386 A  
HETATM   15  C   UNL     1     -13.184  12.247  72.100  1.00  0.00    -0.466 A  
HETATM   16 CL   UNL     1     -12.765   9.713  71.368  1.00  0.00    -0.433 Cl 
HETATM   17  C   UNL     1     -13.141  13.630  71.961  1.00  0.00    -0.484 A  
HETATM   18  C   UNL     1     -12.599  14.184  70.805  1.00  0.00    -0.432 A  
HETATM   19  C   UNL     1     -12.074  13.359  69.803  1.00  0.00    -0.310 A  
HETATM   20 CL   UNL     1     -11.442  14.149  68.401  1.00  0.00    -0.312 Cl 
ENDBRANCH  12  13
ENDBRANCH   9  12
TORSDOF 2
ENDMDL
MODEL      107
REMARK 921   NORMALIZED FREE ENERGY PREDICTED BY IDOCK:   -4.33 KCAL/MOL
REMARK 922        TOTAL FREE ENERGY PREDICTED BY IDOCK:   -5.17 KCAL/MOL
REMARK 923 INTER-LIGAND FREE ENERGY PREDICTED BY IDOCK:   -4.84 KCAL/MOL
REMARK 924 INTRA-LIGAND FREE ENERGY PREDICTED BY IDOCK:   -0.33 KCAL/MOL
REMARK 927      BINDING AFFINITY PREDICTED BY RF-SCORE:    0.00 PKD
ROOT
HETATM    1  N   UNL     1      -9.039   9.686  71.056  1.00  0.00    -0.343 NA 
HETATM    2  C   UNL     1     -10.376   9.527  71.060  1.00  0.00    -0.283 C  
HETATM    3  H2  UNL     1      -8.491   9.172  71.746  1.00  0.00     0.000 HD 
HETATM    4  H1  UNL     1      -8.544  10.292  70.402  1.00  0.00     0.000 HD 
HETATM    5  N   UNL     1     -10.998   8.765  71.883  1.00  0.00    -0.343 NA 
HETATM    6  N   UNL     1     -11.165  10.187  70.170  1.00  0.00    -0.288 N  
HETATM    7  H1  UNL     1     -12.011   8.645  71.886  1.00  0.00     0.000 HD 
HETATM    8  H2  UNL     1     -10.450   8.251  72.573  1.00  0.00     0.000 HD 
HETATM    9  C   UNL     1     -10.754  11.030  69.154  1.00  0.00    -0.234 C  
HETATM   10  H   UNL     1     -12.171  10.044  70.262  1.00  0.00     0.000 HD 
HETATM   11  O   UNL     1      -9.583  11.152  68.798  1.00  0.00    -0.192 OA 
ENDROOT
BRANCH   9  12
HETATM   12  C   UNL     1     -11.889  11.791  68.494  1.00  0.00    -0.365 C  
BRANCH  12  13
HETATM   13  C   UNL     1     -11.723  13.294  68.522  1.00  0.00    -0.388 A  
HETATM   14  C   UNL     1     -12.010  14.040  69.683  1.00  0.00    -0.339 A  
HETATM   15  C   UNL     1     -11.759  15.415  69.744  1.00  0.00    -0.352 A  
HETATM   16 CL   UNL     1     -12.674  13.307  71.103  1.00  0.00    -0.433 Cl 
HETATM   17  C   UNL     1     -11.230  16.081  68.643  1.00  0.00    -0.366 A  
HETATM   18  C   UNL     1     -10.988  15.376  67.469  1.00  0.00    -0.315 A  
HETATM   19  C   UNL     1     -11.244  14.001  67.403  1.00  0.00    -0.311 A  
HETATM   20 CL   UNL     1     -10.925  13.225  65.891  1.00  0.00    -0.284 Cl 
ENDBRANCH  12  13
ENDBRANCH   9  12
TORSDOF 2
ENDMDL
MODEL      108
REMARK 921   NORMALIZED FREE ENERGY PREDICTED BY IDOCK:   -4.33 KCAL/MOL
REMARK 922        TOTAL FREE ENERGY PREDICTED BY IDOCK:   -5.17 KCAL/MOL
REMARK 923 INTER-LIGAND FREE ENERGY PREDICTED BY IDOCK:   -4.82 KCAL/MOL
REMARK 924 INTRA-LIGAND FREE ENERGY PREDICTED BY IDOCK:   -0.35 KCAL/MOL
REMARK 927      BINDING AFFINITY PREDICTED BY RF-SCORE:    0.00 PKD
ROOT
HETATM    1  N   UNL     1     -10.023  11.127  69.284  1.00  0.00    -0.420 NA 
HETATM    2  C   UNL     1     -11.211  10.565  68.992  1.00  0.00    -0.259 C  
HETATM    3  H2  UNL     1      -9.716  11.921  68.723  1.00  0.00     0.000 HD 
HETATM    4  H1  UNL     1      -9.413  10.803  70.034  1.00  0.00     0.000 HD 
HETATM    5  N   UNL     1     -11.978  10.973  68.049  1.00  0.00    -0.761 NA 
HETATM    6  N   UNL     1     -11.677   9.500  69.699  1.00  0.00    -0.430 N  
HETATM    7  H1  UNL     1     -12.878  10.547  67.829  1.00  0.00     0.000 HD 
HETATM    8  H2  UNL     1     -11.671  11.768  67.488  1.00  0.00     0.000 HD 
HETATM    9  C   UNL     1     -11.077   8.892  70.787  1.00  0.00    -0.261 C  
HETATM   10  H   UNL     1     -12.567   9.106  69.393  1.00  0.00     0.000 HD 
HETATM   11  O   UNL     1     -10.111   9.362  71.386  1.00  0.00    -0.301 OA 
ENDROOT
BRANCH   9  12
HETATM   12  C   UNL     1     -11.733   7.586  71.195  1.00  0.00    -0.315 C  
BRANCH  12  13
HETATM   13  C   UNL     1     -10.800   6.394  71.172  1.00  0.00    -0.308 A  
HETATM   14  C   UNL     1     -10.499   5.725  69.969  1.00  0.00    -0.283 A  
HETATM   15  C   UNL     1      -9.558   4.689  69.930  1.00  0.00    -0.261 A  
HETATM   16 CL   UNL     1     -11.257   6.144  68.472  1.00  0.00    -0.364 Cl 
HETATM   17  C   UNL     1      -8.908   4.288  71.092  1.00  0.00    -0.151 A  
HETATM   18  C   UNL     1      -9.228   4.898  72.300  1.00  0.00    -0.151 A  
HETATM   19  C   UNL     1     -10.173   5.931  72.344  1.00  0.00    -0.188 A  
HETATM   20 CL   UNL     1     -10.509   6.608  73.899  1.00  0.00    -0.370 Cl 
ENDBRANCH  12  13
ENDBRANCH   9  12
TORSDOF 2
ENDMDL
MODEL      109
REMARK 921   NORMALIZED FREE ENERGY PREDICTED BY IDOCK:   -4.32 KCAL/MOL
REMARK 922        TOTAL FREE ENERGY PREDICTED BY IDOCK:   -5.16 KCAL/MOL
REMARK 923 INTER-LIGAND FREE ENERGY PREDICTED BY IDOCK:   -4.84 KCAL/MOL
REMARK 924 INTRA-LIGAND FREE ENERGY PREDICTED BY IDOCK:   -0.31 KCAL/MOL
REMARK 927      BINDING AFFINITY PREDICTED BY RF-SCORE:    0.00 PKD
ROOT
HETATM    1  N   UNL     1     -13.573   9.677  70.979  1.00  0.00    -0.529 NA 
HETATM    2  C   UNL     1     -13.177   9.111  72.134  1.00  0.00    -0.458 C  
HETATM    3  H2  UNL     1     -14.528  10.031  70.919  1.00  0.00     0.000 HD 
HETATM    4  H1  UNL     1     -12.972   9.772  70.161  1.00  0.00     0.000 HD 
HETATM    5  N   UNL     1     -13.933   8.992  73.164  1.00  0.00    -1.215 NA 
HETATM    6  N   UNL     1     -11.918   8.616  72.279  1.00  0.00    -0.375 N  
HETATM    7  H1  UNL     1     -13.632   8.563  74.039  1.00  0.00     0.000 HD 
HETATM    8  H2  UNL     1     -14.887   9.346  73.104  1.00  0.00     0.000 HD 
HETATM    9  C   UNL     1     -10.894   8.653  71.350  1.00  0.00    -0.269 C  
HETATM   10  H   UNL     1     -11.706   8.168  73.170  1.00  0.00     0.000 HD 
HETATM   11  O   UNL     1     -10.932   9.318  70.316  1.00  0.00    -0.230 OA 
ENDROOT
BRANCH   9  12
HETATM   12  C   UNL     1      -9.695   7.804  71.729  1.00  0.00    -0.206 C  
BRANCH  12  13
HETATM   13  C   UNL     1      -9.719   6.407  71.149  1.00  0.00    -0.191 A  
HETATM   14  C   UNL     1      -9.218   6.143  69.859  1.00  0.00    -0.149 A  
HETATM   15  C   UNL     1      -9.145   4.836  69.362  1.00  0.00    -0.152 A  
HETATM   16 CL   UNL     1      -8.651   7.404  68.819  1.00  0.00    -0.129 Cl 
HETATM   17  C   UNL     1      -9.585   3.766  70.133  1.00  0.00    -0.258 A  
HETATM   18  C   UNL     1     -10.133   4.008  71.388  1.00  0.00    -0.147 A  
HETATM   19  C   UNL     1     -10.213   5.314  71.887  1.00  0.00    -0.207 A  
HETATM   20 CL   UNL     1     -10.928   5.505  73.450  1.00  0.00    -0.329 Cl 
ENDBRANCH  12  13
ENDBRANCH   9  12
TORSDOF 2
ENDMDL
MODEL      110
REMARK 921   NORMALIZED FREE ENERGY PREDICTED BY IDOCK:   -4.30 KCAL/MOL
REMARK 922        TOTAL FREE ENERGY PREDICTED BY IDOCK:   -5.14 KCAL/MOL
REMARK 923 INTER-LIGAND FREE ENERGY PREDICTED BY IDOCK:   -4.84 KCAL/MOL
REMARK 924 INTRA-LIGAND FREE ENERGY PREDICTED BY IDOCK:   -0.30 KCAL/MOL
REMARK 927      BINDING AFFINITY PREDICTED BY RF-SCORE:    0.00 PKD
ROOT
HETATM    1  N   UNL     1     -12.319  10.673  68.879  1.00  0.00    -0.790 NA 
HETATM    2  C   UNL     1     -11.020  10.995  69.017  1.00  0.00    -0.233 C  
HETATM    3  H2  UNL     1     -12.738  10.053  69.572  1.00  0.00     0.000 HD 
HETATM    4  H1  UNL     1     -12.909  11.015  68.120  1.00  0.00     0.000 HD 
HETATM    5  N   UNL     1     -10.278  10.565  69.972  1.00  0.00    -0.434 NA 
HETATM    6  N   UNL     1     -10.400  11.814  68.125  1.00  0.00    -0.193 N  
HETATM    7  H1  UNL     1      -9.294  10.809  70.076  1.00  0.00     0.000 HD 
HETATM    8  H2  UNL     1     -10.697   9.945  70.665  1.00  0.00     0.000 HD 
HETATM    9  C   UNL     1     -10.970  12.447  67.036  1.00  0.00    -0.260 C  
HETATM   10  H   UNL     1      -9.404  11.979  68.276  1.00  0.00     0.000 HD 
HETATM   11  O   UNL     1     -12.182  12.500  66.834  1.00  0.00    -0.511 OA 
ENDROOT
BRANCH   9  12
HETATM   12  C   UNL     1      -9.959  13.094  66.108  1.00  0.00    -0.291 C  
BRANCH  12  13
HETATM   13  C   UNL     1      -9.712  14.560  66.390  1.00  0.00    -0.314 A  
HETATM   14  C   UNL     1      -8.689  14.973  67.268  1.00  0.00    -0.203 A  
HETATM   15  C   UNL     1      -8.392  16.328  67.450  1.00  0.00    -0.189 A  
HETATM   16 CL   UNL     1      -7.732  13.839  68.158  1.00  0.00    -0.127 Cl 
HETATM   17  C   UNL     1      -9.118  17.303  66.775  1.00  0.00    -0.269 A  
HETATM   18  C   UNL     1     -10.168  16.922  65.945  1.00  0.00    -0.330 A  
HETATM   19  C   UNL     1     -10.471  15.567  65.765  1.00  0.00    -0.361 A  
HETATM   20 CL   UNL     1     -11.806  15.203  64.726  1.00  0.00    -0.334 Cl 
ENDBRANCH  12  13
ENDBRANCH   9  12
TORSDOF 2
ENDMDL
MODEL      111
REMARK 921   NORMALIZED FREE ENERGY PREDICTED BY IDOCK:   -4.30 KCAL/MOL
REMARK 922        TOTAL FREE ENERGY PREDICTED BY IDOCK:   -5.14 KCAL/MOL
REMARK 923 INTER-LIGAND FREE ENERGY PREDICTED BY IDOCK:   -4.79 KCAL/MOL
REMARK 924 INTRA-LIGAND FREE ENERGY PREDICTED BY IDOCK:   -0.34 KCAL/MOL
REMARK 927      BINDING AFFINITY PREDICTED BY RF-SCORE:    0.00 PKD
ROOT
HETATM    1  N   UNL     1     -12.292  11.074  71.023  1.00  0.00    -0.379 NA 
HETATM    2  C   UNL     1     -12.259  12.352  70.600  1.00  0.00    -0.278 C  
HETATM    3  H2  UNL     1     -12.781  10.869  71.894  1.00  0.00     0.000 HD 
HETATM    4  H1  UNL     1     -11.855  10.301  70.522  1.00  0.00     0.000 HD 
HETATM    5  N   UNL     1     -12.808  13.324  71.230  1.00  0.00    -0.345 NA 
HETATM    6  N   UNL     1     -11.620  12.694  69.448  1.00  0.00    -0.324 N  
HETATM    7  H1  UNL     1     -12.783  14.291  70.909  1.00  0.00     0.000 HD 
HETATM    8  H2  UNL     1     -13.297  13.118  72.101  1.00  0.00     0.000 HD 
HETATM    9  C   UNL     1     -10.987  11.844  68.559  1.00  0.00    -0.235 C  
HETATM   10  H   UNL     1     -11.607  13.687  69.215  1.00  0.00     0.000 HD 
HETATM   11  O   UNL     1     -11.081  10.619  68.601  1.00  0.00    -0.227 OA 
ENDROOT
BRANCH   9  12
HETATM   12  C   UNL     1     -10.170  12.565  67.503  1.00  0.00    -0.219 C  
BRANCH  12  13
HETATM   13  C   UNL     1     -10.571  12.235  66.082  1.00  0.00    -0.281 A  
HETATM   14  C   UNL     1     -11.613  12.931  65.436  1.00  0.00    -0.350 A  
HETATM   15  C   UNL     1     -11.916  12.699  64.089  1.00  0.00    -0.501 A  
HETATM   16 CL   UNL     1     -12.567  14.119  66.255  1.00  0.00    -0.411 Cl 
HETATM   17  C   UNL     1     -11.199  11.756  63.361  1.00  0.00    -0.440 A  
HETATM   18  C   UNL     1     -10.202  11.018  63.992  1.00  0.00    -0.420 A  
HETATM   19  C   UNL     1      -9.900  11.244  65.340  1.00  0.00    -0.237 A  
HETATM   20 CL   UNL     1      -8.657  10.260  66.031  1.00  0.00    -0.145 Cl 
ENDBRANCH  12  13
ENDBRANCH   9  12
TORSDOF 2
ENDMDL
MODEL      112
REMARK 921   NORMALIZED FREE ENERGY PREDICTED BY IDOCK:   -4.28 KCAL/MOL
REMARK 922        TOTAL FREE ENERGY PREDICTED BY IDOCK:   -5.12 KCAL/MOL
REMARK 923 INTER-LIGAND FREE ENERGY PREDICTED BY IDOCK:   -4.92 KCAL/MOL
REMARK 924 INTRA-LIGAND FREE ENERGY PREDICTED BY IDOCK:   -0.19 KCAL/MOL
REMARK 927      BINDING AFFINITY PREDICTED BY RF-SCORE:    0.00 PKD
ROOT
HETATM    1  N   UNL     1     -11.130   7.435  67.505  1.00  0.00    -0.551 NA 
HETATM    2  C   UNL     1     -10.247   7.426  66.488  1.00  0.00    -0.078 C  
HETATM    3  H2  UNL     1     -11.363   6.547  67.948  1.00  0.00     0.000 HD 
HETATM    4  H1  UNL     1     -11.577   8.281  67.857  1.00  0.00     0.000 HD 
HETATM    5  N   UNL     1      -9.684   6.362  66.046  1.00  0.00    -0.391 NA 
HETATM    6  N   UNL     1      -9.896   8.576  65.852  1.00  0.00    -0.463 N  
HETATM    7  H1  UNL     1      -9.016   6.355  65.276  1.00  0.00     0.000 HD 
HETATM    8  H2  UNL     1      -9.918   5.473  66.489  1.00  0.00     0.000 HD 
HETATM    9  C   UNL     1     -10.316   9.859  66.152  1.00  0.00    -0.153 C  
HETATM   10  H   UNL     1      -9.252   8.481  65.066  1.00  0.00     0.000 HD 
HETATM   11  O   UNL     1     -10.932  10.154  67.174  1.00  0.00    -0.235 OA 
ENDROOT
BRANCH   9  12
HETATM   12  C   UNL     1      -9.930  10.888  65.106  1.00  0.00    -0.341 C  
BRANCH  12  13
HETATM   13  C   UNL     1     -10.396  12.292  65.421  1.00  0.00    -0.298 A  
HETATM   14  C   UNL     1     -11.537  12.840  64.801  1.00  0.00    -0.325 A  
HETATM   15  C   UNL     1     -12.028  14.099  65.168  1.00  0.00    -0.390 A  
HETATM   16 CL   UNL     1     -12.405  11.994  63.567  1.00  0.00    -0.670 Cl 
HETATM   17  C   UNL     1     -11.385  14.845  66.149  1.00  0.00    -0.307 A  
HETATM   18  C   UNL     1     -10.226  14.348  66.736  1.00  0.00    -0.270 A  
HETATM   19  C   UNL     1      -9.728  13.092  66.368  1.00  0.00    -0.269 A  
HETATM   20 CL   UNL     1      -8.272  12.577  67.147  1.00  0.00    -0.183 Cl 
ENDBRANCH  12  13
ENDBRANCH   9  12
TORSDOF 2
ENDMDL
MODEL      113
REMARK 921   NORMALIZED FREE ENERGY PREDICTED BY IDOCK:   -4.25 KCAL/MOL
REMARK 922        TOTAL FREE ENERGY PREDICTED BY IDOCK:   -5.09 KCAL/MOL
REMARK 923 INTER-LIGAND FREE ENERGY PREDICTED BY IDOCK:   -4.95 KCAL/MOL
REMARK 924 INTRA-LIGAND FREE ENERGY PREDICTED BY IDOCK:   -0.14 KCAL/MOL
REMARK 927      BINDING AFFINITY PREDICTED BY RF-SCORE:    0.00 PKD
ROOT
HETATM    1  N   UNL     1      -9.881  20.454  66.022  1.00  0.00    -0.643 NA 
HETATM    2  C   UNL     1      -8.784  20.166  66.746  1.00  0.00    -0.307 C  
HETATM    3  H2  UNL     1      -9.865  21.287  65.434  1.00  0.00     0.000 HD 
HETATM    4  H1  UNL     1     -10.728  19.886  66.029  1.00  0.00     0.000 HD 
HETATM    5  N   UNL     1      -7.718  20.880  66.737  1.00  0.00    -0.554 NA 
HETATM    6  N   UNL     1      -8.742  19.072  67.554  1.00  0.00    -0.287 N  
HETATM    7  H1  UNL     1      -6.887  20.661  67.285  1.00  0.00     0.000 HD 
HETATM    8  H2  UNL     1      -7.702  21.713  66.149  1.00  0.00     0.000 HD 
HETATM    9  C   UNL     1      -9.728  18.115  67.717  1.00  0.00    -0.293 C  
HETATM   10  H   UNL     1      -7.890  18.942  68.099  1.00  0.00     0.000 HD 
HETATM   11  O   UNL     1     -10.721  18.028  66.996  1.00  0.00    -0.342 OA 
ENDROOT
BRANCH   9  12
HETATM   12  C   UNL     1      -9.466  17.159  68.866  1.00  0.00    -0.217 C  
BRANCH  12  13
HETATM   13  C   UNL     1     -10.113  15.801  68.697  1.00  0.00    -0.211 A  
HETATM   14  C   UNL     1     -11.166  15.384  69.536  1.00  0.00    -0.285 A  
HETATM   15  C   UNL     1     -11.833  14.173  69.316  1.00  0.00    -0.381 A  
HETATM   16 CL   UNL     1     -11.706  16.339  70.873  1.00  0.00    -0.353 Cl 
HETATM   17  C   UNL     1     -11.455  13.344  68.265  1.00  0.00    -0.350 A  
HETATM   18  C   UNL     1     -10.384  13.711  67.457  1.00  0.00    -0.241 A  
HETATM   19  C   UNL     1      -9.710  14.918  67.677  1.00  0.00    -0.212 A  
HETATM   20 CL   UNL     1      -8.382  15.268  66.626  1.00  0.00    -0.272 Cl 
ENDBRANCH  12  13
ENDBRANCH   9  12
TORSDOF 2
ENDMDL
MODEL      114
REMARK 921   NORMALIZED FREE ENERGY PREDICTED BY IDOCK:   -4.23 KCAL/MOL
REMARK 922        TOTAL FREE ENERGY PREDICTED BY IDOCK:   -5.07 KCAL/MOL
REMARK 923 INTER-LIGAND FREE ENERGY PREDICTED BY IDOCK:   -4.72 KCAL/MOL
REMARK 924 INTRA-LIGAND FREE ENERGY PREDICTED BY IDOCK:   -0.35 KCAL/MOL
REMARK 927      BINDING AFFINITY PREDICTED BY RF-SCORE:    0.00 PKD
ROOT
HETATM    1  N   UNL     1      -6.553  14.164  67.375  1.00  0.00    -0.377 NA 
HETATM    2  C   UNL     1      -7.739  14.623  67.816  1.00  0.00    -0.157 C  
HETATM    3  H2  UNL     1      -5.755  14.800  67.390  1.00  0.00     0.000 HD 
HETATM    4  H1  UNL     1      -6.407  13.217  67.027  1.00  0.00     0.000 HD 
HETATM    5  N   UNL     1      -7.922  15.814  68.254  1.00  0.00    -0.128 NA 
HETATM    6  N   UNL     1      -8.843  13.827  67.819  1.00  0.00    -0.177 N  
HETATM    7  H1  UNL     1      -8.821  16.161  68.588  1.00  0.00     0.000 HD 
HETATM    8  H2  UNL     1      -7.125  16.450  68.268  1.00  0.00     0.000 HD 
HETATM    9  C   UNL     1      -8.916  12.498  67.446  1.00  0.00    -0.188 C  
HETATM   10  H   UNL     1      -9.713  14.259  68.132  1.00  0.00     0.000 HD 
HETATM   11  O   UNL     1      -7.931  11.793  67.231  1.00  0.00    -0.145 OA 
ENDROOT
BRANCH   9  12
HETATM   12  C   UNL     1     -10.335  11.971  67.338  1.00  0.00    -0.226 C  
BRANCH  12  13
HETATM   13  C   UNL     1     -10.999  12.255  66.009  1.00  0.00    -0.327 A  
HETATM   14  C   UNL     1     -11.834  13.377  65.834  1.00  0.00    -0.376 A  
HETATM   15  C   UNL     1     -12.366  13.698  64.580  1.00  0.00    -0.413 A  
HETATM   16 CL   UNL     1     -12.243  14.428  67.146  1.00  0.00    -0.366 Cl 
HETATM   17  C   UNL     1     -12.090  12.900  63.475  1.00  0.00    -0.633 A  
HETATM   18  C   UNL     1     -11.311  11.758  63.634  1.00  0.00    -0.525 A  
HETATM   19  C   UNL     1     -10.783  11.430  64.888  1.00  0.00    -0.286 A  
HETATM   20 CL   UNL     1      -9.844   9.981  64.979  1.00  0.00    -0.392 Cl 
ENDBRANCH  12  13
ENDBRANCH   9  12
TORSDOF 2
ENDMDL
MODEL      115
REMARK 921   NORMALIZED FREE ENERGY PREDICTED BY IDOCK:   -4.21 KCAL/MOL
REMARK 922        TOTAL FREE ENERGY PREDICTED BY IDOCK:   -5.04 KCAL/MOL
REMARK 923 INTER-LIGAND FREE ENERGY PREDICTED BY IDOCK:   -4.82 KCAL/MOL
REMARK 924 INTRA-LIGAND FREE ENERGY PREDICTED BY IDOCK:   -0.23 KCAL/MOL
REMARK 927      BINDING AFFINITY PREDICTED BY RF-SCORE:    0.00 PKD
ROOT
HETATM    1  N   UNL     1     -12.525  11.430  70.682  1.00  0.00    -0.340 NA 
HETATM    2  C   UNL     1     -11.304  11.245  70.145  1.00  0.00    -0.164 C  
HETATM    3  H2  UNL     1     -12.860  10.749  71.362  1.00  0.00     0.000 HD 
HETATM    4  H1  UNL     1     -13.133  12.214  70.446  1.00  0.00     0.000 HD 
HETATM    5  N   UNL     1     -10.539  10.260  70.442  1.00  0.00    -0.432 NA 
HETATM    6  N   UNL     1     -10.800  12.115  69.229  1.00  0.00    -0.434 N  
HETATM    7  H1  UNL     1      -9.615  10.120  70.036  1.00  0.00     0.000 HD 
HETATM    8  H2  UNL     1     -10.874   9.578  71.123  1.00  0.00     0.000 HD 
HETATM    9  C   UNL     1     -11.391  13.277  68.766  1.00  0.00    -0.290 C  
HETATM   10  H   UNL     1      -9.885  11.886  68.840  1.00  0.00     0.000 HD 
HETATM   11  O   UNL     1     -12.391  13.783  69.271  1.00  0.00    -0.312 OA 
ENDROOT
BRANCH   9  12
HETATM   12  C   UNL     1     -10.679  13.892  67.575  1.00  0.00    -0.271 C  
BRANCH  12  13
HETATM   13  C   UNL     1     -10.635  12.999  66.355  1.00  0.00    -0.294 A  
HETATM   14  C   UNL     1      -9.537  12.150  66.109  1.00  0.00    -0.240 A  
HETATM   15  C   UNL     1      -9.541  11.249  65.038  1.00  0.00    -0.267 A  
HETATM   16 CL   UNL     1      -8.130  12.156  67.116  1.00  0.00    -0.174 Cl 
HETATM   17  C   UNL     1     -10.633  11.185  64.178  1.00  0.00    -0.436 A  
HETATM   18  C   UNL     1     -11.705  12.050  64.370  1.00  0.00    -0.399 A  
HETATM   19  C   UNL     1     -11.702  12.957  65.437  1.00  0.00    -0.375 A  
HETATM   20 CL   UNL     1     -13.075  13.999  65.573  1.00  0.00    -0.389 Cl 
ENDBRANCH  12  13
ENDBRANCH   9  12
TORSDOF 2
ENDMDL
MODEL      116
REMARK 921   NORMALIZED FREE ENERGY PREDICTED BY IDOCK:   -4.21 KCAL/MOL
REMARK 922        TOTAL FREE ENERGY PREDICTED BY IDOCK:   -5.04 KCAL/MOL
REMARK 923 INTER-LIGAND FREE ENERGY PREDICTED BY IDOCK:   -4.71 KCAL/MOL
REMARK 924 INTRA-LIGAND FREE ENERGY PREDICTED BY IDOCK:   -0.33 KCAL/MOL
REMARK 927      BINDING AFFINITY PREDICTED BY RF-SCORE:    0.00 PKD
ROOT
HETATM    1  N   UNL     1     -10.060   7.322  66.463  1.00  0.00    -0.449 NA 
HETATM    2  C   UNL     1     -10.877   6.295  66.761  1.00  0.00    -0.296 C  
HETATM    3  H2  UNL     1      -9.720   7.405  65.505  1.00  0.00     0.000 HD 
HETATM    4  H1  UNL     1      -9.764   8.024  67.141  1.00  0.00     0.000 HD 
HETATM    5  N   UNL     1     -11.250   5.413  65.907  1.00  0.00    -0.753 NA 
HETATM    6  N   UNL     1     -11.363   6.125  68.020  1.00  0.00    -0.431 N  
HETATM    7  H1  UNL     1     -11.868   4.634  66.133  1.00  0.00     0.000 HD 
HETATM    8  H2  UNL     1     -10.909   5.495  64.950  1.00  0.00     0.000 HD 
HETATM    9  C   UNL     1     -11.157   6.947  69.113  1.00  0.00    -0.159 C  
HETATM   10  H   UNL     1     -11.944   5.301  68.176  1.00  0.00     0.000 HD 
HETATM   11  O   UNL     1     -10.646   8.064  69.041  1.00  0.00    -0.215 OA 
ENDROOT
BRANCH   9  12
HETATM   12  C   UNL     1     -11.637   6.353  70.423  1.00  0.00    -0.440 C  
BRANCH  12  13
HETATM   13  C   UNL     1     -10.637   6.461  71.553  1.00  0.00    -0.273 A  
HETATM   14  C   UNL     1     -10.676   7.537  72.463  1.00  0.00    -0.285 A  
HETATM   15  C   UNL     1      -9.818   7.585  73.568  1.00  0.00    -0.372 A  
HETATM   16 CL   UNL     1     -11.787   8.851  72.282  1.00  0.00    -0.405 Cl 
HETATM   17  C   UNL     1      -8.892   6.570  73.783  1.00  0.00    -0.140 A  
HETATM   18  C   UNL     1      -8.799   5.525  72.869  1.00  0.00    -0.117 A  
HETATM   19  C   UNL     1      -9.651   5.477  71.759  1.00  0.00    -0.151 A  
HETATM   20 CL   UNL     1      -9.440   4.145  70.676  1.00  0.00    -0.226 Cl 
ENDBRANCH  12  13
ENDBRANCH   9  12
TORSDOF 2
ENDMDL
MODEL      117
REMARK 921   NORMALIZED FREE ENERGY PREDICTED BY IDOCK:   -4.20 KCAL/MOL
REMARK 922        TOTAL FREE ENERGY PREDICTED BY IDOCK:   -5.03 KCAL/MOL
REMARK 923 INTER-LIGAND FREE ENERGY PREDICTED BY IDOCK:   -4.70 KCAL/MOL
REMARK 924 INTRA-LIGAND FREE ENERGY PREDICTED BY IDOCK:   -0.33 KCAL/MOL
REMARK 927      BINDING AFFINITY PREDICTED BY RF-SCORE:    0.00 PKD
ROOT
HETATM    1  N   UNL     1      -8.327  10.685  68.556  1.00  0.00    -0.123 NA 
HETATM    2  C   UNL     1      -8.559  11.984  68.288  1.00  0.00    -0.174 C  
HETATM    3  H2  UNL     1      -7.406  10.306  68.338  1.00  0.00     0.000 HD 
HETATM    4  H1  UNL     1      -9.021  10.059  68.965  1.00  0.00     0.000 HD 
HETATM    5  N   UNL     1      -7.686  12.770  67.774  1.00  0.00    -0.137 NA 
HETATM    6  N   UNL     1      -9.768  12.550  68.551  1.00  0.00    -0.361 N  
HETATM    7  H1  UNL     1      -7.862  13.754  67.571  1.00  0.00     0.000 HD 
HETATM    8  H2  UNL     1      -6.765  12.391  67.556  1.00  0.00     0.000 HD 
HETATM    9  C   UNL     1     -10.863  11.947  69.140  1.00  0.00    -0.147 C  
HETATM   10  H   UNL     1      -9.878  13.529  68.284  1.00  0.00     0.000 HD 
HETATM   11  O   UNL     1     -10.826  10.844  69.684  1.00  0.00    -0.245 OA 
ENDROOT
BRANCH   9  12
HETATM   12  C   UNL     1     -12.129  12.780  69.073  1.00  0.00    -0.188 C  
BRANCH  12  13
HETATM   13  C   UNL     1     -12.247  13.812  70.173  1.00  0.00    -0.425 A  
HETATM   14  C   UNL     1     -12.670  13.454  71.469  1.00  0.00    -0.293 A  
HETATM   15  C   UNL     1     -12.681  14.386  72.513  1.00  0.00    -0.410 A  
HETATM   16 CL   UNL     1     -13.186  11.848  71.854  1.00  0.00    -0.554 Cl 
HETATM   17  C   UNL     1     -12.285  15.700  72.285  1.00  0.00    -0.531 A  
HETATM   18  C   UNL     1     -11.915  16.090  71.002  1.00  0.00    -0.407 A  
HETATM   19  C   UNL     1     -11.909  15.161  69.954  1.00  0.00    -0.330 A  
HETATM   20 CL   UNL     1     -11.450  15.754  68.396  1.00  0.00    -0.374 Cl 
ENDBRANCH  12  13
ENDBRANCH   9  12
TORSDOF 2
ENDMDL
MODEL      118
REMARK 921   NORMALIZED FREE ENERGY PREDICTED BY IDOCK:   -4.20 KCAL/MOL
REMARK 922        TOTAL FREE ENERGY PREDICTED BY IDOCK:   -5.03 KCAL/MOL
REMARK 923 INTER-LIGAND FREE ENERGY PREDICTED BY IDOCK:   -4.74 KCAL/MOL
REMARK 924 INTRA-LIGAND FREE ENERGY PREDICTED BY IDOCK:   -0.28 KCAL/MOL
REMARK 927      BINDING AFFINITY PREDICTED BY RF-SCORE:    0.00 PKD
ROOT
HETATM    1  N   UNL     1      -7.835  10.808  65.545  1.00  0.00    -0.317 NA 
HETATM    2  C   UNL     1      -8.995  11.066  64.914  1.00  0.00    -0.101 C  
HETATM    3  H2  UNL     1      -7.033  10.522  64.983  1.00  0.00     0.000 HD 
HETATM    4  H1  UNL     1      -7.712  10.882  66.555  1.00  0.00     0.000 HD 
HETATM    5  N   UNL     1      -9.150  10.972  63.644  1.00  0.00    -0.347 NA 
HETATM    6  N   UNL     1     -10.103  11.446  65.607  1.00  0.00    -0.237 N  
HETATM    7  H1  UNL     1     -10.029  11.168  63.166  1.00  0.00     0.000 HD 
HETATM    8  H2  UNL     1      -8.348  10.687  63.081  1.00  0.00     0.000 HD 
HETATM    9  C   UNL     1     -10.202  11.666  66.969  1.00  0.00    -0.212 C  
HETATM   10  H   UNL     1     -10.953  11.586  65.061  1.00  0.00     0.000 HD 
HETATM   11  O   UNL     1      -9.233  11.725  67.724  1.00  0.00    -0.170 OA 
ENDROOT
BRANCH   9  12
HETATM   12  C   UNL     1     -11.628  11.847  67.455  1.00  0.00    -0.374 C  
BRANCH  12  13
HETATM   13  C   UNL     1     -11.832  13.068  68.326  1.00  0.00    -0.381 A  
HETATM   14  C   UNL     1     -12.012  12.950  69.719  1.00  0.00    -0.296 A  
HETATM   15  C   UNL     1     -12.097  14.081  70.538  1.00  0.00    -0.424 A  
HETATM   16 CL   UNL     1     -12.125  11.411  70.502  1.00  0.00    -0.469 Cl 
HETATM   17  C   UNL     1     -12.020  15.355  69.986  1.00  0.00    -0.383 A  
HETATM   18  C   UNL     1     -11.896  15.497  68.608  1.00  0.00    -0.318 A  
HETATM   19  C   UNL     1     -11.816  14.367  67.784  1.00  0.00    -0.368 A  
HETATM   20 CL   UNL     1     -11.681  14.655  66.084  1.00  0.00    -0.348 Cl 
ENDBRANCH  12  13
ENDBRANCH   9  12
TORSDOF 2
ENDMDL
MODEL      119
REMARK 921   NORMALIZED FREE ENERGY PREDICTED BY IDOCK:   -4.19 KCAL/MOL
REMARK 922        TOTAL FREE ENERGY PREDICTED BY IDOCK:   -5.02 KCAL/MOL
REMARK 923 INTER-LIGAND FREE ENERGY PREDICTED BY IDOCK:   -4.77 KCAL/MOL
REMARK 924 INTRA-LIGAND FREE ENERGY PREDICTED BY IDOCK:   -0.25 KCAL/MOL
REMARK 927      BINDING AFFINITY PREDICTED BY RF-SCORE:    0.00 PKD
ROOT
HETATM    1  N   UNL     1      -8.911  10.175  68.163  1.00  0.00    -0.122 NA 
HETATM    2  C   UNL     1      -8.825  11.455  68.571  1.00  0.00    -0.151 C  
HETATM    3  H2  UNL     1      -8.076   9.594  68.221  1.00  0.00     0.000 HD 
HETATM    4  H1  UNL     1      -9.766   9.755  67.799  1.00  0.00     0.000 HD 
HETATM    5  N   UNL     1      -7.749  11.984  69.029  1.00  0.00    -0.333 NA 
HETATM    6  N   UNL     1      -9.901  12.285  68.516  1.00  0.00    -0.325 N  
HETATM    7  H1  UNL     1      -7.684  12.953  69.338  1.00  0.00     0.000 HD 
HETATM    8  H2  UNL     1      -6.913  11.403  69.086  1.00  0.00     0.000 HD 
HETATM    9  C   UNL     1     -11.184  11.964  68.110  1.00  0.00    -0.258 C  
HETATM   10  H   UNL     1      -9.746  13.250  68.807  1.00  0.00     0.000 HD 
HETATM   11  O   UNL     1     -11.571  10.813  67.915  1.00  0.00    -0.504 OA 
ENDROOT
BRANCH   9  12
HETATM   12  C   UNL     1     -12.090  13.169  67.939  1.00  0.00    -0.247 C  
BRANCH  12  13
HETATM   13  C   UNL     1     -11.608  14.160  66.902  1.00  0.00    -0.410 A  
HETATM   14  C   UNL     1     -11.877  13.972  65.531  1.00  0.00    -0.365 A  
HETATM   15  C   UNL     1     -11.523  14.938  64.582  1.00  0.00    -0.380 A  
HETATM   16 CL   UNL     1     -12.667  12.551  64.938  1.00  0.00    -0.506 Cl 
HETATM   17  C   UNL     1     -10.880  16.107  64.976  1.00  0.00    -0.380 A  
HETATM   18  C   UNL     1     -10.557  16.290  66.317  1.00  0.00    -0.256 A  
HETATM   19  C   UNL     1     -10.904  15.323  67.268  1.00  0.00    -0.318 A  
HETATM   20 CL   UNL     1     -10.440  15.643  68.903  1.00  0.00    -0.212 Cl 
ENDBRANCH  12  13
ENDBRANCH   9  12
TORSDOF 2
ENDMDL
MODEL      120
REMARK 921   NORMALIZED FREE ENERGY PREDICTED BY IDOCK:   -4.17 KCAL/MOL
REMARK 922        TOTAL FREE ENERGY PREDICTED BY IDOCK:   -4.99 KCAL/MOL
REMARK 923 INTER-LIGAND FREE ENERGY PREDICTED BY IDOCK:   -4.67 KCAL/MOL
REMARK 924 INTRA-LIGAND FREE ENERGY PREDICTED BY IDOCK:   -0.33 KCAL/MOL
REMARK 927      BINDING AFFINITY PREDICTED BY RF-SCORE:    0.00 PKD
ROOT
HETATM    1  N   UNL     1     -12.306  10.914  68.460  1.00  0.00    -0.744 NA 
HETATM    2  C   UNL     1     -11.512  11.696  69.215  1.00  0.00    -0.300 C  
HETATM    3  H2  UNL     1     -12.914  10.246  68.933  1.00  0.00     0.000 HD 
HETATM    4  H1  UNL     1     -12.334  10.953  67.441  1.00  0.00     0.000 HD 
HETATM    5  N   UNL     1     -11.478  11.648  70.497  1.00  0.00    -0.386 NA 
HETATM    6  N   UNL     1     -10.675  12.605  68.647  1.00  0.00    -0.245 N  
HETATM    7  H1  UNL     1     -10.877  12.240  71.068  1.00  0.00     0.000 HD 
HETATM    8  H2  UNL     1     -12.086  10.979  70.970  1.00  0.00     0.000 HD 
HETATM    9  C   UNL     1     -10.544  12.893  67.301  1.00  0.00    -0.234 C  
HETATM   10  H   UNL     1     -10.077  13.133  69.284  1.00  0.00     0.000 HD 
HETATM   11  O   UNL     1     -11.318  12.486  66.436  1.00  0.00    -0.293 OA 
ENDROOT
BRANCH   9  12
HETATM   12  C   UNL     1      -9.357  13.782  66.979  1.00  0.00    -0.250 C  
BRANCH  12  13
HETATM   13  C   UNL     1      -9.614  15.257  67.196  1.00  0.00    -0.223 A  
HETATM   14  C   UNL     1     -10.328  16.021  66.251  1.00  0.00    -0.321 A  
HETATM   15  C   UNL     1     -10.656  17.359  66.498  1.00  0.00    -0.184 A  
HETATM   16 CL   UNL     1     -10.853  15.357  64.743  1.00  0.00    -0.429 Cl 
HETATM   17  C   UNL     1     -10.266  17.970  67.685  1.00  0.00    -0.376 A  
HETATM   18  C   UNL     1      -9.515  17.251  68.609  1.00  0.00    -0.278 A  
HETATM   19  C   UNL     1      -9.180  15.914  68.363  1.00  0.00    -0.197 A  
HETATM   20 CL   UNL     1      -8.228  15.119  69.568  1.00  0.00    -0.207 Cl 
ENDBRANCH  12  13
ENDBRANCH   9  12
TORSDOF 2
ENDMDL
MODEL      121
REMARK 921   NORMALIZED FREE ENERGY PREDICTED BY IDOCK:   -4.17 KCAL/MOL
REMARK 922        TOTAL FREE ENERGY PREDICTED BY IDOCK:   -4.99 KCAL/MOL
REMARK 923 INTER-LIGAND FREE ENERGY PREDICTED BY IDOCK:   -4.68 KCAL/MOL
REMARK 924 INTRA-LIGAND FREE ENERGY PREDICTED BY IDOCK:   -0.31 KCAL/MOL
REMARK 927      BINDING AFFINITY PREDICTED BY RF-SCORE:    0.00 PKD
ROOT
HETATM    1  N   UNL     1     -13.090  12.688  64.667  1.00  0.00    -0.848 NA 
HETATM    2  C   UNL     1     -11.981  12.000  64.338  1.00  0.00    -0.300 C  
HETATM    3  H2  UNL     1     -13.739  12.940  63.921  1.00  0.00     0.000 HD 
HETATM    4  H1  UNL     1     -13.318  12.970  65.620  1.00  0.00     0.000 HD 
HETATM    5  N   UNL     1     -11.694  11.644  63.140  1.00  0.00    -0.881 NA 
HETATM    6  N   UNL     1     -11.073  11.637  65.284  1.00  0.00    -0.271 N  
HETATM    7  H1  UNL     1     -10.854  11.123  62.891  1.00  0.00     0.000 HD 
HETATM    8  H2  UNL     1     -12.343  11.896  62.394  1.00  0.00     0.000 HD 
HETATM    9  C   UNL     1     -11.155  11.852  66.647  1.00  0.00    -0.310 C  
HETATM   10  H   UNL     1     -10.240  11.151  64.950  1.00  0.00     0.000 HD 
HETATM   11  O   UNL     1     -12.171  12.246  67.217  1.00  0.00    -0.485 OA 
ENDROOT
BRANCH   9  12
HETATM   12  C   UNL     1      -9.872  11.538  67.393  1.00  0.00    -0.202 C  
BRANCH  12  13
HETATM   13  C   UNL     1      -9.818  10.140  67.968  1.00  0.00    -0.169 A  
HETATM   14  C   UNL     1      -9.265   9.070  67.236  1.00  0.00    -0.134 A  
HETATM   15  C   UNL     1      -9.121   7.799  67.805  1.00  0.00    -0.136 A  
HETATM   16 CL   UNL     1      -8.721   9.259  65.605  1.00  0.00    -0.175 Cl 
HETATM   17  C   UNL     1      -9.539   7.562  69.110  1.00  0.00    -0.157 A  
HETATM   18  C   UNL     1     -10.136   8.589  69.833  1.00  0.00    -0.195 A  
HETATM   19  C   UNL     1     -10.288   9.860  69.266  1.00  0.00    -0.219 A  
HETATM   20 CL   UNL     1     -11.059  11.059  70.244  1.00  0.00    -0.201 Cl 
ENDBRANCH  12  13
ENDBRANCH   9  12
TORSDOF 2
ENDMDL
MODEL      122
REMARK 921   NORMALIZED FREE ENERGY PREDICTED BY IDOCK:   -4.17 KCAL/MOL
REMARK 922        TOTAL FREE ENERGY PREDICTED BY IDOCK:   -4.99 KCAL/MOL
REMARK 923 INTER-LIGAND FREE ENERGY PREDICTED BY IDOCK:   -4.68 KCAL/MOL
REMARK 924 INTRA-LIGAND FREE ENERGY PREDICTED BY IDOCK:   -0.30 KCAL/MOL
REMARK 927      BINDING AFFINITY PREDICTED BY RF-SCORE:    0.00 PKD
ROOT
HETATM    1  N   UNL     1     -12.166  14.215  68.771  1.00  0.00    -0.546 NA 
HETATM    2  C   UNL     1     -12.183  15.356  69.486  1.00  0.00    -0.246 C  
HETATM    3  H2  UNL     1     -12.966  13.587  68.849  1.00  0.00     0.000 HD 
HETATM    4  H1  UNL     1     -11.399  13.945  68.157  1.00  0.00     0.000 HD 
HETATM    5  N   UNL     1     -13.148  15.696  70.260  1.00  0.00    -0.704 NA 
HETATM    6  N   UNL     1     -11.146  16.235  69.432  1.00  0.00    -0.328 N  
HETATM    7  H1  UNL     1     -13.160  16.560  70.801  1.00  0.00     0.000 HD 
HETATM    8  H2  UNL     1     -13.947  15.068  70.337  1.00  0.00     0.000 HD 
HETATM    9  C   UNL     1     -10.008  16.137  68.652  1.00  0.00    -0.228 C  
HETATM   10  H   UNL     1     -11.215  17.057  70.032  1.00  0.00     0.000 HD 
HETATM   11  O   UNL     1      -9.867  15.315  67.747  1.00  0.00    -0.219 OA 
ENDROOT
BRANCH   9  12
HETATM   12  C   UNL     1      -8.939  17.157  69.000  1.00  0.00    -0.110 C  
BRANCH  12  13
HETATM   13  C   UNL     1      -8.264  17.779  67.797  1.00  0.00    -0.227 A  
HETATM   14  C   UNL     1      -8.767  18.954  67.204  1.00  0.00    -0.284 A  
HETATM   15  C   UNL     1      -8.087  19.587  66.157  1.00  0.00    -0.342 A  
HETATM   16 CL   UNL     1     -10.239  19.692  67.734  1.00  0.00    -0.530 Cl 
HETATM   17  C   UNL     1      -6.899  19.055  65.668  1.00  0.00    -0.305 A  
HETATM   18  C   UNL     1      -6.411  17.867  66.203  1.00  0.00    -0.292 A  
HETATM   19  C   UNL     1      -7.092  17.227  67.246  1.00  0.00    -0.165 A  
HETATM   20 CL   UNL     1      -6.410  15.747  67.825  1.00  0.00    -0.158 Cl 
ENDBRANCH  12  13
ENDBRANCH   9  12
TORSDOF 2
ENDMDL
MODEL      123
REMARK 921   NORMALIZED FREE ENERGY PREDICTED BY IDOCK:   -4.16 KCAL/MOL
REMARK 922        TOTAL FREE ENERGY PREDICTED BY IDOCK:   -4.99 KCAL/MOL
REMARK 923 INTER-LIGAND FREE ENERGY PREDICTED BY IDOCK:   -4.66 KCAL/MOL
REMARK 924 INTRA-LIGAND FREE ENERGY PREDICTED BY IDOCK:   -0.33 KCAL/MOL
REMARK 927      BINDING AFFINITY PREDICTED BY RF-SCORE:    0.00 PKD
ROOT
HETATM    1  N   UNL     1     -13.261  13.437  65.579  1.00  0.00    -0.452 NA 
HETATM    2  C   UNL     1     -12.266  13.428  64.672  1.00  0.00    -0.407 C  
HETATM    3  H2  UNL     1     -14.120  13.936  65.346  1.00  0.00     0.000 HD 
HETATM    4  H1  UNL     1     -13.204  12.972  66.485  1.00  0.00     0.000 HD 
HETATM    5  N   UNL     1     -12.338  14.013  63.532  1.00  0.00    -1.118 NA 
HETATM    6  N   UNL     1     -11.094  12.785  64.921  1.00  0.00    -0.283 N  
HETATM    7  H1  UNL     1     -11.584  14.006  62.846  1.00  0.00     0.000 HD 
HETATM    8  H2  UNL     1     -13.196  14.512  63.300  1.00  0.00     0.000 HD 
HETATM    9  C   UNL     1     -10.769  12.044  66.043  1.00  0.00    -0.279 C  
HETATM   10  H   UNL     1     -10.374  12.857  64.201  1.00  0.00     0.000 HD 
HETATM   11  O   UNL     1     -11.585  11.709  66.900  1.00  0.00    -0.507 OA 
ENDROOT
BRANCH   9  12
HETATM   12  C   UNL     1      -9.303  11.659  66.117  1.00  0.00    -0.237 C  
BRANCH  12  13
HETATM   13  C   UNL     1      -9.064  10.182  66.341  1.00  0.00    -0.176 A  
HETATM   14  C   UNL     1      -8.961   9.286  65.257  1.00  0.00    -0.213 A  
HETATM   15  C   UNL     1      -8.638   7.939  65.457  1.00  0.00    -0.139 A  
HETATM   16 CL   UNL     1      -9.214   9.792  63.622  1.00  0.00    -0.279 Cl 
HETATM   17  C   UNL     1      -8.424   7.451  66.742  1.00  0.00    -0.124 A  
HETATM   18  C   UNL     1      -8.573   8.305  67.830  1.00  0.00    -0.132 A  
HETATM   19  C   UNL     1      -8.902   9.651  67.635  1.00  0.00    -0.125 A  
HETATM   20 CL   UNL     1      -9.080  10.620  69.056  1.00  0.00    -0.184 Cl 
ENDBRANCH  12  13
ENDBRANCH   9  12
TORSDOF 2
ENDMDL
MODEL      124
REMARK 921   NORMALIZED FREE ENERGY PREDICTED BY IDOCK:   -4.15 KCAL/MOL
REMARK 922        TOTAL FREE ENERGY PREDICTED BY IDOCK:   -4.98 KCAL/MOL
REMARK 923 INTER-LIGAND FREE ENERGY PREDICTED BY IDOCK:   -4.64 KCAL/MOL
REMARK 924 INTRA-LIGAND FREE ENERGY PREDICTED BY IDOCK:   -0.34 KCAL/MOL
REMARK 927      BINDING AFFINITY PREDICTED BY RF-SCORE:    0.00 PKD
ROOT
HETATM    1  N   UNL     1     -13.919   8.891  71.207  1.00  0.00    -0.560 NA 
HETATM    2  C   UNL     1     -12.631   8.854  71.596  1.00  0.00    -0.346 C  
HETATM    3  H2  UNL     1     -14.588   8.298  71.698  1.00  0.00     0.000 HD 
HETATM    4  H1  UNL     1     -14.264   9.479  70.449  1.00  0.00     0.000 HD 
HETATM    5  N   UNL     1     -12.198   8.114  72.550  1.00  0.00    -0.550 NA 
HETATM    6  N   UNL     1     -11.688   9.616  70.979  1.00  0.00    -0.325 N  
HETATM    7  H1  UNL     1     -11.222   8.086  72.844  1.00  0.00     0.000 HD 
HETATM    8  H2  UNL     1     -12.867   7.521  73.041  1.00  0.00     0.000 HD 
HETATM    9  C   UNL     1     -11.888  10.529  69.959  1.00  0.00    -0.308 C  
HETATM   10  H   UNL     1     -10.729   9.503  71.306  1.00  0.00     0.000 HD 
HETATM   11  O   UNL     1     -12.997  10.913  69.593  1.00  0.00    -0.131 OA 
ENDROOT
BRANCH   9  12
HETATM   12  C   UNL     1     -10.602  11.035  69.334  1.00  0.00    -0.212 C  
BRANCH  12  13
HETATM   13  C   UNL     1     -10.398  10.595  67.900  1.00  0.00    -0.231 A  
HETATM   14  C   UNL     1     -10.876  11.369  66.823  1.00  0.00    -0.286 A  
HETATM   15  C   UNL     1     -10.599  11.017  65.497  1.00  0.00    -0.267 A  
HETATM   16 CL   UNL     1     -11.816  12.800  67.069  1.00  0.00    -0.445 Cl 
HETATM   17  C   UNL     1      -9.853   9.878  65.214  1.00  0.00    -0.373 A  
HETATM   18  C   UNL     1      -9.417   9.070  66.259  1.00  0.00    -0.306 A  
HETATM   19  C   UNL     1      -9.697   9.415  67.587  1.00  0.00    -0.155 A  
HETATM   20 CL   UNL     1      -9.124   8.332  68.807  1.00  0.00    -0.144 Cl 
ENDBRANCH  12  13
ENDBRANCH   9  12
TORSDOF 2
ENDMDL
MODEL      125
REMARK 921   NORMALIZED FREE ENERGY PREDICTED BY IDOCK:   -4.15 KCAL/MOL
REMARK 922        TOTAL FREE ENERGY PREDICTED BY IDOCK:   -4.97 KCAL/MOL
REMARK 923 INTER-LIGAND FREE ENERGY PREDICTED BY IDOCK:   -4.65 KCAL/MOL
REMARK 924 INTRA-LIGAND FREE ENERGY PREDICTED BY IDOCK:   -0.32 KCAL/MOL
REMARK 927      BINDING AFFINITY PREDICTED BY RF-SCORE:    0.00 PKD
ROOT
HETATM    1  N   UNL     1     -11.185   4.753  65.333  1.00  0.00    -0.970 NA 
HETATM    2  C   UNL     1     -10.263   4.360  66.232  1.00  0.00    -0.181 C  
HETATM    3  H2  UNL     1     -11.452   4.097  64.599  1.00  0.00     0.000 HD 
HETATM    4  H1  UNL     1     -11.632   5.669  65.345  1.00  0.00     0.000 HD 
HETATM    5  N   UNL     1      -9.702   3.206  66.217  1.00  0.00    -0.404 NA 
HETATM    6  N   UNL     1      -9.860   5.188  67.234  1.00  0.00    -0.155 N  
HETATM    7  H1  UNL     1      -9.004   2.909  66.898  1.00  0.00     0.000 HD 
HETATM    8  H2  UNL     1      -9.969   2.551  65.483  1.00  0.00     0.000 HD 
HETATM    9  C   UNL     1     -10.331   6.459  67.507  1.00  0.00    -0.196 C  
HETATM   10  H   UNL     1      -9.131   4.832  67.851  1.00  0.00     0.000 HD 
HETATM   11  O   UNL     1     -11.330   6.946  66.979  1.00  0.00    -0.304 OA 
ENDROOT
BRANCH   9  12
HETATM   12  C   UNL     1      -9.509   7.205  68.541  1.00  0.00    -0.139 C  
BRANCH  12  13
HETATM   13  C   UNL     1     -10.336   7.950  69.566  1.00  0.00    -0.217 A  
HETATM   14  C   UNL     1     -10.566   9.336  69.451  1.00  0.00    -0.223 A  
HETATM   15  C   UNL     1     -11.415  10.007  70.339  1.00  0.00    -0.389 A  
HETATM   16 CL   UNL     1      -9.831  10.288  68.208  1.00  0.00    -0.155 Cl 
HETATM   17  C   UNL     1     -12.041   9.315  71.370  1.00  0.00    -0.424 A  
HETATM   18  C   UNL     1     -11.787   7.958  71.535  1.00  0.00    -0.322 A  
HETATM   19  C   UNL     1     -10.934   7.284  70.653  1.00  0.00    -0.256 A  
HETATM   20 CL   UNL     1     -10.673   5.602  70.958  1.00  0.00    -0.316 Cl 
ENDBRANCH  12  13
ENDBRANCH   9  12
TORSDOF 2
ENDMDL
MODEL      126
REMARK 921   NORMALIZED FREE ENERGY PREDICTED BY IDOCK:   -4.13 KCAL/MOL
REMARK 922        TOTAL FREE ENERGY PREDICTED BY IDOCK:   -4.95 KCAL/MOL
REMARK 923 INTER-LIGAND FREE ENERGY PREDICTED BY IDOCK:   -4.62 KCAL/MOL
REMARK 924 INTRA-LIGAND FREE ENERGY PREDICTED BY IDOCK:   -0.33 KCAL/MOL
REMARK 927      BINDING AFFINITY PREDICTED BY RF-SCORE:    0.00 PKD
ROOT
HETATM    1  N   UNL     1      -8.016  20.270  67.508  1.00  0.00    -0.317 NA 
HETATM    2  C   UNL     1      -7.179  19.278  67.865  1.00  0.00    -0.253 C  
HETATM    3  H2  UNL     1      -7.832  21.207  67.864  1.00  0.00     0.000 HD 
HETATM    4  H1  UNL     1      -8.825  20.135  66.902  1.00  0.00     0.000 HD 
HETATM    5  N   UNL     1      -6.161  19.447  68.628  1.00  0.00    -0.235 NA 
HETATM    6  N   UNL     1      -7.371  18.004  67.428  1.00  0.00    -0.203 N  
HETATM    7  H1  UNL     1      -5.527  18.696  68.898  1.00  0.00     0.000 HD 
HETATM    8  H2  UNL     1      -5.977  20.385  68.984  1.00  0.00     0.000 HD 
HETATM    9  C   UNL     1      -8.356  17.555  66.568  1.00  0.00    -0.270 C  
HETATM   10  H   UNL     1      -6.716  17.302  67.774  1.00  0.00     0.000 HD 
HETATM   11  O   UNL     1      -9.093  18.301  65.925  1.00  0.00    -0.503 OA 
ENDROOT
BRANCH   9  12
HETATM   12  C   UNL     1      -8.439  16.044  66.471  1.00  0.00    -0.348 C  
BRANCH  12  13
HETATM   13  C   UNL     1      -9.642  15.446  67.169  1.00  0.00    -0.218 A  
HETATM   14  C   UNL     1     -10.829  15.163  66.465  1.00  0.00    -0.317 A  
HETATM   15  C   UNL     1     -11.904  14.516  67.086  1.00  0.00    -0.412 A  
HETATM   16 CL   UNL     1     -11.029  15.581  64.798  1.00  0.00    -0.442 Cl 
HETATM   17  C   UNL     1     -11.825  14.151  68.425  1.00  0.00    -0.388 A  
HETATM   18  C   UNL     1     -10.684  14.468  69.154  1.00  0.00    -0.263 A  
HETATM   19  C   UNL     1      -9.609  15.121  68.538  1.00  0.00    -0.214 A  
HETATM   20 CL   UNL     1      -8.246  15.484  69.539  1.00  0.00    -0.242 Cl 
ENDBRANCH  12  13
ENDBRANCH   9  12
TORSDOF 2
ENDMDL
MODEL      127
REMARK 921   NORMALIZED FREE ENERGY PREDICTED BY IDOCK:   -4.12 KCAL/MOL
REMARK 922        TOTAL FREE ENERGY PREDICTED BY IDOCK:   -4.94 KCAL/MOL
REMARK 923 INTER-LIGAND FREE ENERGY PREDICTED BY IDOCK:   -4.71 KCAL/MOL
REMARK 924 INTRA-LIGAND FREE ENERGY PREDICTED BY IDOCK:   -0.23 KCAL/MOL
REMARK 927      BINDING AFFINITY PREDICTED BY RF-SCORE:    0.00 PKD
ROOT
HETATM    1  N   UNL     1     -13.876   8.884  73.047  1.00  0.00    -1.107 NA 
HETATM    2  C   UNL     1     -13.177   9.389  72.013  1.00  0.00    -0.449 C  
HETATM    3  H2  UNL     1     -14.307   9.536  73.702  1.00  0.00     0.000 HD 
HETATM    4  H1  UNL     1     -13.999   7.885  73.211  1.00  0.00     0.000 HD 
HETATM    5  N   UNL     1     -13.022  10.645  71.807  1.00  0.00    -0.471 NA 
HETATM    6  N   UNL     1     -12.575   8.573  71.106  1.00  0.00    -0.472 N  
HETATM    7  H1  UNL     1     -12.493  11.028  71.024  1.00  0.00     0.000 HD 
HETATM    8  H2  UNL     1     -13.453  11.298  72.462  1.00  0.00     0.000 HD 
HETATM    9  C   UNL     1     -12.618   7.192  71.067  1.00  0.00    -0.290 C  
HETATM   10  H   UNL     1     -12.032   9.032  70.374  1.00  0.00     0.000 HD 
HETATM   11  O   UNL     1     -13.377   6.512  71.756  1.00  0.00    -0.155 OA 
ENDROOT
BRANCH   9  12
HETATM   12  C   UNL     1     -11.648   6.579  70.074  1.00  0.00    -0.455 C  
BRANCH  12  13
HETATM   13  C   UNL     1     -10.194   6.872  70.371  1.00  0.00    -0.209 A  
HETATM   14  C   UNL     1      -9.534   7.969  69.780  1.00  0.00    -0.159 A  
HETATM   15  C   UNL     1      -8.221   8.302  70.133  1.00  0.00    -0.118 A  
HETATM   16 CL   UNL     1     -10.303   8.974  68.601  1.00  0.00    -0.227 Cl 
HETATM   17  C   UNL     1      -7.531   7.541  71.070  1.00  0.00    -0.072 A  
HETATM   18  C   UNL     1      -8.143   6.422  71.627  1.00  0.00    -0.109 A  
HETATM   19  C   UNL     1      -9.455   6.082  71.272  1.00  0.00    -0.163 A  
HETATM   20 CL   UNL     1     -10.114   4.664  72.009  1.00  0.00    -0.253 Cl 
ENDBRANCH  12  13
ENDBRANCH   9  12
TORSDOF 2
ENDMDL
MODEL      128
REMARK 921   NORMALIZED FREE ENERGY PREDICTED BY IDOCK:   -4.12 KCAL/MOL
REMARK 922        TOTAL FREE ENERGY PREDICTED BY IDOCK:   -4.94 KCAL/MOL
REMARK 923 INTER-LIGAND FREE ENERGY PREDICTED BY IDOCK:   -4.59 KCAL/MOL
REMARK 924 INTRA-LIGAND FREE ENERGY PREDICTED BY IDOCK:   -0.34 KCAL/MOL
REMARK 927      BINDING AFFINITY PREDICTED BY RF-SCORE:    0.00 PKD
ROOT
HETATM    1  N   UNL     1      -6.465  10.823  62.696  1.00  0.00    -0.332 NA 
HETATM    2  C   UNL     1      -6.734  10.032  63.752  1.00  0.00    -0.128 C  
HETATM    3  H2  UNL     1      -5.521  10.809  62.312  1.00  0.00     0.000 HD 
HETATM    4  H1  UNL     1      -7.154  11.436  62.260  1.00  0.00     0.000 HD 
HETATM    5  N   UNL     1      -5.868   9.261  64.301  1.00  0.00    -0.069 NA 
HETATM    6  N   UNL     1      -7.972  10.008  64.315  1.00  0.00    -0.148 N  
HETATM    7  H1  UNL     1      -6.071   8.662  65.100  1.00  0.00     0.000 HD 
HETATM    8  H2  UNL     1      -4.923   9.247  63.916  1.00  0.00     0.000 HD 
HETATM    9  C   UNL     1      -9.093  10.701  63.898  1.00  0.00    -0.224 C  
HETATM   10  H   UNL     1      -8.086   9.412  65.135  1.00  0.00     0.000 HD 
HETATM   11  O   UNL     1      -9.166  11.302  62.828  1.00  0.00    -0.334 OA 
ENDROOT
BRANCH   9  12
HETATM   12  C   UNL     1     -10.249  10.640  64.880  1.00  0.00    -0.395 C  
BRANCH  12  13
HETATM   13  C   UNL     1     -10.745  11.996  65.332  1.00  0.00    -0.330 A  
HETATM   14  C   UNL     1     -11.866  12.602  64.729  1.00  0.00    -0.380 A  
HETATM   15  C   UNL     1     -12.389  13.806  65.213  1.00  0.00    -0.491 A  
HETATM   16 CL   UNL     1     -12.670  11.895  63.370  1.00  0.00    -0.655 Cl 
HETATM   17  C   UNL     1     -11.797  14.442  66.300  1.00  0.00    -0.391 A  
HETATM   18  C   UNL     1     -10.658  13.890  66.877  1.00  0.00    -0.280 A  
HETATM   19  C   UNL     1     -10.129  12.688  66.392  1.00  0.00    -0.253 A  
HETATM   20 CL   UNL     1      -8.701  12.099  67.170  1.00  0.00    -0.183 Cl 
ENDBRANCH  12  13
ENDBRANCH   9  12
TORSDOF 2
ENDMDL
MODEL      129
REMARK 921   NORMALIZED FREE ENERGY PREDICTED BY IDOCK:   -4.11 KCAL/MOL
REMARK 922        TOTAL FREE ENERGY PREDICTED BY IDOCK:   -4.93 KCAL/MOL
REMARK 923 INTER-LIGAND FREE ENERGY PREDICTED BY IDOCK:   -4.57 KCAL/MOL
REMARK 924 INTRA-LIGAND FREE ENERGY PREDICTED BY IDOCK:   -0.36 KCAL/MOL
REMARK 927      BINDING AFFINITY PREDICTED BY RF-SCORE:    0.00 PKD
ROOT
HETATM    1  N   UNL     1      -5.892  10.440  71.168  1.00  0.00    -0.286 NA 
HETATM    2  C   UNL     1      -6.602  10.962  70.151  1.00  0.00    -0.120 C  
HETATM    3  H2  UNL     1      -4.964  10.821  71.351  1.00  0.00     0.000 HD 
HETATM    4  H1  UNL     1      -6.230   9.685  71.764  1.00  0.00     0.000 HD 
HETATM    5  N   UNL     1      -6.178  11.912  69.400  1.00  0.00    -0.097 NA 
HETATM    6  N   UNL     1      -7.845  10.497  69.850  1.00  0.00    -0.362 N  
HETATM    7  H1  UNL     1      -6.716  12.307  68.630  1.00  0.00     0.000 HD 
HETATM    8  H2  UNL     1      -5.249  12.292  69.584  1.00  0.00     0.000 HD 
HETATM    9  C   UNL     1      -8.555   9.517  70.519  1.00  0.00    -0.184 C  
HETATM   10  H   UNL     1      -8.304  10.917  69.041  1.00  0.00     0.000 HD 
HETATM   11  O   UNL     1      -8.223   9.057  71.610  1.00  0.00    -0.330 OA 
ENDROOT
BRANCH   9  12
HETATM   12  C   UNL     1      -9.806   9.064  69.790  1.00  0.00    -0.188 C  
BRANCH  12  13
HETATM   13  C   UNL     1     -11.093   9.368  70.526  1.00  0.00    -0.330 A  
HETATM   14  C   UNL     1     -11.709   8.405  71.351  1.00  0.00    -0.287 A  
HETATM   15  C   UNL     1     -12.841   8.718  72.112  1.00  0.00    -0.456 A  
HETATM   16 CL   UNL     1     -11.102   6.790  71.484  1.00  0.00    -0.275 Cl 
HETATM   17  C   UNL     1     -13.393   9.993  72.057  1.00  0.00    -0.513 A  
HETATM   18  C   UNL     1     -12.835  10.944  71.209  1.00  0.00    -0.536 A  
HETATM   19  C   UNL     1     -11.706  10.633  70.442  1.00  0.00    -0.353 A  
HETATM   20 CL   UNL     1     -11.102  11.882  69.409  1.00  0.00    -0.253 Cl 
ENDBRANCH  12  13
ENDBRANCH   9  12
TORSDOF 2
ENDMDL
MODEL      130
REMARK 921   NORMALIZED FREE ENERGY PREDICTED BY IDOCK:   -4.10 KCAL/MOL
REMARK 922        TOTAL FREE ENERGY PREDICTED BY IDOCK:   -4.91 KCAL/MOL
REMARK 923 INTER-LIGAND FREE ENERGY PREDICTED BY IDOCK:   -4.63 KCAL/MOL
REMARK 924 INTRA-LIGAND FREE ENERGY PREDICTED BY IDOCK:   -0.28 KCAL/MOL
REMARK 927      BINDING AFFINITY PREDICTED BY RF-SCORE:    0.00 PKD
ROOT
HETATM    1  N   UNL     1     -11.666  11.220  67.644  1.00  0.00    -0.605 NA 
HETATM    2  C   UNL     1     -11.685  11.930  68.788  1.00  0.00    -0.321 C  
HETATM    3  H2  UNL     1     -11.738  11.727  66.762  1.00  0.00     0.000 HD 
HETATM    4  H1  UNL     1     -11.583  10.204  67.611  1.00  0.00     0.000 HD 
HETATM    5  N   UNL     1     -11.789  13.207  68.830  1.00  0.00    -0.317 NA 
HETATM    6  N   UNL     1     -11.597  11.315  69.998  1.00  0.00    -0.361 N  
HETATM    7  H1  UNL     1     -11.804  13.745  69.697  1.00  0.00     0.000 HD 
HETATM    8  H2  UNL     1     -11.862  13.714  67.948  1.00  0.00     0.000 HD 
HETATM    9  C   UNL     1     -11.434   9.963  70.239  1.00  0.00    -0.281 C  
HETATM   10  H   UNL     1     -11.658  11.917  70.819  1.00  0.00     0.000 HD 
HETATM   11  O   UNL     1     -11.156   9.142  69.366  1.00  0.00    -0.148 OA 
ENDROOT
BRANCH   9  12
HETATM   12  C   UNL     1     -11.613   9.575  71.695  1.00  0.00    -0.451 C  
BRANCH  12  13
HETATM   13  C   UNL     1     -11.338   8.116  71.983  1.00  0.00    -0.378 A  
HETATM   14  C   UNL     1     -10.034   7.658  72.259  1.00  0.00    -0.190 A  
HETATM   15  C   UNL     1      -9.793   6.329  72.627  1.00  0.00    -0.175 A  
HETATM   16 CL   UNL     1      -8.658   8.704  72.174  1.00  0.00    -0.232 Cl 
HETATM   17  C   UNL     1     -10.844   5.423  72.713  1.00  0.00    -0.310 A  
HETATM   18  C   UNL     1     -12.133   5.839  72.393  1.00  0.00    -0.088 A  
HETATM   19  C   UNL     1     -12.377   7.166  72.019  1.00  0.00    -0.263 A  
HETATM   20 CL   UNL     1     -14.011   7.573  71.625  1.00  0.00    -0.506 Cl 
ENDBRANCH  12  13
ENDBRANCH   9  12
TORSDOF 2
ENDMDL
MODEL      131
REMARK 921   NORMALIZED FREE ENERGY PREDICTED BY IDOCK:   -4.09 KCAL/MOL
REMARK 922        TOTAL FREE ENERGY PREDICTED BY IDOCK:   -4.91 KCAL/MOL
REMARK 923 INTER-LIGAND FREE ENERGY PREDICTED BY IDOCK:   -4.60 KCAL/MOL
REMARK 924 INTRA-LIGAND FREE ENERGY PREDICTED BY IDOCK:   -0.31 KCAL/MOL
REMARK 927      BINDING AFFINITY PREDICTED BY RF-SCORE:    0.00 PKD
ROOT
HETATM    1  N   UNL     1      -9.889   7.080  66.288  1.00  0.00    -0.419 NA 
HETATM    2  C   UNL     1     -10.737   6.112  66.682  1.00  0.00    -0.231 C  
HETATM    3  H2  UNL     1      -9.523   7.042  65.337  1.00  0.00     0.000 HD 
HETATM    4  H1  UNL     1      -9.591   7.848  66.889  1.00  0.00     0.000 HD 
HETATM    5  N   UNL     1     -11.112   5.145  65.926  1.00  0.00    -0.803 NA 
HETATM    6  N   UNL     1     -11.257   6.101  67.939  1.00  0.00    -0.465 N  
HETATM    7  H1  UNL     1     -11.755   4.412  66.224  1.00  0.00     0.000 HD 
HETATM    8  H2  UNL     1     -10.747   5.108  64.975  1.00  0.00     0.000 HD 
HETATM    9  C   UNL     1     -11.056   7.040  68.934  1.00  0.00    -0.050 C  
HETATM   10  H   UNL     1     -11.862   5.313  68.173  1.00  0.00     0.000 HD 
HETATM   11  O   UNL     1     -10.517   8.129  68.748  1.00  0.00    -0.211 OA 
ENDROOT
BRANCH   9  12
HETATM   12  C   UNL     1     -11.583   6.612  70.292  1.00  0.00    -0.454 C  
BRANCH  12  13
HETATM   13  C   UNL     1     -10.586   6.776  71.419  1.00  0.00    -0.247 A  
HETATM   14  C   UNL     1      -9.698   5.738  71.766  1.00  0.00    -0.156 A  
HETATM   15  C   UNL     1      -8.708   5.924  72.737  1.00  0.00    -0.125 A  
HETATM   16 CL   UNL     1      -9.765   4.183  71.010  1.00  0.00    -0.253 Cl 
HETATM   17  C   UNL     1      -8.591   7.143  73.396  1.00  0.00    -0.162 A  
HETATM   18  C   UNL     1      -9.490   8.164  73.108  1.00  0.00    -0.316 A  
HETATM   19  C   UNL     1     -10.486   7.980  72.141  1.00  0.00    -0.265 A  
HETATM   20 CL   UNL     1     -11.562   9.307  71.873  1.00  0.00    -0.443 Cl 
ENDBRANCH  12  13
ENDBRANCH   9  12
TORSDOF 2
ENDMDL
MODEL      132
REMARK 921   NORMALIZED FREE ENERGY PREDICTED BY IDOCK:   -4.09 KCAL/MOL
REMARK 922        TOTAL FREE ENERGY PREDICTED BY IDOCK:   -4.91 KCAL/MOL
REMARK 923 INTER-LIGAND FREE ENERGY PREDICTED BY IDOCK:   -4.57 KCAL/MOL
REMARK 924 INTRA-LIGAND FREE ENERGY PREDICTED BY IDOCK:   -0.34 KCAL/MOL
REMARK 927      BINDING AFFINITY PREDICTED BY RF-SCORE:    0.00 PKD
ROOT
HETATM    1  N   UNL     1      -8.917   9.851  63.437  1.00  0.00    -0.241 NA 
HETATM    2  C   UNL     1      -9.401   9.601  64.668  1.00  0.00    -0.207 C  
HETATM    3  H2  UNL     1      -8.376   9.120  62.975  1.00  0.00     0.000 HD 
HETATM    4  H1  UNL     1      -9.062  10.729  62.940  1.00  0.00     0.000 HD 
HETATM    5  N   UNL     1      -9.219   8.496  65.293  1.00  0.00    -0.430 NA 
HETATM    6  N   UNL     1     -10.128  10.535  65.340  1.00  0.00    -0.288 N  
HETATM    7  H1  UNL     1      -9.586   8.307  66.225  1.00  0.00     0.000 HD 
HETATM    8  H2  UNL     1      -8.678   7.765  64.831  1.00  0.00     0.000 HD 
HETATM    9  C   UNL     1     -10.507  11.785  64.886  1.00  0.00    -0.287 C  
HETATM   10  H   UNL     1     -10.427  10.285  66.283  1.00  0.00     0.000 HD 
HETATM   11  O   UNL     1     -10.390  12.152  63.718  1.00  0.00    -0.369 OA 
ENDROOT
BRANCH   9  12
HETATM   12  C   UNL     1     -11.103  12.671  65.963  1.00  0.00    -0.321 C  
BRANCH  12  13
HETATM   13  C   UNL     1     -10.439  14.025  66.085  1.00  0.00    -0.297 A  
HETATM   14  C   UNL     1     -10.946  15.151  65.405  1.00  0.00    -0.374 A  
HETATM   15  C   UNL     1     -10.397  16.424  65.598  1.00  0.00    -0.371 A  
HETATM   16 CL   UNL     1     -12.279  15.036  64.308  1.00  0.00    -0.433 Cl 
HETATM   17  C   UNL     1      -9.320  16.601  66.460  1.00  0.00    -0.290 A  
HETATM   18  C   UNL     1      -8.769  15.496  67.101  1.00  0.00    -0.234 A  
HETATM   19  C   UNL     1      -9.312  14.220  66.906  1.00  0.00    -0.257 A  
HETATM   20 CL   UNL     1      -8.541  12.914  67.736  1.00  0.00    -0.172 Cl 
ENDBRANCH  12  13
ENDBRANCH   9  12
TORSDOF 2
ENDMDL
MODEL      133
REMARK 921   NORMALIZED FREE ENERGY PREDICTED BY IDOCK:   -4.09 KCAL/MOL
REMARK 922        TOTAL FREE ENERGY PREDICTED BY IDOCK:   -4.90 KCAL/MOL
REMARK 923 INTER-LIGAND FREE ENERGY PREDICTED BY IDOCK:   -4.63 KCAL/MOL
REMARK 924 INTRA-LIGAND FREE ENERGY PREDICTED BY IDOCK:   -0.28 KCAL/MOL
REMARK 927      BINDING AFFINITY PREDICTED BY RF-SCORE:    0.00 PKD
ROOT
HETATM    1  N   UNL     1      -6.646  12.624  68.151  1.00  0.00    -0.071 NA 
HETATM    2  C   UNL     1      -7.755  13.241  68.601  1.00  0.00    -0.080 C  
HETATM    3  H2  UNL     1      -5.741  13.040  68.371  1.00  0.00     0.000 HD 
HETATM    4  H1  UNL     1      -6.660  11.764  67.604  1.00  0.00     0.000 HD 
HETATM    5  N   UNL     1      -7.737  14.322  69.290  1.00  0.00    -0.333 NA 
HETATM    6  N   UNL     1      -8.993  12.740  68.339  1.00  0.00    -0.318 N  
HETATM    7  H1  UNL     1      -8.577  14.789  69.631  1.00  0.00     0.000 HD 
HETATM    8  H2  UNL     1      -6.832  14.738  69.510  1.00  0.00     0.000 HD 
HETATM    9  C   UNL     1      -9.296  11.574  67.661  1.00  0.00    -0.171 C  
HETATM   10  H   UNL     1      -9.784  13.286  68.680  1.00  0.00     0.000 HD 
HETATM   11  O   UNL     1      -8.462  10.722  67.359  1.00  0.00    -0.119 OA 
ENDROOT
BRANCH   9  12
HETATM   12  C   UNL     1     -10.770  11.425  67.331  1.00  0.00    -0.274 C  
BRANCH  12  13
HETATM   13  C   UNL     1     -11.214  12.215  66.119  1.00  0.00    -0.386 A  
HETATM   14  C   UNL     1     -10.973  11.745  64.812  1.00  0.00    -0.303 A  
HETATM   15  C   UNL     1     -11.473  12.421  63.694  1.00  0.00    -0.568 A  
HETATM   16 CL   UNL     1     -10.062  10.305  64.509  1.00  0.00    -0.376 Cl 
HETATM   17  C   UNL     1     -12.211  13.590  63.852  1.00  0.00    -0.458 A  
HETATM   18  C   UNL     1     -12.415  14.101  65.129  1.00  0.00    -0.453 A  
HETATM   19  C   UNL     1     -11.912  13.430  66.250  1.00  0.00    -0.411 A  
HETATM   20 CL   UNL     1     -12.207  14.162  67.789  1.00  0.00    -0.307 Cl 
ENDBRANCH  12  13
ENDBRANCH   9  12
TORSDOF 2
ENDMDL
MODEL      134
REMARK 921   NORMALIZED FREE ENERGY PREDICTED BY IDOCK:   -4.08 KCAL/MOL
REMARK 922        TOTAL FREE ENERGY PREDICTED BY IDOCK:   -4.89 KCAL/MOL
REMARK 923 INTER-LIGAND FREE ENERGY PREDICTED BY IDOCK:   -4.56 KCAL/MOL
REMARK 924 INTRA-LIGAND FREE ENERGY PREDICTED BY IDOCK:   -0.33 KCAL/MOL
REMARK 927      BINDING AFFINITY PREDICTED BY RF-SCORE:    0.00 PKD
ROOT
HETATM    1  N   UNL     1     -11.403   4.461  65.136  1.00  0.00    -1.082 NA 
HETATM    2  C   UNL     1     -10.068   4.606  65.229  1.00  0.00    -0.101 C  
HETATM    3  H2  UNL     1     -11.765   3.668  64.608  1.00  0.00     0.000 HD 
HETATM    4  H1  UNL     1     -12.072   5.101  65.564  1.00  0.00     0.000 HD 
HETATM    5  N   UNL     1      -9.226   3.802  64.691  1.00  0.00    -0.136 NA 
HETATM    6  N   UNL     1      -9.520   5.645  65.915  1.00  0.00    -0.302 N  
HETATM    7  H1  UNL     1      -8.215   3.912  64.761  1.00  0.00     0.000 HD 
HETATM    8  H2  UNL     1      -9.589   3.008  64.162  1.00  0.00     0.000 HD 
HETATM    9  C   UNL     1     -10.191   6.626  66.623  1.00  0.00    -0.138 C  
HETATM   10  H   UNL     1      -8.501   5.708  65.907  1.00  0.00     0.000 HD 
HETATM   11  O   UNL     1     -11.392   6.580  66.883  1.00  0.00    -0.330 OA 
ENDROOT
BRANCH   9  12
HETATM   12  C   UNL     1      -9.302   7.771  67.071  1.00  0.00    -0.196 C  
BRANCH  12  13
HETATM   13  C   UNL     1      -9.887   9.143  66.814  1.00  0.00    -0.291 A  
HETATM   14  C   UNL     1      -9.785   9.755  65.549  1.00  0.00    -0.312 A  
HETATM   15  C   UNL     1     -10.414  10.976  65.280  1.00  0.00    -0.316 A  
HETATM   16 CL   UNL     1      -8.896   9.036  64.251  1.00  0.00    -0.150 Cl 
HETATM   17  C   UNL     1     -11.145  11.623  66.272  1.00  0.00    -0.345 A  
HETATM   18  C   UNL     1     -11.214  11.064  67.544  1.00  0.00    -0.372 A  
HETATM   19  C   UNL     1     -10.581   9.845  67.818  1.00  0.00    -0.261 A  
HETATM   20 CL   UNL     1     -10.715   9.248  69.435  1.00  0.00    -0.232 Cl 
ENDBRANCH  12  13
ENDBRANCH   9  12
TORSDOF 2
ENDMDL
MODEL      135
REMARK 921   NORMALIZED FREE ENERGY PREDICTED BY IDOCK:   -4.08 KCAL/MOL
REMARK 922        TOTAL FREE ENERGY PREDICTED BY IDOCK:   -4.89 KCAL/MOL
REMARK 923 INTER-LIGAND FREE ENERGY PREDICTED BY IDOCK:   -4.62 KCAL/MOL
REMARK 924 INTRA-LIGAND FREE ENERGY PREDICTED BY IDOCK:   -0.26 KCAL/MOL
REMARK 927      BINDING AFFINITY PREDICTED BY RF-SCORE:    0.00 PKD
ROOT
HETATM    1  N   UNL     1      -7.567  13.411  69.120  1.00  0.00    -0.323 NA 
HETATM    2  C   UNL     1      -8.648  13.856  68.453  1.00  0.00    -0.169 C  
HETATM    3  H2  UNL     1      -7.693  12.648  69.785  1.00  0.00     0.000 HD 
HETATM    4  H1  UNL     1      -6.630  13.793  68.998  1.00  0.00     0.000 HD 
HETATM    5  N   UNL     1      -9.827  13.376  68.607  1.00  0.00    -0.392 NA 
HETATM    6  N   UNL     1      -8.549  14.874  67.555  1.00  0.00    -0.173 N  
HETATM    7  H1  UNL     1     -10.645  13.714  68.101  1.00  0.00     0.000 HD 
HETATM    8  H2  UNL     1      -9.953  12.613  69.272  1.00  0.00     0.000 HD 
HETATM    9  C   UNL     1      -7.399  15.538  67.167  1.00  0.00    -0.191 C  
HETATM   10  H   UNL     1      -9.419  15.180  67.119  1.00  0.00     0.000 HD 
HETATM   11  O   UNL     1      -6.264  15.163  67.455  1.00  0.00    -0.312 OA 
ENDROOT
BRANCH   9  12
HETATM   12  C   UNL     1      -7.662  16.776  66.331  1.00  0.00    -0.345 C  
BRANCH  12  13
HETATM   13  C   UNL     1      -8.506  17.822  67.027  1.00  0.00    -0.245 A  
HETATM   14  C   UNL     1      -9.835  18.071  66.629  1.00  0.00    -0.352 A  
HETATM   15  C   UNL     1     -10.649  18.963  67.336  1.00  0.00    -0.534 A  
HETATM   16 CL   UNL     1     -10.545  17.287  65.260  1.00  0.00    -0.146 Cl 
HETATM   17  C   UNL     1     -10.153  19.639  68.446  1.00  0.00    -0.557 A  
HETATM   18  C   UNL     1      -8.828  19.449  68.825  1.00  0.00    -0.385 A  
HETATM   19  C   UNL     1      -8.008  18.562  68.117  1.00  0.00    -0.289 A  
HETATM   20 CL   UNL     1      -6.373  18.414  68.661  1.00  0.00    -0.213 Cl 
ENDBRANCH  12  13
ENDBRANCH   9  12
TORSDOF 2
ENDMDL
MODEL      136
REMARK 921   NORMALIZED FREE ENERGY PREDICTED BY IDOCK:   -4.07 KCAL/MOL
REMARK 922        TOTAL FREE ENERGY PREDICTED BY IDOCK:   -4.88 KCAL/MOL
REMARK 923 INTER-LIGAND FREE ENERGY PREDICTED BY IDOCK:   -4.57 KCAL/MOL
REMARK 924 INTRA-LIGAND FREE ENERGY PREDICTED BY IDOCK:   -0.31 KCAL/MOL
REMARK 927      BINDING AFFINITY PREDICTED BY RF-SCORE:    0.00 PKD
ROOT
HETATM    1  N   UNL     1     -11.218   4.717  65.417  1.00  0.00    -0.984 NA 
HETATM    2  C   UNL     1     -10.157   4.411  66.187  1.00  0.00    -0.234 C  
HETATM    3  H2  UNL     1     -11.477   4.066  64.674  1.00  0.00     0.000 HD 
HETATM    4  H1  UNL     1     -11.777   5.561  65.533  1.00  0.00     0.000 HD 
HETATM    5  N   UNL     1      -9.454   3.349  66.041  1.00  0.00    -0.317 NA 
HETATM    6  N   UNL     1      -9.757   5.238  67.191  1.00  0.00    -0.140 N  
HETATM    7  H1  UNL     1      -8.651   3.118  66.625  1.00  0.00     0.000 HD 
HETATM    8  H2  UNL     1      -9.713   2.698  65.299  1.00  0.00     0.000 HD 
HETATM    9  C   UNL     1     -10.357   6.417  67.592  1.00  0.00    -0.197 C  
HETATM   10  H   UNL     1      -8.922   4.956  67.705  1.00  0.00     0.000 HD 
HETATM   11  O   UNL     1     -11.464   6.787  67.204  1.00  0.00    -0.210 OA 
ENDROOT
BRANCH   9  12
HETATM   12  C   UNL     1      -9.530   7.219  68.579  1.00  0.00    -0.140 C  
BRANCH  12  13
HETATM   13  C   UNL     1     -10.310   7.718  69.776  1.00  0.00    -0.221 A  
HETATM   14  C   UNL     1     -10.595   6.871  70.867  1.00  0.00    -0.218 A  
HETATM   15  C   UNL     1     -11.225   7.358  72.018  1.00  0.00    -0.289 A  
HETATM   16 CL   UNL     1     -10.175   5.193  70.859  1.00  0.00    -0.299 Cl 
HETATM   17  C   UNL     1     -11.599   8.695  72.101  1.00  0.00    -0.440 A  
HETATM   18  C   UNL     1     -11.376   9.536  71.016  1.00  0.00    -0.423 A  
HETATM   19  C   UNL     1     -10.751   9.052  69.861  1.00  0.00    -0.229 A  
HETATM   20 CL   UNL     1     -10.538  10.177  68.565  1.00  0.00    -0.230 Cl 
ENDBRANCH  12  13
ENDBRANCH   9  12
TORSDOF 2
ENDMDL
MODEL      137
REMARK 921   NORMALIZED FREE ENERGY PREDICTED BY IDOCK:   -4.04 KCAL/MOL
REMARK 922        TOTAL FREE ENERGY PREDICTED BY IDOCK:   -4.85 KCAL/MOL
REMARK 923 INTER-LIGAND FREE ENERGY PREDICTED BY IDOCK:   -4.52 KCAL/MOL
REMARK 924 INTRA-LIGAND FREE ENERGY PREDICTED BY IDOCK:   -0.33 KCAL/MOL
REMARK 927      BINDING AFFINITY PREDICTED BY RF-SCORE:    0.00 PKD
ROOT
HETATM    1  N   UNL     1     -12.749   9.296  71.542  1.00  0.00    -0.333 NA 
HETATM    2  C   UNL     1     -12.683  10.623  71.323  1.00  0.00    -0.433 C  
HETATM    3  H2  UNL     1     -13.372   8.960  72.276  1.00  0.00     0.000 HD 
HETATM    4  H1  UNL     1     -12.211   8.609  71.014  1.00  0.00     0.000 HD 
HETATM    5  N   UNL     1     -13.359  11.487  71.986  1.00  0.00    -0.511 NA 
HETATM    6  N   UNL     1     -11.868  11.137  70.363  1.00  0.00    -0.353 N  
HETATM    7  H1  UNL     1     -13.309  12.492  71.820  1.00  0.00     0.000 HD 
HETATM    8  H2  UNL     1     -13.983  11.151  72.720  1.00  0.00     0.000 HD 
HETATM    9  C   UNL     1     -11.069  10.433  69.480  1.00  0.00    -0.264 C  
HETATM   10  H   UNL     1     -11.844  12.154  70.284  1.00  0.00     0.000 HD 
HETATM   11  O   UNL     1     -11.132   9.215  69.324  1.00  0.00    -0.127 OA 
ENDROOT
BRANCH   9  12
HETATM   12  C   UNL     1     -10.105  11.307  68.699  1.00  0.00    -0.216 C  
BRANCH  12  13
HETATM   13  C   UNL     1     -10.315  11.269  67.201  1.00  0.00    -0.244 A  
HETATM   14  C   UNL     1      -9.690  10.293  66.400  1.00  0.00    -0.201 A  
HETATM   15  C   UNL     1      -9.964  10.192  65.031  1.00  0.00    -0.375 A  
HETATM   16 CL   UNL     1      -8.561   9.156  67.053  1.00  0.00    -0.123 Cl 
HETATM   17  C   UNL     1     -10.855  11.072  64.427  1.00  0.00    -0.263 A  
HETATM   18  C   UNL     1     -11.444  12.078  65.187  1.00  0.00    -0.344 A  
HETATM   19  C   UNL     1     -11.168  12.185  66.555  1.00  0.00    -0.328 A  
HETATM   20 CL   UNL     1     -11.939  13.481  67.402  1.00  0.00    -0.408 Cl 
ENDBRANCH  12  13
ENDBRANCH   9  12
TORSDOF 2
ENDMDL
MODEL      138
REMARK 921   NORMALIZED FREE ENERGY PREDICTED BY IDOCK:   -4.04 KCAL/MOL
REMARK 922        TOTAL FREE ENERGY PREDICTED BY IDOCK:   -4.84 KCAL/MOL
REMARK 923 INTER-LIGAND FREE ENERGY PREDICTED BY IDOCK:   -4.64 KCAL/MOL
REMARK 924 INTRA-LIGAND FREE ENERGY PREDICTED BY IDOCK:   -0.21 KCAL/MOL
REMARK 927      BINDING AFFINITY PREDICTED BY RF-SCORE:    0.00 PKD
ROOT
HETATM    1  N   UNL     1     -10.430   5.988  66.700  1.00  0.00    -0.377 NA 
HETATM    2  C   UNL     1     -10.549   7.243  67.171  1.00  0.00    -0.346 C  
HETATM    3  H2  UNL     1     -10.181   5.864  65.718  1.00  0.00     0.000 HD 
HETATM    4  H1  UNL     1     -10.575   5.154  67.269  1.00  0.00     0.000 HD 
HETATM    5  N   UNL     1     -10.367   8.292  66.456  1.00  0.00    -0.423 NA 
HETATM    6  N   UNL     1     -10.883   7.477  68.469  1.00  0.00    -0.411 N  
HETATM    7  H1  UNL     1     -10.457   9.242  66.813  1.00  0.00     0.000 HD 
HETATM    8  H2  UNL     1     -10.118   8.168  65.474  1.00  0.00     0.000 HD 
HETATM    9  C   UNL     1     -11.091   6.537  69.461  1.00  0.00    -0.365 C  
HETATM   10  H   UNL     1     -10.991   8.455  68.741  1.00  0.00     0.000 HD 
HETATM   11  O   UNL     1     -10.814   5.344  69.342  1.00  0.00    -0.252 OA 
ENDROOT
BRANCH   9  12
HETATM   12  C   UNL     1     -11.682   7.113  70.735  1.00  0.00    -0.363 C  
BRANCH  12  13
HETATM   13  C   UNL     1     -10.708   7.180  71.891  1.00  0.00    -0.243 A  
HETATM   14  C   UNL     1      -9.754   8.213  71.984  1.00  0.00    -0.227 A  
HETATM   15  C   UNL     1      -8.922   8.334  73.104  1.00  0.00    -0.301 A  
HETATM   16 CL   UNL     1      -9.558   9.396  70.737  1.00  0.00    -0.333 Cl 
HETATM   17  C   UNL     1      -9.013   7.420  74.148  1.00  0.00    -0.270 A  
HETATM   18  C   UNL     1      -9.910   6.362  74.054  1.00  0.00    -0.275 A  
HETATM   19  C   UNL     1     -10.739   6.233  72.933  1.00  0.00    -0.247 A  
HETATM   20 CL   UNL     1     -11.806   4.872  72.909  1.00  0.00    -0.204 Cl 
ENDBRANCH  12  13
ENDBRANCH   9  12
TORSDOF 2
ENDMDL
MODEL      139
REMARK 921   NORMALIZED FREE ENERGY PREDICTED BY IDOCK:   -4.03 KCAL/MOL
REMARK 922        TOTAL FREE ENERGY PREDICTED BY IDOCK:   -4.83 KCAL/MOL
REMARK 923 INTER-LIGAND FREE ENERGY PREDICTED BY IDOCK:   -4.53 KCAL/MOL
REMARK 924 INTRA-LIGAND FREE ENERGY PREDICTED BY IDOCK:   -0.30 KCAL/MOL
REMARK 927      BINDING AFFINITY PREDICTED BY RF-SCORE:    0.00 PKD
ROOT
HETATM    1  N   UNL     1      -7.079  11.591  69.865  1.00  0.00    -0.372 NA 
HETATM    2  C   UNL     1      -7.789  10.484  69.576  1.00  0.00    -0.127 C  
HETATM    3  H2  UNL     1      -6.224  11.485  70.411  1.00  0.00     0.000 HD 
HETATM    4  H1  UNL     1      -7.348  12.528  69.568  1.00  0.00     0.000 HD 
HETATM    5  N   UNL     1      -7.450   9.305  69.950  1.00  0.00    -0.075 NA 
HETATM    6  N   UNL     1      -8.940  10.556  68.855  1.00  0.00    -0.165 N  
HETATM    7  H1  UNL     1      -7.988   8.467  69.731  1.00  0.00     0.000 HD 
HETATM    8  H2  UNL     1      -6.596   9.199  70.497  1.00  0.00     0.000 HD 
HETATM    9  C   UNL     1      -9.506  11.687  68.296  1.00  0.00    -0.191 C  
HETATM   10  H   UNL     1      -9.441   9.679  68.711  1.00  0.00     0.000 HD 
HETATM   11  O   UNL     1      -8.933  12.772  68.219  1.00  0.00    -0.194 OA 
ENDROOT
BRANCH   9  12
HETATM   12  C   UNL     1     -10.909  11.467  67.762  1.00  0.00    -0.281 C  
BRANCH  12  13
HETATM   13  C   UNL     1     -11.062  11.769  66.287  1.00  0.00    -0.364 A  
HETATM   14  C   UNL     1     -11.678  12.957  65.844  1.00  0.00    -0.399 A  
HETATM   15  C   UNL     1     -11.727  13.286  64.484  1.00  0.00    -0.420 A  
HETATM   16 CL   UNL     1     -12.394  14.083  66.944  1.00  0.00    -0.406 Cl 
HETATM   17  C   UNL     1     -11.178  12.431  63.535  1.00  0.00    -0.540 A  
HETATM   18  C   UNL     1     -10.613  11.228  63.944  1.00  0.00    -0.455 A  
HETATM   19  C   UNL     1     -10.567  10.892  65.302  1.00  0.00    -0.189 A  
HETATM   20 CL   UNL     1      -9.859   9.365  65.701  1.00  0.00    -0.356 Cl 
ENDBRANCH  12  13
ENDBRANCH   9  12
TORSDOF 2
ENDMDL
MODEL      140
REMARK 921   NORMALIZED FREE ENERGY PREDICTED BY IDOCK:   -4.02 KCAL/MOL
REMARK 922        TOTAL FREE ENERGY PREDICTED BY IDOCK:   -4.83 KCAL/MOL
REMARK 923 INTER-LIGAND FREE ENERGY PREDICTED BY IDOCK:   -4.58 KCAL/MOL
REMARK 924 INTRA-LIGAND FREE ENERGY PREDICTED BY IDOCK:   -0.25 KCAL/MOL
REMARK 927      BINDING AFFINITY PREDICTED BY RF-SCORE:    0.00 PKD
ROOT
HETATM    1  N   UNL     1     -12.228  11.297  70.611  1.00  0.00    -0.374 NA 
HETATM    2  C   UNL     1     -11.892  12.559  70.286  1.00  0.00    -0.223 C  
HETATM    3  H2  UNL     1     -12.798  11.150  71.444  1.00  0.00     0.000 HD 
HETATM    4  H1  UNL     1     -11.944  10.479  70.071  1.00  0.00     0.000 HD 
HETATM    5  N   UNL     1     -12.249  13.587  70.965  1.00  0.00    -0.440 NA 
HETATM    6  N   UNL     1     -11.129  12.823  69.191  1.00  0.00    -0.385 N  
HETATM    7  H1  UNL     1     -11.994  14.543  70.718  1.00  0.00     0.000 HD 
HETATM    8  H2  UNL     1     -12.819  13.440  71.797  1.00  0.00     0.000 HD 
HETATM    9  C   UNL     1     -10.649  11.913  68.267  1.00  0.00    -0.213 C  
HETATM   10  H   UNL     1     -10.885  13.801  69.033  1.00  0.00     0.000 HD 
HETATM   11  O   UNL     1     -11.011  10.739  68.213  1.00  0.00    -0.215 OA 
ENDROOT
BRANCH   9  12
HETATM   12  C   UNL     1      -9.635  12.499  67.302  1.00  0.00    -0.205 C  
BRANCH  12  13
HETATM   13  C   UNL     1     -10.139  13.699  66.532  1.00  0.00    -0.286 A  
HETATM   14  C   UNL     1      -9.666  14.998  66.810  1.00  0.00    -0.241 A  
HETATM   15  C   UNL     1     -10.053  16.094  66.031  1.00  0.00    -0.372 A  
HETATM   16 CL   UNL     1      -8.574  15.315  68.114  1.00  0.00    -0.157 Cl 
HETATM   17  C   UNL     1     -10.933  15.924  64.968  1.00  0.00    -0.426 A  
HETATM   18  C   UNL     1     -11.455  14.661  64.707  1.00  0.00    -0.410 A  
HETATM   19  C   UNL     1     -11.074  13.563  65.488  1.00  0.00    -0.294 A  
HETATM   20 CL   UNL     1     -11.796  12.042  65.091  1.00  0.00    -0.337 Cl 
ENDBRANCH  12  13
ENDBRANCH   9  12
TORSDOF 2
ENDMDL
MODEL      141
REMARK 921   NORMALIZED FREE ENERGY PREDICTED BY IDOCK:   -4.02 KCAL/MOL
REMARK 922        TOTAL FREE ENERGY PREDICTED BY IDOCK:   -4.83 KCAL/MOL
REMARK 923 INTER-LIGAND FREE ENERGY PREDICTED BY IDOCK:   -4.50 KCAL/MOL
REMARK 924 INTRA-LIGAND FREE ENERGY PREDICTED BY IDOCK:   -0.33 KCAL/MOL
REMARK 927      BINDING AFFINITY PREDICTED BY RF-SCORE:    0.00 PKD
ROOT
HETATM    1  N   UNL     1      -5.867  10.352  71.037  1.00  0.00    -0.253 NA 
HETATM    2  C   UNL     1      -6.691  10.763  70.055  1.00  0.00    -0.149 C  
HETATM    3  H2  UNL     1      -4.936  10.764  71.088  1.00  0.00     0.000 HD 
HETATM    4  H1  UNL     1      -6.123   9.651  71.732  1.00  0.00     0.000 HD 
HETATM    5  N   UNL     1      -6.369  11.644  69.180  1.00  0.00    -0.075 NA 
HETATM    6  N   UNL     1      -7.945  10.250  69.928  1.00  0.00    -0.322 N  
HETATM    7  H1  UNL     1      -6.993  11.956  68.436  1.00  0.00     0.000 HD 
HETATM    8  H2  UNL     1      -5.438  12.056  69.231  1.00  0.00     0.000 HD 
HETATM    9  C   UNL     1      -8.557   9.326  70.754  1.00  0.00    -0.203 C  
HETATM   10  H   UNL     1      -8.494  10.585  69.135  1.00  0.00     0.000 HD 
HETATM   11  O   UNL     1      -8.104   8.978  71.843  1.00  0.00    -0.359 OA 
ENDROOT
BRANCH   9  12
HETATM   12  C   UNL     1      -9.863   8.785  70.203  1.00  0.00    -0.192 C  
BRANCH  12  13
HETATM   13  C   UNL     1     -11.095   9.319  70.901  1.00  0.00    -0.374 A  
HETATM   14  C   UNL     1     -11.711  10.516  70.482  1.00  0.00    -0.350 A  
HETATM   15  C   UNL     1     -12.908  10.957  71.058  1.00  0.00    -0.472 A  
HETATM   16 CL   UNL     1     -11.040  11.503  69.230  1.00  0.00    -0.299 Cl 
HETATM   17  C   UNL     1     -13.510  10.223  72.075  1.00  0.00    -0.385 A  
HETATM   18  C   UNL     1     -12.893   9.067  72.541  1.00  0.00    -0.408 A  
HETATM   19  C   UNL     1     -11.692   8.626  71.971  1.00  0.00    -0.369 A  
HETATM   20 CL   UNL     1     -11.000   7.187  72.636  1.00  0.00    -0.296 Cl 
ENDBRANCH  12  13
ENDBRANCH   9  12
TORSDOF 2
ENDMDL
MODEL      142
REMARK 921   NORMALIZED FREE ENERGY PREDICTED BY IDOCK:   -4.02 KCAL/MOL
REMARK 922        TOTAL FREE ENERGY PREDICTED BY IDOCK:   -4.83 KCAL/MOL
REMARK 923 INTER-LIGAND FREE ENERGY PREDICTED BY IDOCK:   -4.70 KCAL/MOL
REMARK 924 INTRA-LIGAND FREE ENERGY PREDICTED BY IDOCK:   -0.13 KCAL/MOL
REMARK 927      BINDING AFFINITY PREDICTED BY RF-SCORE:    0.00 PKD
ROOT
HETATM    1  N   UNL     1     -12.381  15.875  70.950  1.00  0.00    -0.500 NA 
HETATM    2  C   UNL     1     -12.259  14.742  70.235  1.00  0.00    -0.338 C  
HETATM    3  H2  UNL     1     -12.891  15.836  71.833  1.00  0.00     0.000 HD 
HETATM    4  H1  UNL     1     -11.991  16.772  70.660  1.00  0.00     0.000 HD 
HETATM    5  N   UNL     1     -12.749  13.614  70.601  1.00  0.00    -0.272 NA 
HETATM    6  N   UNL     1     -11.595  14.728  69.048  1.00  0.00    -0.281 N  
HETATM    7  H1  UNL     1     -12.657  12.756  70.059  1.00  0.00     0.000 HD 
HETATM    8  H2  UNL     1     -13.259  13.574  71.483  1.00  0.00     0.000 HD 
HETATM    9  C   UNL     1     -10.938  15.785  68.445  1.00  0.00    -0.323 C  
HETATM   10  H   UNL     1     -11.579  13.839  68.547  1.00  0.00     0.000 HD 
HETATM   11  O   UNL     1     -10.706  16.855  69.006  1.00  0.00    -0.328 OA 
ENDROOT
BRANCH   9  12
HETATM   12  C   UNL     1     -10.505  15.502  67.019  1.00  0.00    -0.304 C  
BRANCH  12  13
HETATM   13  C   UNL     1     -10.301  14.033  66.716  1.00  0.00    -0.271 A  
HETATM   14  C   UNL     1      -9.070  13.398  66.978  1.00  0.00    -0.243 A  
HETATM   15  C   UNL     1      -8.912  12.019  66.796  1.00  0.00    -0.198 A  
HETATM   16 CL   UNL     1      -7.691  14.271  67.550  1.00  0.00    -0.194 Cl 
HETATM   17  C   UNL     1      -9.972  11.246  66.334  1.00  0.00    -0.252 A  
HETATM   18  C   UNL     1     -11.179  11.860  66.018  1.00  0.00    -0.377 A  
HETATM   19  C   UNL     1     -11.339  13.240  66.193  1.00  0.00    -0.309 A  
HETATM   20 CL   UNL     1     -12.874  13.904  65.753  1.00  0.00    -0.512 Cl 
ENDBRANCH  12  13
ENDBRANCH   9  12
TORSDOF 2
ENDMDL
MODEL      143
REMARK 921   NORMALIZED FREE ENERGY PREDICTED BY IDOCK:   -4.01 KCAL/MOL
REMARK 922        TOTAL FREE ENERGY PREDICTED BY IDOCK:   -4.82 KCAL/MOL
REMARK 923 INTER-LIGAND FREE ENERGY PREDICTED BY IDOCK:   -4.54 KCAL/MOL
REMARK 924 INTRA-LIGAND FREE ENERGY PREDICTED BY IDOCK:   -0.28 KCAL/MOL
REMARK 927      BINDING AFFINITY PREDICTED BY RF-SCORE:    0.00 PKD
ROOT
HETATM    1  N   UNL     1      -5.805  11.844  68.308  1.00  0.00    -0.049 NA 
HETATM    2  C   UNL     1      -6.439  12.407  69.353  1.00  0.00    -0.103 C  
HETATM    3  H2  UNL     1      -4.907  11.391  68.476  1.00  0.00     0.000 HD 
HETATM    4  H1  UNL     1      -6.173  11.845  67.356  1.00  0.00     0.000 HD 
HETATM    5  N   UNL     1      -5.976  12.406  70.549  1.00  0.00    -0.399 NA 
HETATM    6  N   UNL     1      -7.638  13.031  69.196  1.00  0.00    -0.320 N  
HETATM    7  H1  UNL     1      -6.457  12.832  71.341  1.00  0.00     0.000 HD 
HETATM    8  H2  UNL     1      -5.078  11.953  70.718  1.00  0.00     0.000 HD 
HETATM    9  C   UNL     1      -8.376  13.140  68.032  1.00  0.00    -0.162 C  
HETATM   10  H   UNL     1      -8.036  13.466  70.028  1.00  0.00     0.000 HD 
HETATM   11  O   UNL     1      -8.128  12.513  67.003  1.00  0.00    -0.169 OA 
ENDROOT
BRANCH   9  12
HETATM   12  C   UNL     1      -9.547  14.099  68.139  1.00  0.00    -0.218 C  
BRANCH  12  13
HETATM   13  C   UNL     1     -10.422  14.145  66.906  1.00  0.00    -0.272 A  
HETATM   14  C   UNL     1     -11.463  13.214  66.714  1.00  0.00    -0.343 A  
HETATM   15  C   UNL     1     -12.339  13.317  65.626  1.00  0.00    -0.521 A  
HETATM   16 CL   UNL     1     -11.734  11.902  67.809  1.00  0.00    -0.388 Cl 
HETATM   17  C   UNL     1     -12.186  14.341  64.697  1.00  0.00    -0.470 A  
HETATM   18  C   UNL     1     -11.133  15.239  64.837  1.00  0.00    -0.435 A  
HETATM   19  C   UNL     1     -10.252  15.136  65.920  1.00  0.00    -0.324 A  
HETATM   20 CL   UNL     1      -8.968  16.292  65.989  1.00  0.00    -0.366 Cl 
ENDBRANCH  12  13
ENDBRANCH   9  12
TORSDOF 2
ENDMDL
MODEL      144
REMARK 921   NORMALIZED FREE ENERGY PREDICTED BY IDOCK:   -4.00 KCAL/MOL
REMARK 922        TOTAL FREE ENERGY PREDICTED BY IDOCK:   -4.80 KCAL/MOL
REMARK 923 INTER-LIGAND FREE ENERGY PREDICTED BY IDOCK:   -4.48 KCAL/MOL
REMARK 924 INTRA-LIGAND FREE ENERGY PREDICTED BY IDOCK:   -0.32 KCAL/MOL
REMARK 927      BINDING AFFINITY PREDICTED BY RF-SCORE:    0.00 PKD
ROOT
HETATM    1  N   UNL     1      -7.136  12.929  67.060  1.00  0.00    -0.354 NA 
HETATM    2  C   UNL     1      -7.688  13.457  68.168  1.00  0.00    -0.143 C  
HETATM    3  H2  UNL     1      -6.192  12.548  67.128  1.00  0.00     0.000 HD 
HETATM    4  H1  UNL     1      -7.608  12.888  66.157  1.00  0.00     0.000 HD 
HETATM    5  N   UNL     1      -7.094  13.508  69.304  1.00  0.00    -0.291 NA 
HETATM    6  N   UNL     1      -8.942  13.986  68.144  1.00  0.00    -0.178 N  
HETATM    7  H1  UNL     1      -7.513  13.908  70.142  1.00  0.00     0.000 HD 
HETATM    8  H2  UNL     1      -6.151  13.127  69.371  1.00  0.00     0.000 HD 
HETATM    9  C   UNL     1      -9.814  14.022  67.071  1.00  0.00    -0.260 C  
HETATM   10  H   UNL     1      -9.275  14.402  69.014  1.00  0.00     0.000 HD 
HETATM   11  O   UNL     1      -9.635  13.401  66.025  1.00  0.00    -0.249 OA 
ENDROOT
BRANCH   9  12
HETATM   12  C   UNL     1     -11.035  14.891  67.306  1.00  0.00    -0.323 C  
BRANCH  12  13
HETATM   13  C   UNL     1     -10.740  16.375  67.331  1.00  0.00    -0.278 A  
HETATM   14  C   UNL     1     -10.572  17.066  68.548  1.00  0.00    -0.370 A  
HETATM   15  C   UNL     1     -10.197  18.414  68.571  1.00  0.00    -0.394 A  
HETATM   16 CL   UNL     1     -10.802  16.295  70.079  1.00  0.00    -0.343 Cl 
HETATM   17  C   UNL     1      -9.997  19.108  67.383  1.00  0.00    -0.432 A  
HETATM   18  C   UNL     1     -10.210  18.461  66.170  1.00  0.00    -0.408 A  
HETATM   19  C   UNL     1     -10.590  17.114  66.142  1.00  0.00    -0.201 A  
HETATM   20 CL   UNL     1     -10.845  16.412  64.583  1.00  0.00    -0.256 Cl 
ENDBRANCH  12  13
ENDBRANCH   9  12
TORSDOF 2
ENDMDL
MODEL      145
REMARK 921   NORMALIZED FREE ENERGY PREDICTED BY IDOCK:   -3.98 KCAL/MOL
REMARK 922        TOTAL FREE ENERGY PREDICTED BY IDOCK:   -4.78 KCAL/MOL
REMARK 923 INTER-LIGAND FREE ENERGY PREDICTED BY IDOCK:   -4.52 KCAL/MOL
REMARK 924 INTRA-LIGAND FREE ENERGY PREDICTED BY IDOCK:   -0.26 KCAL/MOL
REMARK 927      BINDING AFFINITY PREDICTED BY RF-SCORE:    0.00 PKD
ROOT
HETATM    1  N   UNL     1      -7.419  13.353  69.200  1.00  0.00    -0.311 NA 
HETATM    2  C   UNL     1      -8.511  13.667  68.479  1.00  0.00    -0.106 C  
HETATM    3  H2  UNL     1      -7.492  12.593  69.877  1.00  0.00     0.000 HD 
HETATM    4  H1  UNL     1      -6.524  13.832  69.108  1.00  0.00     0.000 HD 
HETATM    5  N   UNL     1      -9.637  13.064  68.594  1.00  0.00    -0.407 NA 
HETATM    6  N   UNL     1      -8.482  14.672  67.562  1.00  0.00    -0.175 N  
HETATM    7  H1  UNL     1     -10.464  13.302  68.047  1.00  0.00     0.000 HD 
HETATM    8  H2  UNL     1      -9.710  12.305  69.271  1.00  0.00     0.000 HD 
HETATM    9  C   UNL     1      -7.395  15.450  67.208  1.00  0.00    -0.204 C  
HETATM   10  H   UNL     1      -9.360  14.875  67.083  1.00  0.00     0.000 HD 
HETATM   11  O   UNL     1      -6.239  15.205  67.551  1.00  0.00    -0.258 OA 
ENDROOT
BRANCH   9  12
HETATM   12  C   UNL     1      -7.752  16.637  66.334  1.00  0.00    -0.328 C  
BRANCH  12  13
HETATM   13  C   UNL     1      -8.685  17.630  66.993  1.00  0.00    -0.254 A  
HETATM   14  C   UNL     1      -8.229  18.505  67.999  1.00  0.00    -0.268 A  
HETATM   15  C   UNL     1      -9.063  19.492  68.535  1.00  0.00    -0.406 A  
HETATM   16 CL   UNL     1      -6.617  18.425  68.622  1.00  0.00    -0.229 Cl 
HETATM   17  C   UNL     1     -10.376  19.619  68.092  1.00  0.00    -0.561 A  
HETATM   18  C   UNL     1     -10.864  18.732  67.138  1.00  0.00    -0.375 A  
HETATM   19  C   UNL     1     -10.034  17.739  66.604  1.00  0.00    -0.338 A  
HETATM   20 CL   UNL     1     -10.746  16.679  65.438  1.00  0.00    -0.303 Cl 
ENDBRANCH  12  13
ENDBRANCH   9  12
TORSDOF 2
ENDMDL
MODEL      146
REMARK 921   NORMALIZED FREE ENERGY PREDICTED BY IDOCK:   -3.97 KCAL/MOL
REMARK 922        TOTAL FREE ENERGY PREDICTED BY IDOCK:   -4.77 KCAL/MOL
REMARK 923 INTER-LIGAND FREE ENERGY PREDICTED BY IDOCK:   -4.56 KCAL/MOL
REMARK 924 INTRA-LIGAND FREE ENERGY PREDICTED BY IDOCK:   -0.21 KCAL/MOL
REMARK 927      BINDING AFFINITY PREDICTED BY RF-SCORE:    0.00 PKD
ROOT
HETATM    1  N   UNL     1     -10.664  19.314  67.081  1.00  0.00    -0.475 NA 
HETATM    2  C   UNL     1      -9.915  19.606  68.161  1.00  0.00    -0.437 C  
HETATM    3  H2  UNL     1     -11.678  19.298  67.189  1.00  0.00     0.000 HD 
HETATM    4  H1  UNL     1     -10.274  19.107  66.162  1.00  0.00     0.000 HD 
HETATM    5  N   UNL     1     -10.406  19.867  69.317  1.00  0.00    -0.588 NA 
HETATM    6  N   UNL     1      -8.557  19.640  68.086  1.00  0.00    -0.320 N  
HETATM    7  H1  UNL     1      -9.838  20.089  70.134  1.00  0.00     0.000 HD 
HETATM    8  H2  UNL     1     -11.420  19.851  69.425  1.00  0.00     0.000 HD 
HETATM    9  C   UNL     1      -7.777  19.443  66.961  1.00  0.00    -0.246 C  
HETATM   10  H   UNL     1      -8.059  19.831  68.956  1.00  0.00     0.000 HD 
HETATM   11  O   UNL     1      -8.227  19.393  65.818  1.00  0.00    -0.439 OA 
ENDROOT
BRANCH   9  12
HETATM   12  C   UNL     1      -6.296  19.309  67.261  1.00  0.00    -0.195 C  
BRANCH  12  13
HETATM   13  C   UNL     1      -5.989  18.518  68.513  1.00  0.00    -0.198 A  
HETATM   14  C   UNL     1      -6.090  17.112  68.532  1.00  0.00    -0.149 A  
HETATM   15  C   UNL     1      -5.707  16.372  69.657  1.00  0.00    -0.171 A  
HETATM   16 CL   UNL     1      -6.674  16.216  67.172  1.00  0.00    -0.232 Cl 
HETATM   17  C   UNL     1      -5.232  17.017  70.794  1.00  0.00    -0.219 A  
HETATM   18  C   UNL     1      -5.174  18.406  70.817  1.00  0.00    -0.274 A  
HETATM   19  C   UNL     1      -5.561  19.151  69.696  1.00  0.00    -0.218 A  
HETATM   20 CL   UNL     1      -5.468  20.872  69.838  1.00  0.00    -0.397 Cl 
ENDBRANCH  12  13
ENDBRANCH   9  12
TORSDOF 2
ENDMDL
MODEL      147
REMARK 921   NORMALIZED FREE ENERGY PREDICTED BY IDOCK:   -3.95 KCAL/MOL
REMARK 922        TOTAL FREE ENERGY PREDICTED BY IDOCK:   -4.75 KCAL/MOL
REMARK 923 INTER-LIGAND FREE ENERGY PREDICTED BY IDOCK:   -4.45 KCAL/MOL
REMARK 924 INTRA-LIGAND FREE ENERGY PREDICTED BY IDOCK:   -0.30 KCAL/MOL
REMARK 927      BINDING AFFINITY PREDICTED BY RF-SCORE:    0.00 PKD
ROOT
HETATM    1  N   UNL     1     -13.512   7.036  71.949  1.00  0.00    -0.538 NA 
HETATM    2  C   UNL     1     -13.452   8.352  72.226  1.00  0.00    -0.263 C  
HETATM    3  H2  UNL     1     -14.257   6.487  72.378  1.00  0.00     0.000 HD 
HETATM    4  H1  UNL     1     -12.855   6.557  71.333  1.00  0.00     0.000 HD 
HETATM    5  N   UNL     1     -14.278   8.954  73.000  1.00  0.00    -1.158 NA 
HETATM    6  N   UNL     1     -12.481   9.139  71.689  1.00  0.00    -0.337 N  
HETATM    7  H1  UNL     1     -14.232   9.950  73.210  1.00  0.00     0.000 HD 
HETATM    8  H2  UNL     1     -15.022   8.405  73.430  1.00  0.00     0.000 HD 
HETATM    9  C   UNL     1     -11.497   8.760  70.794  1.00  0.00    -0.270 C  
HETATM   10  H   UNL     1     -12.479  10.118  71.977  1.00  0.00     0.000 HD 
HETATM   11  O   UNL     1     -11.483   7.677  70.212  1.00  0.00    -0.237 OA 
ENDROOT
BRANCH   9  12
HETATM   12  C   UNL     1     -10.430   9.816  70.576  1.00  0.00    -0.366 C  
BRANCH  12  13
HETATM   13  C   UNL     1      -9.617   9.621  69.315  1.00  0.00    -0.190 A  
HETATM   14  C   UNL     1     -10.025  10.185  68.089  1.00  0.00    -0.147 A  
HETATM   15  C   UNL     1      -9.223  10.093  66.945  1.00  0.00    -0.168 A  
HETATM   16 CL   UNL     1     -11.524  11.032  67.922  1.00  0.00    -0.372 Cl 
HETATM   17  C   UNL     1      -8.004   9.424  66.994  1.00  0.00    -0.102 A  
HETATM   18  C   UNL     1      -7.607   8.814  68.179  1.00  0.00    -0.097 A  
HETATM   19  C   UNL     1      -8.409   8.898  69.324  1.00  0.00    -0.119 A  
HETATM   20 CL   UNL     1      -7.830   8.090  70.739  1.00  0.00    -0.088 Cl 
ENDBRANCH  12  13
ENDBRANCH   9  12
TORSDOF 2
ENDMDL
MODEL      148
REMARK 921   NORMALIZED FREE ENERGY PREDICTED BY IDOCK:   -3.95 KCAL/MOL
REMARK 922        TOTAL FREE ENERGY PREDICTED BY IDOCK:   -4.74 KCAL/MOL
REMARK 923 INTER-LIGAND FREE ENERGY PREDICTED BY IDOCK:   -4.41 KCAL/MOL
REMARK 924 INTRA-LIGAND FREE ENERGY PREDICTED BY IDOCK:   -0.33 KCAL/MOL
REMARK 927      BINDING AFFINITY PREDICTED BY RF-SCORE:    0.00 PKD
ROOT
HETATM    1  N   UNL     1     -10.805  19.693  65.427  1.00  0.00    -0.378 NA 
HETATM    2  C   UNL     1     -10.226  19.735  66.641  1.00  0.00    -0.478 C  
HETATM    3  H2  UNL     1     -10.895  20.565  64.906  1.00  0.00     0.000 HD 
HETATM    4  H1  UNL     1     -11.158  18.837  64.999  1.00  0.00     0.000 HD 
HETATM    5  N   UNL     1      -9.781  20.812  67.179  1.00  0.00    -0.652 NA 
HETATM    6  N   UNL     1     -10.078  18.609  67.390  1.00  0.00    -0.343 N  
HETATM    7  H1  UNL     1      -9.342  20.843  68.099  1.00  0.00     0.000 HD 
HETATM    8  H2  UNL     1      -9.871  21.684  66.658  1.00  0.00     0.000 HD 
HETATM    9  C   UNL     1     -10.427  17.318  67.035  1.00  0.00    -0.287 C  
HETATM   10  H   UNL     1      -9.665  18.729  68.315  1.00  0.00     0.000 HD 
HETATM   11  O   UNL     1     -10.754  16.987  65.897  1.00  0.00    -0.268 OA 
ENDROOT
BRANCH   9  12
HETATM   12  C   UNL     1     -10.353  16.329  68.183  1.00  0.00    -0.277 C  
BRANCH  12  13
HETATM   13  C   UNL     1      -9.550  15.084  67.873  1.00  0.00    -0.203 A  
HETATM   14  C   UNL     1      -8.159  15.037  68.098  1.00  0.00    -0.131 A  
HETATM   15  C   UNL     1      -7.433  13.855  67.911  1.00  0.00    -0.155 A  
HETATM   16 CL   UNL     1      -7.269  16.422  68.630  1.00  0.00    -0.167 Cl 
HETATM   17  C   UNL     1      -8.073  12.699  67.479  1.00  0.00    -0.178 A  
HETATM   18  C   UNL     1      -9.435  12.735  67.199  1.00  0.00    -0.223 A  
HETATM   19  C   UNL     1     -10.164  13.917  67.380  1.00  0.00    -0.252 A  
HETATM   20 CL   UNL     1     -11.847  13.858  66.986  1.00  0.00    -0.420 Cl 
ENDBRANCH  12  13
ENDBRANCH   9  12
TORSDOF 2
ENDMDL
MODEL      149
REMARK 921   NORMALIZED FREE ENERGY PREDICTED BY IDOCK:   -3.94 KCAL/MOL
REMARK 922        TOTAL FREE ENERGY PREDICTED BY IDOCK:   -4.74 KCAL/MOL
REMARK 923 INTER-LIGAND FREE ENERGY PREDICTED BY IDOCK:   -4.51 KCAL/MOL
REMARK 924 INTRA-LIGAND FREE ENERGY PREDICTED BY IDOCK:   -0.23 KCAL/MOL
REMARK 927      BINDING AFFINITY PREDICTED BY RF-SCORE:    0.00 PKD
ROOT
HETATM    1  N   UNL     1      -8.781  11.275  65.806  1.00  0.00    -0.323 NA 
HETATM    2  C   UNL     1      -8.868  11.876  67.008  1.00  0.00    -0.190 C  
HETATM    3  H2  UNL     1      -7.954  10.712  65.608  1.00  0.00     0.000 HD 
HETATM    4  H1  UNL     1      -9.496  11.352  65.083  1.00  0.00     0.000 HD 
HETATM    5  N   UNL     1      -7.969  11.779  67.918  1.00  0.00    -0.132 NA 
HETATM    6  N   UNL     1      -9.942  12.644  67.334  1.00  0.00    -0.203 N  
HETATM    7  H1  UNL     1      -8.035  12.233  68.828  1.00  0.00     0.000 HD 
HETATM    8  H2  UNL     1      -7.142  11.215  67.719  1.00  0.00     0.000 HD 
HETATM    9  C   UNL     1     -11.065  12.880  66.562  1.00  0.00    -0.286 C  
HETATM   10  H   UNL     1      -9.916  13.096  68.248  1.00  0.00     0.000 HD 
HETATM   11  O   UNL     1     -11.329  12.262  65.532  1.00  0.00    -0.324 OA 
ENDROOT
BRANCH   9  12
HETATM   12  C   UNL     1     -11.967  13.969  67.113  1.00  0.00    -0.465 C  
BRANCH  12  13
HETATM   13  C   UNL     1     -11.249  15.265  67.423  1.00  0.00    -0.311 A  
HETATM   14  C   UNL     1     -10.783  16.107  66.393  1.00  0.00    -0.211 A  
HETATM   15  C   UNL     1     -10.213  17.353  66.676  1.00  0.00    -0.324 A  
HETATM   16 CL   UNL     1     -10.898  15.664  64.725  1.00  0.00    -0.440 Cl 
HETATM   17  C   UNL     1     -10.079  17.781  67.993  1.00  0.00    -0.355 A  
HETATM   18  C   UNL     1     -10.483  16.945  69.028  1.00  0.00    -0.341 A  
HETATM   19  C   UNL     1     -11.049  15.695  68.749  1.00  0.00    -0.307 A  
HETATM   20 CL   UNL     1     -11.500  14.727  70.109  1.00  0.00    -0.301 Cl 
ENDBRANCH  12  13
ENDBRANCH   9  12
TORSDOF 2
ENDMDL
MODEL      150
REMARK 921   NORMALIZED FREE ENERGY PREDICTED BY IDOCK:   -3.94 KCAL/MOL
REMARK 922        TOTAL FREE ENERGY PREDICTED BY IDOCK:   -4.74 KCAL/MOL
REMARK 923 INTER-LIGAND FREE ENERGY PREDICTED BY IDOCK:   -4.48 KCAL/MOL
REMARK 924 INTRA-LIGAND FREE ENERGY PREDICTED BY IDOCK:   -0.26 KCAL/MOL
REMARK 927      BINDING AFFINITY PREDICTED BY RF-SCORE:    0.00 PKD
ROOT
HETATM    1  N   UNL     1     -11.853  10.945  68.012  1.00  0.00    -0.759 NA 
HETATM    2  C   UNL     1     -11.711  11.614  69.172  1.00  0.00    -0.326 C  
HETATM    3  H2  UNL     1     -12.111  11.474  67.179  1.00  0.00     0.000 HD 
HETATM    4  H1  UNL     1     -11.718   9.938  67.921  1.00  0.00     0.000 HD 
HETATM    5  N   UNL     1     -11.881  12.881  69.287  1.00  0.00    -0.314 NA 
HETATM    6  N   UNL     1     -11.374  10.968  70.320  1.00  0.00    -0.452 N  
HETATM    7  H1  UNL     1     -11.774  13.387  70.165  1.00  0.00     0.000 HD 
HETATM    8  H2  UNL     1     -12.139  13.410  68.454  1.00  0.00     0.000 HD 
HETATM    9  C   UNL     1     -11.092   9.622  70.469  1.00  0.00    -0.308 C  
HETATM   10  H   UNL     1     -11.324  11.538  71.164  1.00  0.00     0.000 HD 
HETATM   11  O   UNL     1     -10.925   8.850  69.526  1.00  0.00    -0.195 OA 
ENDROOT
BRANCH   9  12
HETATM   12  C   UNL     1     -10.986   9.177  71.916  1.00  0.00    -0.372 C  
BRANCH  12  13
HETATM   13  C   UNL     1     -10.590   7.727  72.088  1.00  0.00    -0.295 A  
HETATM   14  C   UNL     1     -11.551   6.696  72.041  1.00  0.00    -0.301 A  
HETATM   15  C   UNL     1     -11.174   5.349  72.096  1.00  0.00    -0.197 A  
HETATM   16 CL   UNL     1     -13.243   7.027  71.901  1.00  0.00    -0.318 Cl 
HETATM   17  C   UNL     1      -9.834   5.000  72.214  1.00  0.00    -0.214 A  
HETATM   18  C   UNL     1      -8.873   6.000  72.316  1.00  0.00    -0.138 A  
HETATM   19  C   UNL     1      -9.246   7.349  72.267  1.00  0.00    -0.132 A  
HETATM   20 CL   UNL     1      -7.975   8.511  72.420  1.00  0.00    -0.161 Cl 
ENDBRANCH  12  13
ENDBRANCH   9  12
TORSDOF 2
ENDMDL
MODEL      151
REMARK 921   NORMALIZED FREE ENERGY PREDICTED BY IDOCK:   -3.94 KCAL/MOL
REMARK 922        TOTAL FREE ENERGY PREDICTED BY IDOCK:   -4.74 KCAL/MOL
REMARK 923 INTER-LIGAND FREE ENERGY PREDICTED BY IDOCK:   -4.71 KCAL/MOL
REMARK 924 INTRA-LIGAND FREE ENERGY PREDICTED BY IDOCK:   -0.04 KCAL/MOL
REMARK 927      BINDING AFFINITY PREDICTED BY RF-SCORE:    0.00 PKD
ROOT
HETATM    1  N   UNL     1      -7.141  12.651  67.147  1.00  0.00    -0.349 NA 
HETATM    2  C   UNL     1      -7.837  12.826  68.286  1.00  0.00    -0.141 C  
HETATM    3  H2  UNL     1      -6.192  13.023  67.102  1.00  0.00     0.000 HD 
HETATM    4  H1  UNL     1      -7.509  12.169  66.328  1.00  0.00     0.000 HD 
HETATM    5  N   UNL     1      -7.374  13.432  69.317  1.00  0.00    -0.316 NA 
HETATM    6  N   UNL     1      -9.109  12.359  68.411  1.00  0.00    -0.313 N  
HETATM    7  H1  UNL     1      -7.902  13.564  70.179  1.00  0.00     0.000 HD 
HETATM    8  H2  UNL     1      -6.425  13.804  69.271  1.00  0.00     0.000 HD 
HETATM    9  C   UNL     1      -9.829  11.636  67.477  1.00  0.00    -0.188 C  
HETATM   10  H   UNL     1      -9.584  12.564  69.290  1.00  0.00     0.000 HD 
HETATM   11  O   UNL     1      -9.337  11.152  66.460  1.00  0.00    -0.172 OA 
ENDROOT
BRANCH   9  12
HETATM   12  C   UNL     1     -11.297  11.476  67.829  1.00  0.00    -0.364 C  
BRANCH  12  13
HETATM   13  C   UNL     1     -11.730  12.267  69.044  1.00  0.00    -0.376 A  
HETATM   14  C   UNL     1     -11.988  13.650  68.961  1.00  0.00    -0.353 A  
HETATM   15  C   UNL     1     -12.487  14.362  70.058  1.00  0.00    -0.353 A  
HETATM   16 CL   UNL     1     -11.719  14.548  67.507  1.00  0.00    -0.399 Cl 
HETATM   17  C   UNL     1     -12.726  13.715  71.266  1.00  0.00    -0.443 A  
HETATM   18  C   UNL     1     -12.428  12.361  71.386  1.00  0.00    -0.205 A  
HETATM   19  C   UNL     1     -11.923  11.647  70.293  1.00  0.00    -0.358 A  
HETATM   20 CL   UNL     1     -11.570   9.974  70.556  1.00  0.00    -0.373 Cl 
ENDBRANCH  12  13
ENDBRANCH   9  12
TORSDOF 2
ENDMDL
MODEL      152
REMARK 921   NORMALIZED FREE ENERGY PREDICTED BY IDOCK:   -3.93 KCAL/MOL
REMARK 922        TOTAL FREE ENERGY PREDICTED BY IDOCK:   -4.72 KCAL/MOL
REMARK 923 INTER-LIGAND FREE ENERGY PREDICTED BY IDOCK:   -4.58 KCAL/MOL
REMARK 924 INTRA-LIGAND FREE ENERGY PREDICTED BY IDOCK:   -0.14 KCAL/MOL
REMARK 927      BINDING AFFINITY PREDICTED BY RF-SCORE:    0.00 PKD
ROOT
HETATM    1  N   UNL     1     -11.104  16.949  69.680  1.00  0.00    -0.322 NA 
HETATM    2  C   UNL     1     -11.568  15.835  69.082  1.00  0.00    -0.392 C  
HETATM    3  H2  UNL     1     -11.562  17.262  70.536  1.00  0.00     0.000 HD 
HETATM    4  H1  UNL     1     -10.321  17.496  69.324  1.00  0.00     0.000 HD 
HETATM    5  N   UNL     1     -12.553  15.146  69.530  1.00  0.00    -0.601 NA 
HETATM    6  N   UNL     1     -11.006  15.366  67.936  1.00  0.00    -0.300 N  
HETATM    7  H1  UNL     1     -12.904  14.303  69.077  1.00  0.00     0.000 HD 
HETATM    8  H2  UNL     1     -13.011  15.460  70.386  1.00  0.00     0.000 HD 
HETATM    9  C   UNL     1      -9.912  15.886  67.268  1.00  0.00    -0.240 C  
HETATM   10  H   UNL     1     -11.438  14.539  67.523  1.00  0.00     0.000 HD 
HETATM   11  O   UNL     1      -9.175  16.752  67.735  1.00  0.00    -0.218 OA 
ENDROOT
BRANCH   9  12
HETATM   12  C   UNL     1      -9.686  15.275  65.898  1.00  0.00    -0.390 C  
BRANCH  12  13
HETATM   13  C   UNL     1      -9.864  13.772  65.856  1.00  0.00    -0.279 A  
HETATM   14  C   UNL     1      -9.002  12.914  66.568  1.00  0.00    -0.078 A  
HETATM   15  C   UNL     1      -9.227  11.534  66.614  1.00  0.00    -0.194 A  
HETATM   16 CL   UNL     1      -7.628  13.508  67.436  1.00  0.00    -0.166 Cl 
HETATM   17  C   UNL     1     -10.307  10.976  65.938  1.00  0.00    -0.315 A  
HETATM   18  C   UNL     1     -11.140  11.796  65.185  1.00  0.00    -0.341 A  
HETATM   19  C   UNL     1     -10.915  13.177  65.132  1.00  0.00    -0.298 A  
HETATM   20 CL   UNL     1     -11.999  14.103  64.153  1.00  0.00    -0.453 Cl 
ENDBRANCH  12  13
ENDBRANCH   9  12
TORSDOF 2
ENDMDL
MODEL      153
REMARK 921   NORMALIZED FREE ENERGY PREDICTED BY IDOCK:   -3.92 KCAL/MOL
REMARK 922        TOTAL FREE ENERGY PREDICTED BY IDOCK:   -4.72 KCAL/MOL
REMARK 923 INTER-LIGAND FREE ENERGY PREDICTED BY IDOCK:   -4.39 KCAL/MOL
REMARK 924 INTRA-LIGAND FREE ENERGY PREDICTED BY IDOCK:   -0.33 KCAL/MOL
REMARK 927      BINDING AFFINITY PREDICTED BY RF-SCORE:    0.00 PKD
ROOT
HETATM    1  N   UNL     1      -6.199  11.277  68.073  1.00  0.00    -0.049 NA 
HETATM    2  C   UNL     1      -7.306  10.814  68.683  1.00  0.00    -0.097 C  
HETATM    3  H2  UNL     1      -5.437  11.623  68.656  1.00  0.00     0.000 HD 
HETATM    4  H1  UNL     1      -6.079  11.301  67.061  1.00  0.00     0.000 HD 
HETATM    5  N   UNL     1      -7.456  10.784  69.957  1.00  0.00    -0.415 NA 
HETATM    6  N   UNL     1      -8.360  10.343  67.964  1.00  0.00    -0.117 N  
HETATM    7  H1  UNL     1      -8.294  10.433  70.418  1.00  0.00     0.000 HD 
HETATM    8  H2  UNL     1      -6.694  11.129  70.540  1.00  0.00     0.000 HD 
HETATM    9  C   UNL     1      -8.446  10.222  66.589  1.00  0.00    -0.124 C  
HETATM   10  H   UNL     1      -9.177  10.046  68.497  1.00  0.00     0.000 HD 
HETATM   11  O   UNL     1      -7.487  10.356  65.830  1.00  0.00    -0.138 OA 
ENDROOT
BRANCH   9  12
HETATM   12  C   UNL     1      -9.840   9.888  66.091  1.00  0.00    -0.324 C  
BRANCH  12  13
HETATM   13  C   UNL     1     -10.605  11.079  65.555  1.00  0.00    -0.267 A  
HETATM   14  C   UNL     1     -11.351  11.914  66.411  1.00  0.00    -0.339 A  
HETATM   15  C   UNL     1     -11.973  13.073  65.934  1.00  0.00    -0.491 A  
HETATM   16 CL   UNL     1     -11.532  11.570  68.097  1.00  0.00    -0.364 Cl 
HETATM   17  C   UNL     1     -11.879  13.417  64.590  1.00  0.00    -0.430 A  
HETATM   18  C   UNL     1     -11.194  12.580  63.716  1.00  0.00    -0.524 A  
HETATM   19  C   UNL     1     -10.574  11.417  64.189  1.00  0.00    -0.369 A  
HETATM   20 CL   UNL     1      -9.764  10.438  63.015  1.00  0.00    -0.338 Cl 
ENDBRANCH  12  13
ENDBRANCH   9  12
TORSDOF 2
ENDMDL
MODEL      154
REMARK 921   NORMALIZED FREE ENERGY PREDICTED BY IDOCK:   -3.91 KCAL/MOL
REMARK 922        TOTAL FREE ENERGY PREDICTED BY IDOCK:   -4.70 KCAL/MOL
REMARK 923 INTER-LIGAND FREE ENERGY PREDICTED BY IDOCK:   -4.46 KCAL/MOL
REMARK 924 INTRA-LIGAND FREE ENERGY PREDICTED BY IDOCK:   -0.24 KCAL/MOL
REMARK 927      BINDING AFFINITY PREDICTED BY RF-SCORE:    0.00 PKD
ROOT
HETATM    1  N   UNL     1      -6.956  14.334  67.604  1.00  0.00    -0.179 NA 
HETATM    2  C   UNL     1      -7.636  13.498  68.410  1.00  0.00    -0.133 C  
HETATM    3  H2  UNL     1      -5.961  14.469  67.779  1.00  0.00     0.000 HD 
HETATM    4  H1  UNL     1      -7.381  14.841  66.827  1.00  0.00     0.000 HD 
HETATM    5  N   UNL     1      -7.101  12.861  69.386  1.00  0.00    -0.319 NA 
HETATM    6  N   UNL     1      -8.967  13.277  68.233  1.00  0.00    -0.214 N  
HETATM    7  H1  UNL     1      -7.616  12.227  69.997  1.00  0.00     0.000 HD 
HETATM    8  H2  UNL     1      -6.105  12.995  69.562  1.00  0.00     0.000 HD 
HETATM    9  C   UNL     1      -9.775  13.797  67.239  1.00  0.00    -0.242 C  
HETATM   10  H   UNL     1      -9.418  12.660  68.909  1.00  0.00     0.000 HD 
HETATM   11  O   UNL     1      -9.347  14.394  66.253  1.00  0.00    -0.283 OA 
ENDROOT
BRANCH   9  12
HETATM   12  C   UNL     1     -11.255  13.548  67.463  1.00  0.00    -0.307 C  
BRANCH  12  13
HETATM   13  C   UNL     1     -11.736  13.903  68.853  1.00  0.00    -0.373 A  
HETATM   14  C   UNL     1     -12.091  12.902  69.780  1.00  0.00    -0.245 A  
HETATM   15  C   UNL     1     -12.436  13.224  71.098  1.00  0.00    -0.397 A  
HETATM   16 CL   UNL     1     -12.108  11.225  69.358  1.00  0.00    -0.393 Cl 
HETATM   17  C   UNL     1     -12.452  14.550  71.516  1.00  0.00    -0.424 A  
HETATM   18  C   UNL     1     -12.158  15.558  70.604  1.00  0.00    -0.430 A  
HETATM   19  C   UNL     1     -11.817  15.241  69.283  1.00  0.00    -0.329 A  
HETATM   20 CL   UNL     1     -11.487  16.570  68.227  1.00  0.00    -0.195 Cl 
ENDBRANCH  12  13
ENDBRANCH   9  12
TORSDOF 2
ENDMDL
MODEL      155
REMARK 921   NORMALIZED FREE ENERGY PREDICTED BY IDOCK:   -3.91 KCAL/MOL
REMARK 922        TOTAL FREE ENERGY PREDICTED BY IDOCK:   -4.70 KCAL/MOL
REMARK 923 INTER-LIGAND FREE ENERGY PREDICTED BY IDOCK:   -4.54 KCAL/MOL
REMARK 924 INTRA-LIGAND FREE ENERGY PREDICTED BY IDOCK:   -0.16 KCAL/MOL
REMARK 927      BINDING AFFINITY PREDICTED BY RF-SCORE:    0.00 PKD
ROOT
HETATM    1  N   UNL     1      -6.878  13.327  67.673  1.00  0.00    -0.155 NA 
HETATM    2  C   UNL     1      -7.491  13.798  68.775  1.00  0.00    -0.098 C  
HETATM    3  H2  UNL     1      -5.877  13.140  67.722  1.00  0.00     0.000 HD 
HETATM    4  H1  UNL     1      -7.359  13.148  66.792  1.00  0.00     0.000 HD 
HETATM    5  N   UNL     1      -6.886  14.023  69.883  1.00  0.00    -0.356 NA 
HETATM    6  N   UNL     1      -8.824  14.072  68.775  1.00  0.00    -0.356 N  
HETATM    7  H1  UNL     1      -7.350  14.379  70.718  1.00  0.00     0.000 HD 
HETATM    8  H2  UNL     1      -5.884  13.836  69.932  1.00  0.00     0.000 HD 
HETATM    9  C   UNL     1      -9.716  13.881  67.737  1.00  0.00    -0.225 C  
HETATM   10  H   UNL     1      -9.207  14.462  69.637  1.00  0.00     0.000 HD 
HETATM   11  O   UNL     1      -9.451  13.251  66.715  1.00  0.00    -0.243 OA 
ENDROOT
BRANCH   9  12
HETATM   12  C   UNL     1     -11.076  14.509  67.977  1.00  0.00    -0.289 C  
BRANCH  12  13
HETATM   13  C   UNL     1     -11.436  14.660  69.439  1.00  0.00    -0.330 A  
HETATM   14  C   UNL     1     -11.332  15.905  70.092  1.00  0.00    -0.365 A  
HETATM   15  C   UNL     1     -11.762  16.070  71.414  1.00  0.00    -0.536 A  
HETATM   16 CL   UNL     1     -10.686  17.303  69.304  1.00  0.00    -0.179 Cl 
HETATM   17  C   UNL     1     -12.289  14.994  72.120  1.00  0.00    -0.433 A  
HETATM   18  C   UNL     1     -12.352  13.743  71.514  1.00  0.00    -0.286 A  
HETATM   19  C   UNL     1     -11.918  13.573  70.194  1.00  0.00    -0.329 A  
HETATM   20 CL   UNL     1     -12.022  11.975  69.542  1.00  0.00    -0.360 Cl 
ENDBRANCH  12  13
ENDBRANCH   9  12
TORSDOF 2
ENDMDL
MODEL      156
REMARK 921   NORMALIZED FREE ENERGY PREDICTED BY IDOCK:   -3.88 KCAL/MOL
REMARK 922        TOTAL FREE ENERGY PREDICTED BY IDOCK:   -4.67 KCAL/MOL
REMARK 923 INTER-LIGAND FREE ENERGY PREDICTED BY IDOCK:   -4.48 KCAL/MOL
REMARK 924 INTRA-LIGAND FREE ENERGY PREDICTED BY IDOCK:   -0.19 KCAL/MOL
REMARK 927      BINDING AFFINITY PREDICTED BY RF-SCORE:    0.00 PKD
ROOT
HETATM    1  N   UNL     1      -6.955  11.776  66.369  1.00  0.00    -0.370 NA 
HETATM    2  C   UNL     1      -7.729  11.804  67.469  1.00  0.00    -0.143 C  
HETATM    3  H2  UNL     1      -5.943  11.789  66.492  1.00  0.00     0.000 HD 
HETATM    4  H1  UNL     1      -7.324  11.742  65.419  1.00  0.00     0.000 HD 
HETATM    5  N   UNL     1      -7.265  11.847  68.664  1.00  0.00    -0.104 NA 
HETATM    6  N   UNL     1      -9.087  11.794  67.374  1.00  0.00    -0.171 N  
HETATM    7  H1  UNL     1      -7.852  11.868  69.498  1.00  0.00     0.000 HD 
HETATM    8  H2  UNL     1      -6.253  11.860  68.788  1.00  0.00     0.000 HD 
HETATM    9  C   UNL     1      -9.843  11.707  66.220  1.00  0.00    -0.219 C  
HETATM   10  H   UNL     1      -9.604  11.856  68.252  1.00  0.00     0.000 HD 
HETATM   11  O   UNL     1      -9.375  11.436  65.115  1.00  0.00    -0.213 OA 
ENDROOT
BRANCH   9  12
HETATM   12  C   UNL     1     -11.322  11.960  66.438  1.00  0.00    -0.400 C  
BRANCH  12  13
HETATM   13  C   UNL     1     -11.619  13.034  67.462  1.00  0.00    -0.405 A  
HETATM   14  C   UNL     1     -11.906  12.707  68.803  1.00  0.00    -0.300 A  
HETATM   15  C   UNL     1     -12.078  13.702  69.772  1.00  0.00    -0.396 A  
HETATM   16 CL   UNL     1     -12.048  11.067  69.336  1.00  0.00    -0.407 Cl 
HETATM   17  C   UNL     1     -11.984  15.045  69.424  1.00  0.00    -0.336 A  
HETATM   18  C   UNL     1     -11.755  15.393  68.097  1.00  0.00    -0.276 A  
HETATM   19  C   UNL     1     -11.588  14.401  67.123  1.00  0.00    -0.386 A  
HETATM   20 CL   UNL     1     -11.326  14.942  65.502  1.00  0.00    -0.350 Cl 
ENDBRANCH  12  13
ENDBRANCH   9  12
TORSDOF 2
ENDMDL
MODEL      157
REMARK 921   NORMALIZED FREE ENERGY PREDICTED BY IDOCK:   -3.87 KCAL/MOL
REMARK 922        TOTAL FREE ENERGY PREDICTED BY IDOCK:   -4.66 KCAL/MOL
REMARK 923 INTER-LIGAND FREE ENERGY PREDICTED BY IDOCK:   -4.33 KCAL/MOL
REMARK 924 INTRA-LIGAND FREE ENERGY PREDICTED BY IDOCK:   -0.32 KCAL/MOL
REMARK 927      BINDING AFFINITY PREDICTED BY RF-SCORE:    0.00 PKD
ROOT
HETATM    1  N   UNL     1     -10.958  12.839  63.503  1.00  0.00    -0.543 NA 
HETATM    2  C   UNL     1     -11.449  13.881  64.201  1.00  0.00    -0.249 C  
HETATM    3  H2  UNL     1     -11.293  12.697  62.550  1.00  0.00     0.000 HD 
HETATM    4  H1  UNL     1     -10.271  12.184  63.874  1.00  0.00     0.000 HD 
HETATM    5  N   UNL     1     -12.313  14.705  63.734  1.00  0.00    -1.092 NA 
HETATM    6  N   UNL     1     -11.047  14.124  65.477  1.00  0.00    -0.302 N  
HETATM    7  H1  UNL     1     -12.685  15.494  64.262  1.00  0.00     0.000 HD 
HETATM    8  H2  UNL     1     -12.649  14.563  62.781  1.00  0.00     0.000 HD 
HETATM    9  C   UNL     1     -10.100  13.424  66.203  1.00  0.00    -0.302 C  
HETATM   10  H   UNL     1     -11.492  14.909  65.952  1.00  0.00     0.000 HD 
HETATM   11  O   UNL     1      -9.347  12.584  65.712  1.00  0.00    -0.129 OA 
ENDROOT
BRANCH   9  12
HETATM   12  C   UNL     1     -10.057  13.798  67.672  1.00  0.00    -0.242 C  
BRANCH  12  13
HETATM   13  C   UNL     1      -8.961  14.780  68.027  1.00  0.00    -0.174 A  
HETATM   14  C   UNL     1      -9.201  16.169  68.042  1.00  0.00    -0.195 A  
HETATM   15  C   UNL     1      -8.220  17.071  68.469  1.00  0.00    -0.259 A  
HETATM   16 CL   UNL     1     -10.717  16.842  67.550  1.00  0.00    -0.308 Cl 
HETATM   17  C   UNL     1      -6.972  16.610  68.875  1.00  0.00    -0.200 A  
HETATM   18  C   UNL     1      -6.694  15.248  68.818  1.00  0.00    -0.103 A  
HETATM   19  C   UNL     1      -7.672  14.344  68.386  1.00  0.00    -0.132 A  
HETATM   20 CL   UNL     1      -7.217  12.676  68.336  1.00  0.00    -0.104 Cl 
ENDBRANCH  12  13
ENDBRANCH   9  12
TORSDOF 2
ENDMDL
MODEL      158
REMARK 921   NORMALIZED FREE ENERGY PREDICTED BY IDOCK:   -3.86 KCAL/MOL
REMARK 922        TOTAL FREE ENERGY PREDICTED BY IDOCK:   -4.65 KCAL/MOL
REMARK 923 INTER-LIGAND FREE ENERGY PREDICTED BY IDOCK:   -4.34 KCAL/MOL
REMARK 924 INTRA-LIGAND FREE ENERGY PREDICTED BY IDOCK:   -0.31 KCAL/MOL
REMARK 927      BINDING AFFINITY PREDICTED BY RF-SCORE:    0.00 PKD
ROOT
HETATM    1  N   UNL     1     -10.144   9.031  66.382  1.00  0.00    -0.299 NA 
HETATM    2  C   UNL     1     -10.867   9.249  67.496  1.00  0.00    -0.112 C  
HETATM    3  H2  UNL     1     -10.061   9.791  65.706  1.00  0.00     0.000 HD 
HETATM    4  H1  UNL     1      -9.675   8.150  66.176  1.00  0.00     0.000 HD 
HETATM    5  N   UNL     1     -11.457  10.358  67.755  1.00  0.00    -0.633 NA 
HETATM    6  N   UNL     1     -11.022   8.277  68.435  1.00  0.00    -0.425 N  
HETATM    7  H1  UNL     1     -12.005  10.523  68.599  1.00  0.00     0.000 HD 
HETATM    8  H2  UNL     1     -11.374  11.118  67.079  1.00  0.00     0.000 HD 
HETATM    9  C   UNL     1     -10.462   7.012  68.428  1.00  0.00    -0.201 C  
HETATM   10  H   UNL     1     -11.616   8.506  69.232  1.00  0.00     0.000 HD 
HETATM   11  O   UNL     1      -9.582   6.659  67.645  1.00  0.00    -0.124 OA 
ENDROOT
BRANCH   9  12
HETATM   12  C   UNL     1     -11.022   6.091  69.496  1.00  0.00    -0.467 C  
BRANCH  12  13
HETATM   13  C   UNL     1     -10.656   6.492  70.909  1.00  0.00    -0.275 A  
HETATM   14  C   UNL     1      -9.369   6.246  71.429  1.00  0.00    -0.152 A  
HETATM   15  C   UNL     1      -8.998   6.707  72.697  1.00  0.00    -0.136 A  
HETATM   16 CL   UNL     1      -8.170   5.376  70.535  1.00  0.00    -0.108 Cl 
HETATM   17  C   UNL     1      -9.905   7.411  73.482  1.00  0.00    -0.363 A  
HETATM   18  C   UNL     1     -11.198   7.619  73.011  1.00  0.00    -0.388 A  
HETATM   19  C   UNL     1     -11.575   7.154  71.746  1.00  0.00    -0.280 A  
HETATM   20 CL   UNL     1     -13.210   7.450  71.266  1.00  0.00    -0.379 Cl 
ENDBRANCH  12  13
ENDBRANCH   9  12
TORSDOF 2
ENDMDL
MODEL      159
REMARK 921   NORMALIZED FREE ENERGY PREDICTED BY IDOCK:   -3.84 KCAL/MOL
REMARK 922        TOTAL FREE ENERGY PREDICTED BY IDOCK:   -4.63 KCAL/MOL
REMARK 923 INTER-LIGAND FREE ENERGY PREDICTED BY IDOCK:   -4.26 KCAL/MOL
REMARK 924 INTRA-LIGAND FREE ENERGY PREDICTED BY IDOCK:   -0.36 KCAL/MOL
REMARK 927      BINDING AFFINITY PREDICTED BY RF-SCORE:    0.00 PKD
ROOT
HETATM    1  N   UNL     1     -11.164  11.446  63.355  1.00  0.00    -0.791 NA 
HETATM    2  C   UNL     1     -10.393  10.607  64.073  1.00  0.00    -0.191 C  
HETATM    3  H2  UNL     1     -11.212  11.310  62.345  1.00  0.00     0.000 HD 
HETATM    4  H1  UNL     1     -11.701  12.210  63.764  1.00  0.00     0.000 HD 
HETATM    5  N   UNL     1      -9.717   9.647  63.558  1.00  0.00    -0.405 NA 
HETATM    6  N   UNL     1     -10.281  10.737  65.423  1.00  0.00    -0.277 N  
HETATM    7  H1  UNL     1      -9.134   9.012  64.102  1.00  0.00     0.000 HD 
HETATM    8  H2  UNL     1      -9.766   9.510  62.549  1.00  0.00     0.000 HD 
HETATM    9  C   UNL     1     -10.931  11.652  66.231  1.00  0.00    -0.289 C  
HETATM   10  H   UNL     1      -9.648  10.088  65.890  1.00  0.00     0.000 HD 
HETATM   11  O   UNL     1     -11.857  12.365  65.848  1.00  0.00    -0.418 OA 
ENDROOT
BRANCH   9  12
HETATM   12  C   UNL     1     -10.408  11.689  67.654  1.00  0.00    -0.210 C  
BRANCH  12  13
HETATM   13  C   UNL     1      -9.660  12.958  68.004  1.00  0.00    -0.221 A  
HETATM   14  C   UNL     1      -8.286  13.098  67.722  1.00  0.00    -0.171 A  
HETATM   15  C   UNL     1      -7.618  14.306  67.949  1.00  0.00    -0.159 A  
HETATM   16 CL   UNL     1      -7.348  11.799  67.069  1.00  0.00    -0.144 Cl 
HETATM   17  C   UNL     1      -8.300  15.397  68.477  1.00  0.00    -0.151 A  
HETATM   18  C   UNL     1      -9.643  15.266  68.813  1.00  0.00    -0.214 A  
HETATM   19  C   UNL     1     -10.314  14.057  68.592  1.00  0.00    -0.238 A  
HETATM   20 CL   UNL     1     -11.978  13.996  69.062  1.00  0.00    -0.385 Cl 
ENDBRANCH  12  13
ENDBRANCH   9  12
TORSDOF 2
ENDMDL
MODEL      160
REMARK 921   NORMALIZED FREE ENERGY PREDICTED BY IDOCK:   -3.82 KCAL/MOL
REMARK 922        TOTAL FREE ENERGY PREDICTED BY IDOCK:   -4.61 KCAL/MOL
REMARK 923 INTER-LIGAND FREE ENERGY PREDICTED BY IDOCK:   -4.77 KCAL/MOL
REMARK 924 INTRA-LIGAND FREE ENERGY PREDICTED BY IDOCK:    0.17 KCAL/MOL
REMARK 927      BINDING AFFINITY PREDICTED BY RF-SCORE:    0.00 PKD
ROOT
HETATM    1  N   UNL     1     -11.174   6.379  68.845  1.00  0.00    -0.531 NA 
HETATM    2  C   UNL     1     -11.040   7.373  69.743  1.00  0.00    -0.152 C  
HETATM    3  H2  UNL     1     -11.429   5.452  69.187  1.00  0.00     0.000 HD 
HETATM    4  H1  UNL     1     -11.035   6.501  67.842  1.00  0.00     0.000 HD 
HETATM    5  N   UNL     1     -11.214   7.219  71.004  1.00  0.00    -0.259 NA 
HETATM    6  N   UNL     1     -10.697   8.630  69.353  1.00  0.00    -0.337 N  
HETATM    7  H1  UNL     1     -11.112   7.973  71.684  1.00  0.00     0.000 HD 
HETATM    8  H2  UNL     1     -11.469   6.293  71.346  1.00  0.00     0.000 HD 
HETATM    9  C   UNL     1     -10.495   9.079  68.060  1.00  0.00    -0.216 C  
HETATM   10  H   UNL     1     -10.577   9.319  70.096  1.00  0.00     0.000 HD 
HETATM   11  O   UNL     1     -10.784   8.428  67.058  1.00  0.00    -0.289 OA 
ENDROOT
BRANCH   9  12
HETATM   12  C   UNL     1      -9.892  10.469  67.984  1.00  0.00    -0.166 C  
BRANCH  12  13
HETATM   13  C   UNL     1     -10.661  11.426  67.099  1.00  0.00    -0.279 A  
HETATM   14  C   UNL     1     -11.458  12.450  67.650  1.00  0.00    -0.337 A  
HETATM   15  C   UNL     1     -12.086  13.399  66.835  1.00  0.00    -0.406 A  
HETATM   16 CL   UNL     1     -11.700  12.607  69.356  1.00  0.00    -0.372 Cl 
HETATM   17  C   UNL     1     -11.946  13.340  65.452  1.00  0.00    -0.432 A  
HETATM   18  C   UNL     1     -11.208  12.307  64.884  1.00  0.00    -0.365 A  
HETATM   19  C   UNL     1     -10.583  11.353  65.695  1.00  0.00    -0.258 A  
HETATM   20 CL   UNL     1      -9.705  10.102  64.886  1.00  0.00    -0.373 Cl 
ENDBRANCH  12  13
ENDBRANCH   9  12
TORSDOF 2
ENDMDL
MODEL      161
REMARK 921   NORMALIZED FREE ENERGY PREDICTED BY IDOCK:   -3.81 KCAL/MOL
REMARK 922        TOTAL FREE ENERGY PREDICTED BY IDOCK:   -4.59 KCAL/MOL
REMARK 923 INTER-LIGAND FREE ENERGY PREDICTED BY IDOCK:   -4.32 KCAL/MOL
REMARK 924 INTRA-LIGAND FREE ENERGY PREDICTED BY IDOCK:   -0.28 KCAL/MOL
REMARK 927      BINDING AFFINITY PREDICTED BY RF-SCORE:    0.00 PKD
ROOT
HETATM    1  N   UNL     1     -11.493  14.864  64.152  1.00  0.00    -0.636 NA 
HETATM    2  C   UNL     1     -11.081  13.585  64.227  1.00  0.00    -0.351 C  
HETATM    3  H2  UNL     1     -12.015  15.154  63.324  1.00  0.00     0.000 HD 
HETATM    4  H1  UNL     1     -11.313  15.560  64.875  1.00  0.00     0.000 HD 
HETATM    5  N   UNL     1     -11.308  12.710  63.317  1.00  0.00    -0.750 NA 
HETATM    6  N   UNL     1     -10.377  13.135  65.301  1.00  0.00    -0.301 N  
HETATM    7  H1  UNL     1     -10.996  11.741  63.374  1.00  0.00     0.000 HD 
HETATM    8  H2  UNL     1     -11.830  13.000  62.490  1.00  0.00     0.000 HD 
HETATM    9  C   UNL     1     -10.036  13.850  66.435  1.00  0.00    -0.297 C  
HETATM   10  H   UNL     1     -10.068  12.164  65.266  1.00  0.00     0.000 HD 
HETATM   11  O   UNL     1     -10.493  14.958  66.708  1.00  0.00    -0.274 OA 
ENDROOT
BRANCH   9  12
HETATM   12  C   UNL     1      -9.048  13.131  67.334  1.00  0.00    -0.208 C  
BRANCH  12  13
HETATM   13  C   UNL     1      -9.501  11.756  67.773  1.00  0.00    -0.181 A  
HETATM   14  C   UNL     1     -10.496  11.594  68.758  1.00  0.00    -0.204 A  
HETATM   15  C   UNL     1     -10.989  10.326  69.090  1.00  0.00    -0.280 A  
HETATM   16 CL   UNL     1     -11.177  12.940  69.603  1.00  0.00    -0.147 Cl 
HETATM   17  C   UNL     1     -10.490   9.191  68.459  1.00  0.00    -0.238 A  
HETATM   18  C   UNL     1      -9.470   9.323  67.523  1.00  0.00    -0.160 A  
HETATM   19  C   UNL     1      -8.970  10.588  67.192  1.00  0.00    -0.140 A  
HETATM   20 CL   UNL     1      -7.691  10.637  66.030  1.00  0.00    -0.150 Cl 
ENDBRANCH  12  13
ENDBRANCH   9  12
TORSDOF 2
ENDMDL
MODEL      162
REMARK 921   NORMALIZED FREE ENERGY PREDICTED BY IDOCK:   -3.81 KCAL/MOL
REMARK 922        TOTAL FREE ENERGY PREDICTED BY IDOCK:   -4.59 KCAL/MOL
REMARK 923 INTER-LIGAND FREE ENERGY PREDICTED BY IDOCK:   -4.27 KCAL/MOL
REMARK 924 INTRA-LIGAND FREE ENERGY PREDICTED BY IDOCK:   -0.32 KCAL/MOL
REMARK 927      BINDING AFFINITY PREDICTED BY RF-SCORE:    0.00 PKD
ROOT
HETATM    1  N   UNL     1     -10.673  11.320  63.271  1.00  0.00    -0.744 NA 
HETATM    2  C   UNL     1     -10.035  10.545  64.168  1.00  0.00    -0.318 C  
HETATM    3  H2  UNL     1     -10.546  11.114  62.280  1.00  0.00     0.000 HD 
HETATM    4  H1  UNL     1     -11.275  12.102  63.526  1.00  0.00     0.000 HD 
HETATM    5  N   UNL     1      -9.278   9.561  63.846  1.00  0.00    -0.425 NA 
HETATM    6  N   UNL     1     -10.159  10.769  65.504  1.00  0.00    -0.261 N  
HETATM    7  H1  UNL     1      -8.795   8.974  64.526  1.00  0.00     0.000 HD 
HETATM    8  H2  UNL     1      -9.151   9.355  62.855  1.00  0.00     0.000 HD 
HETATM    9  C   UNL     1     -10.941  11.728  66.121  1.00  0.00    -0.307 C  
HETATM   10  H   UNL     1      -9.614  10.163  66.118  1.00  0.00     0.000 HD 
HETATM   11  O   UNL     1     -11.790  12.398  65.536  1.00  0.00    -0.397 OA 
ENDROOT
BRANCH   9  12
HETATM   12  C   UNL     1     -10.672  11.871  67.608  1.00  0.00    -0.253 C  
BRANCH  12  13
HETATM   13  C   UNL     1      -9.712  12.987  67.956  1.00  0.00    -0.224 A  
HETATM   14  C   UNL     1     -10.167  14.305  68.162  1.00  0.00    -0.231 A  
HETATM   15  C   UNL     1      -9.297  15.316  68.584  1.00  0.00    -0.201 A  
HETATM   16 CL   UNL     1     -11.821  14.752  67.920  1.00  0.00    -0.359 Cl 
HETATM   17  C   UNL     1      -7.950  15.040  68.796  1.00  0.00    -0.162 A  
HETATM   18  C   UNL     1      -7.468  13.759  68.548  1.00  0.00    -0.119 A  
HETATM   19  C   UNL     1      -8.334  12.747  68.119  1.00  0.00    -0.172 A  
HETATM   20 CL   UNL     1      -7.628  11.196  67.823  1.00  0.00    -0.097 Cl 
ENDBRANCH  12  13
ENDBRANCH   9  12
TORSDOF 2
ENDMDL
MODEL      163
REMARK 921   NORMALIZED FREE ENERGY PREDICTED BY IDOCK:   -3.81 KCAL/MOL
REMARK 922        TOTAL FREE ENERGY PREDICTED BY IDOCK:   -4.59 KCAL/MOL
REMARK 923 INTER-LIGAND FREE ENERGY PREDICTED BY IDOCK:   -4.34 KCAL/MOL
REMARK 924 INTRA-LIGAND FREE ENERGY PREDICTED BY IDOCK:   -0.25 KCAL/MOL
REMARK 927      BINDING AFFINITY PREDICTED BY RF-SCORE:    0.00 PKD
ROOT
HETATM    1  N   UNL     1     -10.872  17.023  69.420  1.00  0.00    -0.359 NA 
HETATM    2  C   UNL     1     -11.503  15.887  69.072  1.00  0.00    -0.380 C  
HETATM    3  H2  UNL     1     -11.257  17.573  70.188  1.00  0.00     0.000 HD 
HETATM    4  H1  UNL     1     -10.029  17.366  68.959  1.00  0.00     0.000 HD 
HETATM    5  N   UNL     1     -12.563  15.456  69.653  1.00  0.00    -0.617 NA 
HETATM    6  N   UNL     1     -11.044  15.110  68.054  1.00  0.00    -0.295 N  
HETATM    7  H1  UNL     1     -13.041  14.595  69.389  1.00  0.00     0.000 HD 
HETATM    8  H2  UNL     1     -12.948  16.005  70.421  1.00  0.00     0.000 HD 
HETATM    9  C   UNL     1      -9.906  15.316  67.294  1.00  0.00    -0.220 C  
HETATM   10  H   UNL     1     -11.599  14.286  67.826  1.00  0.00     0.000 HD 
HETATM   11  O   UNL     1      -9.042  16.147  67.569  1.00  0.00    -0.200 OA 
ENDROOT
BRANCH   9  12
HETATM   12  C   UNL     1      -9.806  14.403  66.087  1.00  0.00    -0.340 C  
BRANCH  12  13
HETATM   13  C   UNL     1      -9.833  12.928  66.424  1.00  0.00    -0.268 A  
HETATM   14  C   UNL     1     -10.957  12.131  66.127  1.00  0.00    -0.298 A  
HETATM   15  C   UNL     1     -10.945  10.749  66.344  1.00  0.00    -0.108 A  
HETATM   16 CL   UNL     1     -12.409  12.803  65.468  1.00  0.00    -0.525 Cl 
HETATM   17  C   UNL     1      -9.818  10.132  66.876  1.00  0.00    -0.244 A  
HETATM   18  C   UNL     1      -8.717  10.905  67.227  1.00  0.00    -0.131 A  
HETATM   19  C   UNL     1      -8.727  12.290  67.017  1.00  0.00    -0.199 A  
HETATM   20 CL   UNL     1      -7.314  13.159  67.505  1.00  0.00    -0.153 Cl 
ENDBRANCH  12  13
ENDBRANCH   9  12
TORSDOF 2
ENDMDL
MODEL      164
REMARK 921   NORMALIZED FREE ENERGY PREDICTED BY IDOCK:   -3.80 KCAL/MOL
REMARK 922        TOTAL FREE ENERGY PREDICTED BY IDOCK:   -4.59 KCAL/MOL
REMARK 923 INTER-LIGAND FREE ENERGY PREDICTED BY IDOCK:   -4.24 KCAL/MOL
REMARK 924 INTRA-LIGAND FREE ENERGY PREDICTED BY IDOCK:   -0.34 KCAL/MOL
REMARK 927      BINDING AFFINITY PREDICTED BY RF-SCORE:    0.00 PKD
ROOT
HETATM    1  N   UNL     1     -12.145  15.109  63.979  1.00  0.00    -0.936 NA 
HETATM    2  C   UNL     1     -12.343  14.053  64.789  1.00  0.00    -0.413 C  
HETATM    3  H2  UNL     1     -12.549  15.081  63.043  1.00  0.00     0.000 HD 
HETATM    4  H1  UNL     1     -11.613  15.937  64.249  1.00  0.00     0.000 HD 
HETATM    5  N   UNL     1     -13.011  13.012  64.449  1.00  0.00    -0.652 NA 
HETATM    6  N   UNL     1     -11.827  14.025  66.047  1.00  0.00    -0.370 N  
HETATM    7  H1  UNL     1     -13.161  12.212  65.063  1.00  0.00     0.000 HD 
HETATM    8  H2  UNL     1     -13.416  12.984  63.513  1.00  0.00     0.000 HD 
HETATM    9  C   UNL     1     -11.109  15.025  66.678  1.00  0.00    -0.326 C  
HETATM   10  H   UNL     1     -11.988  13.173  66.585  1.00  0.00     0.000 HD 
HETATM   11  O   UNL     1     -10.999  16.168  66.239  1.00  0.00    -0.190 OA 
ENDROOT
BRANCH   9  12
HETATM   12  C   UNL     1     -10.475  14.589  67.986  1.00  0.00    -0.236 C  
BRANCH  12  13
HETATM   13  C   UNL     1      -8.984  14.834  68.060  1.00  0.00    -0.174 A  
HETATM   14  C   UNL     1      -8.065  13.924  67.500  1.00  0.00    -0.182 A  
HETATM   15  C   UNL     1      -6.693  14.199  67.476  1.00  0.00    -0.127 A  
HETATM   16 CL   UNL     1      -8.570  12.425  66.800  1.00  0.00    -0.168 Cl 
HETATM   17  C   UNL     1      -6.204  15.381  68.023  1.00  0.00    -0.153 A  
HETATM   18  C   UNL     1      -7.086  16.270  68.628  1.00  0.00    -0.155 A  
HETATM   19  C   UNL     1      -8.459  15.995  68.660  1.00  0.00    -0.208 A  
HETATM   20 CL   UNL     1      -9.465  17.157  69.452  1.00  0.00     0.050 Cl 
ENDBRANCH  12  13
ENDBRANCH   9  12
TORSDOF 2
ENDMDL
MODEL      165
REMARK 921   NORMALIZED FREE ENERGY PREDICTED BY IDOCK:   -3.80 KCAL/MOL
REMARK 922        TOTAL FREE ENERGY PREDICTED BY IDOCK:   -4.58 KCAL/MOL
REMARK 923 INTER-LIGAND FREE ENERGY PREDICTED BY IDOCK:   -4.29 KCAL/MOL
REMARK 924 INTRA-LIGAND FREE ENERGY PREDICTED BY IDOCK:   -0.29 KCAL/MOL
REMARK 927      BINDING AFFINITY PREDICTED BY RF-SCORE:    0.00 PKD
ROOT
HETATM    1  N   UNL     1      -9.742   4.151  68.874  1.00  0.00    -0.146 NA 
HETATM    2  C   UNL     1      -9.693   3.958  70.205  1.00  0.00    -0.175 C  
HETATM    3  H2  UNL     1      -9.305   3.454  68.270  1.00  0.00     0.000 HD 
HETATM    4  H1  UNL     1     -10.191   4.955  68.435  1.00  0.00     0.000 HD 
HETATM    5  N   UNL     1      -9.129   2.947  70.757  1.00  0.00    -0.107 NA 
HETATM    6  N   UNL     1     -10.252   4.851  71.066  1.00  0.00    -0.213 N  
HETATM    7  H1  UNL     1      -9.092   2.801  71.765  1.00  0.00     0.000 HD 
HETATM    8  H2  UNL     1      -8.692   2.250  70.153  1.00  0.00     0.000 HD 
HETATM    9  C   UNL     1     -10.955   5.997  70.741  1.00  0.00    -0.297 C  
HETATM   10  H   UNL     1     -10.140   4.655  72.061  1.00  0.00     0.000 HD 
HETATM   11  O   UNL     1     -11.335   6.266  69.602  1.00  0.00    -0.405 OA 
ENDROOT
BRANCH   9  12
HETATM   12  C   UNL     1     -11.238   6.897  71.929  1.00  0.00    -0.287 C  
BRANCH  12  13
HETATM   13  C   UNL     1     -11.887   8.215  71.563  1.00  0.00    -0.332 A  
HETATM   14  C   UNL     1     -13.286   8.377  71.609  1.00  0.00    -0.338 A  
HETATM   15  C   UNL     1     -13.880   9.622  71.372  1.00  0.00    -0.184 A  
HETATM   16 CL   UNL     1     -14.351   7.063  71.970  1.00  0.00    -0.424 Cl 
HETATM   17  C   UNL     1     -13.094  10.729  71.069  1.00  0.00    -0.338 A  
HETATM   18  C   UNL     1     -11.715  10.581  70.967  1.00  0.00    -0.384 A  
HETATM   19  C   UNL     1     -11.118   9.335  71.197  1.00  0.00    -0.341 A  
HETATM   20 CL   UNL     1      -9.398   9.257  71.026  1.00  0.00    -0.323 Cl 
ENDBRANCH  12  13
ENDBRANCH   9  12
TORSDOF 2
ENDMDL
MODEL      166
REMARK 921   NORMALIZED FREE ENERGY PREDICTED BY IDOCK:   -3.80 KCAL/MOL
REMARK 922        TOTAL FREE ENERGY PREDICTED BY IDOCK:   -4.58 KCAL/MOL
REMARK 923 INTER-LIGAND FREE ENERGY PREDICTED BY IDOCK:   -4.23 KCAL/MOL
REMARK 924 INTRA-LIGAND FREE ENERGY PREDICTED BY IDOCK:   -0.35 KCAL/MOL
REMARK 927      BINDING AFFINITY PREDICTED BY RF-SCORE:    0.00 PKD
ROOT
HETATM    1  N   UNL     1     -11.383   4.350  64.962  1.00  0.00    -1.102 NA 
HETATM    2  C   UNL     1     -10.055   4.545  64.864  1.00  0.00    -0.041 C  
HETATM    3  H2  UNL     1     -11.797   3.580  64.435  1.00  0.00     0.000 HD 
HETATM    4  H1  UNL     1     -11.999   4.927  65.534  1.00  0.00     0.000 HD 
HETATM    5  N   UNL     1      -9.281   3.818  64.145  1.00  0.00    -0.132 NA 
HETATM    6  N   UNL     1      -9.442   5.556  65.537  1.00  0.00    -0.359 N  
HETATM    7  H1  UNL     1      -8.275   3.966  64.071  1.00  0.00     0.000 HD 
HETATM    8  H2  UNL     1      -9.694   3.049  63.618  1.00  0.00     0.000 HD 
HETATM    9  C   UNL     1     -10.028   6.454  66.411  1.00  0.00    -0.036 C  
HETATM   10  H   UNL     1      -8.439   5.663  65.382  1.00  0.00     0.000 HD 
HETATM   11  O   UNL     1     -11.173   6.338  66.844  1.00  0.00    -0.335 OA 
ENDROOT
BRANCH   9  12
HETATM   12  C   UNL     1      -9.118   7.602  66.807  1.00  0.00    -0.181 C  
BRANCH  12  13
HETATM   13  C   UNL     1      -9.594   8.958  66.334  1.00  0.00    -0.304 A  
HETATM   14  C   UNL     1     -10.355   9.798  67.171  1.00  0.00    -0.248 A  
HETATM   15  C   UNL     1     -10.708  11.093  66.774  1.00  0.00    -0.326 A  
HETATM   16 CL   UNL     1     -10.888   9.293  68.738  1.00  0.00    -0.173 Cl 
HETATM   17  C   UNL     1     -10.323  11.574  65.526  1.00  0.00    -0.322 A  
HETATM   18  C   UNL     1      -9.617  10.743  64.662  1.00  0.00    -0.320 A  
HETATM   19  C   UNL     1      -9.268   9.445  65.054  1.00  0.00    -0.218 A  
HETATM   20 CL   UNL     1      -8.406   8.491  63.897  1.00  0.00    -0.134 Cl 
ENDBRANCH  12  13
ENDBRANCH   9  12
TORSDOF 2
ENDMDL
MODEL      167
REMARK 921   NORMALIZED FREE ENERGY PREDICTED BY IDOCK:   -3.80 KCAL/MOL
REMARK 922        TOTAL FREE ENERGY PREDICTED BY IDOCK:   -4.58 KCAL/MOL
REMARK 923 INTER-LIGAND FREE ENERGY PREDICTED BY IDOCK:   -4.29 KCAL/MOL
REMARK 924 INTRA-LIGAND FREE ENERGY PREDICTED BY IDOCK:   -0.28 KCAL/MOL
REMARK 927      BINDING AFFINITY PREDICTED BY RF-SCORE:    0.00 PKD
ROOT
HETATM    1  N   UNL     1      -9.114  12.948  68.475  1.00  0.00    -0.370 NA 
HETATM    2  C   UNL     1      -9.136  13.029  67.131  1.00  0.00    -0.225 C  
HETATM    3  H2  UNL     1      -9.310  12.045  68.906  1.00  0.00     0.000 HD 
HETATM    4  H1  UNL     1      -8.914  13.740  69.085  1.00  0.00     0.000 HD 
HETATM    5  N   UNL     1      -9.387  12.033  66.363  1.00  0.00    -0.225 NA 
HETATM    6  N   UNL     1      -8.888  14.205  66.493  1.00  0.00    -0.467 N  
HETATM    7  H1  UNL     1      -9.403  12.094  65.346  1.00  0.00     0.000 HD 
HETATM    8  H2  UNL     1      -9.583  11.129  66.795  1.00  0.00     0.000 HD 
HETATM    9  C   UNL     1      -8.549  15.414  67.072  1.00  0.00    -0.234 C  
HETATM   10  H   UNL     1      -8.961  14.193  65.476  1.00  0.00     0.000 HD 
HETATM   11  O   UNL     1      -8.239  15.542  68.256  1.00  0.00    -0.137 OA 
ENDROOT
BRANCH   9  12
HETATM   12  C   UNL     1      -8.575  16.583  66.105  1.00  0.00    -0.334 C  
BRANCH  12  13
HETATM   13  C   UNL     1      -8.151  17.900  66.717  1.00  0.00    -0.262 A  
HETATM   14  C   UNL     1      -6.794  18.277  66.771  1.00  0.00    -0.193 A  
HETATM   15  C   UNL     1      -6.408  19.537  67.242  1.00  0.00    -0.204 A  
HETATM   16 CL   UNL     1      -5.527  17.220  66.249  1.00  0.00    -0.209 Cl 
HETATM   17  C   UNL     1      -7.366  20.444  67.685  1.00  0.00    -0.338 A  
HETATM   18  C   UNL     1      -8.707  20.074  67.691  1.00  0.00    -0.395 A  
HETATM   19  C   UNL     1      -9.095  18.811  67.226  1.00  0.00    -0.277 A  
HETATM   20 CL   UNL     1     -10.784  18.446  67.295  1.00  0.00    -0.424 Cl 
ENDBRANCH  12  13
ENDBRANCH   9  12
TORSDOF 2
ENDMDL
MODEL      168
REMARK 921   NORMALIZED FREE ENERGY PREDICTED BY IDOCK:   -3.79 KCAL/MOL
REMARK 922        TOTAL FREE ENERGY PREDICTED BY IDOCK:   -4.57 KCAL/MOL
REMARK 923 INTER-LIGAND FREE ENERGY PREDICTED BY IDOCK:   -4.32 KCAL/MOL
REMARK 924 INTRA-LIGAND FREE ENERGY PREDICTED BY IDOCK:   -0.26 KCAL/MOL
REMARK 927      BINDING AFFINITY PREDICTED BY RF-SCORE:    0.00 PKD
ROOT
HETATM    1  N   UNL     1      -9.888   8.283  68.552  1.00  0.00    -0.171 NA 
HETATM    2  C   UNL     1     -10.544   9.440  68.757  1.00  0.00    -0.208 C  
HETATM    3  H2  UNL     1     -10.127   7.484  69.138  1.00  0.00     0.000 HD 
HETATM    4  H1  UNL     1      -9.165   8.161  67.843  1.00  0.00     0.000 HD 
HETATM    5  N   UNL     1     -11.453   9.593  69.649  1.00  0.00    -0.437 NA 
HETATM    6  N   UNL     1     -10.270  10.546  68.012  1.00  0.00    -0.160 N  
HETATM    7  H1  UNL     1     -11.950  10.470  69.804  1.00  0.00     0.000 HD 
HETATM    8  H2  UNL     1     -11.692   8.794  70.236  1.00  0.00     0.000 HD 
HETATM    9  C   UNL     1      -9.374  10.645  66.963  1.00  0.00    -0.155 C  
HETATM   10  H   UNL     1     -10.782  11.394  68.254  1.00  0.00     0.000 HD 
HETATM   11  O   UNL     1      -8.830   9.677  66.435  1.00  0.00    -0.144 OA 
ENDROOT
BRANCH   9  12
HETATM   12  C   UNL     1      -9.131  12.070  66.502  1.00  0.00    -0.202 C  
BRANCH  12  13
HETATM   13  C   UNL     1     -10.377  12.788  66.033  1.00  0.00    -0.291 A  
HETATM   14  C   UNL     1     -10.871  12.615  64.724  1.00  0.00    -0.302 A  
HETATM   15  C   UNL     1     -12.080  13.196  64.322  1.00  0.00    -0.477 A  
HETATM   16 CL   UNL     1     -10.030  11.671  63.544  1.00  0.00    -0.390 Cl 
HETATM   17  C   UNL     1     -12.814  13.975  65.209  1.00  0.00    -0.418 A  
HETATM   18  C   UNL     1     -12.320  14.203  66.489  1.00  0.00    -0.405 A  
HETATM   19  C   UNL     1     -11.109  13.628  66.894  1.00  0.00    -0.304 A  
HETATM   20 CL   UNL     1     -10.577  13.990  68.499  1.00  0.00    -0.251 Cl 
ENDBRANCH  12  13
ENDBRANCH   9  12
TORSDOF 2
ENDMDL
MODEL      169
REMARK 921   NORMALIZED FREE ENERGY PREDICTED BY IDOCK:   -3.78 KCAL/MOL
REMARK 922        TOTAL FREE ENERGY PREDICTED BY IDOCK:   -4.56 KCAL/MOL
REMARK 923 INTER-LIGAND FREE ENERGY PREDICTED BY IDOCK:   -4.24 KCAL/MOL
REMARK 924 INTRA-LIGAND FREE ENERGY PREDICTED BY IDOCK:   -0.32 KCAL/MOL
REMARK 927      BINDING AFFINITY PREDICTED BY RF-SCORE:    0.00 PKD
ROOT
HETATM    1  N   UNL     1     -10.122  10.541  66.452  1.00  0.00    -0.221 NA 
HETATM    2  C   UNL     1     -10.945  10.032  67.388  1.00  0.00    -0.191 C  
HETATM    3  H2  UNL     1     -10.098  11.554  66.332  1.00  0.00     0.000 HD 
HETATM    4  H1  UNL     1      -9.523   9.971  65.856  1.00  0.00     0.000 HD 
HETATM    5  N   UNL     1     -11.699  10.749  68.138  1.00  0.00    -0.717 NA 
HETATM    6  N   UNL     1     -11.028   8.690  67.596  1.00  0.00    -0.475 N  
HETATM    7  H1  UNL     1     -12.321  10.363  68.847  1.00  0.00     0.000 HD 
HETATM    8  H2  UNL     1     -11.674  11.762  68.018  1.00  0.00     0.000 HD 
HETATM    9  C   UNL     1     -10.300   7.700  66.962  1.00  0.00    -0.330 C  
HETATM   10  H   UNL     1     -11.702   8.380  68.296  1.00  0.00     0.000 HD 
HETATM   11  O   UNL     1      -9.327   7.921  66.243  1.00  0.00    -0.188 OA 
ENDROOT
BRANCH   9  12
HETATM   12  C   UNL     1     -10.800   6.296  67.249  1.00  0.00    -0.457 C  
BRANCH  12  13
HETATM   13  C   UNL     1     -10.018   5.570  68.321  1.00  0.00    -0.201 A  
HETATM   14  C   UNL     1     -10.416   5.613  69.672  1.00  0.00    -0.304 A  
HETATM   15  C   UNL     1      -9.755   4.859  70.648  1.00  0.00    -0.271 A  
HETATM   16 CL   UNL     1     -11.746   6.583  70.205  1.00  0.00    -0.471 Cl 
HETATM   17  C   UNL     1      -8.673   4.057  70.303  1.00  0.00    -0.120 A  
HETATM   18  C   UNL     1      -8.228   4.040  68.984  1.00  0.00    -0.079 A  
HETATM   19  C   UNL     1      -8.883   4.798  68.006  1.00  0.00    -0.105 A  
HETATM   20 CL   UNL     1      -8.239   4.718  66.403  1.00  0.00    -0.107 Cl 
ENDBRANCH  12  13
ENDBRANCH   9  12
TORSDOF 2
ENDMDL
MODEL      170
REMARK 921   NORMALIZED FREE ENERGY PREDICTED BY IDOCK:   -3.78 KCAL/MOL
REMARK 922        TOTAL FREE ENERGY PREDICTED BY IDOCK:   -4.56 KCAL/MOL
REMARK 923 INTER-LIGAND FREE ENERGY PREDICTED BY IDOCK:   -4.24 KCAL/MOL
REMARK 924 INTRA-LIGAND FREE ENERGY PREDICTED BY IDOCK:   -0.32 KCAL/MOL
REMARK 927      BINDING AFFINITY PREDICTED BY RF-SCORE:    0.00 PKD
ROOT
HETATM    1  N   UNL     1      -9.308  10.368  68.161  1.00  0.00    -0.143 NA 
HETATM    2  C   UNL     1     -10.629  10.110  68.143  1.00  0.00    -0.223 C  
HETATM    3  H2  UNL     1      -8.991  11.278  67.825  1.00  0.00     0.000 HD 
HETATM    4  H1  UNL     1      -8.606   9.706  68.491  1.00  0.00     0.000 HD 
HETATM    5  N   UNL     1     -11.511  10.943  67.728  1.00  0.00    -0.513 NA 
HETATM    6  N   UNL     1     -11.117   8.914  68.572  1.00  0.00    -0.442 N  
HETATM    7  H1  UNL     1     -12.511  10.747  67.715  1.00  0.00     0.000 HD 
HETATM    8  H2  UNL     1     -11.194  11.853  67.393  1.00  0.00     0.000 HD 
HETATM    9  C   UNL     1     -10.397   7.861  69.106  1.00  0.00    -0.219 C  
HETATM   10  H   UNL     1     -12.125   8.780  68.491  1.00  0.00     0.000 HD 
HETATM   11  O   UNL     1      -9.216   7.941  69.441  1.00  0.00    -0.146 OA 
ENDROOT
BRANCH   9  12
HETATM   12  C   UNL     1     -11.205   6.586  69.261  1.00  0.00    -0.390 C  
BRANCH  12  13
HETATM   13  C   UNL     1     -11.006   5.888  70.589  1.00  0.00    -0.357 A  
HETATM   14  C   UNL     1     -11.785   6.223  71.715  1.00  0.00    -0.299 A  
HETATM   15  C   UNL     1     -11.674   5.509  72.913  1.00  0.00    -0.216 A  
HETATM   16 CL   UNL     1     -12.930   7.520  71.684  1.00  0.00    -0.384 Cl 
HETATM   17  C   UNL     1     -10.773   4.455  73.022  1.00  0.00    -0.284 A  
HETATM   18  C   UNL     1      -9.956   4.141  71.941  1.00  0.00    -0.253 A  
HETATM   19  C   UNL     1     -10.060   4.857  70.743  1.00  0.00    -0.233 A  
HETATM   20 CL   UNL     1      -8.984   4.397  69.469  1.00  0.00    -0.134 Cl 
ENDBRANCH  12  13
ENDBRANCH   9  12
TORSDOF 2
ENDMDL
MODEL      171
REMARK 921   NORMALIZED FREE ENERGY PREDICTED BY IDOCK:   -3.76 KCAL/MOL
REMARK 922        TOTAL FREE ENERGY PREDICTED BY IDOCK:   -4.54 KCAL/MOL
REMARK 923 INTER-LIGAND FREE ENERGY PREDICTED BY IDOCK:   -4.19 KCAL/MOL
REMARK 924 INTRA-LIGAND FREE ENERGY PREDICTED BY IDOCK:   -0.34 KCAL/MOL
REMARK 927      BINDING AFFINITY PREDICTED BY RF-SCORE:    0.00 PKD
ROOT
HETATM    1  N   UNL     1     -12.012  12.241  66.245  1.00  0.00    -0.626 NA 
HETATM    2  C   UNL     1     -11.781  12.380  67.563  1.00  0.00    -0.357 C  
HETATM    3  H2  UNL     1     -12.658  11.511  65.943  1.00  0.00     0.000 HD 
HETATM    4  H1  UNL     1     -11.577  12.824  65.530  1.00  0.00     0.000 HD 
HETATM    5  N   UNL     1     -12.328  11.646  68.462  1.00  0.00    -0.298 NA 
HETATM    6  N   UNL     1     -10.927  13.330  68.031  1.00  0.00    -0.237 N  
HETATM    7  H1  UNL     1     -12.153  11.752  69.461  1.00  0.00     0.000 HD 
HETATM    8  H2  UNL     1     -12.974  10.917  68.161  1.00  0.00     0.000 HD 
HETATM    9  C   UNL     1     -10.242  14.276  67.290  1.00  0.00    -0.252 C  
HETATM   10  H   UNL     1     -10.775  13.347  69.040  1.00  0.00     0.000 HD 
HETATM   11  O   UNL     1     -10.463  14.504  66.102  1.00  0.00    -0.283 OA 
ENDROOT
BRANCH   9  12
HETATM   12  C   UNL     1      -9.191  15.029  68.084  1.00  0.00    -0.183 C  
BRANCH  12  13
HETATM   13  C   UNL     1      -9.405  16.527  68.124  1.00  0.00    -0.218 A  
HETATM   14  C   UNL     1     -10.254  17.118  69.081  1.00  0.00    -0.284 A  
HETATM   15  C   UNL     1     -10.373  18.509  69.185  1.00  0.00     0.057 A  
HETATM   16 CL   UNL     1     -11.188  16.172  70.188  1.00  0.00    -0.366 Cl 
HETATM   17  C   UNL     1      -9.660  19.341  68.328  1.00  0.00    -0.438 A  
HETATM   18  C   UNL     1      -8.857  18.779  67.341  1.00  0.00    -0.285 A  
HETATM   19  C   UNL     1      -8.740  17.388  67.230  1.00  0.00    -0.224 A  
HETATM   20 CL   UNL     1      -7.731  16.794  65.958  1.00  0.00    -0.202 Cl 
ENDBRANCH  12  13
ENDBRANCH   9  12
TORSDOF 2
ENDMDL
MODEL      172
REMARK 921   NORMALIZED FREE ENERGY PREDICTED BY IDOCK:   -3.74 KCAL/MOL
REMARK 922        TOTAL FREE ENERGY PREDICTED BY IDOCK:   -4.52 KCAL/MOL
REMARK 923 INTER-LIGAND FREE ENERGY PREDICTED BY IDOCK:   -4.40 KCAL/MOL
REMARK 924 INTRA-LIGAND FREE ENERGY PREDICTED BY IDOCK:   -0.12 KCAL/MOL
REMARK 927      BINDING AFFINITY PREDICTED BY RF-SCORE:    0.00 PKD
ROOT
HETATM    1  N   UNL     1     -10.468   5.262  69.128  1.00  0.00    -0.198 NA 
HETATM    2  C   UNL     1     -10.833   6.425  68.559  1.00  0.00    -0.314 C  
HETATM    3  H2  UNL     1     -10.693   4.395  68.639  1.00  0.00     0.000 HD 
HETATM    4  H1  UNL     1      -9.977   5.198  70.020  1.00  0.00     0.000 HD 
HETATM    5  N   UNL     1     -11.450   6.505  67.437  1.00  0.00    -0.731 NA 
HETATM    6  N   UNL     1     -10.566   7.616  69.160  1.00  0.00    -0.286 N  
HETATM    7  H1  UNL     1     -11.726   7.387  67.006  1.00  0.00     0.000 HD 
HETATM    8  H2  UNL     1     -11.675   5.639  66.948  1.00  0.00     0.000 HD 
HETATM    9  C   UNL     1      -9.881   7.819  70.344  1.00  0.00    -0.183 C  
HETATM   10  H   UNL     1     -10.909   8.452  68.686  1.00  0.00     0.000 HD 
HETATM   11  O   UNL     1      -9.248   6.940  70.927  1.00  0.00    -0.156 OA 
ENDROOT
BRANCH   9  12
HETATM   12  C   UNL     1      -9.962   9.244  70.860  1.00  0.00    -0.367 C  
BRANCH  12  13
HETATM   13  C   UNL     1     -10.288  10.268  69.795  1.00  0.00    -0.287 A  
HETATM   14  C   UNL     1      -9.309  10.710  68.882  1.00  0.00    -0.184 A  
HETATM   15  C   UNL     1      -9.633  11.577  67.833  1.00  0.00    -0.178 A  
HETATM   16 CL   UNL     1      -7.659  10.201  68.990  1.00  0.00    -0.087 Cl 
HETATM   17  C   UNL     1     -10.937  12.037  67.679  1.00  0.00    -0.287 A  
HETATM   18  C   UNL     1     -11.908  11.657  68.599  1.00  0.00    -0.370 A  
HETATM   19  C   UNL     1     -11.586  10.793  69.654  1.00  0.00    -0.316 A  
HETATM   20 CL   UNL     1     -12.864  10.398  70.750  1.00  0.00    -0.452 Cl 
ENDBRANCH  12  13
ENDBRANCH   9  12
TORSDOF 2
ENDMDL
MODEL      173
REMARK 921   NORMALIZED FREE ENERGY PREDICTED BY IDOCK:   -3.74 KCAL/MOL
REMARK 922        TOTAL FREE ENERGY PREDICTED BY IDOCK:   -4.51 KCAL/MOL
REMARK 923 INTER-LIGAND FREE ENERGY PREDICTED BY IDOCK:   -4.25 KCAL/MOL
REMARK 924 INTRA-LIGAND FREE ENERGY PREDICTED BY IDOCK:   -0.27 KCAL/MOL
REMARK 927      BINDING AFFINITY PREDICTED BY RF-SCORE:    0.00 PKD
ROOT
HETATM    1  N   UNL     1      -6.676  14.175  70.334  1.00  0.00    -0.409 NA 
HETATM    2  C   UNL     1      -6.610  13.724  69.067  1.00  0.00    -0.108 C  
HETATM    3  H2  UNL     1      -6.281  13.593  71.073  1.00  0.00     0.000 HD 
HETATM    4  H1  UNL     1      -7.100  15.065  70.596  1.00  0.00     0.000 HD 
HETATM    5  N   UNL     1      -6.078  12.605  68.738  1.00  0.00    -0.066 NA 
HETATM    6  N   UNL     1      -7.123  14.449  68.036  1.00  0.00    -0.121 N  
HETATM    7  H1  UNL     1      -6.028  12.264  67.778  1.00  0.00     0.000 HD 
HETATM    8  H2  UNL     1      -5.682  12.023  69.476  1.00  0.00     0.000 HD 
HETATM    9  C   UNL     1      -7.708  15.700  68.103  1.00  0.00    -0.124 C  
HETATM   10  H   UNL     1      -7.068  14.022  67.110  1.00  0.00     0.000 HD 
HETATM   11  O   UNL     1      -7.676  16.416  69.102  1.00  0.00    -0.234 OA 
ENDROOT
BRANCH   9  12
HETATM   12  C   UNL     1      -8.389  16.125  66.816  1.00  0.00    -0.299 C  
BRANCH  12  13
HETATM   13  C   UNL     1      -8.859  17.563  66.813  1.00  0.00    -0.275 A  
HETATM   14  C   UNL     1     -10.123  17.920  67.326  1.00  0.00    -0.343 A  
HETATM   15  C   UNL     1     -10.517  19.260  67.419  1.00  0.00    -0.564 A  
HETATM   16 CL   UNL     1     -11.255  16.736  67.882  1.00  0.00    -0.176 Cl 
HETATM   17  C   UNL     1      -9.667  20.273  66.989  1.00  0.00    -0.598 A  
HETATM   18  C   UNL     1      -8.437  19.942  66.430  1.00  0.00    -0.379 A  
HETATM   19  C   UNL     1      -8.042  18.602  66.330  1.00  0.00    -0.244 A  
HETATM   20 CL   UNL     1      -6.502  18.300  65.603  1.00  0.00    -0.307 Cl 
ENDBRANCH  12  13
ENDBRANCH   9  12
TORSDOF 2
ENDMDL
MODEL      174
REMARK 921   NORMALIZED FREE ENERGY PREDICTED BY IDOCK:   -3.74 KCAL/MOL
REMARK 922        TOTAL FREE ENERGY PREDICTED BY IDOCK:   -4.51 KCAL/MOL
REMARK 923 INTER-LIGAND FREE ENERGY PREDICTED BY IDOCK:   -4.17 KCAL/MOL
REMARK 924 INTRA-LIGAND FREE ENERGY PREDICTED BY IDOCK:   -0.34 KCAL/MOL
REMARK 927      BINDING AFFINITY PREDICTED BY RF-SCORE:    0.00 PKD
ROOT
HETATM    1  N   UNL     1     -12.437   8.099  72.841  1.00  0.00    -0.653 NA 
HETATM    2  C   UNL     1     -13.061   7.906  71.664  1.00  0.00    -0.332 C  
HETATM    3  H2  UNL     1     -12.910   8.658  73.551  1.00  0.00     0.000 HD 
HETATM    4  H1  UNL     1     -11.518   7.718  73.063  1.00  0.00     0.000 HD 
HETATM    5  N   UNL     1     -14.218   8.385  71.386  1.00  0.00    -0.608 NA 
HETATM    6  N   UNL     1     -12.483   7.174  70.674  1.00  0.00    -0.610 N  
HETATM    7  H1  UNL     1     -14.690   8.238  70.495  1.00  0.00     0.000 HD 
HETATM    8  H2  UNL     1     -14.691   8.944  72.096  1.00  0.00     0.000 HD 
HETATM    9  C   UNL     1     -11.270   6.512  70.724  1.00  0.00    -0.321 C  
HETATM   10  H   UNL     1     -13.002   7.105  69.798  1.00  0.00     0.000 HD 
HETATM   11  O   UNL     1     -10.625   6.343  71.757  1.00  0.00    -0.212 OA 
ENDROOT
BRANCH   9  12
HETATM   12  C   UNL     1     -10.803   5.991  69.377  1.00  0.00    -0.433 C  
BRANCH  12  13
HETATM   13  C   UNL     1      -9.444   6.504  68.954  1.00  0.00    -0.129 A  
HETATM   14  C   UNL     1      -8.269   5.779  69.236  1.00  0.00    -0.105 A  
HETATM   15  C   UNL     1      -7.023   6.200  68.756  1.00  0.00    -0.076 A  
HETATM   16 CL   UNL     1      -8.291   4.326  70.175  1.00  0.00    -0.074 Cl 
HETATM   17  C   UNL     1      -6.919   7.361  67.998  1.00  0.00    -0.075 A  
HETATM   18  C   UNL     1      -8.057   8.122  67.753  1.00  0.00    -0.127 A  
HETATM   19  C   UNL     1      -9.304   7.707  68.236  1.00  0.00    -0.145 A  
HETATM   20 CL   UNL     1     -10.651   8.735  67.889  1.00  0.00    -0.268 Cl 
ENDBRANCH  12  13
ENDBRANCH   9  12
TORSDOF 2
ENDMDL
MODEL      175
REMARK 921   NORMALIZED FREE ENERGY PREDICTED BY IDOCK:   -3.74 KCAL/MOL
REMARK 922        TOTAL FREE ENERGY PREDICTED BY IDOCK:   -4.51 KCAL/MOL
REMARK 923 INTER-LIGAND FREE ENERGY PREDICTED BY IDOCK:   -4.22 KCAL/MOL
REMARK 924 INTRA-LIGAND FREE ENERGY PREDICTED BY IDOCK:   -0.29 KCAL/MOL
REMARK 927      BINDING AFFINITY PREDICTED BY RF-SCORE:    0.00 PKD
ROOT
HETATM    1  N   UNL     1     -12.281  10.823  68.489  1.00  0.00    -0.822 NA 
HETATM    2  C   UNL     1     -11.555  11.352  69.492  1.00  0.00    -0.331 C  
HETATM    3  H2  UNL     1     -12.930  11.432  67.991  1.00  0.00     0.000 HD 
HETATM    4  H1  UNL     1     -12.217   9.847  68.200  1.00  0.00     0.000 HD 
HETATM    5  N   UNL     1     -11.635  12.580  69.856  1.00  0.00    -0.496 NA 
HETATM    6  N   UNL     1     -10.675  10.594  70.199  1.00  0.00    -0.463 N  
HETATM    7  H1  UNL     1     -11.085  12.981  70.615  1.00  0.00     0.000 HD 
HETATM    8  H2  UNL     1     -12.284  13.189  69.357  1.00  0.00     0.000 HD 
HETATM    9  C   UNL     1     -10.362   9.263  69.990  1.00  0.00    -0.217 C  
HETATM   10  H   UNL     1     -10.191  11.058  70.968  1.00  0.00     0.000 HD 
HETATM   11  O   UNL     1     -10.712   8.627  68.997  1.00  0.00    -0.198 OA 
ENDROOT
BRANCH   9  12
HETATM   12  C   UNL     1      -9.524   8.651  71.097  1.00  0.00    -0.274 C  
BRANCH  12  13
HETATM   13  C   UNL     1      -9.480   7.139  71.073  1.00  0.00    -0.159 A  
HETATM   14  C   UNL     1      -8.402   6.449  70.481  1.00  0.00    -0.129 A  
HETATM   15  C   UNL     1      -8.308   5.054  70.549  1.00  0.00    -0.101 A  
HETATM   16 CL   UNL     1      -7.130   7.276  69.651  1.00  0.00    -0.071 Cl 
HETATM   17  C   UNL     1      -9.294   4.315  71.195  1.00  0.00    -0.218 A  
HETATM   18  C   UNL     1     -10.393   4.970  71.739  1.00  0.00    -0.268 A  
HETATM   19  C   UNL     1     -10.494   6.365  71.668  1.00  0.00    -0.217 A  
HETATM   20 CL   UNL     1     -11.909   7.077  72.362  1.00  0.00    -0.254 Cl 
ENDBRANCH  12  13
ENDBRANCH   9  12
TORSDOF 2
ENDMDL
MODEL      176
REMARK 921   NORMALIZED FREE ENERGY PREDICTED BY IDOCK:   -3.72 KCAL/MOL
REMARK 922        TOTAL FREE ENERGY PREDICTED BY IDOCK:   -4.49 KCAL/MOL
REMARK 923 INTER-LIGAND FREE ENERGY PREDICTED BY IDOCK:   -4.32 KCAL/MOL
REMARK 924 INTRA-LIGAND FREE ENERGY PREDICTED BY IDOCK:   -0.17 KCAL/MOL
REMARK 927      BINDING AFFINITY PREDICTED BY RF-SCORE:    0.00 PKD
ROOT
HETATM    1  N   UNL     1      -8.245   9.833  68.428  1.00  0.00    -0.105 NA 
HETATM    2  C   UNL     1      -8.489  11.060  68.925  1.00  0.00    -0.122 C  
HETATM    3  H2  UNL     1      -7.301   9.457  68.514  1.00  0.00     0.000 HD 
HETATM    4  H1  UNL     1      -8.952   9.258  67.969  1.00  0.00     0.000 HD 
HETATM    5  N   UNL     1      -7.600  11.782  69.502  1.00  0.00    -0.309 NA 
HETATM    6  N   UNL     1      -9.725  11.620  68.839  1.00  0.00    -0.400 N  
HETATM    7  H1  UNL     1      -7.785  12.711  69.879  1.00  0.00     0.000 HD 
HETATM    8  H2  UNL     1      -6.656  11.406  69.589  1.00  0.00     0.000 HD 
HETATM    9  C   UNL     1     -10.867  11.048  68.310  1.00  0.00    -0.215 C  
HETATM   10  H   UNL     1      -9.821  12.568  69.204  1.00  0.00     0.000 HD 
HETATM   11  O   UNL     1     -10.959   9.859  68.009  1.00  0.00    -0.257 OA 
ENDROOT
BRANCH   9  12
HETATM   12  C   UNL     1     -12.020  12.021  68.147  1.00  0.00    -0.231 C  
BRANCH  12  13
HETATM   13  C   UNL     1     -11.593  13.423  67.768  1.00  0.00    -0.375 A  
HETATM   14  C   UNL     1     -11.641  14.478  68.701  1.00  0.00    -0.315 A  
HETATM   15  C   UNL     1     -11.151  15.750  68.383  1.00  0.00    -0.341 A  
HETATM   16 CL   UNL     1     -12.291  14.269  70.290  1.00  0.00    -0.397 Cl 
HETATM   17  C   UNL     1     -10.617  16.003  67.124  1.00  0.00    -0.305 A  
HETATM   18  C   UNL     1     -10.608  14.991  66.170  1.00  0.00    -0.314 A  
HETATM   19  C   UNL     1     -11.103  13.719  66.482  1.00  0.00    -0.306 A  
HETATM   20 CL   UNL     1     -11.062  12.540  65.217  1.00  0.00    -0.324 Cl 
ENDBRANCH  12  13
ENDBRANCH   9  12
TORSDOF 2
ENDMDL
MODEL      177
REMARK 921   NORMALIZED FREE ENERGY PREDICTED BY IDOCK:   -3.71 KCAL/MOL
REMARK 922        TOTAL FREE ENERGY PREDICTED BY IDOCK:   -4.48 KCAL/MOL
REMARK 923 INTER-LIGAND FREE ENERGY PREDICTED BY IDOCK:   -4.21 KCAL/MOL
REMARK 924 INTRA-LIGAND FREE ENERGY PREDICTED BY IDOCK:   -0.26 KCAL/MOL
REMARK 927      BINDING AFFINITY PREDICTED BY RF-SCORE:    0.00 PKD
ROOT
HETATM    1  N   UNL     1     -12.970  15.708  70.215  1.00  0.00    -0.676 NA 
HETATM    2  C   UNL     1     -12.536  14.495  70.604  1.00  0.00    -0.343 C  
HETATM    3  H2  UNL     1     -13.284  16.360  70.933  1.00  0.00     0.000 HD 
HETATM    4  H1  UNL     1     -13.002  16.011  69.242  1.00  0.00     0.000 HD 
HETATM    5  N   UNL     1     -12.495  14.113  71.828  1.00  0.00    -0.310 NA 
HETATM    6  N   UNL     1     -12.107  13.577  69.696  1.00  0.00    -0.321 N  
HETATM    7  H1  UNL     1     -12.166  13.195  72.123  1.00  0.00     0.000 HD 
HETATM    8  H2  UNL     1     -12.809  14.766  72.547  1.00  0.00     0.000 HD 
HETATM    9  C   UNL     1     -12.005  13.741  68.327  1.00  0.00    -0.357 C  
HETATM   10  H   UNL     1     -11.830  12.667  70.066  1.00  0.00     0.000 HD 
HETATM   11  O   UNL     1     -12.117  14.826  67.758  1.00  0.00    -0.288 OA 
ENDROOT
BRANCH   9  12
HETATM   12  C   UNL     1     -11.722  12.452  67.577  1.00  0.00    -0.425 C  
BRANCH  12  13
HETATM   13  C   UNL     1     -10.332  11.899  67.804  1.00  0.00    -0.214 A  
HETATM   14  C   UNL     1     -10.119  10.772  68.622  1.00  0.00    -0.183 A  
HETATM   15  C   UNL     1      -8.849  10.197  68.750  1.00  0.00    -0.146 A  
HETATM   16 CL   UNL     1     -11.405  10.022  69.503  1.00  0.00    -0.246 Cl 
HETATM   17  C   UNL     1      -7.761  10.743  68.079  1.00  0.00    -0.101 A  
HETATM   18  C   UNL     1      -7.937  11.888  67.308  1.00  0.00    -0.171 A  
HETATM   19  C   UNL     1      -9.205  12.469  67.182  1.00  0.00    -0.205 A  
HETATM   20 CL   UNL     1      -9.310  13.899  66.216  1.00  0.00    -0.229 Cl 
ENDBRANCH  12  13
ENDBRANCH   9  12
TORSDOF 2
ENDMDL
MODEL      178
REMARK 921   NORMALIZED FREE ENERGY PREDICTED BY IDOCK:   -3.71 KCAL/MOL
REMARK 922        TOTAL FREE ENERGY PREDICTED BY IDOCK:   -4.48 KCAL/MOL
REMARK 923 INTER-LIGAND FREE ENERGY PREDICTED BY IDOCK:   -4.36 KCAL/MOL
REMARK 924 INTRA-LIGAND FREE ENERGY PREDICTED BY IDOCK:   -0.11 KCAL/MOL
REMARK 927      BINDING AFFINITY PREDICTED BY RF-SCORE:    0.00 PKD
ROOT
HETATM    1  N   UNL     1      -7.243  11.414  66.366  1.00  0.00    -0.338 NA 
HETATM    2  C   UNL     1      -8.347  11.449  65.598  1.00  0.00     0.168 C  
HETATM    3  H2  UNL     1      -6.522  10.728  66.142  1.00  0.00     0.000 HD 
HETATM    4  H1  UNL     1      -7.086  12.035  67.160  1.00  0.00     0.000 HD 
HETATM    5  N   UNL     1      -8.544  10.668  64.599  1.00  0.00    -0.283 NA 
HETATM    6  N   UNL     1      -9.348  12.338  65.845  1.00  0.00    -0.407 N  
HETATM    7  H1  UNL     1      -9.381  10.696  64.017  1.00  0.00     0.000 HD 
HETATM    8  H2  UNL     1      -7.824   9.982  64.375  1.00  0.00     0.000 HD 
HETATM    9  C   UNL     1      -9.375  13.315  66.823  1.00  0.00    -0.252 C  
HETATM   10  H   UNL     1     -10.169  12.276  65.242  1.00  0.00     0.000 HD 
HETATM   11  O   UNL     1      -8.396  13.636  67.495  1.00  0.00    -0.164 OA 
ENDROOT
BRANCH   9  12
HETATM   12  C   UNL     1     -10.730  13.978  66.987  1.00  0.00    -0.284 C  
BRANCH  12  13
HETATM   13  C   UNL     1     -11.282  13.912  68.394  1.00  0.00    -0.291 A  
HETATM   14  C   UNL     1     -11.467  15.080  69.162  1.00  0.00    -0.301 A  
HETATM   15  C   UNL     1     -12.074  15.031  70.422  1.00  0.00    -0.384 A  
HETATM   16 CL   UNL     1     -10.973  16.637  68.595  1.00  0.00    -0.344 Cl 
HETATM   17  C   UNL     1     -12.495  13.816  70.952  1.00  0.00    -0.451 A  
HETATM   18  C   UNL     1     -12.275  12.645  70.236  1.00  0.00    -0.347 A  
HETATM   19  C   UNL     1     -11.663  12.688  68.977  1.00  0.00    -0.318 A  
HETATM   20 CL   UNL     1     -11.421  11.173  68.180  1.00  0.00    -0.368 Cl 
ENDBRANCH  12  13
ENDBRANCH   9  12
TORSDOF 2
ENDMDL
MODEL      179
REMARK 921   NORMALIZED FREE ENERGY PREDICTED BY IDOCK:   -3.67 KCAL/MOL
REMARK 922        TOTAL FREE ENERGY PREDICTED BY IDOCK:   -4.44 KCAL/MOL
REMARK 923 INTER-LIGAND FREE ENERGY PREDICTED BY IDOCK:   -4.10 KCAL/MOL
REMARK 924 INTRA-LIGAND FREE ENERGY PREDICTED BY IDOCK:   -0.34 KCAL/MOL
REMARK 927      BINDING AFFINITY PREDICTED BY RF-SCORE:    0.00 PKD
ROOT
HETATM    1  N   UNL     1     -12.128   8.707  72.154  1.00  0.00    -0.366 NA 
HETATM    2  C   UNL     1     -11.834   8.413  70.874  1.00  0.00    -0.217 C  
HETATM    3  H2  UNL     1     -12.178   7.940  72.825  1.00  0.00     0.000 HD 
HETATM    4  H1  UNL     1     -12.303   9.653  72.492  1.00  0.00     0.000 HD 
HETATM    5  N   UNL     1     -11.613   7.223  70.450  1.00  0.00    -0.447 NA 
HETATM    6  N   UNL     1     -11.756   9.389  69.929  1.00  0.00    -0.445 N  
HETATM    7  H1  UNL     1     -11.391   7.001  69.480  1.00  0.00     0.000 HD 
HETATM    8  H2  UNL     1     -11.663   6.456  71.120  1.00  0.00     0.000 HD 
HETATM    9  C   UNL     1     -11.904  10.751  70.120  1.00  0.00    -0.343 C  
HETATM   10  H   UNL     1     -11.567   9.083  68.975  1.00  0.00     0.000 HD 
HETATM   11  O   UNL     1     -11.944  11.285  71.227  1.00  0.00    -0.161 OA 
ENDROOT
BRANCH   9  12
HETATM   12  C   UNL     1     -11.997  11.542  68.829  1.00  0.00    -0.335 C  
BRANCH  12  13
HETATM   13  C   UNL     1     -10.860  12.518  68.621  1.00  0.00    -0.280 A  
HETATM   14  C   UNL     1     -10.922  13.832  69.129  1.00  0.00    -0.208 A  
HETATM   15  C   UNL     1      -9.831  14.702  69.028  1.00  0.00    -0.178 A  
HETATM   16 CL   UNL     1     -12.336  14.444  69.916  1.00  0.00    -0.377 Cl 
HETATM   17  C   UNL     1      -8.658  14.289  68.404  1.00  0.00    -0.175 A  
HETATM   18  C   UNL     1      -8.593  13.015  67.848  1.00  0.00    -0.189 A  
HETATM   19  C   UNL     1      -9.684  12.144  67.942  1.00  0.00    -0.200 A  
HETATM   20 CL   UNL     1      -9.504  10.591  67.202  1.00  0.00    -0.177 Cl 
ENDBRANCH  12  13
ENDBRANCH   9  12
TORSDOF 2
ENDMDL
MODEL      180
REMARK 921   NORMALIZED FREE ENERGY PREDICTED BY IDOCK:   -3.65 KCAL/MOL
REMARK 922        TOTAL FREE ENERGY PREDICTED BY IDOCK:   -4.41 KCAL/MOL
REMARK 923 INTER-LIGAND FREE ENERGY PREDICTED BY IDOCK:   -4.30 KCAL/MOL
REMARK 924 INTRA-LIGAND FREE ENERGY PREDICTED BY IDOCK:   -0.11 KCAL/MOL
REMARK 927      BINDING AFFINITY PREDICTED BY RF-SCORE:    0.00 PKD
ROOT
HETATM    1  N   UNL     1     -10.554   5.426  69.456  1.00  0.00    -0.287 NA 
HETATM    2  C   UNL     1     -10.763   6.518  68.697  1.00  0.00    -0.271 C  
HETATM    3  H2  UNL     1     -10.967   4.544  69.154  1.00  0.00     0.000 HD 
HETATM    4  H1  UNL     1     -10.005   5.432  70.315  1.00  0.00     0.000 HD 
HETATM    5  N   UNL     1     -11.453   6.511  67.616  1.00  0.00    -0.688 NA 
HETATM    6  N   UNL     1     -10.244   7.726  69.046  1.00  0.00    -0.204 N  
HETATM    7  H1  UNL     1     -11.611   7.338  67.041  1.00  0.00     0.000 HD 
HETATM    8  H2  UNL     1     -11.866   5.629  67.314  1.00  0.00     0.000 HD 
HETATM    9  C   UNL     1      -9.432   8.005  70.130  1.00  0.00    -0.160 C  
HETATM   10  H   UNL     1     -10.479   8.513  68.440  1.00  0.00     0.000 HD 
HETATM   11  O   UNL     1      -8.911   7.142  70.834  1.00  0.00    -0.148 OA 
ENDROOT
BRANCH   9  12
HETATM   12  C   UNL     1      -9.222   9.489  70.370  1.00  0.00    -0.305 C  
BRANCH  12  13
HETATM   13  C   UNL     1     -10.078  10.381  69.498  1.00  0.00    -0.246 A  
HETATM   14  C   UNL     1     -11.401  10.705  69.860  1.00  0.00    -0.313 A  
HETATM   15  C   UNL     1     -12.158  11.612  69.109  1.00  0.00    -0.315 A  
HETATM   16 CL   UNL     1     -12.165  10.018  71.251  1.00  0.00    -0.464 Cl 
HETATM   17  C   UNL     1     -11.618  12.205  67.972  1.00  0.00    -0.411 A  
HETATM   18  C   UNL     1     -10.333  11.860  67.566  1.00  0.00    -0.219 A  
HETATM   19  C   UNL     1      -9.575  10.949  68.311  1.00  0.00    -0.167 A  
HETATM   20 CL   UNL     1      -7.998  10.577  67.708  1.00  0.00    -0.105 Cl 
ENDBRANCH  12  13
ENDBRANCH   9  12
TORSDOF 2
ENDMDL
MODEL      181
REMARK 921   NORMALIZED FREE ENERGY PREDICTED BY IDOCK:   -3.63 KCAL/MOL
REMARK 922        TOTAL FREE ENERGY PREDICTED BY IDOCK:   -4.40 KCAL/MOL
REMARK 923 INTER-LIGAND FREE ENERGY PREDICTED BY IDOCK:   -4.10 KCAL/MOL
REMARK 924 INTRA-LIGAND FREE ENERGY PREDICTED BY IDOCK:   -0.30 KCAL/MOL
REMARK 927      BINDING AFFINITY PREDICTED BY RF-SCORE:    0.00 PKD
ROOT
HETATM    1  N   UNL     1     -12.798  13.244  64.931  1.00  0.00    -0.732 NA 
HETATM    2  C   UNL     1     -12.150  12.309  64.213  1.00  0.00    -0.412 C  
HETATM    3  H2  UNL     1     -13.627  13.676  64.522  1.00  0.00     0.000 HD 
HETATM    4  H1  UNL     1     -12.508  13.546  65.861  1.00  0.00     0.000 HD 
HETATM    5  N   UNL     1     -12.515  11.930  63.044  1.00  0.00    -0.828 NA 
HETATM    6  N   UNL     1     -11.035  11.697  64.699  1.00  0.00    -0.310 N  
HETATM    7  H1  UNL     1     -12.023  11.221  62.500  1.00  0.00     0.000 HD 
HETATM    8  H2  UNL     1     -13.344  12.362  62.635  1.00  0.00     0.000 HD 
HETATM    9  C   UNL     1     -10.454  11.883  65.940  1.00  0.00    -0.258 C  
HETATM   10  H   UNL     1     -10.578  11.028  64.080  1.00  0.00     0.000 HD 
HETATM   11  O   UNL     1     -10.987  12.504  66.858  1.00  0.00    -0.242 OA 
ENDROOT
BRANCH   9  12
HETATM   12  C   UNL     1      -9.091  11.231  66.080  1.00  0.00    -0.221 C  
BRANCH  12  13
HETATM   13  C   UNL     1      -8.915  10.437  67.356  1.00  0.00    -0.140 A  
HETATM   14  C   UNL     1      -8.435  11.044  68.534  1.00  0.00    -0.153 A  
HETATM   15  C   UNL     1      -8.370  10.337  69.740  1.00  0.00    -0.099 A  
HETATM   16 CL   UNL     1      -7.912  12.693  68.568  1.00  0.00    -0.126 Cl 
HETATM   17  C   UNL     1      -8.767   9.005  69.796  1.00  0.00    -0.148 A  
HETATM   18  C   UNL     1      -9.194   8.370  68.634  1.00  0.00    -0.143 A  
HETATM   19  C   UNL     1      -9.255   9.073  67.424  1.00  0.00    -0.138 A  
HETATM   20 CL   UNL     1      -9.783   8.184  66.038  1.00  0.00    -0.146 Cl 
ENDBRANCH  12  13
ENDBRANCH   9  12
TORSDOF 2
ENDMDL
MODEL      182
REMARK 921   NORMALIZED FREE ENERGY PREDICTED BY IDOCK:   -3.61 KCAL/MOL
REMARK 922        TOTAL FREE ENERGY PREDICTED BY IDOCK:   -4.37 KCAL/MOL
REMARK 923 INTER-LIGAND FREE ENERGY PREDICTED BY IDOCK:   -4.32 KCAL/MOL
REMARK 924 INTRA-LIGAND FREE ENERGY PREDICTED BY IDOCK:   -0.05 KCAL/MOL
REMARK 927      BINDING AFFINITY PREDICTED BY RF-SCORE:    0.00 PKD
ROOT
HETATM    1  N   UNL     1      -6.625  16.004  69.350  1.00  0.00    -0.172 NA 
HETATM    2  C   UNL     1      -7.429  14.928  69.269  1.00  0.00    -0.177 C  
HETATM    3  H2  UNL     1      -5.728  15.900  69.825  1.00  0.00     0.000 HD 
HETATM    4  H1  UNL     1      -6.862  16.917  68.964  1.00  0.00     0.000 HD 
HETATM    5  N   UNL     1      -7.131  13.779  69.755  1.00  0.00    -0.337 NA 
HETATM    6  N   UNL     1      -8.640  15.000  68.653  1.00  0.00    -0.166 N  
HETATM    7  H1  UNL     1      -7.741  12.964  69.693  1.00  0.00     0.000 HD 
HETATM    8  H2  UNL     1      -6.235  13.675  70.230  1.00  0.00     0.000 HD 
HETATM    9  C   UNL     1      -9.186  16.096  68.010  1.00  0.00    -0.195 C  
HETATM   10  H   UNL     1      -9.208  14.153  68.666  1.00  0.00     0.000 HD 
HETATM   11  O   UNL     1      -8.555  17.118  67.745  1.00  0.00    -0.210 OA 
ENDROOT
BRANCH   9  12
HETATM   12  C   UNL     1     -10.647  15.920  67.638  1.00  0.00    -0.307 C  
BRANCH  12  13
HETATM   13  C   UNL     1     -11.093  14.477  67.556  1.00  0.00    -0.316 A  
HETATM   14  C   UNL     1     -11.056  13.768  66.338  1.00  0.00    -0.308 A  
HETATM   15  C   UNL     1     -11.369  12.405  66.281  1.00  0.00    -0.388 A  
HETATM   16 CL   UNL     1     -10.610  14.528  64.849  1.00  0.00    -0.452 Cl 
HETATM   17  C   UNL     1     -11.742  11.722  67.433  1.00  0.00    -0.304 A  
HETATM   18  C   UNL     1     -11.838  12.413  68.637  1.00  0.00    -0.348 A  
HETATM   19  C   UNL     1     -11.530  13.778  68.697  1.00  0.00    -0.301 A  
HETATM   20 CL   UNL     1     -11.699  14.543  70.238  1.00  0.00    -0.340 Cl 
ENDBRANCH  12  13
ENDBRANCH   9  12
TORSDOF 2
ENDMDL
MODEL      183
REMARK 921   NORMALIZED FREE ENERGY PREDICTED BY IDOCK:   -3.57 KCAL/MOL
REMARK 922        TOTAL FREE ENERGY PREDICTED BY IDOCK:   -4.32 KCAL/MOL
REMARK 923 INTER-LIGAND FREE ENERGY PREDICTED BY IDOCK:   -3.99 KCAL/MOL
REMARK 924 INTRA-LIGAND FREE ENERGY PREDICTED BY IDOCK:   -0.33 KCAL/MOL
REMARK 927      BINDING AFFINITY PREDICTED BY RF-SCORE:    0.00 PKD
ROOT
HETATM    1  N   UNL     1     -10.552  16.068  67.945  1.00  0.00    -0.292 NA 
HETATM    2  C   UNL     1     -10.802  15.408  66.799  1.00  0.00    -0.306 C  
HETATM    3  H2  UNL     1     -10.258  17.043  67.884  1.00  0.00     0.000 HD 
HETATM    4  H1  UNL     1     -10.639  15.648  68.870  1.00  0.00     0.000 HD 
HETATM    5  N   UNL     1     -10.693  15.937  65.635  1.00  0.00    -0.348 NA 
HETATM    6  N   UNL     1     -11.193  14.105  66.809  1.00  0.00    -0.313 N  
HETATM    7  H1  UNL     1     -10.883  15.436  64.767  1.00  0.00     0.000 HD 
HETATM    8  H2  UNL     1     -10.400  16.912  65.575  1.00  0.00     0.000 HD 
HETATM    9  C   UNL     1     -11.430  13.312  67.918  1.00  0.00    -0.306 C  
HETATM   10  H   UNL     1     -11.326  13.663  65.899  1.00  0.00     0.000 HD 
HETATM   11  O   UNL     1     -11.498  13.747  69.066  1.00  0.00    -0.265 OA 
ENDROOT
BRANCH   9  12
HETATM   12  C   UNL     1     -11.619  11.843  67.589  1.00  0.00    -0.382 C  
BRANCH  12  13
HETATM   13  C   UNL     1     -10.562  10.938  68.183  1.00  0.00    -0.233 A  
HETATM   14  C   UNL     1     -10.729  10.358  69.456  1.00  0.00    -0.251 A  
HETATM   15  C   UNL     1      -9.802   9.439  69.963  1.00  0.00    -0.253 A  
HETATM   16 CL   UNL     1     -12.086  10.730  70.463  1.00  0.00    -0.424 Cl 
HETATM   17  C   UNL     1      -8.680   9.090  69.218  1.00  0.00    -0.138 A  
HETATM   18  C   UNL     1      -8.467   9.690  67.981  1.00  0.00    -0.118 A  
HETATM   19  C   UNL     1      -9.389  10.614  67.474  1.00  0.00    -0.146 A  
HETATM   20 CL   UNL     1      -9.020  11.313  65.936  1.00  0.00    -0.212 Cl 
ENDBRANCH  12  13
ENDBRANCH   9  12
TORSDOF 2
ENDMDL
MODEL      184
REMARK 921   NORMALIZED FREE ENERGY PREDICTED BY IDOCK:   -3.55 KCAL/MOL
REMARK 922        TOTAL FREE ENERGY PREDICTED BY IDOCK:   -4.30 KCAL/MOL
REMARK 923 INTER-LIGAND FREE ENERGY PREDICTED BY IDOCK:   -3.94 KCAL/MOL
REMARK 924 INTRA-LIGAND FREE ENERGY PREDICTED BY IDOCK:   -0.36 KCAL/MOL
REMARK 927      BINDING AFFINITY PREDICTED BY RF-SCORE:    0.00 PKD
ROOT
HETATM    1  N   UNL     1     -10.759   7.824  67.233  1.00  0.00    -0.489 NA 
HETATM    2  C   UNL     1     -10.930   6.491  67.315  1.00  0.00    -0.400 C  
HETATM    3  H2  UNL     1     -10.696   8.245  66.306  1.00  0.00     0.000 HD 
HETATM    4  H1  UNL     1     -10.688   8.436  68.045  1.00  0.00     0.000 HD 
HETATM    5  N   UNL     1     -11.019   5.721  66.294  1.00  0.00    -0.737 NA 
HETATM    6  N   UNL     1     -11.017   5.868  68.521  1.00  0.00    -0.263 N  
HETATM    7  H1  UNL     1     -11.149   4.712  66.357  1.00  0.00     0.000 HD 
HETATM    8  H2  UNL     1     -10.957   6.142  65.367  1.00  0.00     0.000 HD 
HETATM    9  C   UNL     1     -10.997   6.459  69.771  1.00  0.00    -0.356 C  
HETATM   10  H   UNL     1     -11.108   4.852  68.501  1.00  0.00     0.000 HD 
HETATM   11  O   UNL     1     -11.084   7.672  69.955  1.00  0.00    -0.254 OA 
ENDROOT
BRANCH   9  12
HETATM   12  C   UNL     1     -10.873   5.468  70.913  1.00  0.00    -0.246 C  
BRANCH  12  13
HETATM   13  C   UNL     1      -9.590   5.597  71.706  1.00  0.00    -0.184 A  
HETATM   14  C   UNL     1      -8.416   4.923  71.311  1.00  0.00    -0.116 A  
HETATM   15  C   UNL     1      -7.204   5.123  71.982  1.00  0.00    -0.085 A  
HETATM   16 CL   UNL     1      -8.395   3.825  69.975  1.00  0.00    -0.073 Cl 
HETATM   17  C   UNL     1      -7.138   5.987  73.070  1.00  0.00    -0.084 A  
HETATM   18  C   UNL     1      -8.295   6.621  73.511  1.00  0.00    -0.127 A  
HETATM   19  C   UNL     1      -9.511   6.419  72.846  1.00  0.00    -0.145 A  
HETATM   20 CL   UNL     1     -10.891   7.242  73.486  1.00  0.00    -0.380 Cl 
ENDBRANCH  12  13
ENDBRANCH   9  12
TORSDOF 2
ENDMDL
MODEL      185
REMARK 921   NORMALIZED FREE ENERGY PREDICTED BY IDOCK:   -3.55 KCAL/MOL
REMARK 922        TOTAL FREE ENERGY PREDICTED BY IDOCK:   -4.30 KCAL/MOL
REMARK 923 INTER-LIGAND FREE ENERGY PREDICTED BY IDOCK:   -4.18 KCAL/MOL
REMARK 924 INTRA-LIGAND FREE ENERGY PREDICTED BY IDOCK:   -0.12 KCAL/MOL
REMARK 927      BINDING AFFINITY PREDICTED BY RF-SCORE:    0.00 PKD
ROOT
HETATM    1  N   UNL     1      -6.721  12.971  67.062  1.00  0.00    -0.442 NA 
HETATM    2  C   UNL     1      -7.475  12.657  68.132  1.00  0.00    -0.122 C  
HETATM    3  H2  UNL     1      -5.969  13.649  67.186  1.00  0.00     0.000 HD 
HETATM    4  H1  UNL     1      -6.859  12.569  66.135  1.00  0.00     0.000 HD 
HETATM    5  N   UNL     1      -7.301  13.162  69.298  1.00  0.00    -0.312 NA 
HETATM    6  N   UNL     1      -8.497  11.764  68.033  1.00  0.00    -0.149 N  
HETATM    7  H1  UNL     1      -7.873  12.923  70.108  1.00  0.00     0.000 HD 
HETATM    8  H2  UNL     1      -6.549  13.840  69.421  1.00  0.00     0.000 HD 
HETATM    9  C   UNL     1      -8.872  11.044  66.914  1.00  0.00    -0.149 C  
HETATM   10  H   UNL     1      -9.046  11.607  68.879  1.00  0.00     0.000 HD 
HETATM   11  O   UNL     1      -8.200  10.978  65.886  1.00  0.00    -0.160 OA 
ENDROOT
BRANCH   9  12
HETATM   12  C   UNL     1     -10.195  10.317  67.071  1.00  0.00    -0.282 C  
BRANCH  12  13
HETATM   13  C   UNL     1     -10.732  10.313  68.485  1.00  0.00    -0.262 A  
HETATM   14  C   UNL     1     -11.610  11.320  68.935  1.00  0.00    -0.319 A  
HETATM   15  C   UNL     1     -12.189  11.263  70.208  1.00  0.00    -0.428 A  
HETATM   16 CL   UNL     1     -12.035  12.675  67.947  1.00  0.00    -0.377 Cl 
HETATM   17  C   UNL     1     -11.895  10.208  71.067  1.00  0.00    -0.475 A  
HETATM   18  C   UNL     1     -10.990   9.231  70.664  1.00  0.00    -0.336 A  
HETATM   19  C   UNL     1     -10.404   9.289  69.393  1.00  0.00    -0.215 A  
HETATM   20 CL   UNL     1      -9.281   8.034  69.000  1.00  0.00    -0.148 Cl 
ENDBRANCH  12  13
ENDBRANCH   9  12
TORSDOF 2
ENDMDL
MODEL      186
REMARK 921   NORMALIZED FREE ENERGY PREDICTED BY IDOCK:   -3.54 KCAL/MOL
REMARK 922        TOTAL FREE ENERGY PREDICTED BY IDOCK:   -4.29 KCAL/MOL
REMARK 923 INTER-LIGAND FREE ENERGY PREDICTED BY IDOCK:   -3.99 KCAL/MOL
REMARK 924 INTRA-LIGAND FREE ENERGY PREDICTED BY IDOCK:   -0.30 KCAL/MOL
REMARK 927      BINDING AFFINITY PREDICTED BY RF-SCORE:    0.00 PKD
ROOT
HETATM    1  N   UNL     1      -5.672  12.149  68.320  1.00  0.00    -0.050 NA 
HETATM    2  C   UNL     1      -6.387  12.460  69.418  1.00  0.00    -0.119 C  
HETATM    3  H2  UNL     1      -4.825  11.593  68.439  1.00  0.00     0.000 HD 
HETATM    4  H1  UNL     1      -5.929  12.439  67.377  1.00  0.00     0.000 HD 
HETATM    5  N   UNL     1      -6.064  12.095  70.604  1.00  0.00    -0.523 NA 
HETATM    6  N   UNL     1      -7.524  13.202  69.329  1.00  0.00    -0.301 N  
HETATM    7  H1  UNL     1      -6.606  12.330  71.435  1.00  0.00     0.000 HD 
HETATM    8  H2  UNL     1      -5.217  11.539  70.723  1.00  0.00     0.000 HD 
HETATM    9  C   UNL     1      -8.119  13.685  68.177  1.00  0.00    -0.156 C  
HETATM   10  H   UNL     1      -7.988  13.428  70.209  1.00  0.00     0.000 HD 
HETATM   11  O   UNL     1      -7.791  13.341  67.043  1.00  0.00    -0.088 OA 
ENDROOT
BRANCH   9  12
HETATM   12  C   UNL     1      -9.239  14.675  68.438  1.00  0.00    -0.197 C  
BRANCH  12  13
HETATM   13  C   UNL     1     -10.254  14.765  67.320  1.00  0.00    -0.241 A  
HETATM   14  C   UNL     1     -10.179  15.780  66.345  1.00  0.00    -0.293 A  
HETATM   15  C   UNL     1     -11.054  15.805  65.253  1.00  0.00    -0.280 A  
HETATM   16 CL   UNL     1      -9.001  17.044  66.426  1.00  0.00    -0.300 Cl 
HETATM   17  C   UNL     1     -12.034  14.827  65.117  1.00  0.00    -0.278 A  
HETATM   18  C   UNL     1     -12.162  13.846  66.095  1.00  0.00    -0.498 A  
HETATM   19  C   UNL     1     -11.292  13.822  67.191  1.00  0.00    -0.324 A  
HETATM   20 CL   UNL     1     -11.549  12.571  68.357  1.00  0.00    -0.343 Cl 
ENDBRANCH  12  13
ENDBRANCH   9  12
TORSDOF 2
ENDMDL
MODEL      187
REMARK 921   NORMALIZED FREE ENERGY PREDICTED BY IDOCK:   -3.50 KCAL/MOL
REMARK 922        TOTAL FREE ENERGY PREDICTED BY IDOCK:   -4.25 KCAL/MOL
REMARK 923 INTER-LIGAND FREE ENERGY PREDICTED BY IDOCK:   -4.05 KCAL/MOL
REMARK 924 INTRA-LIGAND FREE ENERGY PREDICTED BY IDOCK:   -0.19 KCAL/MOL
REMARK 927      BINDING AFFINITY PREDICTED BY RF-SCORE:    0.00 PKD
ROOT
HETATM    1  N   UNL     1      -9.989  20.356  65.847  1.00  0.00    -0.602 NA 
HETATM    2  C   UNL     1      -8.799  19.785  66.114  1.00  0.00    -0.336 C  
HETATM    3  H2  UNL     1     -10.021  21.094  65.144  1.00  0.00     0.000 HD 
HETATM    4  H1  UNL     1     -10.859  20.091  66.308  1.00  0.00     0.000 HD 
HETATM    5  N   UNL     1      -7.705  20.118  65.534  1.00  0.00    -0.483 NA 
HETATM    6  N   UNL     1      -8.686  18.798  67.044  1.00  0.00    -0.276 N  
HETATM    7  H1  UNL     1      -6.804  19.686  65.737  1.00  0.00     0.000 HD 
HETATM    8  H2  UNL     1      -7.737  20.857  64.832  1.00  0.00     0.000 HD 
HETATM    9  C   UNL     1      -9.706  18.222  67.779  1.00  0.00    -0.297 C  
HETATM   10  H   UNL     1      -7.745  18.443  67.217  1.00  0.00     0.000 HD 
HETATM   11  O   UNL     1     -10.901  18.404  67.550  1.00  0.00    -0.408 OA 
ENDROOT
BRANCH   9  12
HETATM   12  C   UNL     1      -9.218  17.320  68.897  1.00  0.00    -0.182 C  
BRANCH  12  13
HETATM   13  C   UNL     1      -8.077  16.408  68.500  1.00  0.00    -0.205 A  
HETATM   14  C   UNL     1      -6.738  16.750  68.778  1.00  0.00    -0.185 A  
HETATM   15  C   UNL     1      -5.691  15.862  68.506  1.00  0.00    -0.100 A  
HETATM   16 CL   UNL     1      -6.307  18.271  69.481  1.00  0.00    -0.258 Cl 
HETATM   17  C   UNL     1      -5.953  14.621  67.936  1.00  0.00    -0.151 A  
HETATM   18  C   UNL     1      -7.261  14.284  67.604  1.00  0.00    -0.200 A  
HETATM   19  C   UNL     1      -8.311  15.171  67.869  1.00  0.00    -0.149 A  
HETATM   20 CL   UNL     1      -9.895  14.661  67.401  1.00  0.00    -0.221 Cl 
ENDBRANCH  12  13
ENDBRANCH   9  12
TORSDOF 2
ENDMDL
MODEL      188
REMARK 921   NORMALIZED FREE ENERGY PREDICTED BY IDOCK:   -3.49 KCAL/MOL
REMARK 922        TOTAL FREE ENERGY PREDICTED BY IDOCK:   -4.23 KCAL/MOL
REMARK 923 INTER-LIGAND FREE ENERGY PREDICTED BY IDOCK:   -3.91 KCAL/MOL
REMARK 924 INTRA-LIGAND FREE ENERGY PREDICTED BY IDOCK:   -0.32 KCAL/MOL
REMARK 927      BINDING AFFINITY PREDICTED BY RF-SCORE:    0.00 PKD
ROOT
HETATM    1  N   UNL     1     -12.907  12.374  64.395  1.00  0.00    -0.733 NA 
HETATM    2  C   UNL     1     -12.691  13.193  65.442  1.00  0.00    -0.360 C  
HETATM    3  H2  UNL     1     -13.602  12.652  63.702  1.00  0.00     0.000 HD 
HETATM    4  H1  UNL     1     -12.414  11.492  64.256  1.00  0.00     0.000 HD 
HETATM    5  N   UNL     1     -13.310  14.302  65.616  1.00  0.00    -0.611 NA 
HETATM    6  N   UNL     1     -11.781  12.879  66.403  1.00  0.00    -0.375 N  
HETATM    7  H1  UNL     1     -13.146  14.922  66.409  1.00  0.00     0.000 HD 
HETATM    8  H2  UNL     1     -14.005  14.580  64.923  1.00  0.00     0.000 HD 
HETATM    9  C   UNL     1     -10.950  11.774  66.439  1.00  0.00    -0.294 C  
HETATM   10  H   UNL     1     -11.702  13.531  67.184  1.00  0.00     0.000 HD 
HETATM   11  O   UNL     1     -10.792  11.007  65.490  1.00  0.00    -0.197 OA 
ENDROOT
BRANCH   9  12
HETATM   12  C   UNL     1     -10.228  11.595  67.761  1.00  0.00    -0.202 C  
BRANCH  12  13
HETATM   13  C   UNL     1      -8.807  12.115  67.762  1.00  0.00    -0.172 A  
HETATM   14  C   UNL     1      -8.512  13.435  68.160  1.00  0.00    -0.172 A  
HETATM   15  C   UNL     1      -7.191  13.885  68.261  1.00  0.00    -0.112 A  
HETATM   16 CL   UNL     1      -9.754  14.572  68.558  1.00  0.00    -0.220 Cl 
HETATM   17  C   UNL     1      -6.134  13.035  67.953  1.00  0.00    -0.131 A  
HETATM   18  C   UNL     1      -6.403  11.745  67.507  1.00  0.00    -0.095 A  
HETATM   19  C   UNL     1      -7.723  11.293  67.399  1.00  0.00    -0.128 A  
HETATM   20 CL   UNL     1      -7.946   9.679  66.819  1.00  0.00    -0.105 Cl 
ENDBRANCH  12  13
ENDBRANCH   9  12
TORSDOF 2
ENDMDL
MODEL      189
REMARK 921   NORMALIZED FREE ENERGY PREDICTED BY IDOCK:   -3.48 KCAL/MOL
REMARK 922        TOTAL FREE ENERGY PREDICTED BY IDOCK:   -4.23 KCAL/MOL
REMARK 923 INTER-LIGAND FREE ENERGY PREDICTED BY IDOCK:   -3.93 KCAL/MOL
REMARK 924 INTRA-LIGAND FREE ENERGY PREDICTED BY IDOCK:   -0.30 KCAL/MOL
REMARK 927      BINDING AFFINITY PREDICTED BY RF-SCORE:    0.00 PKD
ROOT
HETATM    1  N   UNL     1      -7.118   8.571  69.159  1.00  0.00    -0.062 NA 
HETATM    2  C   UNL     1      -8.291   7.995  69.482  1.00  0.00    -0.127 C  
HETATM    3  H2  UNL     1      -6.267   8.201  69.582  1.00  0.00     0.000 HD 
HETATM    4  H1  UNL     1      -7.033   9.357  68.515  1.00  0.00     0.000 HD 
HETATM    5  N   UNL     1      -8.398   7.007  70.292  1.00  0.00    -0.132 NA 
HETATM    6  N   UNL     1      -9.463   8.444  68.956  1.00  0.00    -0.150 N  
HETATM    7  H1  UNL     1      -9.287   6.571  70.536  1.00  0.00     0.000 HD 
HETATM    8  H2  UNL     1      -7.547   6.636  70.715  1.00  0.00     0.000 HD 
HETATM    9  C   UNL     1      -9.629   9.459  68.032  1.00  0.00    -0.138 C  
HETATM   10  H   UNL     1     -10.312   7.981  69.280  1.00  0.00     0.000 HD 
HETATM   11  O   UNL     1      -8.703   9.977  67.411  1.00  0.00    -0.125 OA 
ENDROOT
BRANCH   9  12
HETATM   12  C   UNL     1     -11.076   9.873  67.833  1.00  0.00    -0.216 C  
BRANCH  12  13
HETATM   13  C   UNL     1     -11.387  11.275  68.309  1.00  0.00    -0.359 A  
HETATM   14  C   UNL     1     -11.470  12.352  67.404  1.00  0.00    -0.352 A  
HETATM   15  C   UNL     1     -11.859  13.628  67.827  1.00  0.00    -0.403 A  
HETATM   16 CL   UNL     1     -11.113  12.166  65.721  1.00  0.00    -0.347 Cl 
HETATM   17  C   UNL     1     -12.159  13.863  69.165  1.00  0.00    -0.377 A  
HETATM   18  C   UNL     1     -12.032  12.827  70.086  1.00  0.00    -0.371 A  
HETATM   19  C   UNL     1     -11.638  11.551  69.666  1.00  0.00    -0.333 A  
HETATM   20 CL   UNL     1     -11.494  10.341  70.894  1.00  0.00    -0.434 Cl 
ENDBRANCH  12  13
ENDBRANCH   9  12
TORSDOF 2
ENDMDL
MODEL      190
REMARK 921   NORMALIZED FREE ENERGY PREDICTED BY IDOCK:   -3.46 KCAL/MOL
REMARK 922        TOTAL FREE ENERGY PREDICTED BY IDOCK:   -4.20 KCAL/MOL
REMARK 923 INTER-LIGAND FREE ENERGY PREDICTED BY IDOCK:   -4.05 KCAL/MOL
REMARK 924 INTRA-LIGAND FREE ENERGY PREDICTED BY IDOCK:   -0.15 KCAL/MOL
REMARK 927      BINDING AFFINITY PREDICTED BY RF-SCORE:    0.00 PKD
ROOT
HETATM    1  N   UNL     1      -9.405   6.281  65.630  1.00  0.00    -0.376 NA 
HETATM    2  C   UNL     1     -10.194   6.663  66.651  1.00  0.00    -0.138 C  
HETATM    3  H2  UNL     1      -9.666   5.446  65.106  1.00  0.00     0.000 HD 
HETATM    4  H1  UNL     1      -8.559   6.779  65.352  1.00  0.00     0.000 HD 
HETATM    5  N   UNL     1     -11.258   6.037  67.001  1.00  0.00    -0.553 NA 
HETATM    6  N   UNL     1      -9.899   7.764  67.394  1.00  0.00    -0.161 N  
HETATM    7  H1  UNL     1     -11.856   6.327  67.774  1.00  0.00     0.000 HD 
HETATM    8  H2  UNL     1     -11.520   5.202  66.476  1.00  0.00     0.000 HD 
HETATM    9  C   UNL     1      -8.845   8.640  67.208  1.00  0.00    -0.133 C  
HETATM   10  H   UNL     1     -10.525   7.967  68.174  1.00  0.00     0.000 HD 
HETATM   11  O   UNL     1      -8.126   8.641  66.210  1.00  0.00    -0.100 OA 
ENDROOT
BRANCH   9  12
HETATM   12  C   UNL     1      -8.660   9.624  68.347  1.00  0.00    -0.119 C  
BRANCH  12  13
HETATM   13  C   UNL     1      -9.939   9.964  69.082  1.00  0.00    -0.205 A  
HETATM   14  C   UNL     1     -10.197   9.458  70.372  1.00  0.00    -0.255 A  
HETATM   15  C   UNL     1     -11.329   9.854  71.094  1.00  0.00    -0.443 A  
HETATM   16 CL   UNL     1      -9.132   8.336  71.147  1.00  0.00    -0.181 Cl 
HETATM   17  C   UNL     1     -12.237  10.750  70.540  1.00  0.00    -0.457 A  
HETATM   18  C   UNL     1     -12.031  11.220  69.247  1.00  0.00    -0.411 A  
HETATM   19  C   UNL     1     -10.903  10.822  68.520  1.00  0.00    -0.228 A  
HETATM   20 CL   UNL     1     -10.752  11.452  66.916  1.00  0.00    -0.291 Cl 
ENDBRANCH  12  13
ENDBRANCH   9  12
TORSDOF 2
ENDMDL
MODEL      191
REMARK 921   NORMALIZED FREE ENERGY PREDICTED BY IDOCK:   -3.44 KCAL/MOL
REMARK 922        TOTAL FREE ENERGY PREDICTED BY IDOCK:   -4.18 KCAL/MOL
REMARK 923 INTER-LIGAND FREE ENERGY PREDICTED BY IDOCK:   -3.87 KCAL/MOL
REMARK 924 INTRA-LIGAND FREE ENERGY PREDICTED BY IDOCK:   -0.31 KCAL/MOL
REMARK 927      BINDING AFFINITY PREDICTED BY RF-SCORE:    0.00 PKD
ROOT
HETATM    1  N   UNL     1     -11.342   6.543  73.151  1.00  0.00    -0.476 NA 
HETATM    2  C   UNL     1     -11.858   7.477  72.329  1.00  0.00    -0.289 C  
HETATM    3  H2  UNL     1     -11.986   5.994  73.720  1.00  0.00     0.000 HD 
HETATM    4  H1  UNL     1     -10.343   6.355  73.236  1.00  0.00     0.000 HD 
HETATM    5  N   UNL     1     -13.114   7.713  72.222  1.00  0.00    -0.503 NA 
HETATM    6  N   UNL     1     -11.054   8.247  71.547  1.00  0.00    -0.248 N  
HETATM    7  H1  UNL     1     -13.504   8.420  71.600  1.00  0.00     0.000 HD 
HETATM    8  H2  UNL     1     -13.758   7.163  72.791  1.00  0.00     0.000 HD 
HETATM    9  C   UNL     1      -9.677   8.172  71.435  1.00  0.00    -0.171 C  
HETATM   10  H   UNL     1     -11.517   8.958  70.981  1.00  0.00     0.000 HD 
HETATM   11  O   UNL     1      -9.003   7.254  71.900  1.00  0.00    -0.126 OA 
ENDROOT
BRANCH   9  12
HETATM   12  C   UNL     1      -9.064   9.325  70.663  1.00  0.00    -0.309 C  
BRANCH  12  13
HETATM   13  C   UNL     1      -9.396   9.325  69.187  1.00  0.00    -0.157 A  
HETATM   14  C   UNL     1      -8.683   8.517  68.278  1.00  0.00    -0.143 A  
HETATM   15  C   UNL     1      -9.055   8.437  66.931  1.00  0.00    -0.179 A  
HETATM   16 CL   UNL     1      -7.321   7.569  68.767  1.00  0.00    -0.092 Cl 
HETATM   17  C   UNL     1     -10.136   9.172  66.456  1.00  0.00    -0.357 A  
HETATM   18  C   UNL     1     -10.822  10.017  67.324  1.00  0.00    -0.284 A  
HETATM   19  C   UNL     1     -10.448  10.104  68.670  1.00  0.00    -0.202 A  
HETATM   20 CL   UNL     1     -11.355  11.197  69.657  1.00  0.00    -0.337 Cl 
ENDBRANCH  12  13
ENDBRANCH   9  12
TORSDOF 2
ENDMDL
MODEL      192
REMARK 921   NORMALIZED FREE ENERGY PREDICTED BY IDOCK:   -3.44 KCAL/MOL
REMARK 922        TOTAL FREE ENERGY PREDICTED BY IDOCK:   -4.18 KCAL/MOL
REMARK 923 INTER-LIGAND FREE ENERGY PREDICTED BY IDOCK:   -3.86 KCAL/MOL
REMARK 924 INTRA-LIGAND FREE ENERGY PREDICTED BY IDOCK:   -0.32 KCAL/MOL
REMARK 927      BINDING AFFINITY PREDICTED BY RF-SCORE:    0.00 PKD
ROOT
HETATM    1  N   UNL     1     -13.270  10.771  71.460  1.00  0.00    -0.371 NA 
HETATM    2  C   UNL     1     -12.671  10.290  70.354  1.00  0.00    -0.175 C  
HETATM    3  H2  UNL     1     -13.745  11.671  71.396  1.00  0.00     0.000 HD 
HETATM    4  H1  UNL     1     -13.274  10.286  72.357  1.00  0.00     0.000 HD 
HETATM    5  N   UNL     1     -12.665  10.900  69.226  1.00  0.00    -0.536 NA 
HETATM    6  N   UNL     1     -12.017   9.097  70.372  1.00  0.00    -0.469 N  
HETATM    7  H1  UNL     1     -12.212  10.535  68.389  1.00  0.00     0.000 HD 
HETATM    8  H2  UNL     1     -13.141  11.800  69.163  1.00  0.00     0.000 HD 
HETATM    9  C   UNL     1     -11.907   8.220  71.435  1.00  0.00    -0.293 C  
HETATM   10  H   UNL     1     -11.556   8.819  69.505  1.00  0.00     0.000 HD 
HETATM   11  O   UNL     1     -12.558   8.320  72.474  1.00  0.00    -0.310 OA 
ENDROOT
BRANCH   9  12
HETATM   12  C   UNL     1     -10.913   7.097  71.201  1.00  0.00    -0.272 C  
BRANCH  12  13
HETATM   13  C   UNL     1     -10.006   6.821  72.380  1.00  0.00    -0.184 A  
HETATM   14  C   UNL     1     -10.274   5.768  73.278  1.00  0.00    -0.200 A  
HETATM   15  C   UNL     1      -9.382   5.446  74.307  1.00  0.00    -0.132 A  
HETATM   16 CL   UNL     1     -11.706   4.804  73.158  1.00  0.00    -0.322 Cl 
HETATM   17  C   UNL     1      -8.210   6.176  74.474  1.00  0.00    -0.124 A  
HETATM   18  C   UNL     1      -7.950   7.254  73.633  1.00  0.00    -0.133 A  
HETATM   19  C   UNL     1      -8.843   7.582  72.606  1.00  0.00    -0.139 A  
HETATM   20 CL   UNL     1      -8.433   8.950  71.630  1.00  0.00    -0.198 Cl 
ENDBRANCH  12  13
ENDBRANCH   9  12
TORSDOF 2
ENDMDL
MODEL      193
REMARK 921   NORMALIZED FREE ENERGY PREDICTED BY IDOCK:   -3.43 KCAL/MOL
REMARK 922        TOTAL FREE ENERGY PREDICTED BY IDOCK:   -4.17 KCAL/MOL
REMARK 923 INTER-LIGAND FREE ENERGY PREDICTED BY IDOCK:   -4.36 KCAL/MOL
REMARK 924 INTRA-LIGAND FREE ENERGY PREDICTED BY IDOCK:    0.19 KCAL/MOL
REMARK 927      BINDING AFFINITY PREDICTED BY RF-SCORE:    0.00 PKD
ROOT
HETATM    1  N   UNL     1     -10.310   9.758  66.030  1.00  0.00    -0.177 NA 
HETATM    2  C   UNL     1     -10.354   8.711  66.875  1.00  0.00    -0.285 C  
HETATM    3  H2  UNL     1      -9.923   9.608  65.098  1.00  0.00     0.000 HD 
HETATM    4  H1  UNL     1     -10.643  10.691  66.269  1.00  0.00     0.000 HD 
HETATM    5  N   UNL     1      -9.936   7.536  66.574  1.00  0.00    -0.423 NA 
HETATM    6  N   UNL     1     -10.855   8.843  68.133  1.00  0.00    -0.467 N  
HETATM    7  H1  UNL     1      -9.969   6.743  67.214  1.00  0.00     0.000 HD 
HETATM    8  H2  UNL     1      -9.548   7.387  65.642  1.00  0.00     0.000 HD 
HETATM    9  C   UNL     1     -11.408   9.978  68.697  1.00  0.00    -0.055 C  
HETATM   10  H   UNL     1     -10.818   8.014  68.726  1.00  0.00     0.000 HD 
HETATM   11  O   UNL     1     -11.695  10.989  68.057  1.00  0.00    -0.532 OA 
ENDROOT
BRANCH   9  12
HETATM   12  C   UNL     1     -11.651   9.862  70.190  1.00  0.00    -0.281 C  
BRANCH  12  13
HETATM   13  C   UNL     1     -11.169   8.561  70.794  1.00  0.00    -0.289 A  
HETATM   14  C   UNL     1     -12.078   7.578  71.232  1.00  0.00    -0.323 A  
HETATM   15  C   UNL     1     -11.634   6.333  71.695  1.00  0.00    -0.353 A  
HETATM   16 CL   UNL     1     -13.788   7.837  71.216  1.00  0.00    -0.338 Cl 
HETATM   17  C   UNL     1     -10.274   6.047  71.745  1.00  0.00    -0.242 A  
HETATM   18  C   UNL     1      -9.356   7.022  71.368  1.00  0.00    -0.155 A  
HETATM   19  C   UNL     1      -9.796   8.270  70.910  1.00  0.00    -0.182 A  
HETATM   20 CL   UNL     1      -8.572   9.415  70.483  1.00  0.00    -0.257 Cl 
ENDBRANCH  12  13
ENDBRANCH   9  12
TORSDOF 2
ENDMDL
MODEL      194
REMARK 921   NORMALIZED FREE ENERGY PREDICTED BY IDOCK:   -3.42 KCAL/MOL
REMARK 922        TOTAL FREE ENERGY PREDICTED BY IDOCK:   -4.16 KCAL/MOL
REMARK 923 INTER-LIGAND FREE ENERGY PREDICTED BY IDOCK:   -4.00 KCAL/MOL
REMARK 924 INTRA-LIGAND FREE ENERGY PREDICTED BY IDOCK:   -0.16 KCAL/MOL
REMARK 927      BINDING AFFINITY PREDICTED BY RF-SCORE:    0.00 PKD
ROOT
HETATM    1  N   UNL     1      -6.923  10.591  70.353  1.00  0.00    -0.436 NA 
HETATM    2  C   UNL     1      -7.432  11.541  69.546  1.00  0.00     0.208 C  
HETATM    3  H2  UNL     1      -5.981  10.725  70.719  1.00  0.00     0.000 HD 
HETATM    4  H1  UNL     1      -7.427   9.746  70.618  1.00  0.00     0.000 HD 
HETATM    5  N   UNL     1      -6.798  12.605  69.213  1.00  0.00    -0.259 NA 
HETATM    6  N   UNL     1      -8.682  11.422  69.021  1.00  0.00    -0.375 N  
HETATM    7  H1  UNL     1      -7.184  13.325  68.602  1.00  0.00     0.000 HD 
HETATM    8  H2  UNL     1      -5.856  12.739  69.579  1.00  0.00     0.000 HD 
HETATM    9  C   UNL     1      -9.591  10.405  69.250  1.00  0.00    -0.209 C  
HETATM   10  H   UNL     1      -8.981  12.164  68.388  1.00  0.00     0.000 HD 
HETATM   11  O   UNL     1      -9.454   9.551  70.124  1.00  0.00    -0.214 OA 
ENDROOT
BRANCH   9  12
HETATM   12  C   UNL     1     -10.796  10.445  68.329  1.00  0.00    -0.299 C  
BRANCH  12  13
HETATM   13  C   UNL     1     -10.561  11.196  67.037  1.00  0.00    -0.295 A  
HETATM   14  C   UNL     1      -9.961  10.569  65.926  1.00  0.00    -0.254 A  
HETATM   15  C   UNL     1      -9.837  11.230  64.699  1.00  0.00    -0.314 A  
HETATM   16 CL   UNL     1      -9.357   8.949  66.003  1.00  0.00    -0.287 Cl 
HETATM   17  C   UNL     1     -10.293  12.536  64.555  1.00  0.00    -0.362 A  
HETATM   18  C   UNL     1     -10.839  13.193  65.653  1.00  0.00    -0.294 A  
HETATM   19  C   UNL     1     -10.960  12.537  66.884  1.00  0.00    -0.257 A  
HETATM   20 CL   UNL     1     -11.636  13.452  68.187  1.00  0.00    -0.354 Cl 
ENDBRANCH  12  13
ENDBRANCH   9  12
TORSDOF 2
ENDMDL
MODEL      195
REMARK 921   NORMALIZED FREE ENERGY PREDICTED BY IDOCK:   -3.41 KCAL/MOL
REMARK 922        TOTAL FREE ENERGY PREDICTED BY IDOCK:   -4.15 KCAL/MOL
REMARK 923 INTER-LIGAND FREE ENERGY PREDICTED BY IDOCK:   -3.91 KCAL/MOL
REMARK 924 INTRA-LIGAND FREE ENERGY PREDICTED BY IDOCK:   -0.24 KCAL/MOL
REMARK 927      BINDING AFFINITY PREDICTED BY RF-SCORE:    0.00 PKD
ROOT
HETATM    1  N   UNL     1      -9.442   4.524  68.751  1.00  0.00    -0.146 NA 
HETATM    2  C   UNL     1      -8.523   5.003  69.610  1.00  0.00    -0.088 C  
HETATM    3  H2  UNL     1      -9.246   3.640  68.281  1.00  0.00     0.000 HD 
HETATM    4  H1  UNL     1     -10.322   4.995  68.543  1.00  0.00     0.000 HD 
HETATM    5  N   UNL     1      -7.417   4.409  69.872  1.00  0.00    -0.050 NA 
HETATM    6  N   UNL     1      -8.720   6.178  70.266  1.00  0.00    -0.143 N  
HETATM    7  H1  UNL     1      -6.721   4.772  70.523  1.00  0.00     0.000 HD 
HETATM    8  H2  UNL     1      -7.221   3.525  69.402  1.00  0.00     0.000 HD 
HETATM    9  C   UNL     1      -9.836   6.993  70.203  1.00  0.00    -0.175 C  
HETATM   10  H   UNL     1      -7.961   6.493  70.871  1.00  0.00     0.000 HD 
HETATM   11  O   UNL     1     -10.896   6.661  69.677  1.00  0.00    -0.239 OA 
ENDROOT
BRANCH   9  12
HETATM   12  C   UNL     1      -9.642   8.345  70.865  1.00  0.00    -0.212 C  
BRANCH  12  13
HETATM   13  C   UNL     1     -10.932   9.024  71.270  1.00  0.00    -0.384 A  
HETATM   14  C   UNL     1     -11.450  10.108  70.534  1.00  0.00    -0.337 A  
HETATM   15  C   UNL     1     -12.694  10.670  70.846  1.00  0.00    -0.498 A  
HETATM   16 CL   UNL     1     -10.595  10.802  69.200  1.00  0.00    -0.232 Cl 
HETATM   17  C   UNL     1     -13.442  10.173  71.908  1.00  0.00    -0.426 A  
HETATM   18  C   UNL     1     -12.927   9.138  72.682  1.00  0.00    -0.320 A  
HETATM   19  C   UNL     1     -11.680   8.578  72.377  1.00  0.00    -0.358 A  
HETATM   20 CL   UNL     1     -11.126   7.309  73.413  1.00  0.00    -0.302 Cl 
ENDBRANCH  12  13
ENDBRANCH   9  12
TORSDOF 2
ENDMDL
MODEL      196
REMARK 921   NORMALIZED FREE ENERGY PREDICTED BY IDOCK:   -3.41 KCAL/MOL
REMARK 922        TOTAL FREE ENERGY PREDICTED BY IDOCK:   -4.14 KCAL/MOL
REMARK 923 INTER-LIGAND FREE ENERGY PREDICTED BY IDOCK:   -3.94 KCAL/MOL
REMARK 924 INTRA-LIGAND FREE ENERGY PREDICTED BY IDOCK:   -0.20 KCAL/MOL
REMARK 927      BINDING AFFINITY PREDICTED BY RF-SCORE:    0.00 PKD
ROOT
HETATM    1  N   UNL     1      -7.450  11.381  66.404  1.00  0.00    -0.329 NA 
HETATM    2  C   UNL     1      -8.723  11.222  65.995  1.00  0.00    -0.164 C  
HETATM    3  H2  UNL     1      -6.856  12.029  65.887  1.00  0.00     0.000 HD 
HETATM    4  H1  UNL     1      -7.047  10.889  67.201  1.00  0.00     0.000 HD 
HETATM    5  N   UNL     1      -9.230  11.841  64.992  1.00  0.00    -0.422 NA 
HETATM    6  N   UNL     1      -9.566  10.369  66.637  1.00  0.00    -0.172 N  
HETATM    7  H1  UNL     1     -10.194  11.720  64.683  1.00  0.00     0.000 HD 
HETATM    8  H2  UNL     1      -8.635  12.489  64.476  1.00  0.00     0.000 HD 
HETATM    9  C   UNL     1      -9.295   9.617  67.765  1.00  0.00    -0.127 C  
HETATM   10  H   UNL     1     -10.503  10.275  66.244  1.00  0.00     0.000 HD 
HETATM   11  O   UNL     1      -8.289   9.763  68.458  1.00  0.00    -0.107 OA 
ENDROOT
BRANCH   9  12
HETATM   12  C   UNL     1     -10.366   8.592  68.088  1.00  0.00    -0.267 C  
BRANCH  12  13
HETATM   13  C   UNL     1     -10.766   8.557  69.547  1.00  0.00    -0.181 A  
HETATM   14  C   UNL     1     -10.484   7.438  70.356  1.00  0.00    -0.221 A  
HETATM   15  C   UNL     1     -10.760   7.446  71.728  1.00  0.00    -0.242 A  
HETATM   16 CL   UNL     1      -9.771   5.999  69.713  1.00  0.00    -0.184 Cl 
HETATM   17  C   UNL     1     -11.338   8.563  72.321  1.00  0.00    -0.441 A  
HETATM   18  C   UNL     1     -11.675   9.658  71.533  1.00  0.00    -0.472 A  
HETATM   19  C   UNL     1     -11.405   9.652  70.159  1.00  0.00    -0.227 A  
HETATM   20 CL   UNL     1     -11.880  11.057  69.270  1.00  0.00    -0.385 Cl 
ENDBRANCH  12  13
ENDBRANCH   9  12
TORSDOF 2
ENDMDL
MODEL      197
REMARK 921   NORMALIZED FREE ENERGY PREDICTED BY IDOCK:   -3.40 KCAL/MOL
REMARK 922        TOTAL FREE ENERGY PREDICTED BY IDOCK:   -4.13 KCAL/MOL
REMARK 923 INTER-LIGAND FREE ENERGY PREDICTED BY IDOCK:   -3.84 KCAL/MOL
REMARK 924 INTRA-LIGAND FREE ENERGY PREDICTED BY IDOCK:   -0.29 KCAL/MOL
REMARK 927      BINDING AFFINITY PREDICTED BY RF-SCORE:    0.00 PKD
ROOT
HETATM    1  N   UNL     1      -7.842  10.840  65.744  1.00  0.00    -0.263 NA 
HETATM    2  C   UNL     1      -9.079  11.323  65.959  1.00  0.00    -0.209 C  
HETATM    3  H2  UNL     1      -7.277  11.271  65.013  1.00  0.00     0.000 HD 
HETATM    4  H1  UNL     1      -7.437  10.067  66.273  1.00  0.00     0.000 HD 
HETATM    5  N   UNL     1      -9.588  12.296  65.295  1.00  0.00    -0.438 NA 
HETATM    6  N   UNL     1      -9.886  10.791  66.917  1.00  0.00    -0.182 N  
HETATM    7  H1  UNL     1     -10.525  12.662  65.458  1.00  0.00     0.000 HD 
HETATM    8  H2  UNL     1      -9.023  12.727  64.563  1.00  0.00     0.000 HD 
HETATM    9  C   UNL     1      -9.575   9.772  67.799  1.00  0.00    -0.135 C  
HETATM   10  H   UNL     1     -10.823  11.187  66.992  1.00  0.00     0.000 HD 
HETATM   11  O   UNL     1      -8.439   9.330  67.959  1.00  0.00    -0.119 OA 
ENDROOT
BRANCH   9  12
HETATM   12  C   UNL     1     -10.770   9.252  68.576  1.00  0.00    -0.185 C  
BRANCH  12  13
HETATM   13  C   UNL     1     -10.535   7.917  69.248  1.00  0.00    -0.221 A  
HETATM   14  C   UNL     1     -10.198   7.836  70.615  1.00  0.00    -0.199 A  
HETATM   15  C   UNL     1     -10.082   6.600  71.262  1.00  0.00    -0.207 A  
HETATM   16 CL   UNL     1      -9.923   9.247  71.577  1.00  0.00    -0.350 Cl 
HETATM   17  C   UNL     1     -10.283   5.418  70.558  1.00  0.00    -0.326 A  
HETATM   18  C   UNL     1     -10.563   5.472  69.197  1.00  0.00    -0.300 A  
HETATM   19  C   UNL     1     -10.675   6.706  68.545  1.00  0.00    -0.256 A  
HETATM   20 CL   UNL     1     -11.008   6.659  66.848  1.00  0.00    -0.451 Cl 
ENDBRANCH  12  13
ENDBRANCH   9  12
TORSDOF 2
ENDMDL
MODEL      198
REMARK 921   NORMALIZED FREE ENERGY PREDICTED BY IDOCK:   -3.38 KCAL/MOL
REMARK 922        TOTAL FREE ENERGY PREDICTED BY IDOCK:   -4.11 KCAL/MOL
REMARK 923 INTER-LIGAND FREE ENERGY PREDICTED BY IDOCK:   -4.00 KCAL/MOL
REMARK 924 INTRA-LIGAND FREE ENERGY PREDICTED BY IDOCK:   -0.10 KCAL/MOL
REMARK 927      BINDING AFFINITY PREDICTED BY RF-SCORE:    0.00 PKD
ROOT
HETATM    1  N   UNL     1      -7.116  10.516  65.559  1.00  0.00    -0.248 NA 
HETATM    2  C   UNL     1      -7.600  10.719  66.798  1.00  0.00    -0.129 C  
HETATM    3  H2  UNL     1      -6.181  10.119  65.466  1.00  0.00     0.000 HD 
HETATM    4  H1  UNL     1      -7.633  10.735  64.707  1.00  0.00     0.000 HD 
HETATM    5  N   UNL     1      -6.951  10.443  67.869  1.00  0.00    -0.081 NA 
HETATM    6  N   UNL     1      -8.839  11.249  66.991  1.00  0.00    -0.149 N  
HETATM    7  H1  UNL     1      -7.318  10.597  68.808  1.00  0.00     0.000 HD 
HETATM    8  H2  UNL     1      -6.015  10.047  67.777  1.00  0.00     0.000 HD 
HETATM    9  C   UNL     1      -9.760  11.594  66.020  1.00  0.00    -0.232 C  
HETATM   10  H   UNL     1      -9.118  11.408  67.959  1.00  0.00     0.000 HD 
HETATM   11  O   UNL     1      -9.650  11.288  64.834  1.00  0.00    -0.228 OA 
ENDROOT
BRANCH   9  12
HETATM   12  C   UNL     1     -10.945  12.377  66.553  1.00  0.00    -0.312 C  
BRANCH  12  13
HETATM   13  C   UNL     1     -10.908  13.853  66.221  1.00  0.00    -0.290 A  
HETATM   14  C   UNL     1     -10.553  14.812  67.192  1.00  0.00    -0.285 A  
HETATM   15  C   UNL     1     -10.418  16.165  66.861  1.00  0.00    -0.300 A  
HETATM   16 CL   UNL     1     -10.251  14.379  68.840  1.00  0.00    -0.230 Cl 
HETATM   17  C   UNL     1     -10.649  16.595  65.559  1.00  0.00    -0.273 A  
HETATM   18  C   UNL     1     -11.052  15.676  64.596  1.00  0.00    -0.387 A  
HETATM   19  C   UNL     1     -11.194  14.322  64.925  1.00  0.00    -0.379 A  
HETATM   20 CL   UNL     1     -11.717  13.267  63.658  1.00  0.00    -0.481 Cl 
ENDBRANCH  12  13
ENDBRANCH   9  12
TORSDOF 2
ENDMDL
MODEL      199
REMARK 921   NORMALIZED FREE ENERGY PREDICTED BY IDOCK:   -3.37 KCAL/MOL
REMARK 922        TOTAL FREE ENERGY PREDICTED BY IDOCK:   -4.10 KCAL/MOL
REMARK 923 INTER-LIGAND FREE ENERGY PREDICTED BY IDOCK:   -3.75 KCAL/MOL
REMARK 924 INTRA-LIGAND FREE ENERGY PREDICTED BY IDOCK:   -0.35 KCAL/MOL
REMARK 927      BINDING AFFINITY PREDICTED BY RF-SCORE:    0.00 PKD
ROOT
HETATM    1  N   UNL     1      -6.392   9.977  71.007  1.00  0.00    -0.297 NA 
HETATM    2  C   UNL     1      -6.968  10.637  69.985  1.00  0.00    -0.126 C  
HETATM    3  H2  UNL     1      -5.397  10.128  71.177  1.00  0.00     0.000 HD 
HETATM    4  H1  UNL     1      -6.893   9.334  71.620  1.00  0.00     0.000 HD 
HETATM    5  N   UNL     1      -6.337  11.445  69.215  1.00  0.00    -0.074 NA 
HETATM    6  N   UNL     1      -8.289  10.477  69.702  1.00  0.00    -0.371 N  
HETATM    7  H1  UNL     1      -6.775  11.945  68.441  1.00  0.00     0.000 HD 
HETATM    8  H2  UNL     1      -5.343  11.596  69.385  1.00  0.00     0.000 HD 
HETATM    9  C   UNL     1      -9.205   9.706  70.394  1.00  0.00    -0.202 C  
HETATM   10  H   UNL     1      -8.643  10.982  68.889  1.00  0.00     0.000 HD 
HETATM   11  O   UNL     1      -8.980   9.198  71.491  1.00  0.00    -0.319 OA 
ENDROOT
BRANCH   9  12
HETATM   12  C   UNL     1     -10.536   9.553  69.682  1.00  0.00    -0.245 C  
BRANCH  12  13
HETATM   13  C   UNL     1     -10.630   8.322  68.808  1.00  0.00    -0.152 A  
HETATM   14  C   UNL     1     -10.345   8.381  67.429  1.00  0.00    -0.285 A  
HETATM   15  C   UNL     1     -10.331   7.225  66.640  1.00  0.00    -0.229 A  
HETATM   16 CL   UNL     1      -9.985   9.873  66.631  1.00  0.00    -0.262 Cl 
HETATM   17  C   UNL     1     -10.616   5.986  67.205  1.00  0.00    -0.374 A  
HETATM   18  C   UNL     1     -10.952   5.910  68.552  1.00  0.00    -0.277 A  
HETATM   19  C   UNL     1     -10.973   7.066  69.343  1.00  0.00    -0.201 A  
HETATM   20 CL   UNL     1     -11.421   6.862  71.001  1.00  0.00    -0.336 Cl 
ENDBRANCH  12  13
ENDBRANCH   9  12
TORSDOF 2
ENDMDL
MODEL      200
REMARK 921   NORMALIZED FREE ENERGY PREDICTED BY IDOCK:   -3.37 KCAL/MOL
REMARK 922        TOTAL FREE ENERGY PREDICTED BY IDOCK:   -4.10 KCAL/MOL
REMARK 923 INTER-LIGAND FREE ENERGY PREDICTED BY IDOCK:   -3.75 KCAL/MOL
REMARK 924 INTRA-LIGAND FREE ENERGY PREDICTED BY IDOCK:   -0.35 KCAL/MOL
REMARK 927      BINDING AFFINITY PREDICTED BY RF-SCORE:    0.00 PKD
ROOT
HETATM    1  N   UNL     1     -12.100  11.503  70.577  1.00  0.00    -0.375 NA 
HETATM    2  C   UNL     1     -12.000  10.644  69.544  1.00  0.00    -0.247 C  
HETATM    3  H2  UNL     1     -12.311  12.479  70.372  1.00  0.00     0.000 HD 
HETATM    4  H1  UNL     1     -11.977  11.231  71.552  1.00  0.00     0.000 HD 
HETATM    5  N   UNL     1     -12.155  10.986  68.318  1.00  0.00    -0.788 NA 
HETATM    6  N   UNL     1     -11.717   9.329  69.749  1.00  0.00    -0.419 N  
HETATM    7  H1  UNL     1     -12.080  10.336  67.536  1.00  0.00     0.000 HD 
HETATM    8  H2  UNL     1     -12.366  11.963  68.113  1.00  0.00     0.000 HD 
HETATM    9  C   UNL     1     -11.547   8.690  70.963  1.00  0.00    -0.281 C  
HETATM   10  H   UNL     1     -11.620   8.751  68.914  1.00  0.00     0.000 HD 
HETATM   11  O   UNL     1     -11.818   9.201  72.048  1.00  0.00    -0.365 OA 
ENDROOT
BRANCH   9  12
HETATM   12  C   UNL     1     -11.007   7.278  70.839  1.00  0.00    -0.275 C  
BRANCH  12  13
HETATM   13  C   UNL     1      -9.496   7.195  70.823  1.00  0.00    -0.164 A  
HETATM   14  C   UNL     1      -8.779   7.160  69.610  1.00  0.00    -0.141 A  
HETATM   15  C   UNL     1      -7.379   7.188  69.593  1.00  0.00    -0.085 A  
HETATM   16 CL   UNL     1      -9.575   7.095  68.076  1.00  0.00    -0.135 Cl 
HETATM   17  C   UNL     1      -6.663   7.236  70.784  1.00  0.00    -0.048 A  
HETATM   18  C   UNL     1      -7.349   7.217  71.995  1.00  0.00    -0.081 A  
HETATM   19  C   UNL     1      -8.748   7.183  72.016  1.00  0.00    -0.122 A  
HETATM   20 CL   UNL     1      -9.499   7.144  73.574  1.00  0.00    -0.222 Cl 
ENDBRANCH  12  13
ENDBRANCH   9  12
TORSDOF 2
ENDMDL
MODEL      201
REMARK 921   NORMALIZED FREE ENERGY PREDICTED BY IDOCK:   -3.36 KCAL/MOL
REMARK 922        TOTAL FREE ENERGY PREDICTED BY IDOCK:   -4.09 KCAL/MOL
REMARK 923 INTER-LIGAND FREE ENERGY PREDICTED BY IDOCK:   -3.73 KCAL/MOL
REMARK 924 INTRA-LIGAND FREE ENERGY PREDICTED BY IDOCK:   -0.36 KCAL/MOL
REMARK 927      BINDING AFFINITY PREDICTED BY RF-SCORE:    0.00 PKD
ROOT
HETATM    1  N   UNL     1      -5.561  11.091  68.589  1.00  0.00    -0.043 NA 
HETATM    2  C   UNL     1      -6.561  11.723  67.946  1.00  0.00    -0.068 C  
HETATM    3  H2  UNL     1      -4.602  11.326  68.336  1.00  0.00     0.000 HD 
HETATM    4  H1  UNL     1      -5.710  10.390  69.316  1.00  0.00     0.000 HD 
HETATM    5  N   UNL     1      -6.374  12.604  67.033  1.00  0.00    -0.482 NA 
HETATM    6  N   UNL     1      -7.863  11.452  68.234  1.00  0.00    -0.124 N  
HETATM    7  H1  UNL     1      -7.131  13.082  66.547  1.00  0.00     0.000 HD 
HETATM    8  H2  UNL     1      -5.414  12.839  66.780  1.00  0.00     0.000 HD 
HETATM    9  C   UNL     1      -8.343  10.585  69.198  1.00  0.00    -0.151 C  
HETATM   10  H   UNL     1      -8.562  11.944  67.677  1.00  0.00     0.000 HD 
HETATM   11  O   UNL     1      -7.640  10.071  70.066  1.00  0.00    -0.154 OA 
ENDROOT
BRANCH   9  12
HETATM   12  C   UNL     1      -9.836  10.331  69.102  1.00  0.00    -0.228 C  
BRANCH  12  13
HETATM   13  C   UNL     1     -10.198   8.909  68.733  1.00  0.00    -0.224 A  
HETATM   14  C   UNL     1     -10.483   7.947  69.723  1.00  0.00    -0.233 A  
HETATM   15  C   UNL     1     -10.918   6.661  69.382  1.00  0.00    -0.361 A  
HETATM   16 CL   UNL     1     -10.328   8.295  71.410  1.00  0.00    -0.253 Cl 
HETATM   17  C   UNL     1     -11.063   6.300  68.047  1.00  0.00    -0.365 A  
HETATM   18  C   UNL     1     -10.736   7.215  67.052  1.00  0.00    -0.420 A  
HETATM   19  C   UNL     1     -10.295   8.501  67.389  1.00  0.00    -0.286 A  
HETATM   20 CL   UNL     1      -9.899   9.554  66.075  1.00  0.00    -0.340 Cl 
ENDBRANCH  12  13
ENDBRANCH   9  12
TORSDOF 2
ENDMDL
MODEL      202
REMARK 921   NORMALIZED FREE ENERGY PREDICTED BY IDOCK:   -3.35 KCAL/MOL
REMARK 922        TOTAL FREE ENERGY PREDICTED BY IDOCK:   -4.08 KCAL/MOL
REMARK 923 INTER-LIGAND FREE ENERGY PREDICTED BY IDOCK:   -3.72 KCAL/MOL
REMARK 924 INTRA-LIGAND FREE ENERGY PREDICTED BY IDOCK:   -0.36 KCAL/MOL
REMARK 927      BINDING AFFINITY PREDICTED BY RF-SCORE:    0.00 PKD
ROOT
HETATM    1  N   UNL     1     -11.844   8.586  72.037  1.00  0.00    -0.336 NA 
HETATM    2  C   UNL     1     -11.653   8.003  70.838  1.00  0.00    -0.269 C  
HETATM    3  H2  UNL     1     -11.978   7.984  72.849  1.00  0.00     0.000 HD 
HETATM    4  H1  UNL     1     -11.862   9.595  72.178  1.00  0.00     0.000 HD 
HETATM    5  N   UNL     1     -11.631   6.733  70.661  1.00  0.00    -0.349 NA 
HETATM    6  N   UNL     1     -11.473   8.749  69.715  1.00  0.00    -0.430 N  
HETATM    7  H1  UNL     1     -11.486   6.292  69.754  1.00  0.00     0.000 HD 
HETATM    8  H2  UNL     1     -11.765   6.131  71.474  1.00  0.00     0.000 HD 
HETATM    9  C   UNL     1     -11.409  10.127  69.628  1.00  0.00    -0.235 C  
HETATM   10  H   UNL     1     -11.374   8.234  68.840  1.00  0.00     0.000 HD 
HETATM   11  O   UNL     1     -11.321  10.870  70.605  1.00  0.00    -0.256 OA 
ENDROOT
BRANCH   9  12
HETATM   12  C   UNL     1     -11.440  10.652  68.205  1.00  0.00    -0.318 C  
BRANCH  12  13
HETATM   13  C   UNL     1     -10.073  10.937  67.623  1.00  0.00    -0.206 A  
HETATM   14  C   UNL     1      -9.445  12.185  67.809  1.00  0.00    -0.192 A  
HETATM   15  C   UNL     1      -8.139  12.415  67.361  1.00  0.00    -0.177 A  
HETATM   16 CL   UNL     1     -10.237  13.499  68.609  1.00  0.00    -0.221 Cl 
HETATM   17  C   UNL     1      -7.436  11.411  66.703  1.00  0.00    -0.110 A  
HETATM   18  C   UNL     1      -8.054  10.189  66.462  1.00  0.00    -0.121 A  
HETATM   19  C   UNL     1      -9.362   9.957  66.903  1.00  0.00    -0.152 A  
HETATM   20 CL   UNL     1     -10.042   8.410  66.535  1.00  0.00    -0.349 Cl 
ENDBRANCH  12  13
ENDBRANCH   9  12
TORSDOF 2
ENDMDL
MODEL      203
REMARK 921   NORMALIZED FREE ENERGY PREDICTED BY IDOCK:   -3.35 KCAL/MOL
REMARK 922        TOTAL FREE ENERGY PREDICTED BY IDOCK:   -4.08 KCAL/MOL
REMARK 923 INTER-LIGAND FREE ENERGY PREDICTED BY IDOCK:   -3.83 KCAL/MOL
REMARK 924 INTRA-LIGAND FREE ENERGY PREDICTED BY IDOCK:   -0.25 KCAL/MOL
REMARK 927      BINDING AFFINITY PREDICTED BY RF-SCORE:    0.00 PKD
ROOT
HETATM    1  N   UNL     1      -6.776  10.407  64.815  1.00  0.00    -0.293 NA 
HETATM    2  C   UNL     1      -7.927  10.048  64.216  1.00  0.00    -0.152 C  
HETATM    3  H2  UNL     1      -5.928  10.439  64.248  1.00  0.00     0.000 HD 
HETATM    4  H1  UNL     1      -6.704  10.648  65.803  1.00  0.00     0.000 HD 
HETATM    5  N   UNL     1      -8.017   9.744  62.973  1.00  0.00    -0.131 NA 
HETATM    6  N   UNL     1      -9.091   9.980  64.916  1.00  0.00    -0.202 N  
HETATM    7  H1  UNL     1      -8.889   9.472  62.520  1.00  0.00     0.000 HD 
HETATM    8  H2  UNL     1      -7.169   9.776  62.407  1.00  0.00     0.000 HD 
HETATM    9  C   UNL     1      -9.285  10.295  66.249  1.00  0.00    -0.159 C  
HETATM   10  H   UNL     1      -9.913   9.663  64.400  1.00  0.00     0.000 HD 
HETATM   11  O   UNL     1      -8.448  10.866  66.945  1.00  0.00    -0.128 OA 
ENDROOT
BRANCH   9  12
HETATM   12  C   UNL     1     -10.646   9.885  66.781  1.00  0.00    -0.214 C  
BRANCH  12  13
HETATM   13  C   UNL     1     -11.132  10.724  67.942  1.00  0.00    -0.369 A  
HETATM   14  C   UNL     1     -11.121  10.224  69.260  1.00  0.00    -0.245 A  
HETATM   15  C   UNL     1     -11.472  11.033  70.347  1.00  0.00    -0.316 A  
HETATM   16 CL   UNL     1     -10.665   8.594  69.619  1.00  0.00    -0.224 Cl 
HETATM   17  C   UNL     1     -11.857  12.354  70.143  1.00  0.00    -0.341 A  
HETATM   18  C   UNL     1     -11.926  12.854  68.847  1.00  0.00    -0.291 A  
HETATM   19  C   UNL     1     -11.581  12.045  67.757  1.00  0.00    -0.330 A  
HETATM   20 CL   UNL     1     -11.719  12.759  66.188  1.00  0.00    -0.434 Cl 
ENDBRANCH  12  13
ENDBRANCH   9  12
TORSDOF 2
ENDMDL
MODEL      204
REMARK 921   NORMALIZED FREE ENERGY PREDICTED BY IDOCK:   -3.34 KCAL/MOL
REMARK 922        TOTAL FREE ENERGY PREDICTED BY IDOCK:   -4.06 KCAL/MOL
REMARK 923 INTER-LIGAND FREE ENERGY PREDICTED BY IDOCK:   -3.77 KCAL/MOL
REMARK 924 INTRA-LIGAND FREE ENERGY PREDICTED BY IDOCK:   -0.29 KCAL/MOL
REMARK 927      BINDING AFFINITY PREDICTED BY RF-SCORE:    0.00 PKD
ROOT
HETATM    1  N   UNL     1     -11.466  13.260  63.508  1.00  0.00    -0.638 NA 
HETATM    2  C   UNL     1     -10.537  13.677  64.388  1.00  0.00    -0.341 C  
HETATM    3  H2  UNL     1     -11.963  13.964  62.962  1.00  0.00     0.000 HD 
HETATM    4  H1  UNL     1     -11.700  12.279  63.356  1.00  0.00     0.000 HD 
HETATM    5  N   UNL     1     -10.243  14.911  64.579  1.00  0.00    -0.404 NA 
HETATM    6  N   UNL     1      -9.842  12.790  65.150  1.00  0.00    -0.480 N  
HETATM    7  H1  UNL     1      -9.539  15.227  65.246  1.00  0.00     0.000 HD 
HETATM    8  H2  UNL     1     -10.740  15.615  64.034  1.00  0.00     0.000 HD 
HETATM    9  C   UNL     1      -9.929  11.410  65.115  1.00  0.00    -0.264 C  
HETATM   10  H   UNL     1      -9.183  13.186  65.821  1.00  0.00     0.000 HD 
HETATM   11  O   UNL     1     -10.526  10.785  64.240  1.00  0.00    -0.367 OA 
ENDROOT
BRANCH   9  12
HETATM   12  C   UNL     1      -9.198  10.723  66.253  1.00  0.00    -0.195 C  
BRANCH  12  13
HETATM   13  C   UNL     1      -8.727   9.323  65.928  1.00  0.00    -0.179 A  
HETATM   14  C   UNL     1      -9.441   8.191  66.370  1.00  0.00    -0.218 A  
HETATM   15  C   UNL     1      -9.065   6.899  65.984  1.00  0.00    -0.101 A  
HETATM   16 CL   UNL     1     -10.824   8.324  67.400  1.00  0.00    -0.215 Cl 
HETATM   17  C   UNL     1      -7.960   6.706  65.161  1.00  0.00    -0.124 A  
HETATM   18  C   UNL     1      -7.209   7.804  64.756  1.00  0.00    -0.067 A  
HETATM   19  C   UNL     1      -7.579   9.097  65.145  1.00  0.00    -0.098 A  
HETATM   20 CL   UNL     1      -6.567  10.390  64.601  1.00  0.00    -0.083 Cl 
ENDBRANCH  12  13
ENDBRANCH   9  12
TORSDOF 2
ENDMDL
MODEL      205
REMARK 921   NORMALIZED FREE ENERGY PREDICTED BY IDOCK:   -3.34 KCAL/MOL
REMARK 922        TOTAL FREE ENERGY PREDICTED BY IDOCK:   -4.06 KCAL/MOL
REMARK 923 INTER-LIGAND FREE ENERGY PREDICTED BY IDOCK:   -3.95 KCAL/MOL
REMARK 924 INTRA-LIGAND FREE ENERGY PREDICTED BY IDOCK:   -0.11 KCAL/MOL
REMARK 927      BINDING AFFINITY PREDICTED BY RF-SCORE:    0.00 PKD
ROOT
HETATM    1  N   UNL     1      -7.450  11.381  66.404  1.00  0.00    -0.329 NA 
HETATM    2  C   UNL     1      -8.723  11.224  65.994  1.00  0.00    -0.164 C  
HETATM    3  H2  UNL     1      -6.854  12.027  65.887  1.00  0.00     0.000 HD 
HETATM    4  H1  UNL     1      -7.049  10.889  67.202  1.00  0.00     0.000 HD 
HETATM    5  N   UNL     1      -9.227  11.843  64.990  1.00  0.00    -0.417 NA 
HETATM    6  N   UNL     1      -9.569  10.374  66.636  1.00  0.00    -0.172 N  
HETATM    7  H1  UNL     1     -10.191  11.724  64.680  1.00  0.00     0.000 HD 
HETATM    8  H2  UNL     1      -8.631  12.489  64.473  1.00  0.00     0.000 HD 
HETATM    9  C   UNL     1      -9.300   9.622  67.765  1.00  0.00    -0.127 C  
HETATM   10  H   UNL     1     -10.505  10.282  66.242  1.00  0.00     0.000 HD 
HETATM   11  O   UNL     1      -8.295   9.767  68.459  1.00  0.00    -0.107 OA 
ENDROOT
BRANCH   9  12
HETATM   12  C   UNL     1     -10.374   8.601  68.088  1.00  0.00    -0.267 C  
BRANCH  12  13
HETATM   13  C   UNL     1     -10.776   8.569  69.547  1.00  0.00    -0.181 A  
HETATM   14  C   UNL     1     -11.402   9.675  70.157  1.00  0.00    -0.227 A  
HETATM   15  C   UNL     1     -11.867   9.610  71.475  1.00  0.00    -0.483 A  
HETATM   16 CL   UNL     1     -11.646  11.168  69.318  1.00  0.00    -0.350 Cl 
HETATM   17  C   UNL     1     -11.705   8.446  72.221  1.00  0.00    -0.453 A  
HETATM   18  C   UNL     1     -11.042   7.361  71.657  1.00  0.00    -0.264 A  
HETATM   19  C   UNL     1     -10.570   7.424  70.341  1.00  0.00    -0.228 A  
HETATM   20 CL   UNL     1      -9.746   6.026  69.744  1.00  0.00    -0.184 Cl 
ENDBRANCH  12  13
ENDBRANCH   9  12
TORSDOF 2
ENDMDL
MODEL      206
REMARK 921   NORMALIZED FREE ENERGY PREDICTED BY IDOCK:   -3.33 KCAL/MOL
REMARK 922        TOTAL FREE ENERGY PREDICTED BY IDOCK:   -4.06 KCAL/MOL
REMARK 923 INTER-LIGAND FREE ENERGY PREDICTED BY IDOCK:   -3.78 KCAL/MOL
REMARK 924 INTRA-LIGAND FREE ENERGY PREDICTED BY IDOCK:   -0.28 KCAL/MOL
REMARK 927      BINDING AFFINITY PREDICTED BY RF-SCORE:    0.00 PKD
ROOT
HETATM    1  N   UNL     1      -9.466  19.271  69.312  1.00  0.00    -0.232 NA 
HETATM    2  C   UNL     1      -8.404  19.133  68.497  1.00  0.00    -0.364 C  
HETATM    3  H2  UNL     1      -9.406  19.951  70.070  1.00  0.00     0.000 HD 
HETATM    4  H1  UNL     1     -10.327  18.734  69.214  1.00  0.00     0.000 HD 
HETATM    5  N   UNL     1      -7.320  19.809  68.620  1.00  0.00    -0.323 NA 
HETATM    6  N   UNL     1      -8.417  18.241  67.470  1.00  0.00    -0.247 N  
HETATM    7  H1  UNL     1      -6.516  19.704  68.002  1.00  0.00     0.000 HD 
HETATM    8  H2  UNL     1      -7.260  20.489  69.378  1.00  0.00     0.000 HD 
HETATM    9  C   UNL     1      -9.465  17.423  67.087  1.00  0.00    -0.257 C  
HETATM   10  H   UNL     1      -7.560  18.168  66.921  1.00  0.00     0.000 HD 
HETATM   11  O   UNL     1     -10.610  17.531  67.522  1.00  0.00    -0.358 OA 
ENDROOT
BRANCH   9  12
HETATM   12  C   UNL     1      -9.078  16.378  66.058  1.00  0.00    -0.317 C  
BRANCH  12  13
HETATM   13  C   UNL     1      -8.821  15.005  66.639  1.00  0.00    -0.307 A  
HETATM   14  C   UNL     1      -9.832  14.023  66.671  1.00  0.00    -0.284 A  
HETATM   15  C   UNL     1      -9.566  12.722  67.113  1.00  0.00    -0.219 A  
HETATM   16 CL   UNL     1     -11.450  14.356  66.157  1.00  0.00    -0.351 Cl 
HETATM   17  C   UNL     1      -8.292  12.374  67.548  1.00  0.00    -0.173 A  
HETATM   18  C   UNL     1      -7.292  13.341  67.576  1.00  0.00    -0.159 A  
HETATM   19  C   UNL     1      -7.555  14.645  67.140  1.00  0.00    -0.044 A  
HETATM   20 CL   UNL     1      -6.247  15.772  67.233  1.00  0.00    -0.143 Cl 
ENDBRANCH  12  13
ENDBRANCH   9  12
TORSDOF 2
ENDMDL
MODEL      207
REMARK 921   NORMALIZED FREE ENERGY PREDICTED BY IDOCK:   -3.31 KCAL/MOL
REMARK 922        TOTAL FREE ENERGY PREDICTED BY IDOCK:   -4.04 KCAL/MOL
REMARK 923 INTER-LIGAND FREE ENERGY PREDICTED BY IDOCK:   -3.72 KCAL/MOL
REMARK 924 INTRA-LIGAND FREE ENERGY PREDICTED BY IDOCK:   -0.32 KCAL/MOL
REMARK 927      BINDING AFFINITY PREDICTED BY RF-SCORE:    0.00 PKD
ROOT
HETATM    1  N   UNL     1     -11.032   8.176  67.136  1.00  0.00    -0.421 NA 
HETATM    2  C   UNL     1     -10.473   6.980  67.395  1.00  0.00    -0.273 C  
HETATM    3  H2  UNL     1     -11.430   8.331  66.210  1.00  0.00     0.000 HD 
HETATM    4  H1  UNL     1     -11.081   8.936  67.815  1.00  0.00     0.000 HD 
HETATM    5  N   UNL     1     -10.412   6.024  66.541  1.00  0.00    -0.429 NA 
HETATM    6  N   UNL     1      -9.921   6.709  68.608  1.00  0.00    -0.143 N  
HETATM    7  H1  UNL     1      -9.988   5.118  66.737  1.00  0.00     0.000 HD 
HETATM    8  H2  UNL     1     -10.809   6.179  65.615  1.00  0.00     0.000 HD 
HETATM    9  C   UNL     1      -9.889   7.538  69.715  1.00  0.00    -0.180 C  
HETATM   10  H   UNL     1      -9.482   5.794  68.714  1.00  0.00     0.000 HD 
HETATM   11  O   UNL     1     -10.533   8.582  69.806  1.00  0.00    -0.213 OA 
ENDROOT
BRANCH   9  12
HETATM   12  C   UNL     1      -8.992   7.033  70.830  1.00  0.00    -0.152 C  
BRANCH  12  13
HETATM   13  C   UNL     1      -9.589   5.900  71.636  1.00  0.00    -0.173 A  
HETATM   14  C   UNL     1     -10.567   6.140  72.622  1.00  0.00    -0.218 A  
HETATM   15  C   UNL     1     -11.194   5.085  73.295  1.00  0.00    -0.411 A  
HETATM   16 CL   UNL     1     -11.061   7.741  73.052  1.00  0.00    -0.463 Cl 
HETATM   17  C   UNL     1     -10.848   3.767  73.011  1.00  0.00    -0.214 A  
HETATM   18  C   UNL     1      -9.848   3.508  72.080  1.00  0.00    -0.238 A  
HETATM   19  C   UNL     1      -9.215   4.561  71.409  1.00  0.00    -0.136 A  
HETATM   20 CL   UNL     1      -7.973   4.130  70.285  1.00  0.00    -0.051 Cl 
ENDBRANCH  12  13
ENDBRANCH   9  12
TORSDOF 2
ENDMDL
MODEL      208
REMARK 921   NORMALIZED FREE ENERGY PREDICTED BY IDOCK:   -3.31 KCAL/MOL
REMARK 922        TOTAL FREE ENERGY PREDICTED BY IDOCK:   -4.04 KCAL/MOL
REMARK 923 INTER-LIGAND FREE ENERGY PREDICTED BY IDOCK:   -3.68 KCAL/MOL
REMARK 924 INTRA-LIGAND FREE ENERGY PREDICTED BY IDOCK:   -0.35 KCAL/MOL
REMARK 927      BINDING AFFINITY PREDICTED BY RF-SCORE:    0.00 PKD
ROOT
HETATM    1  N   UNL     1      -6.890  15.063  67.002  1.00  0.00    -0.312 NA 
HETATM    2  C   UNL     1      -8.205  15.150  66.729  1.00  0.00    -0.137 C  
HETATM    3  H2  UNL     1      -6.338  15.921  66.989  1.00  0.00     0.000 HD 
HETATM    4  H1  UNL     1      -6.415  14.188  67.220  1.00  0.00     0.000 HD 
HETATM    5  N   UNL     1      -8.803  16.252  66.454  1.00  0.00    -0.282 NA 
HETATM    6  N   UNL     1      -8.997  14.044  66.725  1.00  0.00    -0.365 N  
HETATM    7  H1  UNL     1      -9.799  16.317  66.248  1.00  0.00     0.000 HD 
HETATM    8  H2  UNL     1      -8.251  17.109  66.441  1.00  0.00     0.000 HD 
HETATM    9  C   UNL     1      -8.623  12.748  67.028  1.00  0.00    -0.177 C  
HETATM   10  H   UNL     1      -9.975  14.187  66.472  1.00  0.00     0.000 HD 
HETATM   11  O   UNL     1      -7.541  12.448  67.531  1.00  0.00    -0.133 OA 
ENDROOT
BRANCH   9  12
HETATM   12  C   UNL     1      -9.683  11.713  66.698  1.00  0.00    -0.221 C  
BRANCH  12  13
HETATM   13  C   UNL     1     -10.390  11.147  67.910  1.00  0.00    -0.211 A  
HETATM   14  C   UNL     1      -9.934   9.971  68.539  1.00  0.00    -0.162 A  
HETATM   15  C   UNL     1     -10.523   9.503  69.720  1.00  0.00    -0.253 A  
HETATM   16 CL   UNL     1      -8.619   9.043  67.905  1.00  0.00    -0.125 Cl 
HETATM   17  C   UNL     1     -11.590  10.189  70.291  1.00  0.00    -0.379 A  
HETATM   18  C   UNL     1     -12.091  11.322  69.660  1.00  0.00    -0.391 A  
HETATM   19  C   UNL     1     -11.508  11.790  68.476  1.00  0.00    -0.296 A  
HETATM   20 CL   UNL     1     -12.220  13.196  67.764  1.00  0.00    -0.237 Cl 
ENDBRANCH  12  13
ENDBRANCH   9  12
TORSDOF 2
ENDMDL
MODEL      209
REMARK 921   NORMALIZED FREE ENERGY PREDICTED BY IDOCK:   -3.29 KCAL/MOL
REMARK 922        TOTAL FREE ENERGY PREDICTED BY IDOCK:   -4.01 KCAL/MOL
REMARK 923 INTER-LIGAND FREE ENERGY PREDICTED BY IDOCK:   -3.93 KCAL/MOL
REMARK 924 INTRA-LIGAND FREE ENERGY PREDICTED BY IDOCK:   -0.09 KCAL/MOL
REMARK 927      BINDING AFFINITY PREDICTED BY RF-SCORE:    0.00 PKD
ROOT
HETATM    1  N   UNL     1     -12.740  10.915  70.962  1.00  0.00    -0.390 NA 
HETATM    2  C   UNL     1     -12.158  10.255  69.944  1.00  0.00    -0.108 C  
HETATM    3  H2  UNL     1     -13.079  11.861  70.791  1.00  0.00     0.000 HD 
HETATM    4  H1  UNL     1     -12.860  10.521  71.895  1.00  0.00     0.000 HD 
HETATM    5  N   UNL     1     -12.007  10.750  68.770  1.00  0.00    -0.718 NA 
HETATM    6  N   UNL     1     -11.680   8.992  70.106  1.00  0.00    -0.463 N  
HETATM    7  H1  UNL     1     -11.566  10.250  67.998  1.00  0.00     0.000 HD 
HETATM    8  H2  UNL     1     -12.346  11.696  68.599  1.00  0.00     0.000 HD 
HETATM    9  C   UNL     1     -11.751   8.212  71.246  1.00  0.00    -0.279 C  
HETATM   10  H   UNL     1     -11.218   8.573  69.298  1.00  0.00     0.000 HD 
HETATM   11  O   UNL     1     -12.435   8.496  72.227  1.00  0.00    -0.359 OA 
ENDROOT
BRANCH   9  12
HETATM   12  C   UNL     1     -10.915   6.948  71.174  1.00  0.00    -0.284 C  
BRANCH  12  13
HETATM   13  C   UNL     1      -9.671   7.079  70.322  1.00  0.00    -0.177 A  
HETATM   14  C   UNL     1      -8.444   7.492  70.879  1.00  0.00    -0.125 A  
HETATM   15  C   UNL     1      -7.271   7.515  70.115  1.00  0.00    -0.068 A  
HETATM   16 CL   UNL     1      -8.307   7.983  72.532  1.00  0.00    -0.191 Cl 
HETATM   17  C   UNL     1      -7.298   7.140  68.776  1.00  0.00    -0.096 A  
HETATM   18  C   UNL     1      -8.507   6.780  68.191  1.00  0.00    -0.121 A  
HETATM   19  C   UNL     1      -9.684   6.762  68.950  1.00  0.00    -0.137 A  
HETATM   20 CL   UNL     1     -11.135   6.316  68.121  1.00  0.00    -0.409 Cl 
ENDBRANCH  12  13
ENDBRANCH   9  12
TORSDOF 2
ENDMDL
MODEL      210
REMARK 921   NORMALIZED FREE ENERGY PREDICTED BY IDOCK:   -3.29 KCAL/MOL
REMARK 922        TOTAL FREE ENERGY PREDICTED BY IDOCK:   -4.01 KCAL/MOL
REMARK 923 INTER-LIGAND FREE ENERGY PREDICTED BY IDOCK:   -3.78 KCAL/MOL
REMARK 924 INTRA-LIGAND FREE ENERGY PREDICTED BY IDOCK:   -0.23 KCAL/MOL
REMARK 927      BINDING AFFINITY PREDICTED BY RF-SCORE:    0.00 PKD
ROOT
HETATM    1  N   UNL     1     -12.922  15.662  70.141  1.00  0.00    -0.662 NA 
HETATM    2  C   UNL     1     -12.049  14.670  69.882  1.00  0.00    -0.335 C  
HETATM    3  H2  UNL     1     -13.652  15.492  70.832  1.00  0.00     0.000 HD 
HETATM    4  H1  UNL     1     -12.894  16.573  69.684  1.00  0.00     0.000 HD 
HETATM    5  N   UNL     1     -12.085  13.524  70.457  1.00  0.00    -0.445 NA 
HETATM    6  N   UNL     1     -11.054  14.830  68.968  1.00  0.00    -0.244 N  
HETATM    7  H1  UNL     1     -11.423  12.773  70.260  1.00  0.00     0.000 HD 
HETATM    8  H2  UNL     1     -12.815  13.354  71.148  1.00  0.00     0.000 HD 
HETATM    9  C   UNL     1     -10.762  15.970  68.242  1.00  0.00    -0.298 C  
HETATM   10  H   UNL     1     -10.457  14.020  68.800  1.00  0.00     0.000 HD 
HETATM   11  O   UNL     1     -11.261  17.071  68.468  1.00  0.00    -0.250 OA 
ENDROOT
BRANCH   9  12
HETATM   12  C   UNL     1      -9.746  15.747  67.137  1.00  0.00    -0.227 C  
BRANCH  12  13
HETATM   13  C   UNL     1      -8.590  14.855  67.535  1.00  0.00    -0.195 A  
HETATM   14  C   UNL     1      -8.531  13.508  67.123  1.00  0.00    -0.166 A  
HETATM   15  C   UNL     1      -7.414  12.712  67.402  1.00  0.00    -0.146 A  
HETATM   16 CL   UNL     1      -9.820  12.762  66.243  1.00  0.00    -0.264 Cl 
HETATM   17  C   UNL     1      -6.338  13.236  68.110  1.00  0.00    -0.110 A  
HETATM   18  C   UNL     1      -6.396  14.546  68.572  1.00  0.00    -0.088 A  
HETATM   19  C   UNL     1      -7.514  15.344  68.300  1.00  0.00    -0.111 A  
HETATM   20 CL   UNL     1      -7.492  16.953  68.936  1.00  0.00    -0.234 Cl 
ENDBRANCH  12  13
ENDBRANCH   9  12
TORSDOF 2
ENDMDL
MODEL      211
REMARK 921   NORMALIZED FREE ENERGY PREDICTED BY IDOCK:   -3.28 KCAL/MOL
REMARK 922        TOTAL FREE ENERGY PREDICTED BY IDOCK:   -4.01 KCAL/MOL
REMARK 923 INTER-LIGAND FREE ENERGY PREDICTED BY IDOCK:   -3.71 KCAL/MOL
REMARK 924 INTRA-LIGAND FREE ENERGY PREDICTED BY IDOCK:   -0.29 KCAL/MOL
REMARK 927      BINDING AFFINITY PREDICTED BY RF-SCORE:    0.00 PKD
ROOT
HETATM    1  N   UNL     1      -5.555  10.949  66.055  1.00  0.00    -0.131 NA 
HETATM    2  C   UNL     1      -6.496  10.763  65.111  1.00  0.00     0.109 C  
HETATM    3  H2  UNL     1      -4.582  10.768  65.807  1.00  0.00     0.000 HD 
HETATM    4  H1  UNL     1      -5.760  11.261  67.004  1.00  0.00     0.000 HD 
HETATM    5  N   UNL     1      -6.238  10.371  63.917  1.00  0.00    -0.295 NA 
HETATM    6  N   UNL     1      -7.812  10.982  65.378  1.00  0.00    -0.364 N  
HETATM    7  H1  UNL     1      -6.951  10.230  63.202  1.00  0.00     0.000 HD 
HETATM    8  H2  UNL     1      -5.265  10.190  63.670  1.00  0.00     0.000 HD 
HETATM    9  C   UNL     1      -8.359  11.447  66.560  1.00  0.00    -0.164 C  
HETATM   10  H   UNL     1      -8.468  10.782  64.622  1.00  0.00     0.000 HD 
HETATM   11  O   UNL     1      -7.694  11.908  67.485  1.00  0.00    -0.132 OA 
ENDROOT
BRANCH   9  12
HETATM   12  C   UNL     1      -9.872  11.353  66.610  1.00  0.00    -0.233 C  
BRANCH  12  13
HETATM   13  C   UNL     1     -10.537  12.501  67.338  1.00  0.00    -0.242 A  
HETATM   14  C   UNL     1     -10.721  13.752  66.717  1.00  0.00    -0.276 A  
HETATM   15  C   UNL     1     -11.427  14.781  67.350  1.00  0.00    -0.376 A  
HETATM   16 CL   UNL     1     -10.102  14.091  65.137  1.00  0.00    -0.373 Cl 
HETATM   17  C   UNL     1     -11.952  14.591  68.624  1.00  0.00    -0.320 A  
HETATM   18  C   UNL     1     -11.738  13.383  69.279  1.00  0.00    -0.383 A  
HETATM   19  C   UNL     1     -11.027  12.353  68.650  1.00  0.00    -0.247 A  
HETATM   20 CL   UNL     1     -10.802  10.899  69.559  1.00  0.00    -0.287 Cl 
ENDBRANCH  12  13
ENDBRANCH   9  12
TORSDOF 2
ENDMDL
MODEL      212
REMARK 921   NORMALIZED FREE ENERGY PREDICTED BY IDOCK:   -3.28 KCAL/MOL
REMARK 922        TOTAL FREE ENERGY PREDICTED BY IDOCK:   -4.00 KCAL/MOL
REMARK 923 INTER-LIGAND FREE ENERGY PREDICTED BY IDOCK:   -4.10 KCAL/MOL
REMARK 924 INTRA-LIGAND FREE ENERGY PREDICTED BY IDOCK:    0.10 KCAL/MOL
REMARK 927      BINDING AFFINITY PREDICTED BY RF-SCORE:    0.00 PKD
ROOT
HETATM    1  N   UNL     1     -13.151  13.477  65.424  1.00  0.00    -0.620 NA 
HETATM    2  C   UNL     1     -12.121  13.701  64.586  1.00  0.00    -0.412 C  
HETATM    3  H2  UNL     1     -14.098  13.568  65.057  1.00  0.00     0.000 HD 
HETATM    4  H1  UNL     1     -13.037  13.221  66.404  1.00  0.00     0.000 HD 
HETATM    5  N   UNL     1     -12.265  14.022  63.353  1.00  0.00    -1.112 NA 
HETATM    6  N   UNL     1     -10.833  13.601  65.014  1.00  0.00    -0.331 N  
HETATM    7  H1  UNL     1     -11.484  14.192  62.719  1.00  0.00     0.000 HD 
HETATM    8  H2  UNL     1     -13.212  14.113  62.986  1.00  0.00     0.000 HD 
HETATM    9  C   UNL     1     -10.397  13.230  66.273  1.00  0.00    -0.290 C  
HETATM   10  H   UNL     1     -10.110  13.823  64.330  1.00  0.00     0.000 HD 
HETATM   11  O   UNL     1     -11.131  12.753  67.137  1.00  0.00    -0.259 OA 
ENDROOT
BRANCH   9  12
HETATM   12  C   UNL     1      -8.912  13.449  66.493  1.00  0.00    -0.065 C  
BRANCH  12  13
HETATM   13  C   UNL     1      -8.240  12.355  67.294  1.00  0.00    -0.184 A  
HETATM   14  C   UNL     1      -8.288  11.009  66.876  1.00  0.00    -0.138 A  
HETATM   15  C   UNL     1      -7.580  10.012  67.558  1.00  0.00    -0.091 A  
HETATM   16 CL   UNL     1      -9.205  10.509  65.498  1.00  0.00    -0.205 Cl 
HETATM   17  C   UNL     1      -6.823  10.331  68.680  1.00  0.00    -0.057 A  
HETATM   18  C   UNL     1      -6.804  11.643  69.142  1.00  0.00    -0.111 A  
HETATM   19  C   UNL     1      -7.514  12.643  68.466  1.00  0.00    -0.121 A  
HETATM   20 CL   UNL     1      -7.437  14.236  69.133  1.00  0.00    -0.103 Cl 
ENDBRANCH  12  13
ENDBRANCH   9  12
TORSDOF 2
ENDMDL
MODEL      213
REMARK 921   NORMALIZED FREE ENERGY PREDICTED BY IDOCK:   -3.27 KCAL/MOL
REMARK 922        TOTAL FREE ENERGY PREDICTED BY IDOCK:   -3.98 KCAL/MOL
REMARK 923 INTER-LIGAND FREE ENERGY PREDICTED BY IDOCK:   -3.74 KCAL/MOL
REMARK 924 INTRA-LIGAND FREE ENERGY PREDICTED BY IDOCK:   -0.25 KCAL/MOL
REMARK 927      BINDING AFFINITY PREDICTED BY RF-SCORE:    0.00 PKD
ROOT
HETATM    1  N   UNL     1      -9.988   9.340  67.172  1.00  0.00    -0.200 NA 
HETATM    2  C   UNL     1     -10.866   9.467  68.185  1.00  0.00    -0.156 C  
HETATM    3  H2  UNL     1      -9.896  10.114  66.514  1.00  0.00     0.000 HD 
HETATM    4  H1  UNL     1      -9.409   8.513  67.027  1.00  0.00     0.000 HD 
HETATM    5  N   UNL     1     -11.594  10.507  68.368  1.00  0.00    -0.635 NA 
HETATM    6  N   UNL     1     -11.040   8.470  69.094  1.00  0.00    -0.423 N  
HETATM    7  H1  UNL     1     -12.259  10.603  69.134  1.00  0.00     0.000 HD 
HETATM    8  H2  UNL     1     -11.502  11.281  67.710  1.00  0.00     0.000 HD 
HETATM    9  C   UNL     1     -10.358   7.269  69.158  1.00  0.00    -0.205 C  
HETATM   10  H   UNL     1     -11.751   8.627  69.809  1.00  0.00     0.000 HD 
HETATM   11  O   UNL     1      -9.354   7.017  68.494  1.00  0.00    -0.137 OA 
ENDROOT
BRANCH   9  12
HETATM   12  C   UNL     1     -10.953   6.281  70.143  1.00  0.00    -0.411 C  
BRANCH  12  13
HETATM   13  C   UNL     1     -10.061   5.978  71.327  1.00  0.00    -0.237 A  
HETATM   14  C   UNL     1      -9.350   4.764  71.415  1.00  0.00    -0.147 A  
HETATM   15  C   UNL     1      -8.445   4.526  72.457  1.00  0.00    -0.114 A  
HETATM   16 CL   UNL     1      -9.537   3.505  70.243  1.00  0.00    -0.252 Cl 
HETATM   17  C   UNL     1      -8.241   5.485  73.442  1.00  0.00    -0.114 A  
HETATM   18  C   UNL     1      -8.972   6.669  73.406  1.00  0.00    -0.140 A  
HETATM   19  C   UNL     1      -9.881   6.908  72.368  1.00  0.00    -0.157 A  
HETATM   20 CL   UNL     1     -10.749   8.403  72.428  1.00  0.00    -0.409 Cl 
ENDBRANCH  12  13
ENDBRANCH   9  12
TORSDOF 2
ENDMDL
MODEL      214
REMARK 921   NORMALIZED FREE ENERGY PREDICTED BY IDOCK:   -3.26 KCAL/MOL
REMARK 922        TOTAL FREE ENERGY PREDICTED BY IDOCK:   -3.98 KCAL/MOL
REMARK 923 INTER-LIGAND FREE ENERGY PREDICTED BY IDOCK:   -3.63 KCAL/MOL
REMARK 924 INTRA-LIGAND FREE ENERGY PREDICTED BY IDOCK:   -0.35 KCAL/MOL
REMARK 927      BINDING AFFINITY PREDICTED BY RF-SCORE:    0.00 PKD
ROOT
HETATM    1  N   UNL     1      -8.861  11.645  65.773  1.00  0.00    -0.394 NA 
HETATM    2  C   UNL     1      -7.745  11.186  66.371  1.00  0.00    -0.124 C  
HETATM    3  H2  UNL     1      -8.842  12.582  65.372  1.00  0.00     0.000 HD 
HETATM    4  H1  UNL     1      -9.725  11.107  65.700  1.00  0.00     0.000 HD 
HETATM    5  N   UNL     1      -6.660  11.863  66.463  1.00  0.00    -0.374 NA 
HETATM    6  N   UNL     1      -7.706   9.947  66.930  1.00  0.00    -0.098 N  
HETATM    7  H1  UNL     1      -5.815  11.516  66.915  1.00  0.00     0.000 HD 
HETATM    8  H2  UNL     1      -6.641  12.800  66.061  1.00  0.00     0.000 HD 
HETATM    9  C   UNL     1      -8.713   8.999  66.934  1.00  0.00    -0.123 C  
HETATM   10  H   UNL     1      -6.837   9.687  67.397  1.00  0.00     0.000 HD 
HETATM   11  O   UNL     1      -9.736   9.087  66.257  1.00  0.00    -0.235 OA 
ENDROOT
BRANCH   9  12
HETATM   12  C   UNL     1      -8.437   7.818  67.845  1.00  0.00    -0.122 C  
BRANCH  12  13
HETATM   13  C   UNL     1      -9.490   7.601  68.910  1.00  0.00    -0.149 A  
HETATM   14  C   UNL     1     -10.568   6.716  68.701  1.00  0.00    -0.234 A  
HETATM   15  C   UNL     1     -11.484   6.435  69.721  1.00  0.00    -0.468 A  
HETATM   16 CL   UNL     1     -10.818   5.917  67.188  1.00  0.00    -0.386 Cl 
HETATM   17  C   UNL     1     -11.356   7.041  70.966  1.00  0.00    -0.325 A  
HETATM   18  C   UNL     1     -10.332   7.958  71.178  1.00  0.00    -0.225 A  
HETATM   19  C   UNL     1      -9.417   8.246  70.159  1.00  0.00    -0.167 A  
HETATM   20 CL   UNL     1      -8.193   9.413  70.522  1.00  0.00    -0.208 Cl 
ENDBRANCH  12  13
ENDBRANCH   9  12
TORSDOF 2
ENDMDL
MODEL      215
REMARK 921   NORMALIZED FREE ENERGY PREDICTED BY IDOCK:   -3.25 KCAL/MOL
REMARK 922        TOTAL FREE ENERGY PREDICTED BY IDOCK:   -3.97 KCAL/MOL
REMARK 923 INTER-LIGAND FREE ENERGY PREDICTED BY IDOCK:   -3.70 KCAL/MOL
REMARK 924 INTRA-LIGAND FREE ENERGY PREDICTED BY IDOCK:   -0.27 KCAL/MOL
REMARK 927      BINDING AFFINITY PREDICTED BY RF-SCORE:    0.00 PKD
ROOT
HETATM    1  N   UNL     1     -11.127   6.458  73.295  1.00  0.00    -0.462 NA 
HETATM    2  C   UNL     1     -11.698   7.410  72.533  1.00  0.00    -0.234 C  
HETATM    3  H2  UNL     1     -11.723   5.930  73.932  1.00  0.00     0.000 HD 
HETATM    4  H1  UNL     1     -10.132   6.235  73.270  1.00  0.00     0.000 HD 
HETATM    5  N   UNL     1     -12.949   7.690  72.565  1.00  0.00    -0.444 NA 
HETATM    6  N   UNL     1     -10.958   8.153  71.666  1.00  0.00    -0.240 N  
HETATM    7  H1  UNL     1     -13.381   8.411  71.988  1.00  0.00     0.000 HD 
HETATM    8  H2  UNL     1     -13.545   7.162  73.202  1.00  0.00     0.000 HD 
HETATM    9  C   UNL     1      -9.606   8.030  71.403  1.00  0.00    -0.154 C  
HETATM   10  H   UNL     1     -11.456   8.881  71.153  1.00  0.00     0.000 HD 
HETATM   11  O   UNL     1      -8.917   7.090  71.793  1.00  0.00    -0.134 OA 
ENDROOT
BRANCH   9  12
HETATM   12  C   UNL     1      -9.042   9.163  70.566  1.00  0.00    -0.284 C  
BRANCH  12  13
HETATM   13  C   UNL     1      -9.647   9.268  69.183  1.00  0.00    -0.161 A  
HETATM   14  C   UNL     1     -10.652  10.213  68.895  1.00  0.00    -0.215 A  
HETATM   15  C   UNL     1     -11.138  10.382  67.593  1.00  0.00    -0.361 A  
HETATM   16 CL   UNL     1     -11.336  11.226  70.119  1.00  0.00    -0.308 Cl 
HETATM   17  C   UNL     1     -10.644   9.602  66.552  1.00  0.00    -0.142 A  
HETATM   18  C   UNL     1      -9.690   8.627  66.823  1.00  0.00    -0.298 A  
HETATM   19  C   UNL     1      -9.206   8.451  68.125  1.00  0.00    -0.137 A  
HETATM   20 CL   UNL     1      -8.034   7.199  68.354  1.00  0.00    -0.122 Cl 
ENDBRANCH  12  13
ENDBRANCH   9  12
TORSDOF 2
ENDMDL
MODEL      216
REMARK 921   NORMALIZED FREE ENERGY PREDICTED BY IDOCK:   -3.23 KCAL/MOL
REMARK 922        TOTAL FREE ENERGY PREDICTED BY IDOCK:   -3.94 KCAL/MOL
REMARK 923 INTER-LIGAND FREE ENERGY PREDICTED BY IDOCK:   -3.60 KCAL/MOL
REMARK 924 INTRA-LIGAND FREE ENERGY PREDICTED BY IDOCK:   -0.34 KCAL/MOL
REMARK 927      BINDING AFFINITY PREDICTED BY RF-SCORE:    0.00 PKD
ROOT
HETATM    1  N   UNL     1      -6.151  13.889  71.485  1.00  0.00    -0.547 NA 
HETATM    2  C   UNL     1      -6.266  12.953  70.525  1.00  0.00     0.164 C  
HETATM    3  H2  UNL     1      -5.866  13.590  72.417  1.00  0.00     0.000 HD 
HETATM    4  H1  UNL     1      -6.333  14.881  71.332  1.00  0.00     0.000 HD 
HETATM    5  N   UNL     1      -6.038  11.705  70.717  1.00  0.00    -0.506 NA 
HETATM    6  N   UNL     1      -6.647  13.285  69.261  1.00  0.00    -0.140 N  
HETATM    7  H1  UNL     1      -6.125  10.996  69.990  1.00  0.00     0.000 HD 
HETATM    8  H2  UNL     1      -5.753  11.406  71.650  1.00  0.00     0.000 HD 
HETATM    9  C   UNL     1      -6.910  14.551  68.774  1.00  0.00    -0.094 C  
HETATM   10  H   UNL     1      -6.749  12.514  68.601  1.00  0.00     0.000 HD 
HETATM   11  O   UNL     1      -6.650  15.587  69.385  1.00  0.00    -0.136 OA 
ENDROOT
BRANCH   9  12
HETATM   12  C   UNL     1      -7.540  14.555  67.393  1.00  0.00    -0.209 C  
BRANCH  12  13
HETATM   13  C   UNL     1      -9.046  14.407  67.402  1.00  0.00    -0.202 A  
HETATM   14  C   UNL     1      -9.659  13.158  67.177  1.00  0.00    -0.235 A  
HETATM   15  C   UNL     1     -11.045  12.998  67.288  1.00  0.00    -0.303 A  
HETATM   16 CL   UNL     1      -8.743  11.748  66.766  1.00  0.00    -0.188 Cl 
HETATM   17  C   UNL     1     -11.853  14.084  67.609  1.00  0.00    -0.430 A  
HETATM   18  C   UNL     1     -11.276  15.337  67.784  1.00  0.00    -0.327 A  
HETATM   19  C   UNL     1      -9.891  15.502  67.668  1.00  0.00    -0.213 A  
HETATM   20 CL   UNL     1      -9.279  17.105  67.886  1.00  0.00    -0.238 Cl 
ENDBRANCH  12  13
ENDBRANCH   9  12
TORSDOF 2
ENDMDL
MODEL      217
REMARK 921   NORMALIZED FREE ENERGY PREDICTED BY IDOCK:   -3.20 KCAL/MOL
REMARK 922        TOTAL FREE ENERGY PREDICTED BY IDOCK:   -3.91 KCAL/MOL
REMARK 923 INTER-LIGAND FREE ENERGY PREDICTED BY IDOCK:   -3.56 KCAL/MOL
REMARK 924 INTRA-LIGAND FREE ENERGY PREDICTED BY IDOCK:   -0.36 KCAL/MOL
REMARK 927      BINDING AFFINITY PREDICTED BY RF-SCORE:    0.00 PKD
ROOT
HETATM    1  N   UNL     1     -11.447   4.561  65.142  1.00  0.00    -1.109 NA 
HETATM    2  C   UNL     1     -10.268   4.299  65.738  1.00  0.00    -0.186 C  
HETATM    3  H2  UNL     1     -11.820   3.872  64.490  1.00  0.00     0.000 HD 
HETATM    4  H1  UNL     1     -11.987   5.410  65.308  1.00  0.00     0.000 HD 
HETATM    5  N   UNL     1      -9.589   3.231  65.529  1.00  0.00    -0.335 NA 
HETATM    6  N   UNL     1      -9.713   5.178  66.615  1.00  0.00    -0.152 N  
HETATM    7  H1  UNL     1      -8.696   3.032  65.980  1.00  0.00     0.000 HD 
HETATM    8  H2  UNL     1      -9.962   2.542  64.876  1.00  0.00     0.000 HD 
HETATM    9  C   UNL     1     -10.249   6.376  67.050  1.00  0.00    -0.205 C  
HETATM   10  H   UNL     1      -8.800   4.925  66.994  1.00  0.00     0.000 HD 
HETATM   11  O   UNL     1     -11.409   6.723  66.836  1.00  0.00    -0.318 OA 
ENDROOT
BRANCH   9  12
HETATM   12  C   UNL     1      -9.275   7.230  67.840  1.00  0.00    -0.131 C  
BRANCH  12  13
HETATM   13  C   UNL     1      -8.717   8.405  67.067  1.00  0.00    -0.132 A  
HETATM   14  C   UNL     1      -7.511   8.298  66.345  1.00  0.00    -0.080 A  
HETATM   15  C   UNL     1      -7.048   9.350  65.547  1.00  0.00    -0.087 A  
HETATM   16 CL   UNL     1      -6.540   6.867  66.389  1.00  0.00    -0.050 Cl 
HETATM   17  C   UNL     1      -7.768  10.537  65.462  1.00  0.00    -0.127 A  
HETATM   18  C   UNL     1      -8.933  10.684  66.207  1.00  0.00    -0.180 A  
HETATM   19  C   UNL     1      -9.397   9.636  67.011  1.00  0.00    -0.147 A  
HETATM   20 CL   UNL     1     -10.845   9.931  67.909  1.00  0.00    -0.319 Cl 
ENDBRANCH  12  13
ENDBRANCH   9  12
TORSDOF 2
ENDMDL
MODEL      218
REMARK 921   NORMALIZED FREE ENERGY PREDICTED BY IDOCK:   -3.19 KCAL/MOL
REMARK 922        TOTAL FREE ENERGY PREDICTED BY IDOCK:   -3.90 KCAL/MOL
REMARK 923 INTER-LIGAND FREE ENERGY PREDICTED BY IDOCK:   -3.94 KCAL/MOL
REMARK 924 INTRA-LIGAND FREE ENERGY PREDICTED BY IDOCK:    0.04 KCAL/MOL
REMARK 927      BINDING AFFINITY PREDICTED BY RF-SCORE:    0.00 PKD
ROOT
HETATM    1  N   UNL     1     -12.579  10.607  70.484  1.00  0.00    -0.350 NA 
HETATM    2  C   UNL     1     -11.283  10.249  70.545  1.00  0.00    -0.330 C  
HETATM    3  H2  UNL     1     -12.835  11.387  69.878  1.00  0.00     0.000 HD 
HETATM    4  H1  UNL     1     -13.320  10.143  71.009  1.00  0.00     0.000 HD 
HETATM    5  N   UNL     1     -10.352  10.833  69.885  1.00  0.00    -0.437 NA 
HETATM    6  N   UNL     1     -10.875   9.221  71.338  1.00  0.00    -0.341 N  
HETATM    7  H1  UNL     1      -9.371  10.562  69.931  1.00  0.00     0.000 HD 
HETATM    8  H2  UNL     1     -10.608  11.613  69.279  1.00  0.00     0.000 HD 
HETATM    9  C   UNL     1     -11.670   8.399  72.116  1.00  0.00    -0.375 C  
HETATM   10  H   UNL     1      -9.872   9.036  71.360  1.00  0.00     0.000 HD 
HETATM   11  O   UNL     1     -12.898   8.373  72.048  1.00  0.00    -0.327 OA 
ENDROOT
BRANCH   9  12
HETATM   12  C   UNL     1     -10.885   7.508  73.060  1.00  0.00    -0.445 C  
BRANCH  12  13
HETATM   13  C   UNL     1      -9.647   6.895  72.444  1.00  0.00    -0.167 A  
HETATM   14  C   UNL     1      -8.371   7.109  73.002  1.00  0.00    -0.106 A  
HETATM   15  C   UNL     1      -7.238   6.460  72.496  1.00  0.00    -0.083 A  
HETATM   16 CL   UNL     1      -8.124   8.168  74.348  1.00  0.00    -0.306 Cl 
HETATM   17  C   UNL     1      -7.351   5.596  71.412  1.00  0.00    -0.083 A  
HETATM   18  C   UNL     1      -8.592   5.411  70.811  1.00  0.00    -0.131 A  
HETATM   19  C   UNL     1      -9.725   6.063  71.311  1.00  0.00    -0.172 A  
HETATM   20 CL   UNL     1     -11.214   5.777  70.479  1.00  0.00    -0.290 Cl 
ENDBRANCH  12  13
ENDBRANCH   9  12
TORSDOF 2
ENDMDL
MODEL      219
REMARK 921   NORMALIZED FREE ENERGY PREDICTED BY IDOCK:   -3.18 KCAL/MOL
REMARK 922        TOTAL FREE ENERGY PREDICTED BY IDOCK:   -3.89 KCAL/MOL
REMARK 923 INTER-LIGAND FREE ENERGY PREDICTED BY IDOCK:   -3.70 KCAL/MOL
REMARK 924 INTRA-LIGAND FREE ENERGY PREDICTED BY IDOCK:   -0.19 KCAL/MOL
REMARK 927      BINDING AFFINITY PREDICTED BY RF-SCORE:    0.00 PKD
ROOT
HETATM    1  N   UNL     1     -11.001   6.824  73.573  1.00  0.00    -0.512 NA 
HETATM    2  C   UNL     1     -11.462   6.683  72.317  1.00  0.00    -0.283 C  
HETATM    3  H2  UNL     1     -11.678   6.970  74.321  1.00  0.00     0.000 HD 
HETATM    4  H1  UNL     1     -10.011   6.793  73.819  1.00  0.00     0.000 HD 
HETATM    5  N   UNL     1     -12.706   6.722  72.007  1.00  0.00    -0.541 NA 
HETATM    6  N   UNL     1     -10.610   6.490  71.273  1.00  0.00    -0.223 N  
HETATM    7  H1  UNL     1     -13.055   6.615  71.055  1.00  0.00     0.000 HD 
HETATM    8  H2  UNL     1     -13.384   6.868  72.755  1.00  0.00     0.000 HD 
HETATM    9  C   UNL     1      -9.234   6.364  71.330  1.00  0.00    -0.156 C  
HETATM   10  H   UNL     1     -11.034   6.431  70.347  1.00  0.00     0.000 HD 
HETATM   11  O   UNL     1      -8.603   6.224  72.376  1.00  0.00    -0.122 OA 
ENDROOT
BRANCH   9  12
HETATM   12  C   UNL     1      -8.562   6.398  69.970  1.00  0.00    -0.135 C  
BRANCH  12  13
HETATM   13  C   UNL     1      -9.184   7.377  68.998  1.00  0.00    -0.146 A  
HETATM   14  C   UNL     1      -9.967   6.932  67.913  1.00  0.00    -0.147 A  
HETATM   15  C   UNL     1     -10.627   7.838  67.075  1.00  0.00    -0.396 A  
HETATM   16 CL   UNL     1     -10.171   5.252  67.558  1.00  0.00    -0.227 Cl 
HETATM   17  C   UNL     1     -10.510   9.207  67.290  1.00  0.00    -0.335 A  
HETATM   18  C   UNL     1      -9.701   9.670  68.322  1.00  0.00    -0.162 A  
HETATM   19  C   UNL     1      -9.034   8.768  69.159  1.00  0.00    -0.137 A  
HETATM   20 CL   UNL     1      -8.039   9.449  70.399  1.00  0.00    -0.177 Cl 
ENDBRANCH  12  13
ENDBRANCH   9  12
TORSDOF 2
ENDMDL
MODEL      220
REMARK 921   NORMALIZED FREE ENERGY PREDICTED BY IDOCK:   -3.18 KCAL/MOL
REMARK 922        TOTAL FREE ENERGY PREDICTED BY IDOCK:   -3.89 KCAL/MOL
REMARK 923 INTER-LIGAND FREE ENERGY PREDICTED BY IDOCK:   -3.68 KCAL/MOL
REMARK 924 INTRA-LIGAND FREE ENERGY PREDICTED BY IDOCK:   -0.22 KCAL/MOL
REMARK 927      BINDING AFFINITY PREDICTED BY RF-SCORE:    0.00 PKD
ROOT
HETATM    1  N   UNL     1     -10.569   5.581  69.330  1.00  0.00    -0.273 NA 
HETATM    2  C   UNL     1     -10.855   6.559  68.451  1.00  0.00    -0.289 C  
HETATM    3  H2  UNL     1     -10.698   4.614  69.032  1.00  0.00     0.000 HD 
HETATM    4  H1  UNL     1     -10.230   5.752  70.276  1.00  0.00     0.000 HD 
HETATM    5  N   UNL     1     -11.281   6.344  67.260  1.00  0.00    -0.689 NA 
HETATM    6  N   UNL     1     -10.709   7.870  68.786  1.00  0.00    -0.394 N  
HETATM    7  H1  UNL     1     -11.497   7.085  66.595  1.00  0.00     0.000 HD 
HETATM    8  H2  UNL     1     -11.410   5.377  66.963  1.00  0.00     0.000 HD 
HETATM    9  C   UNL     1     -10.229   8.379  69.979  1.00  0.00    -0.202 C  
HETATM   10  H   UNL     1     -10.983   8.553  68.079  1.00  0.00     0.000 HD 
HETATM   11  O   UNL     1      -9.686   7.694  70.845  1.00  0.00    -0.172 OA 
ENDROOT
BRANCH   9  12
HETATM   12  C   UNL     1     -10.417   9.878  70.123  1.00  0.00    -0.339 C  
BRANCH  12  13
HETATM   13  C   UNL     1      -9.587  10.698  69.159  1.00  0.00    -0.193 A  
HETATM   14  C   UNL     1     -10.186  11.394  68.090  1.00  0.00    -0.187 A  
HETATM   15  C   UNL     1      -9.435  12.236  67.261  1.00  0.00    -0.186 A  
HETATM   16 CL   UNL     1     -11.876  11.266  67.743  1.00  0.00    -0.253 Cl 
HETATM   17  C   UNL     1      -8.068  12.390  67.469  1.00  0.00    -0.173 A  
HETATM   18  C   UNL     1      -7.447  11.671  68.485  1.00  0.00    -0.113 A  
HETATM   19  C   UNL     1      -8.193  10.824  69.313  1.00  0.00    -0.078 A  
HETATM   20 CL   UNL     1      -7.320   9.965  70.533  1.00  0.00    -0.136 Cl 
ENDBRANCH  12  13
ENDBRANCH   9  12
TORSDOF 2
ENDMDL
MODEL      221
REMARK 921   NORMALIZED FREE ENERGY PREDICTED BY IDOCK:   -3.18 KCAL/MOL
REMARK 922        TOTAL FREE ENERGY PREDICTED BY IDOCK:   -3.89 KCAL/MOL
REMARK 923 INTER-LIGAND FREE ENERGY PREDICTED BY IDOCK:   -3.55 KCAL/MOL
REMARK 924 INTRA-LIGAND FREE ENERGY PREDICTED BY IDOCK:   -0.34 KCAL/MOL
REMARK 927      BINDING AFFINITY PREDICTED BY RF-SCORE:    0.00 PKD
ROOT
HETATM    1  N   UNL     1      -6.097  15.036  67.967  1.00  0.00    -0.139 NA 
HETATM    2  C   UNL     1      -7.316  15.282  68.483  1.00  0.00    -0.119 C  
HETATM    3  H2  UNL     1      -5.351  15.705  68.153  1.00  0.00     0.000 HD 
HETATM    4  H1  UNL     1      -5.879  14.216  67.401  1.00  0.00     0.000 HD 
HETATM    5  N   UNL     1      -7.590  16.313  69.196  1.00  0.00    -0.227 NA 
HETATM    6  N   UNL     1      -8.355  14.432  68.269  1.00  0.00    -0.151 N  
HETATM    7  H1  UNL     1      -8.513  16.499  69.587  1.00  0.00     0.000 HD 
HETATM    8  H2  UNL     1      -6.844  16.983  69.382  1.00  0.00     0.000 HD 
HETATM    9  C   UNL     1      -8.326  13.233  67.579  1.00  0.00    -0.186 C  
HETATM   10  H   UNL     1      -9.256  14.708  68.661  1.00  0.00     0.000 HD 
HETATM   11  O   UNL     1      -7.290  12.678  67.219  1.00  0.00    -0.148 OA 
ENDROOT
BRANCH   9  12
HETATM   12  C   UNL     1      -9.700  12.646  67.318  1.00  0.00    -0.207 C  
BRANCH  12  13
HETATM   13  C   UNL     1      -9.961  12.311  65.865  1.00  0.00    -0.272 A  
HETATM   14  C   UNL     1      -9.731  11.015  65.361  1.00  0.00    -0.232 A  
HETATM   15  C   UNL     1     -10.070  10.678  64.045  1.00  0.00    -0.378 A  
HETATM   16 CL   UNL     1      -9.034   9.764  66.331  1.00  0.00    -0.166 Cl 
HETATM   17  C   UNL     1     -10.630  11.628  63.199  1.00  0.00    -0.341 A  
HETATM   18  C   UNL     1     -10.817  12.928  63.658  1.00  0.00    -0.270 A  
HETATM   19  C   UNL     1     -10.474  13.271  64.972  1.00  0.00    -0.353 A  
HETATM   20 CL   UNL     1     -10.731  14.917  65.435  1.00  0.00    -0.360 Cl 
ENDBRANCH  12  13
ENDBRANCH   9  12
TORSDOF 2
ENDMDL
MODEL      222
REMARK 921   NORMALIZED FREE ENERGY PREDICTED BY IDOCK:   -3.15 KCAL/MOL
REMARK 922        TOTAL FREE ENERGY PREDICTED BY IDOCK:   -3.85 KCAL/MOL
REMARK 923 INTER-LIGAND FREE ENERGY PREDICTED BY IDOCK:   -3.54 KCAL/MOL
REMARK 924 INTRA-LIGAND FREE ENERGY PREDICTED BY IDOCK:   -0.31 KCAL/MOL
REMARK 927      BINDING AFFINITY PREDICTED BY RF-SCORE:    0.00 PKD
ROOT
HETATM    1  N   UNL     1      -9.453   4.465  67.386  1.00  0.00    -0.159 NA 
HETATM    2  C   UNL     1      -9.881   5.482  66.616  1.00  0.00    -0.170 C  
HETATM    3  H2  UNL     1      -9.890   3.552  67.265  1.00  0.00     0.000 HD 
HETATM    4  H1  UNL     1      -8.715   4.556  68.084  1.00  0.00     0.000 HD 
HETATM    5  N   UNL     1     -10.809   5.368  65.738  1.00  0.00    -0.642 NA 
HETATM    6  N   UNL     1      -9.342   6.726  66.732  1.00  0.00    -0.155 N  
HETATM    7  H1  UNL     1     -11.133   6.138  65.155  1.00  0.00     0.000 HD 
HETATM    8  H2  UNL     1     -11.247   4.454  65.617  1.00  0.00     0.000 HD 
HETATM    9  C   UNL     1      -8.306   7.115  67.561  1.00  0.00    -0.116 C  
HETATM   10  H   UNL     1      -9.747   7.453  66.141  1.00  0.00     0.000 HD 
HETATM   11  O   UNL     1      -7.598   6.326  68.184  1.00  0.00    -0.098 OA 
ENDROOT
BRANCH   9  12
HETATM   12  C   UNL     1      -8.105   8.617  67.624  1.00  0.00    -0.107 C  
BRANCH  12  13
HETATM   13  C   UNL     1      -9.262   9.369  68.246  1.00  0.00    -0.133 A  
HETATM   14  C   UNL     1     -10.232  10.008  67.448  1.00  0.00    -0.219 A  
HETATM   15  C   UNL     1     -11.357  10.614  68.019  1.00  0.00    -0.350 A  
HETATM   16 CL   UNL     1     -10.103  10.072  65.724  1.00  0.00    -0.341 Cl 
HETATM   17  C   UNL     1     -11.532  10.611  69.399  1.00  0.00    -0.356 A  
HETATM   18  C   UNL     1     -10.561  10.033  70.210  1.00  0.00    -0.354 A  
HETATM   19  C   UNL     1      -9.431   9.431  69.643  1.00  0.00    -0.189 A  
HETATM   20 CL   UNL     1      -8.278   8.758  70.741  1.00  0.00    -0.154 Cl 
ENDBRANCH  12  13
ENDBRANCH   9  12
TORSDOF 2
ENDMDL
MODEL      223
REMARK 921   NORMALIZED FREE ENERGY PREDICTED BY IDOCK:   -3.13 KCAL/MOL
REMARK 922        TOTAL FREE ENERGY PREDICTED BY IDOCK:   -3.84 KCAL/MOL
REMARK 923 INTER-LIGAND FREE ENERGY PREDICTED BY IDOCK:   -3.59 KCAL/MOL
REMARK 924 INTRA-LIGAND FREE ENERGY PREDICTED BY IDOCK:   -0.24 KCAL/MOL
REMARK 927      BINDING AFFINITY PREDICTED BY RF-SCORE:    0.00 PKD
ROOT
HETATM    1  N   UNL     1     -10.204  10.344  66.080  1.00  0.00    -0.243 NA 
HETATM    2  C   UNL     1     -11.000  10.092  67.135  1.00  0.00    -0.134 C  
HETATM    3  H2  UNL     1     -10.129  11.307  65.751  1.00  0.00     0.000 HD 
HETATM    4  H1  UNL     1      -9.670   9.626  65.590  1.00  0.00     0.000 HD 
HETATM    5  N   UNL     1     -11.671  10.996  67.751  1.00  0.00    -0.614 NA 
HETATM    6  N   UNL     1     -11.147   8.829  67.620  1.00  0.00    -0.413 N  
HETATM    7  H1  UNL     1     -12.274  10.805  68.551  1.00  0.00     0.000 HD 
HETATM    8  H2  UNL     1     -11.596  11.958  67.423  1.00  0.00     0.000 HD 
HETATM    9  C   UNL     1     -10.511   7.685  67.176  1.00  0.00    -0.342 C  
HETATM   10  H   UNL     1     -11.797   8.714  68.397  1.00  0.00     0.000 HD 
HETATM   11  O   UNL     1      -9.568   7.690  66.385  1.00  0.00    -0.200 OA 
ENDROOT
BRANCH   9  12
HETATM   12  C   UNL     1     -11.071   6.406  67.768  1.00  0.00    -0.376 C  
BRANCH  12  13
HETATM   13  C   UNL     1     -10.039   5.320  67.980  1.00  0.00    -0.208 A  
HETATM   14  C   UNL     1      -9.686   4.434  66.942  1.00  0.00    -0.210 A  
HETATM   15  C   UNL     1      -8.659   3.498  67.104  1.00  0.00    -0.117 A  
HETATM   16 CL   UNL     1     -10.484   4.456  65.407  1.00  0.00    -0.267 Cl 
HETATM   17  C   UNL     1      -7.971   3.412  68.310  1.00  0.00    -0.072 A  
HETATM   18  C   UNL     1      -8.338   4.239  69.367  1.00  0.00    -0.078 A  
HETATM   19  C   UNL     1      -9.369   5.173  69.210  1.00  0.00    -0.123 A  
HETATM   20 CL   UNL     1      -9.756   6.140  70.591  1.00  0.00    -0.194 Cl 
ENDBRANCH  12  13
ENDBRANCH   9  12
TORSDOF 2
ENDMDL
MODEL      224
REMARK 921   NORMALIZED FREE ENERGY PREDICTED BY IDOCK:   -3.12 KCAL/MOL
REMARK 922        TOTAL FREE ENERGY PREDICTED BY IDOCK:   -3.82 KCAL/MOL
REMARK 923 INTER-LIGAND FREE ENERGY PREDICTED BY IDOCK:   -3.63 KCAL/MOL
REMARK 924 INTRA-LIGAND FREE ENERGY PREDICTED BY IDOCK:   -0.20 KCAL/MOL
REMARK 927      BINDING AFFINITY PREDICTED BY RF-SCORE:    0.00 PKD
ROOT
HETATM    1  N   UNL     1     -10.504   7.225  74.020  1.00  0.00    -0.497 NA 
HETATM    2  C   UNL     1     -11.136   7.473  72.858  1.00  0.00    -0.375 C  
HETATM    3  H2  UNL     1     -11.000   7.420  74.889  1.00  0.00     0.000 HD 
HETATM    4  H1  UNL     1      -9.556   6.853  74.079  1.00  0.00     0.000 HD 
HETATM    5  N   UNL     1     -12.328   7.941  72.783  1.00  0.00    -0.591 NA 
HETATM    6  N   UNL     1     -10.529   7.239  71.663  1.00  0.00    -0.199 N  
HETATM    7  H1  UNL     1     -12.807   8.128  71.903  1.00  0.00     0.000 HD 
HETATM    8  H2  UNL     1     -12.824   8.136  73.652  1.00  0.00     0.000 HD 
HETATM    9  C   UNL     1      -9.272   6.700  71.456  1.00  0.00    -0.146 C  
HETATM   10  H   UNL     1     -11.059   7.489  70.828  1.00  0.00     0.000 HD 
HETATM   11  O   UNL     1      -8.598   6.179  72.342  1.00  0.00    -0.120 OA 
ENDROOT
BRANCH   9  12
HETATM   12  C   UNL     1      -8.798   6.792  70.017  1.00  0.00    -0.142 C  
BRANCH  12  13
HETATM   13  C   UNL     1      -9.290   8.021  69.284  1.00  0.00    -0.151 A  
HETATM   14  C   UNL     1      -8.666   9.273  69.456  1.00  0.00    -0.146 A  
HETATM   15  C   UNL     1      -9.053  10.387  68.701  1.00  0.00    -0.157 A  
HETATM   16 CL   UNL     1      -7.384   9.510  70.592  1.00  0.00    -0.141 Cl 
HETATM   17  C   UNL     1     -10.081  10.281  67.769  1.00  0.00    -0.213 A  
HETATM   18  C   UNL     1     -10.746   9.068  67.621  1.00  0.00    -0.232 A  
HETATM   19  C   UNL     1     -10.366   7.954  68.378  1.00  0.00    -0.199 A  
HETATM   20 CL   UNL     1     -11.270   6.501  68.128  1.00  0.00    -0.318 Cl 
ENDBRANCH  12  13
ENDBRANCH   9  12
TORSDOF 2
ENDMDL
MODEL      225
REMARK 921   NORMALIZED FREE ENERGY PREDICTED BY IDOCK:   -3.12 KCAL/MOL
REMARK 922        TOTAL FREE ENERGY PREDICTED BY IDOCK:   -3.82 KCAL/MOL
REMARK 923 INTER-LIGAND FREE ENERGY PREDICTED BY IDOCK:   -3.50 KCAL/MOL
REMARK 924 INTRA-LIGAND FREE ENERGY PREDICTED BY IDOCK:   -0.32 KCAL/MOL
REMARK 927      BINDING AFFINITY PREDICTED BY RF-SCORE:    0.00 PKD
ROOT
HETATM    1  N   UNL     1     -10.061   6.199  66.168  1.00  0.00    -0.406 NA 
HETATM    2  C   UNL     1      -8.846   6.473  66.678  1.00  0.00    -0.132 C  
HETATM    3  H2  UNL     1     -10.120   5.538  65.393  1.00  0.00     0.000 HD 
HETATM    4  H1  UNL     1     -10.926   6.615  66.513  1.00  0.00     0.000 HD 
HETATM    5  N   UNL     1      -7.759   5.950  66.244  1.00  0.00    -0.100 NA 
HETATM    6  N   UNL     1      -8.698   7.349  67.708  1.00  0.00    -0.126 N  
HETATM    7  H1  UNL     1      -6.838   6.157  66.631  1.00  0.00     0.000 HD 
HETATM    8  H2  UNL     1      -7.818   5.289  65.469  1.00  0.00     0.000 HD 
HETATM    9  C   UNL     1      -9.700   8.016  68.389  1.00  0.00    -0.158 C  
HETATM   10  H   UNL     1      -7.742   7.533  68.014  1.00  0.00     0.000 HD 
HETATM   11  O   UNL     1     -10.896   7.759  68.268  1.00  0.00    -0.086 OA 
ENDROOT
BRANCH   9  12
HETATM   12  C   UNL     1      -9.188   9.098  69.322  1.00  0.00    -0.146 C  
BRANCH  12  13
HETATM   13  C   UNL     1      -9.987  10.382  69.275  1.00  0.00    -0.246 A  
HETATM   14  C   UNL     1      -9.725  11.369  68.303  1.00  0.00    -0.202 A  
HETATM   15  C   UNL     1     -10.529  12.510  68.193  1.00  0.00    -0.238 A  
HETATM   16 CL   UNL     1      -8.413  11.231  67.185  1.00  0.00    -0.144 Cl 
HETATM   17  C   UNL     1     -11.602  12.699  69.058  1.00  0.00    -0.367 A  
HETATM   18  C   UNL     1     -11.847  11.764  70.058  1.00  0.00    -0.422 A  
HETATM   19  C   UNL     1     -11.041  10.625  70.176  1.00  0.00    -0.268 A  
HETATM   20 CL   UNL     1     -11.421   9.536  71.464  1.00  0.00    -0.461 Cl 
ENDBRANCH  12  13
ENDBRANCH   9  12
TORSDOF 2
ENDMDL
MODEL      226
REMARK 921   NORMALIZED FREE ENERGY PREDICTED BY IDOCK:   -3.09 KCAL/MOL
REMARK 922        TOTAL FREE ENERGY PREDICTED BY IDOCK:   -3.79 KCAL/MOL
REMARK 923 INTER-LIGAND FREE ENERGY PREDICTED BY IDOCK:   -3.52 KCAL/MOL
REMARK 924 INTRA-LIGAND FREE ENERGY PREDICTED BY IDOCK:   -0.26 KCAL/MOL
REMARK 927      BINDING AFFINITY PREDICTED BY RF-SCORE:    0.00 PKD
ROOT
HETATM    1  N   UNL     1      -7.635  10.217  64.483  1.00  0.00    -0.244 NA 
HETATM    2  C   UNL     1      -8.853  10.496  64.984  1.00  0.00    -0.191 C  
HETATM    3  H2  UNL     1      -7.583   9.685  63.614  1.00  0.00     0.000 HD 
HETATM    4  H1  UNL     1      -6.763  10.508  64.923  1.00  0.00     0.000 HD 
HETATM    5  N   UNL     1      -9.951  10.130  64.431  1.00  0.00    -0.377 NA 
HETATM    6  N   UNL     1      -8.993  11.198  66.142  1.00  0.00    -0.191 N  
HETATM    7  H1  UNL     1     -10.873  10.342  64.811  1.00  0.00     0.000 HD 
HETATM    8  H2  UNL     1      -9.898   9.599  63.562  1.00  0.00     0.000 HD 
HETATM    9  C   UNL     1      -7.985  11.745  66.914  1.00  0.00    -0.149 C  
HETATM   10  H   UNL     1      -9.947  11.335  66.477  1.00  0.00     0.000 HD 
HETATM   11  O   UNL     1      -6.813  11.830  66.548  1.00  0.00    -0.043 OA 
ENDROOT
BRANCH   9  12
HETATM   12  C   UNL     1      -8.457  12.257  68.262  1.00  0.00    -0.173 C  
BRANCH  12  13
HETATM   13  C   UNL     1      -9.637  13.201  68.184  1.00  0.00    -0.227 A  
HETATM   14  C   UNL     1     -10.941  12.770  68.501  1.00  0.00    -0.258 A  
HETATM   15  C   UNL     1     -12.015  13.666  68.530  1.00  0.00    -0.396 A  
HETATM   16 CL   UNL     1     -11.293  11.120  68.884  1.00  0.00    -0.307 Cl 
HETATM   17  C   UNL     1     -11.817  15.010  68.228  1.00  0.00    -0.295 A  
HETATM   18  C   UNL     1     -10.549  15.448  67.861  1.00  0.00    -0.267 A  
HETATM   19  C   UNL     1      -9.473  14.553  67.825  1.00  0.00    -0.210 A  
HETATM   20 CL   UNL     1      -7.944  15.198  67.338  1.00  0.00    -0.196 Cl 
ENDBRANCH  12  13
ENDBRANCH   9  12
TORSDOF 2
ENDMDL
MODEL      227
REMARK 921   NORMALIZED FREE ENERGY PREDICTED BY IDOCK:   -3.05 KCAL/MOL
REMARK 922        TOTAL FREE ENERGY PREDICTED BY IDOCK:   -3.74 KCAL/MOL
REMARK 923 INTER-LIGAND FREE ENERGY PREDICTED BY IDOCK:   -3.63 KCAL/MOL
REMARK 924 INTRA-LIGAND FREE ENERGY PREDICTED BY IDOCK:   -0.11 KCAL/MOL
REMARK 927      BINDING AFFINITY PREDICTED BY RF-SCORE:    0.00 PKD
ROOT
HETATM    1  N   UNL     1     -10.373  14.446  67.954  1.00  0.00    -0.230 NA 
HETATM    2  C   UNL     1     -10.504  14.526  66.616  1.00  0.00    -0.274 C  
HETATM    3  H2  UNL     1     -10.118  15.291  68.464  1.00  0.00     0.000 HD 
HETATM    4  H1  UNL     1     -10.516  13.588  68.485  1.00  0.00     0.000 HD 
HETATM    5  N   UNL     1     -10.325  15.606  65.948  1.00  0.00    -0.326 NA 
HETATM    6  N   UNL     1     -10.838  13.435  65.876  1.00  0.00    -0.273 N  
HETATM    7  H1  UNL     1     -10.424  15.667  64.935  1.00  0.00     0.000 HD 
HETATM    8  H2  UNL     1     -10.069  16.452  66.458  1.00  0.00     0.000 HD 
HETATM    9  C   UNL     1     -11.129  12.166  66.343  1.00  0.00    -0.314 C  
HETATM   10  H   UNL     1     -10.880  13.567  64.865  1.00  0.00     0.000 HD 
HETATM   11  O   UNL     1     -11.306  11.898  67.530  1.00  0.00    -0.273 OA 
ENDROOT
BRANCH   9  12
HETATM   12  C   UNL     1     -11.229  11.121  65.247  1.00  0.00     0.019 C  
BRANCH  12  13
HETATM   13  C   UNL     1      -9.997  10.252  65.110  1.00  0.00    -0.395 A  
HETATM   14  C   UNL     1      -9.086  10.439  64.051  1.00  0.00    -0.242 A  
HETATM   15  C   UNL     1      -7.895   9.706  63.981  1.00  0.00    -0.137 A  
HETATM   16 CL   UNL     1      -9.371  11.585  62.787  1.00  0.00    -0.349 Cl 
HETATM   17  C   UNL     1      -7.593   8.761  64.955  1.00  0.00    -0.100 A  
HETATM   18  C   UNL     1      -8.503   8.522  65.980  1.00  0.00    -0.150 A  
HETATM   19  C   UNL     1      -9.698   9.248  66.051  1.00  0.00    -0.289 A  
HETATM   20 CL   UNL     1     -10.765   8.860  67.355  1.00  0.00    -0.300 Cl 
ENDBRANCH  12  13
ENDBRANCH   9  12
TORSDOF 2
ENDMDL
MODEL      228
REMARK 921   NORMALIZED FREE ENERGY PREDICTED BY IDOCK:   -3.04 KCAL/MOL
REMARK 922        TOTAL FREE ENERGY PREDICTED BY IDOCK:   -3.73 KCAL/MOL
REMARK 923 INTER-LIGAND FREE ENERGY PREDICTED BY IDOCK:   -3.60 KCAL/MOL
REMARK 924 INTRA-LIGAND FREE ENERGY PREDICTED BY IDOCK:   -0.14 KCAL/MOL
REMARK 927      BINDING AFFINITY PREDICTED BY RF-SCORE:    0.00 PKD
ROOT
HETATM    1  N   UNL     1     -11.080   6.833  66.728  1.00  0.00    -0.642 NA 
HETATM    2  C   UNL     1     -10.841   6.724  68.048  1.00  0.00    -0.235 C  
HETATM    3  H2  UNL     1     -11.270   5.980  66.201  1.00  0.00     0.000 HD 
HETATM    4  H1  UNL     1     -11.082   7.720  66.225  1.00  0.00     0.000 HD 
HETATM    5  N   UNL     1     -10.838   5.608  68.680  1.00  0.00    -0.190 NA 
HETATM    6  N   UNL     1     -10.577   7.821  68.808  1.00  0.00    -0.340 N  
HETATM    7  H1  UNL     1     -10.657   5.526  69.680  1.00  0.00     0.000 HD 
HETATM    8  H2  UNL     1     -11.028   4.755  68.154  1.00  0.00     0.000 HD 
HETATM    9  C   UNL     1     -10.560   9.140  68.393  1.00  0.00    -0.172 C  
HETATM   10  H   UNL     1     -10.368   7.653  69.792  1.00  0.00     0.000 HD 
HETATM   11  O   UNL     1     -10.973   9.517  67.297  1.00  0.00    -0.203 OA 
ENDROOT
BRANCH   9  12
HETATM   12  C   UNL     1      -9.998  10.099  69.426  1.00  0.00    -0.247 C  
BRANCH  12  13
HETATM   13  C   UNL     1      -8.956   9.483  70.335  1.00  0.00    -0.291 A  
HETATM   14  C   UNL     1      -7.591   9.476  69.982  1.00  0.00    -0.133 A  
HETATM   15  C   UNL     1      -6.615   9.001  70.866  1.00  0.00    -0.068 A  
HETATM   16 CL   UNL     1      -7.037  10.061  68.452  1.00  0.00    -0.071 Cl 
HETATM   17  C   UNL     1      -6.979   8.508  72.115  1.00  0.00    -0.096 A  
HETATM   18  C   UNL     1      -8.325   8.456  72.463  1.00  0.00    -0.213 A  
HETATM   19  C   UNL     1      -9.305   8.925  71.579  1.00  0.00    -0.265 A  
HETATM   20 CL   UNL     1     -10.948   8.798  72.104  1.00  0.00    -0.434 Cl 
ENDBRANCH  12  13
ENDBRANCH   9  12
TORSDOF 2
ENDMDL
MODEL      229
REMARK 921   NORMALIZED FREE ENERGY PREDICTED BY IDOCK:   -3.04 KCAL/MOL
REMARK 922        TOTAL FREE ENERGY PREDICTED BY IDOCK:   -3.73 KCAL/MOL
REMARK 923 INTER-LIGAND FREE ENERGY PREDICTED BY IDOCK:   -3.89 KCAL/MOL
REMARK 924 INTRA-LIGAND FREE ENERGY PREDICTED BY IDOCK:    0.16 KCAL/MOL
REMARK 927      BINDING AFFINITY PREDICTED BY RF-SCORE:    0.00 PKD
ROOT
HETATM    1  N   UNL     1      -7.843  10.853  65.751  1.00  0.00    -0.317 NA 
HETATM    2  C   UNL     1      -9.048  11.402  65.989  1.00  0.00    -0.208 C  
HETATM    3  H2  UNL     1      -7.294  11.216  64.971  1.00  0.00     0.000 HD 
HETATM    4  H1  UNL     1      -7.447  10.095  66.306  1.00  0.00     0.000 HD 
HETATM    5  N   UNL     1      -9.546  12.356  65.291  1.00  0.00    -0.450 NA 
HETATM    6  N   UNL     1      -9.832  10.961  67.011  1.00  0.00    -0.179 N  
HETATM    7  H1  UNL     1     -10.459  12.771  65.472  1.00  0.00     0.000 HD 
HETATM    8  H2  UNL     1      -8.997  12.719  64.512  1.00  0.00     0.000 HD 
HETATM    9  C   UNL     1      -9.523   9.982  67.938  1.00  0.00    -0.144 C  
HETATM   10  H   UNL     1     -10.748  11.401  67.103  1.00  0.00     0.000 HD 
HETATM   11  O   UNL     1      -8.400   9.500  68.075  1.00  0.00    -0.117 OA 
ENDROOT
BRANCH   9  12
HETATM   12  C   UNL     1     -10.702   9.560  68.795  1.00  0.00    -0.218 C  
BRANCH  12  13
HETATM   13  C   UNL     1     -10.610   8.142  69.314  1.00  0.00    -0.191 A  
HETATM   14  C   UNL     1     -10.430   7.053  68.438  1.00  0.00    -0.201 A  
HETATM   15  C   UNL     1     -10.241   5.753  68.923  1.00  0.00    -0.267 A  
HETATM   16 CL   UNL     1     -10.417   7.251  66.719  1.00  0.00    -0.345 Cl 
HETATM   17  C   UNL     1     -10.244   5.508  70.292  1.00  0.00    -0.326 A  
HETATM   18  C   UNL     1     -10.473   6.559  71.174  1.00  0.00    -0.257 A  
HETATM   19  C   UNL     1     -10.668   7.859  70.692  1.00  0.00    -0.228 A  
HETATM   20 CL   UNL     1     -10.962   9.088  71.873  1.00  0.00    -0.438 Cl 
ENDBRANCH  12  13
ENDBRANCH   9  12
TORSDOF 2
ENDMDL
MODEL      230
REMARK 921   NORMALIZED FREE ENERGY PREDICTED BY IDOCK:   -3.02 KCAL/MOL
REMARK 922        TOTAL FREE ENERGY PREDICTED BY IDOCK:   -3.71 KCAL/MOL
REMARK 923 INTER-LIGAND FREE ENERGY PREDICTED BY IDOCK:   -3.46 KCAL/MOL
REMARK 924 INTRA-LIGAND FREE ENERGY PREDICTED BY IDOCK:   -0.26 KCAL/MOL
REMARK 927      BINDING AFFINITY PREDICTED BY RF-SCORE:    0.00 PKD
ROOT
HETATM    1  N   UNL     1     -12.056  14.156  67.737  1.00  0.00    -0.545 NA 
HETATM    2  C   UNL     1     -11.073  13.889  68.617  1.00  0.00    -0.265 C  
HETATM    3  H2  UNL     1     -12.881  14.652  68.073  1.00  0.00     0.000 HD 
HETATM    4  H1  UNL     1     -12.022  13.889  66.754  1.00  0.00     0.000 HD 
HETATM    5  N   UNL     1     -11.116  14.225  69.855  1.00  0.00    -0.447 NA 
HETATM    6  N   UNL     1      -9.948  13.226  68.235  1.00  0.00    -0.234 N  
HETATM    7  H1  UNL     1     -10.371  14.023  70.521  1.00  0.00     0.000 HD 
HETATM    8  H2  UNL     1     -11.941  14.721  70.191  1.00  0.00     0.000 HD 
HETATM    9  C   UNL     1      -9.626  12.792  66.962  1.00  0.00    -0.229 C  
HETATM   10  H   UNL     1      -9.267  13.028  68.968  1.00  0.00     0.000 HD 
HETATM   11  O   UNL     1     -10.246  13.119  65.951  1.00  0.00    -0.282 OA 
ENDROOT
BRANCH   9  12
HETATM   12  C   UNL     1      -8.415  11.880  66.916  1.00  0.00    -0.174 C  
BRANCH  12  13
HETATM   13  C   UNL     1      -8.437  10.774  67.949  1.00  0.00    -0.122 A  
HETATM   14  C   UNL     1      -7.661  10.854  69.122  1.00  0.00    -0.133 A  
HETATM   15  C   UNL     1      -7.758   9.883  70.126  1.00  0.00    -0.188 A  
HETATM   16 CL   UNL     1      -6.555  12.155  69.403  1.00  0.00    -0.108 Cl 
HETATM   17  C   UNL     1      -8.620   8.802  69.975  1.00  0.00    -0.136 A  
HETATM   18  C   UNL     1      -9.356   8.673  68.801  1.00  0.00    -0.142 A  
HETATM   19  C   UNL     1      -9.257   9.640  67.793  1.00  0.00    -0.124 A  
HETATM   20 CL   UNL     1     -10.202   9.375  66.369  1.00  0.00    -0.328 Cl 
ENDBRANCH  12  13
ENDBRANCH   9  12
TORSDOF 2
ENDMDL
MODEL      231
REMARK 921   NORMALIZED FREE ENERGY PREDICTED BY IDOCK:   -3.00 KCAL/MOL
REMARK 922        TOTAL FREE ENERGY PREDICTED BY IDOCK:   -3.69 KCAL/MOL
REMARK 923 INTER-LIGAND FREE ENERGY PREDICTED BY IDOCK:   -3.82 KCAL/MOL
REMARK 924 INTRA-LIGAND FREE ENERGY PREDICTED BY IDOCK:    0.13 KCAL/MOL
REMARK 927      BINDING AFFINITY PREDICTED BY RF-SCORE:    0.00 PKD
ROOT
HETATM    1  N   UNL     1     -10.707   5.873  69.098  1.00  0.00    -0.304 NA 
HETATM    2  C   UNL     1     -10.843   6.584  67.963  1.00  0.00    -0.295 C  
HETATM    3  H2  UNL     1     -11.155   4.958  69.150  1.00  0.00     0.000 HD 
HETATM    4  H1  UNL     1     -10.180   6.198  69.908  1.00  0.00     0.000 HD 
HETATM    5  N   UNL     1     -11.505   6.175  66.943  1.00  0.00    -0.570 NA 
HETATM    6  N   UNL     1     -10.275   7.813  67.830  1.00  0.00    -0.195 N  
HETATM    7  H1  UNL     1     -11.608   6.713  66.083  1.00  0.00     0.000 HD 
HETATM    8  H2  UNL     1     -11.953   5.260  66.995  1.00  0.00     0.000 HD 
HETATM    9  C   UNL     1      -9.478   8.468  68.751  1.00  0.00    -0.143 C  
HETATM   10  H   UNL     1     -10.456   8.305  66.955  1.00  0.00     0.000 HD 
HETATM   11  O   UNL     1      -9.018   7.935  69.759  1.00  0.00    -0.144 OA 
ENDROOT
BRANCH   9  12
HETATM   12  C   UNL     1      -9.203   9.918  68.397  1.00  0.00    -0.130 C  
BRANCH  12  13
HETATM   13  C   UNL     1      -9.497  10.267  66.955  1.00  0.00    -0.200 A  
HETATM   14  C   UNL     1     -10.548  11.144  66.615  1.00  0.00    -0.264 A  
HETATM   15  C   UNL     1     -10.756  11.549  65.291  1.00  0.00    -0.337 A  
HETATM   16 CL   UNL     1     -11.631  11.781  67.804  1.00  0.00    -0.384 Cl 
HETATM   17  C   UNL     1      -9.932  11.077  64.275  1.00  0.00    -0.373 A  
HETATM   18  C   UNL     1      -8.923  10.170  64.579  1.00  0.00    -0.253 A  
HETATM   19  C   UNL     1      -8.715   9.758  65.901  1.00  0.00    -0.139 A  
HETATM   20 CL   UNL     1      -7.445   8.614  66.166  1.00  0.00    -0.085 Cl 
ENDBRANCH  12  13
ENDBRANCH   9  12
TORSDOF 2
ENDMDL
MODEL      232
REMARK 921   NORMALIZED FREE ENERGY PREDICTED BY IDOCK:   -3.00 KCAL/MOL
REMARK 922        TOTAL FREE ENERGY PREDICTED BY IDOCK:   -3.68 KCAL/MOL
REMARK 923 INTER-LIGAND FREE ENERGY PREDICTED BY IDOCK:   -3.75 KCAL/MOL
REMARK 924 INTRA-LIGAND FREE ENERGY PREDICTED BY IDOCK:    0.07 KCAL/MOL
REMARK 927      BINDING AFFINITY PREDICTED BY RF-SCORE:    0.00 PKD
ROOT
HETATM    1  N   UNL     1     -10.996  19.409  65.862  1.00  0.00    -0.271 NA 
HETATM    2  C   UNL     1      -9.680  19.570  66.095  1.00  0.00    -0.387 C  
HETATM    3  H2  UNL     1     -11.583  20.242  65.822  1.00  0.00     0.000 HD 
HETATM    4  H1  UNL     1     -11.439  18.501  65.723  1.00  0.00     0.000 HD 
HETATM    5  N   UNL     1      -9.123  20.712  66.270  1.00  0.00    -0.498 NA 
HETATM    6  N   UNL     1      -8.843  18.499  66.165  1.00  0.00    -0.192 N  
HETATM    7  H1  UNL     1      -8.127  20.833  66.446  1.00  0.00     0.000 HD 
HETATM    8  H2  UNL     1      -9.710  21.545  66.230  1.00  0.00     0.000 HD 
HETATM    9  C   UNL     1      -9.170  17.169  65.973  1.00  0.00    -0.112 C  
HETATM   10  H   UNL     1      -7.867  18.700  66.384  1.00  0.00     0.000 HD 
HETATM   11  O   UNL     1     -10.248  16.789  65.521  1.00  0.00    -0.567 OA 
ENDROOT
BRANCH   9  12
HETATM   12  C   UNL     1      -8.061  16.207  66.356  1.00  0.00    -0.305 C  
BRANCH  12  13
HETATM   13  C   UNL     1      -7.117  16.742  67.411  1.00  0.00    -0.185 A  
HETATM   14  C   UNL     1      -6.043  17.589  67.070  1.00  0.00    -0.152 A  
HETATM   15  C   UNL     1      -5.233  18.167  68.054  1.00  0.00    -0.156 A  
HETATM   16 CL   UNL     1      -5.668  17.976  65.426  1.00  0.00    -0.178 Cl 
HETATM   17  C   UNL     1      -5.465  17.902  69.399  1.00  0.00    -0.201 A  
HETATM   18  C   UNL     1      -6.486  17.027  69.757  1.00  0.00    -0.094 A  
HETATM   19  C   UNL     1      -7.295  16.442  68.775  1.00  0.00    -0.203 A  
HETATM   20 CL   UNL     1      -8.523  15.356  69.327  1.00  0.00    -0.246 Cl 
ENDBRANCH  12  13
ENDBRANCH   9  12
TORSDOF 2
ENDMDL
MODEL      233
REMARK 921   NORMALIZED FREE ENERGY PREDICTED BY IDOCK:   -2.99 KCAL/MOL
REMARK 922        TOTAL FREE ENERGY PREDICTED BY IDOCK:   -3.67 KCAL/MOL
REMARK 923 INTER-LIGAND FREE ENERGY PREDICTED BY IDOCK:   -3.40 KCAL/MOL
REMARK 924 INTRA-LIGAND FREE ENERGY PREDICTED BY IDOCK:   -0.27 KCAL/MOL
REMARK 927      BINDING AFFINITY PREDICTED BY RF-SCORE:    0.00 PKD
ROOT
HETATM    1  N   UNL     1     -11.992  11.750  67.939  1.00  0.00    -0.597 NA 
HETATM    2  C   UNL     1     -11.385  12.106  69.087  1.00  0.00    -0.276 C  
HETATM    3  H2  UNL     1     -12.564  12.445  67.461  1.00  0.00     0.000 HD 
HETATM    4  H1  UNL     1     -11.911  10.823  67.522  1.00  0.00     0.000 HD 
HETATM    5  N   UNL     1     -11.486  13.272  69.612  1.00  0.00    -0.446 NA 
HETATM    6  N   UNL     1     -10.611  11.225  69.777  1.00  0.00    -0.441 N  
HETATM    7  H1  UNL     1     -11.027  13.542  70.481  1.00  0.00     0.000 HD 
HETATM    8  H2  UNL     1     -12.059  13.968  69.134  1.00  0.00     0.000 HD 
HETATM    9  C   UNL     1     -10.300   9.927  69.416  1.00  0.00    -0.222 C  
HETATM   10  H   UNL     1     -10.217  11.559  70.657  1.00  0.00     0.000 HD 
HETATM   11  O   UNL     1     -10.537   9.450  68.308  1.00  0.00    -0.222 OA 
ENDROOT
BRANCH   9  12
HETATM   12  C   UNL     1      -9.615   9.136  70.515  1.00  0.00    -0.293 C  
BRANCH  12  13
HETATM   13  C   UNL     1      -8.596   8.136  70.012  1.00  0.00    -0.129 A  
HETATM   14  C   UNL     1      -7.235   8.480  69.887  1.00  0.00    -0.051 A  
HETATM   15  C   UNL     1      -6.277   7.527  69.521  1.00  0.00    -0.031 A  
HETATM   16 CL   UNL     1      -6.663  10.084  70.187  1.00  0.00    -0.111 Cl 
HETATM   17  C   UNL     1      -6.655   6.215  69.257  1.00  0.00    -0.047 A  
HETATM   18  C   UNL     1      -8.000   5.866  69.322  1.00  0.00    -0.099 A  
HETATM   19  C   UNL     1      -8.963   6.817  69.682  1.00  0.00    -0.143 A  
HETATM   20 CL   UNL     1     -10.607   6.282  69.715  1.00  0.00    -0.291 Cl 
ENDBRANCH  12  13
ENDBRANCH   9  12
TORSDOF 2
ENDMDL
MODEL      234
REMARK 921   NORMALIZED FREE ENERGY PREDICTED BY IDOCK:   -2.98 KCAL/MOL
REMARK 922        TOTAL FREE ENERGY PREDICTED BY IDOCK:   -3.66 KCAL/MOL
REMARK 923 INTER-LIGAND FREE ENERGY PREDICTED BY IDOCK:   -3.56 KCAL/MOL
REMARK 924 INTRA-LIGAND FREE ENERGY PREDICTED BY IDOCK:   -0.10 KCAL/MOL
REMARK 927      BINDING AFFINITY PREDICTED BY RF-SCORE:    0.00 PKD
ROOT
HETATM    1  N   UNL     1     -11.497   9.531  70.185  1.00  0.00    -0.386 NA 
HETATM    2  C   UNL     1     -10.294  10.120  70.052  1.00  0.00    -0.250 C  
HETATM    3  H2  UNL     1     -11.587   8.765  70.852  1.00  0.00     0.000 HD 
HETATM    4  H1  UNL     1     -12.324   9.808  69.655  1.00  0.00     0.000 HD 
HETATM    5  N   UNL     1      -9.255   9.771  70.718  1.00  0.00    -0.343 NA 
HETATM    6  N   UNL     1     -10.106  11.144  69.176  1.00  0.00    -0.383 N  
HETATM    7  H1  UNL     1      -8.344  10.218  70.617  1.00  0.00     0.000 HD 
HETATM    8  H2  UNL     1      -9.345   9.006  71.385  1.00  0.00     0.000 HD 
HETATM    9  C   UNL     1     -11.059  11.742  68.372  1.00  0.00    -0.237 C  
HETATM   10  H   UNL     1      -9.157  11.512  69.105  1.00  0.00     0.000 HD 
HETATM   11  O   UNL     1     -12.267  11.543  68.481  1.00  0.00    -0.524 OA 
ENDROOT
BRANCH   9  12
HETATM   12  C   UNL     1     -10.478  12.691  67.340  1.00  0.00    -0.233 C  
BRANCH  12  13
HETATM   13  C   UNL     1      -9.027  13.048  67.577  1.00  0.00    -0.193 A  
HETATM   14  C   UNL     1      -8.665  14.091  68.453  1.00  0.00    -0.179 A  
HETATM   15  C   UNL     1      -7.324  14.354  68.754  1.00  0.00    -0.131 A  
HETATM   16 CL   UNL     1      -9.846  15.097  69.218  1.00  0.00    -0.231 Cl 
HETATM   17  C   UNL     1      -6.313  13.594  68.175  1.00  0.00    -0.123 A  
HETATM   18  C   UNL     1      -6.644  12.594  67.267  1.00  0.00    -0.109 A  
HETATM   19  C   UNL     1      -7.984  12.332  66.960  1.00  0.00    -0.123 A  
HETATM   20 CL   UNL     1      -8.284  11.080  65.805  1.00  0.00    -0.114 Cl 
ENDBRANCH  12  13
ENDBRANCH   9  12
TORSDOF 2
ENDMDL
MODEL      235
REMARK 921   NORMALIZED FREE ENERGY PREDICTED BY IDOCK:   -2.97 KCAL/MOL
REMARK 922        TOTAL FREE ENERGY PREDICTED BY IDOCK:   -3.66 KCAL/MOL
REMARK 923 INTER-LIGAND FREE ENERGY PREDICTED BY IDOCK:   -3.42 KCAL/MOL
REMARK 924 INTRA-LIGAND FREE ENERGY PREDICTED BY IDOCK:   -0.24 KCAL/MOL
REMARK 927      BINDING AFFINITY PREDICTED BY RF-SCORE:    0.00 PKD
ROOT
HETATM    1  N   UNL     1      -6.142   5.804  71.148  1.00  0.00    -0.032 NA 
HETATM    2  C   UNL     1      -7.196   5.791  71.985  1.00  0.00    -0.089 C  
HETATM    3  H2  UNL     1      -5.209   5.900  71.549  1.00  0.00     0.000 HD 
HETATM    4  H1  UNL     1      -6.224   5.724  70.134  1.00  0.00     0.000 HD 
HETATM    5  N   UNL     1      -7.092   5.892  73.260  1.00  0.00    -0.084 NA 
HETATM    6  N   UNL     1      -8.466   5.671  71.514  1.00  0.00    -0.127 N  
HETATM    7  H1  UNL     1      -7.890   5.882  73.894  1.00  0.00     0.000 HD 
HETATM    8  H2  UNL     1      -6.159   5.988  73.661  1.00  0.00     0.000 HD 
HETATM    9  C   UNL     1      -8.858   5.503  70.198  1.00  0.00    -0.136 C  
HETATM   10  H   UNL     1      -9.213   5.708  72.208  1.00  0.00     0.000 HD 
HETATM   11  O   UNL     1      -8.079   5.250  69.281  1.00  0.00    -0.090 OA 
ENDROOT
BRANCH   9  12
HETATM   12  C   UNL     1     -10.353   5.643  69.984  1.00  0.00    -0.345 C  
BRANCH  12  13
HETATM   13  C   UNL     1     -10.948   6.898  70.583  1.00  0.00    -0.304 A  
HETATM   14  C   UNL     1     -11.565   6.881  71.850  1.00  0.00    -0.286 A  
HETATM   15  C   UNL     1     -12.023   8.060  72.451  1.00  0.00    -0.405 A  
HETATM   16 CL   UNL     1     -11.784   5.416  72.744  1.00  0.00    -0.311 Cl 
HETATM   17  C   UNL     1     -11.890   9.279  71.795  1.00  0.00    -0.454 A  
HETATM   18  C   UNL     1     -11.332   9.313  70.521  1.00  0.00    -0.306 A  
HETATM   19  C   UNL     1     -10.878   8.135  69.915  1.00  0.00    -0.215 A  
HETATM   20 CL   UNL     1     -10.218   8.287  68.324  1.00  0.00    -0.234 Cl 
ENDBRANCH  12  13
ENDBRANCH   9  12
TORSDOF 2
ENDMDL
MODEL      236
REMARK 921   NORMALIZED FREE ENERGY PREDICTED BY IDOCK:   -2.97 KCAL/MOL
REMARK 922        TOTAL FREE ENERGY PREDICTED BY IDOCK:   -3.65 KCAL/MOL
REMARK 923 INTER-LIGAND FREE ENERGY PREDICTED BY IDOCK:   -3.58 KCAL/MOL
REMARK 924 INTRA-LIGAND FREE ENERGY PREDICTED BY IDOCK:   -0.07 KCAL/MOL
REMARK 927      BINDING AFFINITY PREDICTED BY RF-SCORE:    0.00 PKD
ROOT
HETATM    1  N   UNL     1     -11.077   6.836  66.728  1.00  0.00    -0.642 NA 
HETATM    2  C   UNL     1     -10.841   6.763  68.051  1.00  0.00    -0.235 C  
HETATM    3  H2  UNL     1     -11.254   5.969  66.222  1.00  0.00     0.000 HD 
HETATM    4  H1  UNL     1     -11.090   7.711  66.204  1.00  0.00     0.000 HD 
HETATM    5  N   UNL     1     -10.825   5.663  68.710  1.00  0.00    -0.208 NA 
HETATM    6  N   UNL     1     -10.594   7.882  68.784  1.00  0.00    -0.349 N  
HETATM    7  H1  UNL     1     -10.646   5.607  69.713  1.00  0.00     0.000 HD 
HETATM    8  H2  UNL     1     -11.001   4.795  68.204  1.00  0.00     0.000 HD 
HETATM    9  C   UNL     1     -10.595   9.191  68.338  1.00  0.00    -0.172 C  
HETATM   10  H   UNL     1     -10.386   7.740  69.773  1.00  0.00     0.000 HD 
HETATM   11  O   UNL     1     -11.009   9.535  67.232  1.00  0.00    -0.203 OA 
ENDROOT
BRANCH   9  12
HETATM   12  C   UNL     1     -10.048  10.181  69.349  1.00  0.00    -0.250 C  
BRANCH  12  13
HETATM   13  C   UNL     1      -8.999   9.603  70.274  1.00  0.00    -0.263 A  
HETATM   14  C   UNL     1      -9.358   8.975  71.484  1.00  0.00    -0.224 A  
HETATM   15  C   UNL     1      -8.400   8.349  72.289  1.00  0.00    -0.218 A  
HETATM   16 CL   UNL     1     -10.996   8.926  72.040  1.00  0.00    -0.435 Cl 
HETATM   17  C   UNL     1      -7.061   8.349  71.915  1.00  0.00    -0.103 A  
HETATM   18  C   UNL     1      -6.675   9.008  70.752  1.00  0.00    -0.067 A  
HETATM   19  C   UNL     1      -7.631   9.640  69.947  1.00  0.00    -0.138 A  
HETATM   20 CL   UNL     1      -7.043  10.445  68.534  1.00  0.00    -0.073 Cl 
ENDBRANCH  12  13
ENDBRANCH   9  12
TORSDOF 2
ENDMDL
MODEL      237
REMARK 921   NORMALIZED FREE ENERGY PREDICTED BY IDOCK:   -2.97 KCAL/MOL
REMARK 922        TOTAL FREE ENERGY PREDICTED BY IDOCK:   -3.65 KCAL/MOL
REMARK 923 INTER-LIGAND FREE ENERGY PREDICTED BY IDOCK:   -3.50 KCAL/MOL
REMARK 924 INTRA-LIGAND FREE ENERGY PREDICTED BY IDOCK:   -0.15 KCAL/MOL
REMARK 927      BINDING AFFINITY PREDICTED BY RF-SCORE:    0.00 PKD
ROOT
HETATM    1  N   UNL     1     -12.003  11.745  67.936  1.00  0.00    -0.597 NA 
HETATM    2  C   UNL     1     -11.379  12.067  69.084  1.00  0.00    -0.281 C  
HETATM    3  H2  UNL     1     -12.553  12.466  67.468  1.00  0.00     0.000 HD 
HETATM    4  H1  UNL     1     -11.957  10.821  67.507  1.00  0.00     0.000 HD 
HETATM    5  N   UNL     1     -11.437  13.230  69.623  1.00  0.00    -0.446 NA 
HETATM    6  N   UNL     1     -10.634  11.151  69.760  1.00  0.00    -0.455 N  
HETATM    7  H1  UNL     1     -10.964  13.473  70.493  1.00  0.00     0.000 HD 
HETATM    8  H2  UNL     1     -11.987  13.950  69.155  1.00  0.00     0.000 HD 
HETATM    9  C   UNL     1     -10.370   9.847  69.383  1.00  0.00    -0.222 C  
HETATM   10  H   UNL     1     -10.224  11.460  70.642  1.00  0.00     0.000 HD 
HETATM   11  O   UNL     1     -10.628   9.391  68.271  1.00  0.00    -0.222 OA 
ENDROOT
BRANCH   9  12
HETATM   12  C   UNL     1      -9.708   9.020  70.470  1.00  0.00    -0.262 C  
BRANCH  12  13
HETATM   13  C   UNL     1      -8.749   7.972  69.949  1.00  0.00    -0.139 A  
HETATM   14  C   UNL     1      -9.214   6.738  69.452  1.00  0.00    -0.143 A  
HETATM   15  C   UNL     1      -8.339   5.810  68.875  1.00  0.00    -0.101 A  
HETATM   16 CL   UNL     1     -10.886   6.298  69.509  1.00  0.00    -0.362 Cl 
HETATM   17  C   UNL     1      -6.978   6.086  68.795  1.00  0.00    -0.072 A  
HETATM   18  C   UNL     1      -6.488   7.274  69.327  1.00  0.00    -0.036 A  
HETATM   19  C   UNL     1      -7.360   8.201  69.910  1.00  0.00    -0.065 A  
HETATM   20 CL   UNL     1      -6.646   9.637  70.557  1.00  0.00    -0.094 Cl 
ENDBRANCH  12  13
ENDBRANCH   9  12
TORSDOF 2
ENDMDL
MODEL      238
REMARK 921   NORMALIZED FREE ENERGY PREDICTED BY IDOCK:   -2.95 KCAL/MOL
REMARK 922        TOTAL FREE ENERGY PREDICTED BY IDOCK:   -3.63 KCAL/MOL
REMARK 923 INTER-LIGAND FREE ENERGY PREDICTED BY IDOCK:   -3.27 KCAL/MOL
REMARK 924 INTRA-LIGAND FREE ENERGY PREDICTED BY IDOCK:   -0.36 KCAL/MOL
REMARK 927      BINDING AFFINITY PREDICTED BY RF-SCORE:    0.00 PKD
ROOT
HETATM    1  N   UNL     1     -11.044   4.717  65.859  1.00  0.00    -0.792 NA 
HETATM    2  C   UNL     1     -10.024   5.537  65.543  1.00  0.00     0.316 C  
HETATM    3  H2  UNL     1     -11.142   3.847  65.337  1.00  0.00     0.000 HD 
HETATM    4  H1  UNL     1     -11.725   4.918  66.592  1.00  0.00     0.000 HD 
HETATM    5  N   UNL     1      -9.168   5.284  64.622  1.00  0.00    -0.359 NA 
HETATM    6  N   UNL     1      -9.840   6.715  66.198  1.00  0.00    -0.405 N  
HETATM    7  H1  UNL     1      -8.396   5.905  64.383  1.00  0.00     0.000 HD 
HETATM    8  H2  UNL     1      -9.266   4.413  64.100  1.00  0.00     0.000 HD 
HETATM    9  C   UNL     1     -10.584   7.209  67.255  1.00  0.00    -0.327 C  
HETATM   10  H   UNL     1      -9.068   7.298  65.875  1.00  0.00     0.000 HD 
HETATM   11  O   UNL     1     -11.415   6.546  67.874  1.00  0.00    -0.146 OA 
ENDROOT
BRANCH   9  12
HETATM   12  C   UNL     1     -10.270   8.652  67.600  1.00  0.00    -0.300 C  
BRANCH  12  13
HETATM   13  C   UNL     1      -9.325   8.815  68.770  1.00  0.00    -0.141 A  
HETATM   14  C   UNL     1      -9.805   8.882  70.094  1.00  0.00    -0.178 A  
HETATM   15  C   UNL     1      -8.928   8.928  71.183  1.00  0.00    -0.305 A  
HETATM   16 CL   UNL     1     -11.497   8.897  70.455  1.00  0.00    -0.262 Cl 
HETATM   17  C   UNL     1      -7.552   8.924  70.977  1.00  0.00    -0.136 A  
HETATM   18  C   UNL     1      -7.056   8.913  69.678  1.00  0.00    -0.054 A  
HETATM   19  C   UNL     1      -7.930   8.873  68.586  1.00  0.00    -0.103 A  
HETATM   20 CL   UNL     1      -7.209   8.879  67.014  1.00  0.00    -0.079 Cl 
ENDBRANCH  12  13
ENDBRANCH   9  12
TORSDOF 2
ENDMDL
MODEL      239
REMARK 921   NORMALIZED FREE ENERGY PREDICTED BY IDOCK:   -2.94 KCAL/MOL
REMARK 922        TOTAL FREE ENERGY PREDICTED BY IDOCK:   -3.62 KCAL/MOL
REMARK 923 INTER-LIGAND FREE ENERGY PREDICTED BY IDOCK:   -3.31 KCAL/MOL
REMARK 924 INTRA-LIGAND FREE ENERGY PREDICTED BY IDOCK:   -0.31 KCAL/MOL
REMARK 927      BINDING AFFINITY PREDICTED BY RF-SCORE:    0.00 PKD
ROOT
HETATM    1  N   UNL     1     -11.685   6.859  72.523  1.00  0.00    -0.458 NA 
HETATM    2  C   UNL     1     -12.027   6.952  71.225  1.00  0.00    -0.356 C  
HETATM    3  H2  UNL     1     -12.182   7.445  73.195  1.00  0.00     0.000 HD 
HETATM    4  H1  UNL     1     -10.958   6.236  72.873  1.00  0.00     0.000 HD 
HETATM    5  N   UNL     1     -12.942   7.736  70.785  1.00  0.00    -0.463 NA 
HETATM    6  N   UNL     1     -11.401   6.202  70.278  1.00  0.00    -0.373 N  
HETATM    7  H1  UNL     1     -13.200   7.806  69.801  1.00  0.00     0.000 HD 
HETATM    8  H2  UNL     1     -13.438   8.322  71.456  1.00  0.00     0.000 HD 
HETATM    9  C   UNL     1     -10.417   5.252  70.481  1.00  0.00    -0.242 C  
HETATM   10  H   UNL     1     -11.689   6.358  69.312  1.00  0.00     0.000 HD 
HETATM   11  O   UNL     1     -10.102   4.819  71.588  1.00  0.00    -0.185 OA 
ENDROOT
BRANCH   9  12
HETATM   12  C   UNL     1      -9.761   4.769  69.200  1.00  0.00    -0.258 C  
BRANCH  12  13
HETATM   13  C   UNL     1      -8.996   5.842  68.457  1.00  0.00    -0.112 A  
HETATM   14  C   UNL     1      -9.550   6.491  67.336  1.00  0.00    -0.125 A  
HETATM   15  C   UNL     1      -8.887   7.554  66.711  1.00  0.00    -0.153 A  
HETATM   16 CL   UNL     1     -11.080   6.030  66.672  1.00  0.00    -0.261 Cl 
HETATM   17  C   UNL     1      -7.650   7.983  67.180  1.00  0.00    -0.097 A  
HETATM   18  C   UNL     1      -7.059   7.322  68.251  1.00  0.00    -0.081 A  
HETATM   19  C   UNL     1      -7.716   6.255  68.875  1.00  0.00    -0.097 A  
HETATM   20 CL   UNL     1      -6.886   5.492  70.187  1.00  0.00    -0.051 Cl 
ENDBRANCH  12  13
ENDBRANCH   9  12
TORSDOF 2
ENDMDL
MODEL      240
REMARK 921   NORMALIZED FREE ENERGY PREDICTED BY IDOCK:   -2.92 KCAL/MOL
REMARK 922        TOTAL FREE ENERGY PREDICTED BY IDOCK:   -3.60 KCAL/MOL
REMARK 923 INTER-LIGAND FREE ENERGY PREDICTED BY IDOCK:   -3.35 KCAL/MOL
REMARK 924 INTRA-LIGAND FREE ENERGY PREDICTED BY IDOCK:   -0.25 KCAL/MOL
REMARK 927      BINDING AFFINITY PREDICTED BY RF-SCORE:    0.00 PKD
ROOT
HETATM    1  N   UNL     1     -11.802  14.664  66.492  1.00  0.00    -0.348 NA 
HETATM    2  C   UNL     1     -10.888  14.413  65.536  1.00  0.00    -0.331 C  
HETATM    3  H2  UNL     1     -12.672  15.120  66.219  1.00  0.00     0.000 HD 
HETATM    4  H1  UNL     1     -11.673  14.423  67.475  1.00  0.00     0.000 HD 
HETATM    5  N   UNL     1     -11.051  14.716  64.301  1.00  0.00    -0.605 NA 
HETATM    6  N   UNL     1      -9.705  13.812  65.835  1.00  0.00    -0.459 N  
HETATM    7  H1  UNL     1     -10.359  14.526  63.577  1.00  0.00     0.000 HD 
HETATM    8  H2  UNL     1     -11.921  15.172  64.027  1.00  0.00     0.000 HD 
HETATM    9  C   UNL     1      -9.293  13.345  67.070  1.00  0.00    -0.243 C  
HETATM   10  H   UNL     1      -9.049  13.691  65.063  1.00  0.00     0.000 HD 
HETATM   11  O   UNL     1     -10.036  13.245  68.045  1.00  0.00    -0.222 OA 
ENDROOT
BRANCH   9  12
HETATM   12  C   UNL     1      -7.830  12.945  67.115  1.00  0.00    -0.084 C  
BRANCH  12  13
HETATM   13  C   UNL     1      -7.066  13.532  68.282  1.00  0.00    -0.110 A  
HETATM   14  C   UNL     1      -6.782  14.911  68.349  1.00  0.00    -0.101 A  
HETATM   15  C   UNL     1      -6.167  15.471  69.475  1.00  0.00    -0.145 A  
HETATM   16 CL   UNL     1      -7.183  15.994  67.062  1.00  0.00    -0.256 Cl 
HETATM   17  C   UNL     1      -5.808  14.667  70.552  1.00  0.00    -0.168 A  
HETATM   18  C   UNL     1      -6.030  13.296  70.485  1.00  0.00    -0.110 A  
HETATM   19  C   UNL     1      -6.640  12.731  69.358  1.00  0.00    -0.064 A  
HETATM   20 CL   UNL     1      -6.853  11.015  69.370  1.00  0.00    -0.106 Cl 
ENDBRANCH  12  13
ENDBRANCH   9  12
TORSDOF 2
ENDMDL
MODEL      241
REMARK 921   NORMALIZED FREE ENERGY PREDICTED BY IDOCK:   -2.92 KCAL/MOL
REMARK 922        TOTAL FREE ENERGY PREDICTED BY IDOCK:   -3.60 KCAL/MOL
REMARK 923 INTER-LIGAND FREE ENERGY PREDICTED BY IDOCK:   -3.27 KCAL/MOL
REMARK 924 INTRA-LIGAND FREE ENERGY PREDICTED BY IDOCK:   -0.32 KCAL/MOL
REMARK 927      BINDING AFFINITY PREDICTED BY RF-SCORE:    0.00 PKD
ROOT
HETATM    1  N   UNL     1     -10.051   8.152  66.779  1.00  0.00    -0.279 NA 
HETATM    2  C   UNL     1     -10.599   6.994  67.195  1.00  0.00    -0.341 C  
HETATM    3  H2  UNL     1     -10.369   8.543  65.892  1.00  0.00     0.000 HD 
HETATM    4  H1  UNL     1      -9.337   8.659  67.301  1.00  0.00     0.000 HD 
HETATM    5  N   UNL     1     -11.497   6.356  66.538  1.00  0.00    -0.550 NA 
HETATM    6  N   UNL     1     -10.216   6.417  68.366  1.00  0.00    -0.160 N  
HETATM    7  H1  UNL     1     -11.911   5.479  66.853  1.00  0.00     0.000 HD 
HETATM    8  H2  UNL     1     -11.814   6.747  65.651  1.00  0.00     0.000 HD 
HETATM    9  C   UNL     1      -9.307   6.910  69.283  1.00  0.00    -0.144 C  
HETATM   10  H   UNL     1     -10.649   5.521  68.593  1.00  0.00     0.000 HD 
HETATM   11  O   UNL     1      -8.851   8.052  69.247  1.00  0.00    -0.140 OA 
ENDROOT
BRANCH   9  12
HETATM   12  C   UNL     1      -8.927   5.915  70.363  1.00  0.00    -0.154 C  
BRANCH  12  13
HETATM   13  C   UNL     1      -8.902   6.498  71.759  1.00  0.00    -0.138 A  
HETATM   14  C   UNL     1      -7.707   6.987  72.325  1.00  0.00    -0.091 A  
HETATM   15  C   UNL     1      -7.702   7.621  73.573  1.00  0.00    -0.153 A  
HETATM   16 CL   UNL     1      -6.185   6.849  71.515  1.00  0.00    -0.037 Cl 
HETATM   17  C   UNL     1      -8.884   7.767  74.292  1.00  0.00    -0.187 A  
HETATM   18  C   UNL     1     -10.066   7.245  73.777  1.00  0.00    -0.375 A  
HETATM   19  C   UNL     1     -10.074   6.605  72.531  1.00  0.00    -0.172 A  
HETATM   20 CL   UNL     1     -11.593   5.977  71.993  1.00  0.00    -0.352 Cl 
ENDBRANCH  12  13
ENDBRANCH   9  12
TORSDOF 2
ENDMDL
MODEL      242
REMARK 921   NORMALIZED FREE ENERGY PREDICTED BY IDOCK:   -2.90 KCAL/MOL
REMARK 922        TOTAL FREE ENERGY PREDICTED BY IDOCK:   -3.57 KCAL/MOL
REMARK 923 INTER-LIGAND FREE ENERGY PREDICTED BY IDOCK:   -3.35 KCAL/MOL
REMARK 924 INTRA-LIGAND FREE ENERGY PREDICTED BY IDOCK:   -0.22 KCAL/MOL
REMARK 927      BINDING AFFINITY PREDICTED BY RF-SCORE:    0.00 PKD
ROOT
HETATM    1  N   UNL     1      -9.678   4.080  69.228  1.00  0.00    -0.172 NA 
HETATM    2  C   UNL     1      -9.571   4.704  68.040  1.00  0.00    -0.155 C  
HETATM    3  H2  UNL     1     -10.105   3.154  69.249  1.00  0.00     0.000 HD 
HETATM    4  H1  UNL     1      -9.356   4.481  70.109  1.00  0.00     0.000 HD 
HETATM    5  N   UNL     1      -9.976   4.199  66.933  1.00  0.00    -0.284 NA 
HETATM    6  N   UNL     1      -9.016   5.942  67.944  1.00  0.00    -0.112 N  
HETATM    7  H1  UNL     1      -9.895   4.672  66.034  1.00  0.00     0.000 HD 
HETATM    8  H2  UNL     1     -10.403   3.273  66.954  1.00  0.00     0.000 HD 
HETATM    9  C   UNL     1      -8.462   6.691  68.967  1.00  0.00    -0.130 C  
HETATM   10  H   UNL     1      -9.005   6.364  67.016  1.00  0.00     0.000 HD 
HETATM   11  O   UNL     1      -8.229   6.248  70.090  1.00  0.00    -0.117 OA 
ENDROOT
BRANCH   9  12
HETATM   12  C   UNL     1      -8.147   8.122  68.573  1.00  0.00    -0.124 C  
BRANCH  12  13
HETATM   13  C   UNL     1      -9.339   9.053  68.625  1.00  0.00    -0.136 A  
HETATM   14  C   UNL     1      -9.826   9.549  69.851  1.00  0.00    -0.226 A  
HETATM   15  C   UNL     1     -10.861  10.490  69.894  1.00  0.00    -0.334 A  
HETATM   16 CL   UNL     1      -9.172   9.041  71.370  1.00  0.00    -0.321 Cl 
HETATM   17  C   UNL     1     -11.445  10.945  68.717  1.00  0.00    -0.376 A  
HETATM   18  C   UNL     1     -11.017  10.430  67.498  1.00  0.00    -0.358 A  
HETATM   19  C   UNL     1      -9.986   9.484  67.451  1.00  0.00    -0.189 A  
HETATM   20 CL   UNL     1      -9.543   8.896  65.886  1.00  0.00    -0.318 Cl 
ENDBRANCH  12  13
ENDBRANCH   9  12
TORSDOF 2
ENDMDL
MODEL      243
REMARK 921   NORMALIZED FREE ENERGY PREDICTED BY IDOCK:   -2.85 KCAL/MOL
REMARK 922        TOTAL FREE ENERGY PREDICTED BY IDOCK:   -3.52 KCAL/MOL
REMARK 923 INTER-LIGAND FREE ENERGY PREDICTED BY IDOCK:   -3.26 KCAL/MOL
REMARK 924 INTRA-LIGAND FREE ENERGY PREDICTED BY IDOCK:   -0.26 KCAL/MOL
REMARK 927      BINDING AFFINITY PREDICTED BY RF-SCORE:    0.00 PKD
ROOT
HETATM    1  N   UNL     1      -9.979   4.289  69.072  1.00  0.00    -0.068 NA 
HETATM    2  C   UNL     1      -9.015   4.833  69.837  1.00  0.00    -0.096 C  
HETATM    3  H2  UNL     1      -9.814   3.365  68.674  1.00  0.00     0.000 HD 
HETATM    4  H1  UNL     1     -10.866   4.750  68.868  1.00  0.00     0.000 HD 
HETATM    5  N   UNL     1      -7.900   4.253  70.094  1.00  0.00    -0.052 NA 
HETATM    6  N   UNL     1      -9.170   6.064  70.394  1.00  0.00    -0.154 N  
HETATM    7  H1  UNL     1      -7.169   4.665  70.674  1.00  0.00     0.000 HD 
HETATM    8  H2  UNL     1      -7.734   3.329  69.696  1.00  0.00     0.000 HD 
HETATM    9  C   UNL     1     -10.283   6.882  70.316  1.00  0.00    -0.192 C  
HETATM   10  H   UNL     1      -8.379   6.424  70.929  1.00  0.00     0.000 HD 
HETATM   11  O   UNL     1     -11.371   6.516  69.876  1.00  0.00    -0.359 OA 
ENDROOT
BRANCH   9  12
HETATM   12  C   UNL     1     -10.047   8.285  70.844  1.00  0.00    -0.224 C  
BRANCH  12  13
HETATM   13  C   UNL     1     -10.689   9.373  70.011  1.00  0.00    -0.270 A  
HETATM   14  C   UNL     1     -10.185   9.713  68.739  1.00  0.00    -0.196 A  
HETATM   15  C   UNL     1     -10.838  10.645  67.924  1.00  0.00    -0.328 A  
HETATM   16 CL   UNL     1      -8.746   8.995  68.101  1.00  0.00    -0.130 Cl 
HETATM   17  C   UNL     1     -11.999  11.271  68.366  1.00  0.00    -0.255 A  
HETATM   18  C   UNL     1     -12.485  10.992  69.639  1.00  0.00    -0.208 A  
HETATM   19  C   UNL     1     -11.831  10.064  70.459  1.00  0.00    -0.303 A  
HETATM   20 CL   UNL     1     -12.508   9.804  72.028  1.00  0.00    -0.427 Cl 
ENDBRANCH  12  13
ENDBRANCH   9  12
TORSDOF 2
ENDMDL
MODEL      244
REMARK 921   NORMALIZED FREE ENERGY PREDICTED BY IDOCK:   -2.85 KCAL/MOL
REMARK 922        TOTAL FREE ENERGY PREDICTED BY IDOCK:   -3.52 KCAL/MOL
REMARK 923 INTER-LIGAND FREE ENERGY PREDICTED BY IDOCK:   -3.32 KCAL/MOL
REMARK 924 INTRA-LIGAND FREE ENERGY PREDICTED BY IDOCK:   -0.20 KCAL/MOL
REMARK 927      BINDING AFFINITY PREDICTED BY RF-SCORE:    0.00 PKD
ROOT
HETATM    1  N   UNL     1     -11.727   7.218  72.833  1.00  0.00    -0.561 NA 
HETATM    2  C   UNL     1     -11.774   7.057  71.498  1.00  0.00    -0.300 C  
HETATM    3  H2  UNL     1     -12.583   7.492  73.315  1.00  0.00     0.000 HD 
HETATM    4  H1  UNL     1     -10.883   7.082  73.390  1.00  0.00     0.000 HD 
HETATM    5  N   UNL     1     -12.835   7.228  70.798  1.00  0.00    -0.602 NA 
HETATM    6  N   UNL     1     -10.667   6.698  70.794  1.00  0.00    -0.229 N  
HETATM    7  H1  UNL     1     -12.870   7.106  69.786  1.00  0.00     0.000 HD 
HETATM    8  H2  UNL     1     -13.691   7.502  71.280  1.00  0.00     0.000 HD 
HETATM    9  C   UNL     1      -9.412   6.409  71.299  1.00  0.00    -0.166 C  
HETATM   10  H   UNL     1     -10.773   6.633  69.781  1.00  0.00     0.000 HD 
HETATM   11  O   UNL     1      -9.176   6.258  72.497  1.00  0.00    -0.142 OA 
ENDROOT
BRANCH   9  12
HETATM   12  C   UNL     1      -8.340   6.277  70.234  1.00  0.00    -0.126 C  
BRANCH  12  13
HETATM   13  C   UNL     1      -8.824   5.644  68.948  1.00  0.00    -0.109 A  
HETATM   14  C   UNL     1      -8.998   4.249  68.840  1.00  0.00    -0.109 A  
HETATM   15  C   UNL     1      -9.544   3.672  67.687  1.00  0.00    -0.193 A  
HETATM   16 CL   UNL     1      -8.566   3.169  70.120  1.00  0.00    -0.098 Cl 
HETATM   17  C   UNL     1      -9.913   4.471  66.610  1.00  0.00    -0.253 A  
HETATM   18  C   UNL     1      -9.700   5.844  66.673  1.00  0.00    -0.184 A  
HETATM   19  C   UNL     1      -9.150   6.424  67.822  1.00  0.00    -0.111 A  
HETATM   20 CL   UNL     1      -8.912   8.137  67.789  1.00  0.00    -0.133 Cl 
ENDBRANCH  12  13
ENDBRANCH   9  12
TORSDOF 2
ENDMDL
MODEL      245
REMARK 921   NORMALIZED FREE ENERGY PREDICTED BY IDOCK:   -2.84 KCAL/MOL
REMARK 922        TOTAL FREE ENERGY PREDICTED BY IDOCK:   -3.50 KCAL/MOL
REMARK 923 INTER-LIGAND FREE ENERGY PREDICTED BY IDOCK:   -3.38 KCAL/MOL
REMARK 924 INTRA-LIGAND FREE ENERGY PREDICTED BY IDOCK:   -0.12 KCAL/MOL
REMARK 927      BINDING AFFINITY PREDICTED BY RF-SCORE:    0.00 PKD
ROOT
HETATM    1  N   UNL     1      -9.700   4.594  67.279  1.00  0.00    -0.175 NA 
HETATM    2  C   UNL     1     -10.308   5.651  66.709  1.00  0.00    -0.262 C  
HETATM    3  H2  UNL     1     -10.118   3.673  67.152  1.00  0.00     0.000 HD 
HETATM    4  H1  UNL     1      -8.845   4.664  67.829  1.00  0.00     0.000 HD 
HETATM    5  N   UNL     1     -11.384   5.564  66.016  1.00  0.00    -0.635 NA 
HETATM    6  N   UNL     1      -9.805   6.908  66.843  1.00  0.00    -0.172 N  
HETATM    7  H1  UNL     1     -11.845   6.365  65.585  1.00  0.00     0.000 HD 
HETATM    8  H2  UNL     1     -11.802   4.643  65.890  1.00  0.00     0.000 HD 
HETATM    9  C   UNL     1      -8.643   7.278  67.496  1.00  0.00    -0.122 C  
HETATM   10  H   UNL     1     -10.344   7.661  66.415  1.00  0.00     0.000 HD 
HETATM   11  O   UNL     1      -7.797   6.477  67.891  1.00  0.00    -0.105 OA 
ENDROOT
BRANCH   9  12
HETATM   12  C   UNL     1      -8.490   8.777  67.668  1.00  0.00    -0.125 C  
BRANCH  12  13
HETATM   13  C   UNL     1      -9.120   9.593  66.560  1.00  0.00    -0.185 A  
HETATM   14  C   UNL     1      -8.569   9.613  65.263  1.00  0.00    -0.152 A  
HETATM   15  C   UNL     1      -9.207  10.282  64.213  1.00  0.00    -0.300 A  
HETATM   16 CL   UNL     1      -7.086   8.806  64.885  1.00  0.00    -0.076 Cl 
HETATM   17  C   UNL     1     -10.401  10.961  64.435  1.00  0.00    -0.430 A  
HETATM   18  C   UNL     1     -10.936  11.000  65.719  1.00  0.00    -0.102 A  
HETATM   19  C   UNL     1     -10.297  10.336  66.773  1.00  0.00    -0.227 A  
HETATM   20 CL   UNL     1     -11.037  10.463  68.331  1.00  0.00    -0.314 Cl 
ENDBRANCH  12  13
ENDBRANCH   9  12
TORSDOF 2
ENDMDL
MODEL      246
REMARK 921   NORMALIZED FREE ENERGY PREDICTED BY IDOCK:   -2.83 KCAL/MOL
REMARK 922        TOTAL FREE ENERGY PREDICTED BY IDOCK:   -3.49 KCAL/MOL
REMARK 923 INTER-LIGAND FREE ENERGY PREDICTED BY IDOCK:   -3.31 KCAL/MOL
REMARK 924 INTRA-LIGAND FREE ENERGY PREDICTED BY IDOCK:   -0.18 KCAL/MOL
REMARK 927      BINDING AFFINITY PREDICTED BY RF-SCORE:    0.00 PKD
ROOT
HETATM    1  N   UNL     1     -11.044   6.761  73.578  1.00  0.00    -0.498 NA 
HETATM    2  C   UNL     1     -11.294   7.509  72.487  1.00  0.00    -0.334 C  
HETATM    3  H2  UNL     1     -11.629   6.900  74.401  1.00  0.00     0.000 HD 
HETATM    4  H1  UNL     1     -10.302   6.063  73.626  1.00  0.00     0.000 HD 
HETATM    5  N   UNL     1     -12.227   8.387  72.426  1.00  0.00    -0.435 NA 
HETATM    6  N   UNL     1     -10.548   7.376  71.357  1.00  0.00    -0.215 N  
HETATM    7  H1  UNL     1     -12.417   8.954  71.600  1.00  0.00     0.000 HD 
HETATM    8  H2  UNL     1     -12.813   8.526  73.250  1.00  0.00     0.000 HD 
HETATM    9  C   UNL     1      -9.517   6.482  71.137  1.00  0.00    -0.167 C  
HETATM   10  H   UNL     1     -10.775   8.006  70.587  1.00  0.00     0.000 HD 
HETATM   11  O   UNL     1      -9.255   5.543  71.887  1.00  0.00    -0.141 OA 
ENDROOT
BRANCH   9  12
HETATM   12  C   UNL     1      -8.736   6.751  69.865  1.00  0.00    -0.141 C  
BRANCH  12  13
HETATM   13  C   UNL     1      -9.369   6.172  68.618  1.00  0.00    -0.121 A  
HETATM   14  C   UNL     1     -10.021   6.997  67.680  1.00  0.00    -0.154 A  
HETATM   15  C   UNL     1     -10.516   6.478  66.477  1.00  0.00    -0.132 A  
HETATM   16 CL   UNL     1     -10.240   8.693  67.944  1.00  0.00    -0.258 Cl 
HETATM   17  C   UNL     1     -10.385   5.123  66.191  1.00  0.00    -0.280 A  
HETATM   18  C   UNL     1      -9.793   4.281  67.126  1.00  0.00    -0.205 A  
HETATM   19  C   UNL     1      -9.302   4.796  68.332  1.00  0.00    -0.132 A  
HETATM   20 CL   UNL     1      -8.600   3.660  69.431  1.00  0.00    -0.098 Cl 
ENDBRANCH  12  13
ENDBRANCH   9  12
TORSDOF 2
ENDMDL
MODEL      247
REMARK 921   NORMALIZED FREE ENERGY PREDICTED BY IDOCK:   -2.81 KCAL/MOL
REMARK 922        TOTAL FREE ENERGY PREDICTED BY IDOCK:   -3.47 KCAL/MOL
REMARK 923 INTER-LIGAND FREE ENERGY PREDICTED BY IDOCK:   -3.23 KCAL/MOL
REMARK 924 INTRA-LIGAND FREE ENERGY PREDICTED BY IDOCK:   -0.24 KCAL/MOL
REMARK 927      BINDING AFFINITY PREDICTED BY RF-SCORE:    0.00 PKD
ROOT
HETATM    1  N   UNL     1     -12.835   7.683  70.993  1.00  0.00    -0.550 NA 
HETATM    2  C   UNL     1     -11.938   8.684  71.047  1.00  0.00    -0.243 C  
HETATM    3  H2  UNL     1     -13.678   7.760  71.562  1.00  0.00     0.000 HD 
HETATM    4  H1  UNL     1     -12.720   6.851  70.414  1.00  0.00     0.000 HD 
HETATM    5  N   UNL     1     -12.084   9.731  71.774  1.00  0.00    -0.385 NA 
HETATM    6  N   UNL     1     -10.792   8.641  70.316  1.00  0.00    -0.234 N  
HETATM    7  H1  UNL     1     -11.404  10.490  71.815  1.00  0.00     0.000 HD 
HETATM    8  H2  UNL     1     -12.926   9.808  72.344  1.00  0.00     0.000 HD 
HETATM    9  C   UNL     1     -10.407   7.659  69.422  1.00  0.00    -0.214 C  
HETATM   10  H   UNL     1     -10.144   9.420  70.440  1.00  0.00     0.000 HD 
HETATM   11  O   UNL     1     -11.154   6.766  69.024  1.00  0.00    -0.240 OA 
ENDROOT
BRANCH   9  12
HETATM   12  C   UNL     1      -8.970   7.788  68.954  1.00  0.00    -0.141 C  
BRANCH  12  13
HETATM   13  C   UNL     1      -8.584   9.187  68.526  1.00  0.00    -0.129 A  
HETATM   14  C   UNL     1      -7.748   9.992  69.327  1.00  0.00    -0.117 A  
HETATM   15  C   UNL     1      -7.307  11.245  68.886  1.00  0.00    -0.115 A  
HETATM   16 CL   UNL     1      -7.207   9.481  70.889  1.00  0.00    -0.101 Cl 
HETATM   17  C   UNL     1      -7.701  11.731  67.644  1.00  0.00    -0.137 A  
HETATM   18  C   UNL     1      -8.569  10.978  66.860  1.00  0.00    -0.143 A  
HETATM   19  C   UNL     1      -9.017   9.726  67.300  1.00  0.00    -0.135 A  
HETATM   20 CL   UNL     1     -10.106   8.881  66.256  1.00  0.00    -0.345 Cl 
ENDBRANCH  12  13
ENDBRANCH   9  12
TORSDOF 2
ENDMDL
MODEL      248
REMARK 921   NORMALIZED FREE ENERGY PREDICTED BY IDOCK:   -2.81 KCAL/MOL
REMARK 922        TOTAL FREE ENERGY PREDICTED BY IDOCK:   -3.47 KCAL/MOL
REMARK 923 INTER-LIGAND FREE ENERGY PREDICTED BY IDOCK:   -3.13 KCAL/MOL
REMARK 924 INTRA-LIGAND FREE ENERGY PREDICTED BY IDOCK:   -0.35 KCAL/MOL
REMARK 927      BINDING AFFINITY PREDICTED BY RF-SCORE:    0.00 PKD
ROOT
HETATM    1  N   UNL     1     -12.603   7.500  70.686  1.00  0.00    -0.544 NA 
HETATM    2  C   UNL     1     -11.329   7.740  71.047  1.00  0.00    -0.271 C  
HETATM    3  H2  UNL     1     -13.348   7.924  71.239  1.00  0.00     0.000 HD 
HETATM    4  H1  UNL     1     -12.866   6.918  69.891  1.00  0.00     0.000 HD 
HETATM    5  N   UNL     1     -10.999   8.472  72.047  1.00  0.00    -0.316 NA 
HETATM    6  N   UNL     1     -10.289   7.200  70.354  1.00  0.00    -0.201 N  
HETATM    7  H1  UNL     1     -10.033   8.653  72.320  1.00  0.00     0.000 HD 
HETATM    8  H2  UNL     1     -11.743   8.896  72.600  1.00  0.00     0.000 HD 
HETATM    9  C   UNL     1     -10.360   6.416  69.218  1.00  0.00    -0.207 C  
HETATM   10  H   UNL     1      -9.354   7.397  70.712  1.00  0.00     0.000 HD 
HETATM   11  O   UNL     1     -11.388   6.251  68.563  1.00  0.00    -0.324 OA 
ENDROOT
BRANCH   9  12
HETATM   12  C   UNL     1      -9.037   5.780  68.832  1.00  0.00    -0.121 C  
BRANCH  12  13
HETATM   13  C   UNL     1      -9.095   4.275  68.690  1.00  0.00    -0.178 A  
HETATM   14  C   UNL     1      -8.994   3.430  69.815  1.00  0.00    -0.111 A  
HETATM   15  C   UNL     1      -9.151   2.044  69.698  1.00  0.00    -0.167 A  
HETATM   16 CL   UNL     1      -8.687   4.049  71.401  1.00  0.00    -0.125 Cl 
HETATM   17  C   UNL     1      -9.395   1.467  68.457  1.00  0.00    -0.231 A  
HETATM   18  C   UNL     1      -9.445   2.275  67.325  1.00  0.00     0.004 A  
HETATM   19  C   UNL     1      -9.284   3.661  67.437  1.00  0.00    -0.189 A  
HETATM   20 CL   UNL     1      -9.346   4.570  65.967  1.00  0.00    -0.145 Cl 
ENDBRANCH  12  13
ENDBRANCH   9  12
TORSDOF 2
ENDMDL
MODEL      249
REMARK 921   NORMALIZED FREE ENERGY PREDICTED BY IDOCK:   -2.80 KCAL/MOL
REMARK 922        TOTAL FREE ENERGY PREDICTED BY IDOCK:   -3.47 KCAL/MOL
REMARK 923 INTER-LIGAND FREE ENERGY PREDICTED BY IDOCK:   -3.15 KCAL/MOL
REMARK 924 INTRA-LIGAND FREE ENERGY PREDICTED BY IDOCK:   -0.32 KCAL/MOL
REMARK 927      BINDING AFFINITY PREDICTED BY RF-SCORE:    0.00 PKD
ROOT
HETATM    1  N   UNL     1      -9.453   2.382  68.963  1.00  0.00    -0.130 NA 
HETATM    2  C   UNL     1      -9.393   3.514  68.236  1.00  0.00    -0.177 C  
HETATM    3  H2  UNL     1      -9.781   1.533  68.504  1.00  0.00     0.000 HD 
HETATM    4  H1  UNL     1      -9.189   2.327  69.946  1.00  0.00     0.000 HD 
HETATM    5  N   UNL     1      -9.725   3.583  66.999  1.00  0.00    -0.364 NA 
HETATM    6  N   UNL     1      -8.968   4.682  68.789  1.00  0.00    -0.104 N  
HETATM    7  H1  UNL     1      -9.679   4.440  66.449  1.00  0.00     0.000 HD 
HETATM    8  H2  UNL     1     -10.053   2.733  66.540  1.00  0.00     0.000 HD 
HETATM    9  C   UNL     1      -8.513   4.879  70.080  1.00  0.00    -0.083 C  
HETATM   10  H   UNL     1      -8.987   5.504  68.184  1.00  0.00     0.000 HD 
HETATM   11  O   UNL     1      -8.253   3.965  70.860  1.00  0.00    -0.065 OA 
ENDROOT
BRANCH   9  12
HETATM   12  C   UNL     1      -8.343   6.341  70.451  1.00  0.00    -0.126 C  
BRANCH  12  13
HETATM   13  C   UNL     1      -9.547   6.946  71.139  1.00  0.00    -0.167 A  
HETATM   14  C   UNL     1      -9.704   6.871  72.537  1.00  0.00    -0.153 A  
HETATM   15  C   UNL     1     -10.762   7.519  73.185  1.00  0.00    -0.452 A  
HETATM   16 CL   UNL     1      -8.601   5.990  73.538  1.00  0.00    -0.119 Cl 
HETATM   17  C   UNL     1     -11.696   8.244  72.452  1.00  0.00    -0.463 A  
HETATM   18  C   UNL     1     -11.591   8.288  71.066  1.00  0.00    -0.301 A  
HETATM   19  C   UNL     1     -10.537   7.636  70.414  1.00  0.00    -0.230 A  
HETATM   20 CL   UNL     1     -10.511   7.739  68.688  1.00  0.00    -0.216 Cl 
ENDBRANCH  12  13
ENDBRANCH   9  12
TORSDOF 2
ENDMDL
MODEL      250
REMARK 921   NORMALIZED FREE ENERGY PREDICTED BY IDOCK:   -2.80 KCAL/MOL
REMARK 922        TOTAL FREE ENERGY PREDICTED BY IDOCK:   -3.46 KCAL/MOL
REMARK 923 INTER-LIGAND FREE ENERGY PREDICTED BY IDOCK:   -3.82 KCAL/MOL
REMARK 924 INTRA-LIGAND FREE ENERGY PREDICTED BY IDOCK:    0.37 KCAL/MOL
REMARK 927      BINDING AFFINITY PREDICTED BY RF-SCORE:    0.00 PKD
ROOT
HETATM    1  N   UNL     1      -8.724   7.131  71.438  1.00  0.00    -0.124 NA 
HETATM    2  C   UNL     1     -10.041   7.004  71.189  1.00  0.00    -0.187 C  
HETATM    3  H2  UNL     1      -8.287   6.461  72.070  1.00  0.00     0.000 HD 
HETATM    4  H1  UNL     1      -8.139   7.860  71.030  1.00  0.00     0.000 HD 
HETATM    5  N   UNL     1     -10.776   6.087  71.702  1.00  0.00    -0.243 NA 
HETATM    6  N   UNL     1     -10.686   7.867  70.358  1.00  0.00    -0.229 N  
HETATM    7  H1  UNL     1     -11.773   5.990  71.513  1.00  0.00     0.000 HD 
HETATM    8  H2  UNL     1     -10.339   5.416  72.335  1.00  0.00     0.000 HD 
HETATM    9  C   UNL     1     -10.129   8.912  69.644  1.00  0.00    -0.200 C  
HETATM   10  H   UNL     1     -11.691   7.728  70.251  1.00  0.00     0.000 HD 
HETATM   11  O   UNL     1      -8.918   9.087  69.520  1.00  0.00    -0.139 OA 
ENDROOT
BRANCH   9  12
HETATM   12  C   UNL     1     -11.155   9.828  69.002  1.00  0.00    -0.143 C  
BRANCH  12  13
HETATM   13  C   UNL     1     -11.678  10.909  69.923  1.00  0.00    -0.418 A  
HETATM   14  C   UNL     1     -11.307  12.258  69.750  1.00  0.00    -0.076 A  
HETATM   15  C   UNL     1     -11.869  13.271  70.535  1.00  0.00    -0.215 A  
HETATM   16 CL   UNL     1     -10.151  12.746  68.559  1.00  0.00    -0.217 Cl 
HETATM   17  C   UNL     1     -12.802  12.962  71.518  1.00  0.00    -0.380 A  
HETATM   18  C   UNL     1     -13.144  11.632  71.742  1.00  0.00    -0.487 A  
HETATM   19  C   UNL     1     -12.579  10.615  70.964  1.00  0.00    -0.416 A  
HETATM   20 CL   UNL     1     -13.059   8.996  71.337  1.00  0.00    -0.350 Cl 
ENDBRANCH  12  13
ENDBRANCH   9  12
TORSDOF 2
ENDMDL
MODEL      251
REMARK 921   NORMALIZED FREE ENERGY PREDICTED BY IDOCK:   -2.79 KCAL/MOL
REMARK 922        TOTAL FREE ENERGY PREDICTED BY IDOCK:   -3.46 KCAL/MOL
REMARK 923 INTER-LIGAND FREE ENERGY PREDICTED BY IDOCK:   -3.26 KCAL/MOL
REMARK 924 INTRA-LIGAND FREE ENERGY PREDICTED BY IDOCK:   -0.20 KCAL/MOL
REMARK 927      BINDING AFFINITY PREDICTED BY RF-SCORE:    0.00 PKD
ROOT
HETATM    1  N   UNL     1     -12.429   7.901  70.829  1.00  0.00    -0.511 NA 
HETATM    2  C   UNL     1     -11.169   8.117  71.251  1.00  0.00    -0.260 C  
HETATM    3  H2  UNL     1     -13.148   8.572  71.098  1.00  0.00     0.000 HD 
HETATM    4  H1  UNL     1     -12.704   7.104  70.256  1.00  0.00     0.000 HD 
HETATM    5  N   UNL     1     -10.822   9.119  71.972  1.00  0.00    -0.297 NA 
HETATM    6  N   UNL     1     -10.164   7.257  70.932  1.00  0.00    -0.197 N  
HETATM    7  H1  UNL     1      -9.868   9.282  72.292  1.00  0.00     0.000 HD 
HETATM    8  H2  UNL     1     -11.542   9.791  72.241  1.00  0.00     0.000 HD 
HETATM    9  C   UNL     1     -10.250   6.129  70.136  1.00  0.00    -0.199 C  
HETATM   10  H   UNL     1      -9.244   7.469  71.321  1.00  0.00     0.000 HD 
HETATM   11  O   UNL     1     -11.231   5.851  69.448  1.00  0.00    -0.375 OA 
ENDROOT
BRANCH   9  12
HETATM   12  C   UNL     1      -9.007   5.260  70.173  1.00  0.00    -0.156 C  
BRANCH  12  13
HETATM   13  C   UNL     1      -9.058   4.071  69.239  1.00  0.00    -0.194 A  
HETATM   14  C   UNL     1      -8.811   4.214  67.859  1.00  0.00    -0.113 A  
HETATM   15  C   UNL     1      -8.756   3.101  67.011  1.00  0.00    -0.136 A  
HETATM   16 CL   UNL     1      -8.547   5.761  67.130  1.00  0.00    -0.110 Cl 
HETATM   17  C   UNL     1      -8.962   1.822  67.518  1.00  0.00    -0.163 A  
HETATM   18  C   UNL     1      -9.261   1.661  68.867  1.00  0.00    -0.194 A  
HETATM   19  C   UNL     1      -9.322   2.773  69.716  1.00  0.00    -0.129 A  
HETATM   20 CL   UNL     1      -9.719   2.463  71.371  1.00  0.00    -0.224 Cl 
ENDBRANCH  12  13
ENDBRANCH   9  12
TORSDOF 2
ENDMDL
MODEL      252
REMARK 921   NORMALIZED FREE ENERGY PREDICTED BY IDOCK:   -2.74 KCAL/MOL
REMARK 922        TOTAL FREE ENERGY PREDICTED BY IDOCK:   -3.40 KCAL/MOL
REMARK 923 INTER-LIGAND FREE ENERGY PREDICTED BY IDOCK:   -3.10 KCAL/MOL
REMARK 924 INTRA-LIGAND FREE ENERGY PREDICTED BY IDOCK:   -0.30 KCAL/MOL
REMARK 927      BINDING AFFINITY PREDICTED BY RF-SCORE:    0.00 PKD
ROOT
HETATM    1  N   UNL     1      -9.335   4.508  68.511  1.00  0.00    -0.134 NA 
HETATM    2  C   UNL     1      -8.299   5.194  69.028  1.00  0.00    -0.087 C  
HETATM    3  H2  UNL     1      -9.135   3.659  67.983  1.00  0.00     0.000 HD 
HETATM    4  H1  UNL     1     -10.309   4.790  68.617  1.00  0.00     0.000 HD 
HETATM    5  N   UNL     1      -7.074   4.839  68.894  1.00  0.00    -0.052 NA 
HETATM    6  N   UNL     1      -8.497   6.337  69.739  1.00  0.00    -0.125 N  
HETATM    7  H1  UNL     1      -6.289   5.359  69.286  1.00  0.00     0.000 HD 
HETATM    8  H2  UNL     1      -6.873   3.990  68.366  1.00  0.00     0.000 HD 
HETATM    9  C   UNL     1      -9.709   6.917  70.068  1.00  0.00    -0.167 C  
HETATM   10  H   UNL     1      -7.660   6.820  70.065  1.00  0.00     0.000 HD 
HETATM   11  O   UNL     1     -10.796   6.362  69.916  1.00  0.00    -0.248 OA 
ENDROOT
BRANCH   9  12
HETATM   12  C   UNL     1      -9.580   8.308  70.659  1.00  0.00    -0.190 C  
BRANCH  12  13
HETATM   13  C   UNL     1     -10.816   9.165  70.494  1.00  0.00    -0.306 A  
HETATM   14  C   UNL     1     -11.776   9.268  71.521  1.00  0.00    -0.380 A  
HETATM   15  C   UNL     1     -12.866  10.140  71.411  1.00  0.00    -0.530 A  
HETATM   16 CL   UNL     1     -11.664   8.341  72.977  1.00  0.00    -0.141 Cl 
HETATM   17  C   UNL     1     -13.031  10.917  70.269  1.00  0.00    -0.104 A  
HETATM   18  C   UNL     1     -12.125  10.793  69.221  1.00  0.00    -0.278 A  
HETATM   19  C   UNL     1     -11.037   9.918  69.325  1.00  0.00    -0.181 A  
HETATM   20 CL   UNL     1      -9.982   9.827  67.958  1.00  0.00    -0.176 Cl 
ENDBRANCH  12  13
ENDBRANCH   9  12
TORSDOF 2
ENDMDL
MODEL      253
REMARK 921   NORMALIZED FREE ENERGY PREDICTED BY IDOCK:   -2.74 KCAL/MOL
REMARK 922        TOTAL FREE ENERGY PREDICTED BY IDOCK:   -3.40 KCAL/MOL
REMARK 923 INTER-LIGAND FREE ENERGY PREDICTED BY IDOCK:   -3.20 KCAL/MOL
REMARK 924 INTRA-LIGAND FREE ENERGY PREDICTED BY IDOCK:   -0.20 KCAL/MOL
REMARK 927      BINDING AFFINITY PREDICTED BY RF-SCORE:    0.00 PKD
ROOT
HETATM    1  N   UNL     1      -6.017  11.824  67.958  1.00  0.00    -0.047 NA 
HETATM    2  C   UNL     1      -6.961  12.005  68.900  1.00  0.00    -0.104 C  
HETATM    3  H2  UNL     1      -5.189  12.418  67.985  1.00  0.00     0.000 HD 
HETATM    4  H1  UNL     1      -6.084  11.125  67.218  1.00  0.00     0.000 HD 
HETATM    5  N   UNL     1      -6.876  12.884  69.831  1.00  0.00    -0.328 NA 
HETATM    6  N   UNL     1      -8.092  11.250  68.917  1.00  0.00    -0.269 N  
HETATM    7  H1  UNL     1      -7.591  13.021  70.545  1.00  0.00     0.000 HD 
HETATM    8  H2  UNL     1      -6.047  13.478  69.859  1.00  0.00     0.000 HD 
HETATM    9  C   UNL     1      -8.416  10.211  68.063  1.00  0.00    -0.118 C  
HETATM   10  H   UNL     1      -8.777  11.474  69.639  1.00  0.00     0.000 HD 
HETATM   11  O   UNL     1      -7.622   9.702  67.274  1.00  0.00    -0.091 OA 
ENDROOT
BRANCH   9  12
HETATM   12  C   UNL     1      -9.850   9.734  68.198  1.00  0.00    -0.170 C  
BRANCH  12  13
HETATM   13  C   UNL     1     -10.241   9.349  69.608  1.00  0.00    -0.225 A  
HETATM   14  C   UNL     1      -9.644   8.250  70.259  1.00  0.00    -0.168 A  
HETATM   15  C   UNL     1      -9.929   7.956  71.597  1.00  0.00    -0.227 A  
HETATM   16 CL   UNL     1      -8.518   7.211  69.455  1.00  0.00    -0.133 Cl 
HETATM   17  C   UNL     1     -10.827   8.740  72.313  1.00  0.00    -0.328 A  
HETATM   18  C   UNL     1     -11.470   9.797  71.676  1.00  0.00    -0.294 A  
HETATM   19  C   UNL     1     -11.191  10.091  70.335  1.00  0.00    -0.323 A  
HETATM   20 CL   UNL     1     -12.058  11.415  69.636  1.00  0.00    -0.375 Cl 
ENDBRANCH  12  13
ENDBRANCH   9  12
TORSDOF 2
ENDMDL
MODEL      254
REMARK 921   NORMALIZED FREE ENERGY PREDICTED BY IDOCK:   -2.74 KCAL/MOL
REMARK 922        TOTAL FREE ENERGY PREDICTED BY IDOCK:   -3.39 KCAL/MOL
REMARK 923 INTER-LIGAND FREE ENERGY PREDICTED BY IDOCK:   -3.28 KCAL/MOL
REMARK 924 INTRA-LIGAND FREE ENERGY PREDICTED BY IDOCK:   -0.12 KCAL/MOL
REMARK 927      BINDING AFFINITY PREDICTED BY RF-SCORE:    0.00 PKD
ROOT
HETATM    1  N   UNL     1      -8.196  13.532  66.498  1.00  0.00    -0.196 NA 
HETATM    2  C   UNL     1      -9.538  13.486  66.590  1.00  0.00    -0.278 C  
HETATM    3  H2  UNL     1      -7.779  14.232  65.884  1.00  0.00     0.000 HD 
HETATM    4  H1  UNL     1      -7.573  12.905  67.008  1.00  0.00     0.000 HD 
HETATM    5  N   UNL     1     -10.321  14.274  65.950  1.00  0.00    -0.301 NA 
HETATM    6  N   UNL     1     -10.157  12.574  67.387  1.00  0.00    -0.209 N  
HETATM    7  H1  UNL     1     -11.338  14.240  66.020  1.00  0.00     0.000 HD 
HETATM    8  H2  UNL     1      -9.904  14.974  65.336  1.00  0.00     0.000 HD 
HETATM    9  C   UNL     1      -9.556  11.643  68.214  1.00  0.00    -0.198 C  
HETATM   10  H   UNL     1     -11.177  12.578  67.374  1.00  0.00     0.000 HD 
HETATM   11  O   UNL     1      -8.356  11.640  68.483  1.00  0.00    -0.152 OA 
ENDROOT
BRANCH   9  12
HETATM   12  C   UNL     1     -10.521  10.620  68.784  1.00  0.00    -0.215 C  
BRANCH  12  13
HETATM   13  C   UNL     1     -10.068   9.185  68.618  1.00  0.00    -0.212 A  
HETATM   14  C   UNL     1      -9.793   8.372  69.736  1.00  0.00    -0.187 A  
HETATM   15  C   UNL     1      -9.475   7.017  69.587  1.00  0.00    -0.147 A  
HETATM   16 CL   UNL     1      -9.844   8.987  71.352  1.00  0.00    -0.374 Cl 
HETATM   17  C   UNL     1      -9.408   6.446  68.320  1.00  0.00    -0.109 A  
HETATM   18  C   UNL     1      -9.624   7.242  67.200  1.00  0.00    -0.203 A  
HETATM   19  C   UNL     1      -9.937   8.599  67.345  1.00  0.00    -0.210 A  
HETATM   20 CL   UNL     1     -10.168   9.501  65.887  1.00  0.00    -0.286 Cl 
ENDBRANCH  12  13
ENDBRANCH   9  12
TORSDOF 2
ENDMDL
MODEL      255
REMARK 921   NORMALIZED FREE ENERGY PREDICTED BY IDOCK:   -2.73 KCAL/MOL
REMARK 922        TOTAL FREE ENERGY PREDICTED BY IDOCK:   -3.39 KCAL/MOL
REMARK 923 INTER-LIGAND FREE ENERGY PREDICTED BY IDOCK:   -3.13 KCAL/MOL
REMARK 924 INTRA-LIGAND FREE ENERGY PREDICTED BY IDOCK:   -0.26 KCAL/MOL
REMARK 927      BINDING AFFINITY PREDICTED BY RF-SCORE:    0.00 PKD
ROOT
HETATM    1  N   UNL     1      -5.988  11.837  67.977  1.00  0.00    -0.047 NA 
HETATM    2  C   UNL     1      -6.740  12.111  69.060  1.00  0.00    -0.103 C  
HETATM    3  H2  UNL     1      -5.143  12.386  67.826  1.00  0.00     0.000 HD 
HETATM    4  H1  UNL     1      -6.218  11.110  67.299  1.00  0.00     0.000 HD 
HETATM    5  N   UNL     1      -6.451  13.025  69.912  1.00  0.00    -0.339 NA 
HETATM    6  N   UNL     1      -7.882  11.418  69.317  1.00  0.00    -0.361 N  
HETATM    7  H1  UNL     1      -7.020  13.233  70.732  1.00  0.00     0.000 HD 
HETATM    8  H2  UNL     1      -5.605  13.575  69.761  1.00  0.00     0.000 HD 
HETATM    9  C   UNL     1      -8.398  10.360  68.591  1.00  0.00    -0.127 C  
HETATM   10  H   UNL     1      -8.416  11.711  70.135  1.00  0.00     0.000 HD 
HETATM   11  O   UNL     1      -7.781   9.775  67.703  1.00  0.00    -0.094 OA 
ENDROOT
BRANCH   9  12
HETATM   12  C   UNL     1      -9.805   9.967  69.003  1.00  0.00    -0.193 C  
BRANCH  12  13
HETATM   13  C   UNL     1     -10.005   8.476  69.165  1.00  0.00    -0.194 A  
HETATM   14  C   UNL     1     -10.330   7.658  68.064  1.00  0.00    -0.205 A  
HETATM   15  C   UNL     1     -10.414   6.266  68.193  1.00  0.00    -0.278 A  
HETATM   16 CL   UNL     1     -10.629   8.313  66.492  1.00  0.00    -0.112 Cl 
HETATM   17  C   UNL     1     -10.192   5.661  69.425  1.00  0.00    -0.315 A  
HETATM   18  C   UNL     1      -9.923   6.452  70.537  1.00  0.00    -0.214 A  
HETATM   19  C   UNL     1      -9.844   7.844  70.413  1.00  0.00    -0.183 A  
HETATM   20 CL   UNL     1      -9.522   8.734  71.861  1.00  0.00    -0.365 Cl 
ENDBRANCH  12  13
ENDBRANCH   9  12
TORSDOF 2
ENDMDL
MODEL      256
REMARK 921   NORMALIZED FREE ENERGY PREDICTED BY IDOCK:   -2.73 KCAL/MOL
REMARK 922        TOTAL FREE ENERGY PREDICTED BY IDOCK:   -3.38 KCAL/MOL
REMARK 923 INTER-LIGAND FREE ENERGY PREDICTED BY IDOCK:   -3.16 KCAL/MOL
REMARK 924 INTRA-LIGAND FREE ENERGY PREDICTED BY IDOCK:   -0.22 KCAL/MOL
REMARK 927      BINDING AFFINITY PREDICTED BY RF-SCORE:    0.00 PKD
ROOT
HETATM    1  N   UNL     1     -10.555  12.476  64.207  1.00  0.00    -0.343 NA 
HETATM    2  C   UNL     1      -9.679  12.578  65.223  1.00  0.00    -0.057 C  
HETATM    3  H2  UNL     1     -11.109  13.297  63.965  1.00  0.00     0.000 HD 
HETATM    4  H1  UNL     1     -10.696  11.623  63.665  1.00  0.00     0.000 HD 
HETATM    5  N   UNL     1      -9.502  13.650  65.904  1.00  0.00    -0.505 NA 
HETATM    6  N   UNL     1      -8.913  11.518  65.600  1.00  0.00    -0.377 N  
HETATM    7  H1  UNL     1      -8.838  13.727  66.674  1.00  0.00     0.000 HD 
HETATM    8  H2  UNL     1     -10.056  14.472  65.662  1.00  0.00     0.000 HD 
HETATM    9  C   UNL     1      -8.871  10.267  65.013  1.00  0.00    -0.187 C  
HETATM   10  H   UNL     1      -8.301  11.663  66.404  1.00  0.00     0.000 HD 
HETATM   11  O   UNL     1      -9.399  10.000  63.935  1.00  0.00    -0.265 OA 
ENDROOT
BRANCH   9  12
HETATM   12  C   UNL     1      -8.093   9.242  65.817  1.00  0.00    -0.115 C  
BRANCH  12  13
HETATM   13  C   UNL     1      -8.311   9.335  67.311  1.00  0.00    -0.125 A  
HETATM   14  C   UNL     1      -7.351   9.930  68.154  1.00  0.00    -0.080 A  
HETATM   15  C   UNL     1      -7.595  10.110  69.520  1.00  0.00    -0.139 A  
HETATM   16 CL   UNL     1      -5.825  10.485  67.556  1.00  0.00    -0.044 Cl 
HETATM   17  C   UNL     1      -8.796   9.687  70.080  1.00  0.00    -0.259 A  
HETATM   18  C   UNL     1      -9.737   9.048  69.278  1.00  0.00    -0.168 A  
HETATM   19  C   UNL     1      -9.493   8.861  67.912  1.00  0.00    -0.142 A  
HETATM   20 CL   UNL     1     -10.720   8.041  67.011  1.00  0.00    -0.356 Cl 
ENDBRANCH  12  13
ENDBRANCH   9  12
TORSDOF 2
ENDMDL
MODEL      257
REMARK 921   NORMALIZED FREE ENERGY PREDICTED BY IDOCK:   -2.71 KCAL/MOL
REMARK 922        TOTAL FREE ENERGY PREDICTED BY IDOCK:   -3.37 KCAL/MOL
REMARK 923 INTER-LIGAND FREE ENERGY PREDICTED BY IDOCK:   -3.08 KCAL/MOL
REMARK 924 INTRA-LIGAND FREE ENERGY PREDICTED BY IDOCK:   -0.29 KCAL/MOL
REMARK 927      BINDING AFFINITY PREDICTED BY RF-SCORE:    0.00 PKD
ROOT
HETATM    1  N   UNL     1     -12.549   6.871  70.693  1.00  0.00    -0.553 NA 
HETATM    2  C   UNL     1     -11.530   7.656  71.092  1.00  0.00    -0.275 C  
HETATM    3  H2  UNL     1     -13.339   6.751  71.326  1.00  0.00     0.000 HD 
HETATM    4  H1  UNL     1     -12.574   6.390  69.794  1.00  0.00     0.000 HD 
HETATM    5  N   UNL     1     -11.499   8.261  72.222  1.00  0.00    -0.358 NA 
HETATM    6  N   UNL     1     -10.444   7.855  70.297  1.00  0.00    -0.220 N  
HETATM    7  H1  UNL     1     -10.727   8.855  72.523  1.00  0.00     0.000 HD 
HETATM    8  H2  UNL     1     -12.289   8.141  72.855  1.00  0.00     0.000 HD 
HETATM    9  C   UNL     1     -10.240   7.362  69.021  1.00  0.00    -0.199 C  
HETATM   10  H   UNL     1      -9.697   8.431  70.685  1.00  0.00     0.000 HD 
HETATM   11  O   UNL     1     -11.116   6.818  68.351  1.00  0.00    -0.210 OA 
ENDROOT
BRANCH   9  12
HETATM   12  C   UNL     1      -8.828   7.567  68.505  1.00  0.00    -0.126 C  
BRANCH  12  13
HETATM   13  C   UNL     1      -8.406   9.018  68.427  1.00  0.00    -0.124 A  
HETATM   14  C   UNL     1      -8.896   9.869  67.416  1.00  0.00    -0.132 A  
HETATM   15  C   UNL     1      -8.588  11.234  67.403  1.00  0.00    -0.136 A  
HETATM   16 CL   UNL     1      -9.913   9.288  66.142  1.00  0.00    -0.360 Cl 
HETATM   17  C   UNL     1      -7.772  11.779  68.388  1.00  0.00    -0.131 A  
HETATM   18  C   UNL     1      -7.233  10.949  69.366  1.00  0.00    -0.126 A  
HETATM   19  C   UNL     1      -7.534   9.581  69.379  1.00  0.00    -0.088 A  
HETATM   20 CL   UNL     1      -6.798   8.637  70.626  1.00  0.00    -0.041 Cl 
ENDBRANCH  12  13
ENDBRANCH   9  12
TORSDOF 2
ENDMDL
MODEL      258
REMARK 921   NORMALIZED FREE ENERGY PREDICTED BY IDOCK:   -2.69 KCAL/MOL
REMARK 922        TOTAL FREE ENERGY PREDICTED BY IDOCK:   -3.34 KCAL/MOL
REMARK 923 INTER-LIGAND FREE ENERGY PREDICTED BY IDOCK:   -3.03 KCAL/MOL
REMARK 924 INTRA-LIGAND FREE ENERGY PREDICTED BY IDOCK:   -0.31 KCAL/MOL
REMARK 927      BINDING AFFINITY PREDICTED BY RF-SCORE:    0.00 PKD
ROOT
HETATM    1  N   UNL     1     -10.715  10.015  69.702  1.00  0.00    -0.237 NA 
HETATM    2  C   UNL     1     -11.524   9.383  70.573  1.00  0.00    -0.262 C  
HETATM    3  H2  UNL     1     -10.793  11.029  69.621  1.00  0.00     0.000 HD 
HETATM    4  H1  UNL     1     -10.028   9.537  69.120  1.00  0.00     0.000 HD 
HETATM    5  N   UNL     1     -12.388   9.985  71.305  1.00  0.00    -0.366 NA 
HETATM    6  N   UNL     1     -11.473   8.032  70.726  1.00  0.00    -0.295 N  
HETATM    7  H1  UNL     1     -13.001   9.505  71.965  1.00  0.00     0.000 HD 
HETATM    8  H2  UNL     1     -12.467  10.998  71.224  1.00  0.00     0.000 HD 
HETATM    9  C   UNL     1     -10.611   7.152  70.098  1.00  0.00    -0.230 C  
HETATM   10  H   UNL     1     -12.145   7.624  71.376  1.00  0.00     0.000 HD 
HETATM   11  O   UNL     1      -9.633   7.505  69.442  1.00  0.00    -0.156 OA 
ENDROOT
BRANCH   9  12
HETATM   12  C   UNL     1     -10.971   5.693  70.305  1.00  0.00    -0.287 C  
BRANCH  12  13
HETATM   13  C   UNL     1      -9.895   4.884  70.997  1.00  0.00    -0.266 A  
HETATM   14  C   UNL     1      -9.747   4.913  72.398  1.00  0.00    -0.157 A  
HETATM   15  C   UNL     1      -8.822   4.087  73.048  1.00  0.00    -0.103 A  
HETATM   16 CL   UNL     1     -10.702   5.951  73.400  1.00  0.00    -0.281 Cl 
HETATM   17  C   UNL     1      -8.012   3.227  72.313  1.00  0.00    -0.059 A  
HETATM   18  C   UNL     1      -8.103   3.221  70.925  1.00  0.00    -0.062 A  
HETATM   19  C   UNL     1      -9.024   4.049  70.272  1.00  0.00    -0.095 A  
HETATM   20 CL   UNL     1      -9.042   3.976  68.544  1.00  0.00    -0.171 Cl 
ENDBRANCH  12  13
ENDBRANCH   9  12
TORSDOF 2
ENDMDL
MODEL      259
REMARK 921   NORMALIZED FREE ENERGY PREDICTED BY IDOCK:   -2.67 KCAL/MOL
REMARK 922        TOTAL FREE ENERGY PREDICTED BY IDOCK:   -3.32 KCAL/MOL
REMARK 923 INTER-LIGAND FREE ENERGY PREDICTED BY IDOCK:   -3.00 KCAL/MOL
REMARK 924 INTRA-LIGAND FREE ENERGY PREDICTED BY IDOCK:   -0.32 KCAL/MOL
REMARK 927      BINDING AFFINITY PREDICTED BY RF-SCORE:    0.00 PKD
ROOT
HETATM    1  N   UNL     1     -10.746   4.046  64.854  1.00  0.00    -0.580 NA 
HETATM    2  C   UNL     1      -9.708   4.807  64.458  1.00  0.00     0.165 C  
HETATM    3  H2  UNL     1     -11.263   3.530  64.143  1.00  0.00     0.000 HD 
HETATM    4  H1  UNL     1     -11.042   3.957  65.826  1.00  0.00     0.000 HD 
HETATM    5  N   UNL     1      -9.335   4.919  63.236  1.00  0.00    -0.352 NA 
HETATM    6  N   UNL     1      -8.979   5.525  65.355  1.00  0.00    -0.269 N  
HETATM    7  H1  UNL     1      -8.549   5.496  62.936  1.00  0.00     0.000 HD 
HETATM    8  H2  UNL     1      -9.852   4.403  62.525  1.00  0.00     0.000 HD 
HETATM    9  C   UNL     1      -9.137   5.551  66.729  1.00  0.00    -0.118 C  
HETATM   10  H   UNL     1      -8.234   6.107  64.973  1.00  0.00     0.000 HD 
HETATM   11  O   UNL     1      -9.855   4.769  67.349  1.00  0.00    -0.168 OA 
ENDROOT
BRANCH   9  12
HETATM   12  C   UNL     1      -8.323   6.632  67.416  1.00  0.00    -0.121 C  
BRANCH  12  13
HETATM   13  C   UNL     1      -9.158   7.677  68.122  1.00  0.00    -0.132 A  
HETATM   14  C   UNL     1      -9.364   7.628  69.516  1.00  0.00    -0.153 A  
HETATM   15  C   UNL     1     -10.049   8.650  70.185  1.00  0.00    -0.196 A  
HETATM   16 CL   UNL     1      -8.778   6.320  70.484  1.00  0.00    -0.142 Cl 
HETATM   17  C   UNL     1     -10.556   9.735  69.478  1.00  0.00    -0.253 A  
HETATM   18  C   UNL     1     -10.412   9.778  68.095  1.00  0.00    -0.258 A  
HETATM   19  C   UNL     1      -9.733   8.755  67.422  1.00  0.00    -0.174 A  
HETATM   20 CL   UNL     1      -9.625   8.897  65.702  1.00  0.00    -0.250 Cl 
ENDBRANCH  12  13
ENDBRANCH   9  12
TORSDOF 2
ENDMDL
MODEL      260
REMARK 921   NORMALIZED FREE ENERGY PREDICTED BY IDOCK:   -2.66 KCAL/MOL
REMARK 922        TOTAL FREE ENERGY PREDICTED BY IDOCK:   -3.31 KCAL/MOL
REMARK 923 INTER-LIGAND FREE ENERGY PREDICTED BY IDOCK:   -3.02 KCAL/MOL
REMARK 924 INTRA-LIGAND FREE ENERGY PREDICTED BY IDOCK:   -0.29 KCAL/MOL
REMARK 927      BINDING AFFINITY PREDICTED BY RF-SCORE:    0.00 PKD
ROOT
HETATM    1  N   UNL     1     -10.031   3.438  66.974  1.00  0.00    -0.222 NA 
HETATM    2  C   UNL     1      -9.851   4.772  66.985  1.00  0.00    -0.200 C  
HETATM    3  H2  UNL     1     -10.513   3.024  66.177  1.00  0.00     0.000 HD 
HETATM    4  H1  UNL     1      -9.712   2.818  67.719  1.00  0.00     0.000 HD 
HETATM    5  N   UNL     1     -10.252   5.551  66.048  1.00  0.00    -0.412 NA 
HETATM    6  N   UNL     1      -9.220   5.388  68.021  1.00  0.00    -0.109 N  
HETATM    7  H1  UNL     1     -10.115   6.561  66.056  1.00  0.00     0.000 HD 
HETATM    8  H2  UNL     1     -10.734   5.136  65.250  1.00  0.00     0.000 HD 
HETATM    9  C   UNL     1      -8.654   4.787  69.131  1.00  0.00    -0.080 C  
HETATM   10  H   UNL     1      -9.156   6.405  67.974  1.00  0.00     0.000 HD 
HETATM   11  O   UNL     1      -8.481   3.574  69.238  1.00  0.00    -0.062 OA 
ENDROOT
BRANCH   9  12
HETATM   12  C   UNL     1      -8.242   5.768  70.212  1.00  0.00    -0.110 C  
BRANCH  12  13
HETATM   13  C   UNL     1      -9.383   6.597  70.760  1.00  0.00    -0.159 A  
HETATM   14  C   UNL     1      -9.563   7.939  70.370  1.00  0.00    -0.171 A  
HETATM   15  C   UNL     1     -10.676   8.675  70.795  1.00  0.00    -0.260 A  
HETATM   16 CL   UNL     1      -8.438   8.754  69.340  1.00  0.00    -0.123 Cl 
HETATM   17  C   UNL     1     -11.625   8.095  71.629  1.00  0.00    -0.325 A  
HETATM   18  C   UNL     1     -11.440   6.788  72.070  1.00  0.00    -0.317 A  
HETATM   19  C   UNL     1     -10.326   6.051  71.652  1.00  0.00    -0.214 A  
HETATM   20 CL   UNL     1     -10.183   4.443  72.272  1.00  0.00    -0.255 Cl 
ENDBRANCH  12  13
ENDBRANCH   9  12
TORSDOF 2
ENDMDL
MODEL      261
REMARK 921   NORMALIZED FREE ENERGY PREDICTED BY IDOCK:   -2.66 KCAL/MOL
REMARK 922        TOTAL FREE ENERGY PREDICTED BY IDOCK:   -3.31 KCAL/MOL
REMARK 923 INTER-LIGAND FREE ENERGY PREDICTED BY IDOCK:   -2.98 KCAL/MOL
REMARK 924 INTRA-LIGAND FREE ENERGY PREDICTED BY IDOCK:   -0.33 KCAL/MOL
REMARK 927      BINDING AFFINITY PREDICTED BY RF-SCORE:    0.00 PKD
ROOT
HETATM    1  N   UNL     1     -11.311   4.234  64.956  1.00  0.00    -1.043 NA 
HETATM    2  C   UNL     1     -10.017   4.562  64.776  1.00  0.00    -0.017 C  
HETATM    3  H2  UNL     1     -11.704   3.493  64.376  1.00  0.00     0.000 HD 
HETATM    4  H1  UNL     1     -11.918   4.686  65.639  1.00  0.00     0.000 HD 
HETATM    5  N   UNL     1      -9.253   3.994  63.917  1.00  0.00    -0.137 NA 
HETATM    6  N   UNL     1      -9.432   5.544  65.514  1.00  0.00    -0.359 N  
HETATM    7  H1  UNL     1      -8.273   4.242  63.782  1.00  0.00     0.000 HD 
HETATM    8  H2  UNL     1      -9.647   3.253  63.337  1.00  0.00     0.000 HD 
HETATM    9  C   UNL     1     -10.009   6.281  66.531  1.00  0.00    -0.115 C  
HETATM   10  H   UNL     1      -8.460   5.760  65.293  1.00  0.00     0.000 HD 
HETATM   11  O   UNL     1     -11.097   6.012  67.038  1.00  0.00    -0.303 OA 
ENDROOT
BRANCH   9  12
HETATM   12  C   UNL     1      -9.166   7.457  66.987  1.00  0.00    -0.169 C  
BRANCH  12  13
HETATM   13  C   UNL     1      -8.492   7.250  68.326  1.00  0.00    -0.124 A  
HETATM   14  C   UNL     1      -7.183   6.734  68.413  1.00  0.00    -0.085 A  
HETATM   15  C   UNL     1      -6.520   6.639  69.643  1.00  0.00    -0.044 A  
HETATM   16 CL   UNL     1      -6.313   6.201  67.016  1.00  0.00    -0.036 Cl 
HETATM   17  C   UNL     1      -7.153   7.041  70.814  1.00  0.00    -0.067 A  
HETATM   18  C   UNL     1      -8.464   7.503  70.759  1.00  0.00    -0.126 A  
HETATM   19  C   UNL     1      -9.132   7.594  69.532  1.00  0.00    -0.146 A  
HETATM   20 CL   UNL     1     -10.764   8.165  69.578  1.00  0.00    -0.212 Cl 
ENDBRANCH  12  13
ENDBRANCH   9  12
TORSDOF 2
ENDMDL
MODEL      262
REMARK 921   NORMALIZED FREE ENERGY PREDICTED BY IDOCK:   -2.66 KCAL/MOL
REMARK 922        TOTAL FREE ENERGY PREDICTED BY IDOCK:   -3.31 KCAL/MOL
REMARK 923 INTER-LIGAND FREE ENERGY PREDICTED BY IDOCK:   -3.03 KCAL/MOL
REMARK 924 INTRA-LIGAND FREE ENERGY PREDICTED BY IDOCK:   -0.28 KCAL/MOL
REMARK 927      BINDING AFFINITY PREDICTED BY RF-SCORE:    0.00 PKD
ROOT
HETATM    1  N   UNL     1     -11.693  10.634  68.273  1.00  0.00    -0.731 NA 
HETATM    2  C   UNL     1     -11.646  10.268  69.568  1.00  0.00    -0.168 C  
HETATM    3  H2  UNL     1     -11.966  11.591  68.052  1.00  0.00     0.000 HD 
HETATM    4  H1  UNL     1     -11.470  10.006  67.500  1.00  0.00     0.000 HD 
HETATM    5  N   UNL     1     -11.925  11.058  70.539  1.00  0.00    -0.354 NA 
HETATM    6  N   UNL     1     -11.294   9.005  69.929  1.00  0.00    -0.434 N  
HETATM    7  H1  UNL     1     -11.890  10.781  71.520  1.00  0.00     0.000 HD 
HETATM    8  H2  UNL     1     -12.199  12.015  70.319  1.00  0.00     0.000 HD 
HETATM    9  C   UNL     1     -10.904   7.975  69.093  1.00  0.00    -0.021 C  
HETATM   10  H   UNL     1     -11.319   8.795  70.927  1.00  0.00     0.000 HD 
HETATM   11  O   UNL     1     -10.642   8.124  67.901  1.00  0.00    -0.212 OA 
ENDROOT
BRANCH   9  12
HETATM   12  C   UNL     1     -10.809   6.628  69.787  1.00  0.00    -0.337 C  
BRANCH  12  13
HETATM   13  C   UNL     1      -9.508   5.898  69.540  1.00  0.00    -0.166 A  
HETATM   14  C   UNL     1      -9.334   5.077  68.407  1.00  0.00    -0.126 A  
HETATM   15  C   UNL     1      -8.098   4.483  68.123  1.00  0.00    -0.087 A  
HETATM   16 CL   UNL     1     -10.622   4.762  67.297  1.00  0.00    -0.032 Cl 
HETATM   17  C   UNL     1      -7.013   4.682  68.970  1.00  0.00    -0.051 A  
HETATM   18  C   UNL     1      -7.175   5.445  70.122  1.00  0.00    -0.067 A  
HETATM   19  C   UNL     1      -8.411   6.035  70.412  1.00  0.00    -0.132 A  
HETATM   20 CL   UNL     1      -8.509   6.948  71.878  1.00  0.00    -0.115 Cl 
ENDBRANCH  12  13
ENDBRANCH   9  12
TORSDOF 2
ENDMDL
MODEL      263
REMARK 921   NORMALIZED FREE ENERGY PREDICTED BY IDOCK:   -2.58 KCAL/MOL
REMARK 922        TOTAL FREE ENERGY PREDICTED BY IDOCK:   -3.22 KCAL/MOL
REMARK 923 INTER-LIGAND FREE ENERGY PREDICTED BY IDOCK:   -2.92 KCAL/MOL
REMARK 924 INTRA-LIGAND FREE ENERGY PREDICTED BY IDOCK:   -0.30 KCAL/MOL
REMARK 927      BINDING AFFINITY PREDICTED BY RF-SCORE:    0.00 PKD
ROOT
HETATM    1  N   UNL     1      -5.429  10.852  66.122  1.00  0.00    -0.116 NA 
HETATM    2  C   UNL     1      -6.344  10.431  65.229  1.00  0.00    -0.114 C  
HETATM    3  H2  UNL     1      -4.443  10.783  65.870  1.00  0.00     0.000 HD 
HETATM    4  H1  UNL     1      -5.666  11.236  67.037  1.00  0.00     0.000 HD 
HETATM    5  N   UNL     1      -6.045   9.949  64.079  1.00  0.00    -0.115 NA 
HETATM    6  N   UNL     1      -7.675  10.492  65.505  1.00  0.00    -0.210 N  
HETATM    7  H1  UNL     1      -6.738   9.631  63.402  1.00  0.00     0.000 HD 
HETATM    8  H2  UNL     1      -5.059   9.880  63.827  1.00  0.00     0.000 HD 
HETATM    9  C   UNL     1      -8.270  11.004  66.643  1.00  0.00    -0.154 C  
HETATM   10  H   UNL     1      -8.303  10.118  64.793  1.00  0.00     0.000 HD 
HETATM   11  O   UNL     1      -7.668  11.655  67.495  1.00  0.00    -0.120 OA 
ENDROOT
BRANCH   9  12
HETATM   12  C   UNL     1      -9.754  10.705  66.743  1.00  0.00    -0.222 C  
BRANCH  12  13
HETATM   13  C   UNL     1     -10.295  10.734  68.156  1.00  0.00    -0.197 A  
HETATM   14  C   UNL     1     -10.908  11.891  68.680  1.00  0.00    -0.235 A  
HETATM   15  C   UNL     1     -11.501  11.887  69.948  1.00  0.00    -0.264 A  
HETATM   16 CL   UNL     1     -10.980  13.373  67.791  1.00  0.00    -0.272 Cl 
HETATM   17  C   UNL     1     -11.482  10.737  70.729  1.00  0.00    -0.216 A  
HETATM   18  C   UNL     1     -10.835   9.600  70.255  1.00  0.00    -0.339 A  
HETATM   19  C   UNL     1     -10.237   9.601  68.989  1.00  0.00    -0.199 A  
HETATM   20 CL   UNL     1      -9.445   8.142  68.504  1.00  0.00    -0.142 Cl 
ENDBRANCH  12  13
ENDBRANCH   9  12
TORSDOF 2
ENDMDL
MODEL      264
REMARK 921   NORMALIZED FREE ENERGY PREDICTED BY IDOCK:   -2.54 KCAL/MOL
REMARK 922        TOTAL FREE ENERGY PREDICTED BY IDOCK:   -3.17 KCAL/MOL
REMARK 923 INTER-LIGAND FREE ENERGY PREDICTED BY IDOCK:   -2.90 KCAL/MOL
REMARK 924 INTRA-LIGAND FREE ENERGY PREDICTED BY IDOCK:   -0.28 KCAL/MOL
REMARK 927      BINDING AFFINITY PREDICTED BY RF-SCORE:    0.00 PKD
ROOT
HETATM    1  N   UNL     1     -11.387   6.470  67.603  1.00  0.00    -0.702 NA 
HETATM    2  C   UNL     1     -11.087   7.328  68.597  1.00  0.00     0.111 C  
HETATM    3  H2  UNL     1     -11.770   6.851  66.738  1.00  0.00     0.000 HD 
HETATM    4  H1  UNL     1     -11.252   5.461  67.667  1.00  0.00     0.000 HD 
HETATM    5  N   UNL     1     -11.257   8.596  68.516  1.00  0.00    -0.227 NA 
HETATM    6  N   UNL     1     -10.577   6.884  69.777  1.00  0.00    -0.223 N  
HETATM    7  H1  UNL     1     -11.029   9.245  69.269  1.00  0.00     0.000 HD 
HETATM    8  H2  UNL     1     -11.640   8.977  67.651  1.00  0.00     0.000 HD 
HETATM    9  C   UNL     1     -10.256   5.582  70.113  1.00  0.00    -0.263 C  
HETATM   10  H   UNL     1     -10.412   7.591  70.494  1.00  0.00     0.000 HD 
HETATM   11  O   UNL     1     -10.218   4.657  69.302  1.00  0.00    -0.161 OA 
ENDROOT
BRANCH   9  12
HETATM   12  C   UNL     1      -9.935   5.391  71.583  1.00  0.00    -0.239 C  
BRANCH  12  13
HETATM   13  C   UNL     1      -8.795   6.253  72.082  1.00  0.00    -0.137 A  
HETATM   14  C   UNL     1      -9.035   7.401  72.863  1.00  0.00    -0.141 A  
HETATM   15  C   UNL     1      -7.980   8.140  73.411  1.00  0.00    -0.240 A  
HETATM   16 CL   UNL     1     -10.636   7.960  73.204  1.00  0.00    -0.408 Cl 
HETATM   17  C   UNL     1      -6.662   7.760  73.180  1.00  0.00    -0.082 A  
HETATM   18  C   UNL     1      -6.400   6.661  72.368  1.00  0.00    -0.054 A  
HETATM   19  C   UNL     1      -7.453   5.923  71.813  1.00  0.00    -0.095 A  
HETATM   20 CL   UNL     1      -7.017   4.588  70.805  1.00  0.00    -0.036 Cl 
ENDBRANCH  12  13
ENDBRANCH   9  12
TORSDOF 2
ENDMDL
MODEL      265
REMARK 921   NORMALIZED FREE ENERGY PREDICTED BY IDOCK:   -2.51 KCAL/MOL
REMARK 922        TOTAL FREE ENERGY PREDICTED BY IDOCK:   -3.14 KCAL/MOL
REMARK 923 INTER-LIGAND FREE ENERGY PREDICTED BY IDOCK:   -2.85 KCAL/MOL
REMARK 924 INTRA-LIGAND FREE ENERGY PREDICTED BY IDOCK:   -0.29 KCAL/MOL
REMARK 927      BINDING AFFINITY PREDICTED BY RF-SCORE:    0.00 PKD
ROOT
HETATM    1  N   UNL     1      -8.095   3.245  71.956  1.00  0.00    -0.062 NA 
HETATM    2  C   UNL     1      -8.265   3.884  70.783  1.00  0.00    -0.066 C  
HETATM    3  H2  UNL     1      -7.366   2.535  72.016  1.00  0.00     0.000 HD 
HETATM    4  H1  UNL     1      -8.656   3.432  72.788  1.00  0.00     0.000 HD 
HETATM    5  N   UNL     1      -7.561   3.649  69.737  1.00  0.00    -0.051 NA 
HETATM    6  N   UNL     1      -9.224   4.838  70.635  1.00  0.00    -0.127 N  
HETATM    7  H1  UNL     1      -7.690   4.132  68.849  1.00  0.00     0.000 HD 
HETATM    8  H2  UNL     1      -6.831   2.939  69.798  1.00  0.00     0.000 HD 
HETATM    9  C   UNL     1     -10.087   5.314  71.605  1.00  0.00    -0.199 C  
HETATM   10  H   UNL     1      -9.316   5.248  69.705  1.00  0.00     0.000 HD 
HETATM   11  O   UNL     1      -9.974   5.061  72.803  1.00  0.00    -0.156 OA 
ENDROOT
BRANCH   9  12
HETATM   12  C   UNL     1     -11.190   6.201  71.059  1.00  0.00    -0.361 C  
BRANCH  12  13
HETATM   13  C   UNL     1     -10.690   7.443  70.355  1.00  0.00    -0.250 A  
HETATM   14  C   UNL     1     -10.211   8.552  71.081  1.00  0.00    -0.214 A  
HETATM   15  C   UNL     1      -9.653   9.659  70.432  1.00  0.00    -0.292 A  
HETATM   16 CL   UNL     1     -10.267   8.610  72.809  1.00  0.00    -0.159 Cl 
HETATM   17  C   UNL     1      -9.575   9.693  69.044  1.00  0.00    -0.168 A  
HETATM   18  C   UNL     1     -10.091   8.634  68.304  1.00  0.00    -0.225 A  
HETATM   19  C   UNL     1     -10.655   7.527  68.950  1.00  0.00    -0.169 A  
HETATM   20 CL   UNL     1     -11.282   6.274  67.936  1.00  0.00    -0.351 Cl 
ENDBRANCH  12  13
ENDBRANCH   9  12
TORSDOF 2
ENDMDL
MODEL      266
REMARK 921   NORMALIZED FREE ENERGY PREDICTED BY IDOCK:   -2.51 KCAL/MOL
REMARK 922        TOTAL FREE ENERGY PREDICTED BY IDOCK:   -3.14 KCAL/MOL
REMARK 923 INTER-LIGAND FREE ENERGY PREDICTED BY IDOCK:   -3.12 KCAL/MOL
REMARK 924 INTRA-LIGAND FREE ENERGY PREDICTED BY IDOCK:   -0.02 KCAL/MOL
REMARK 927      BINDING AFFINITY PREDICTED BY RF-SCORE:    0.00 PKD
ROOT
HETATM    1  N   UNL     1      -6.482  10.400  70.268  1.00  0.00    -0.132 NA 
HETATM    2  C   UNL     1      -6.964   9.152  70.120  1.00  0.00    -0.056 C  
HETATM    3  H2  UNL     1      -5.559  10.512  70.689  1.00  0.00     0.000 HD 
HETATM    4  H1  UNL     1      -6.986  11.239  69.983  1.00  0.00     0.000 HD 
HETATM    5  N   UNL     1      -6.329   8.097  70.479  1.00  0.00    -0.036 NA 
HETATM    6  N   UNL     1      -8.190   8.933  69.571  1.00  0.00    -0.104 N  
HETATM    7  H1  UNL     1      -6.696   7.152  70.366  1.00  0.00     0.000 HD 
HETATM    8  H2  UNL     1      -5.407   8.209  70.899  1.00  0.00     0.000 HD 
HETATM    9  C   UNL     1      -9.059   9.881  69.062  1.00  0.00    -0.164 C  
HETATM   10  H   UNL     1      -8.501   7.962  69.528  1.00  0.00     0.000 HD 
HETATM   11  O   UNL     1      -8.752  11.056  68.869  1.00  0.00    -0.164 OA 
ENDROOT
BRANCH   9  12
HETATM   12  C   UNL     1     -10.438   9.335  68.743  1.00  0.00    -0.233 C  
BRANCH  12  13
HETATM   13  C   UNL     1     -11.148   8.719  69.929  1.00  0.00    -0.129 A  
HETATM   14  C   UNL     1     -10.946   7.369  70.281  1.00  0.00    -0.255 A  
HETATM   15  C   UNL     1     -11.519   6.827  71.437  1.00  0.00    -0.336 A  
HETATM   16 CL   UNL     1      -9.972   6.308  69.323  1.00  0.00    -0.174 Cl 
HETATM   17  C   UNL     1     -12.320   7.613  72.259  1.00  0.00    -0.227 A  
HETATM   18  C   UNL     1     -12.577   8.933  71.903  1.00  0.00    -0.439 A  
HETATM   19  C   UNL     1     -12.009   9.478  70.745  1.00  0.00    -0.252 A  
HETATM   20 CL   UNL     1     -12.407  11.122  70.386  1.00  0.00    -0.421 Cl 
ENDBRANCH  12  13
ENDBRANCH   9  12
TORSDOF 2
ENDMDL
MODEL      267
REMARK 921   NORMALIZED FREE ENERGY PREDICTED BY IDOCK:   -2.51 KCAL/MOL
REMARK 922        TOTAL FREE ENERGY PREDICTED BY IDOCK:   -3.14 KCAL/MOL
REMARK 923 INTER-LIGAND FREE ENERGY PREDICTED BY IDOCK:   -2.96 KCAL/MOL
REMARK 924 INTRA-LIGAND FREE ENERGY PREDICTED BY IDOCK:   -0.18 KCAL/MOL
REMARK 927      BINDING AFFINITY PREDICTED BY RF-SCORE:    0.00 PKD
ROOT
HETATM    1  N   UNL     1     -11.524   4.526  65.139  1.00  0.00    -1.109 NA 
HETATM    2  C   UNL     1     -10.232   4.398  65.492  1.00  0.00    -0.241 C  
HETATM    3  H2  UNL     1     -11.937   3.801  64.553  1.00  0.00     0.000 HD 
HETATM    4  H1  UNL     1     -12.114   5.308  65.424  1.00  0.00     0.000 HD 
HETATM    5  N   UNL     1      -9.490   3.415  65.133  1.00  0.00    -0.158 NA 
HETATM    6  N   UNL     1      -9.620   5.333  66.269  1.00  0.00    -0.155 N  
HETATM    7  H1  UNL     1      -8.511   3.319  65.401  1.00  0.00     0.000 HD 
HETATM    8  H2  UNL     1      -9.903   2.690  64.547  1.00  0.00     0.000 HD 
HETATM    9  C   UNL     1     -10.193   6.461  66.826  1.00  0.00    -0.195 C  
HETATM   10  H   UNL     1      -8.629   5.185  66.461  1.00  0.00     0.000 HD 
HETATM   11  O   UNL     1     -11.404   6.674  66.845  1.00  0.00    -0.333 OA 
ENDROOT
BRANCH   9  12
HETATM   12  C   UNL     1      -9.186   7.419  67.437  1.00  0.00    -0.146 C  
BRANCH  12  13
HETATM   13  C   UNL     1      -8.027   6.736  68.129  1.00  0.00    -0.114 A  
HETATM   14  C   UNL     1      -8.131   6.292  69.463  1.00  0.00    -0.117 A  
HETATM   15  C   UNL     1      -7.098   5.569  70.070  1.00  0.00    -0.066 A  
HETATM   16 CL   UNL     1      -9.537   6.597  70.423  1.00  0.00    -0.170 Cl 
HETATM   17  C   UNL     1      -5.931   5.287  69.367  1.00  0.00    -0.021 A  
HETATM   18  C   UNL     1      -5.784   5.761  68.068  1.00  0.00    -0.012 A  
HETATM   19  C   UNL     1      -6.813   6.489  67.459  1.00  0.00    -0.076 A  
HETATM   20 CL   UNL     1      -6.521   7.047  65.848  1.00  0.00    -0.050 Cl 
ENDBRANCH  12  13
ENDBRANCH   9  12
TORSDOF 2
ENDMDL
MODEL      268
REMARK 921   NORMALIZED FREE ENERGY PREDICTED BY IDOCK:   -2.49 KCAL/MOL
REMARK 922        TOTAL FREE ENERGY PREDICTED BY IDOCK:   -3.12 KCAL/MOL
REMARK 923 INTER-LIGAND FREE ENERGY PREDICTED BY IDOCK:   -2.85 KCAL/MOL
REMARK 924 INTRA-LIGAND FREE ENERGY PREDICTED BY IDOCK:   -0.26 KCAL/MOL
REMARK 927      BINDING AFFINITY PREDICTED BY RF-SCORE:    0.00 PKD
ROOT
HETATM    1  N   UNL     1     -12.473   7.607  71.140  1.00  0.00    -0.461 NA 
HETATM    2  C   UNL     1     -11.434   8.445  70.965  1.00  0.00    -0.268 C  
HETATM    3  H2  UNL     1     -13.274   7.940  71.677  1.00  0.00     0.000 HD 
HETATM    4  H1  UNL     1     -12.505   6.659  70.766  1.00  0.00     0.000 HD 
HETATM    5  N   UNL     1     -11.394   9.637  71.435  1.00  0.00    -0.379 NA 
HETATM    6  N   UNL     1     -10.333   8.061  70.263  1.00  0.00    -0.208 N  
HETATM    7  H1  UNL     1     -10.607  10.271  71.302  1.00  0.00     0.000 HD 
HETATM    8  H2  UNL     1     -12.195   9.970  71.972  1.00  0.00     0.000 HD 
HETATM    9  C   UNL     1     -10.133   6.856  69.616  1.00  0.00    -0.184 C  
HETATM   10  H   UNL     1      -9.572   8.738  70.207  1.00  0.00     0.000 HD 
HETATM   11  O   UNL     1     -11.019   6.023  69.432  1.00  0.00    -0.332 OA 
ENDROOT
BRANCH   9  12
HETATM   12  C   UNL     1      -8.710   6.652  69.131  1.00  0.00    -0.130 C  
BRANCH  12  13
HETATM   13  C   UNL     1      -8.458   7.160  67.728  1.00  0.00    -0.120 A  
HETATM   14  C   UNL     1      -8.028   8.482  67.495  1.00  0.00    -0.106 A  
HETATM   15  C   UNL     1      -7.695   8.922  66.209  1.00  0.00    -0.098 A  
HETATM   16 CL   UNL     1      -7.870   9.634  68.777  1.00  0.00    -0.080 Cl 
HETATM   17  C   UNL     1      -7.800   8.059  65.123  1.00  0.00    -0.116 A  
HETATM   18  C   UNL     1      -8.274   6.766  65.321  1.00  0.00    -0.127 A  
HETATM   19  C   UNL     1      -8.613   6.325  66.605  1.00  0.00    -0.119 A  
HETATM   20 CL   UNL     1      -9.208   4.706  66.737  1.00  0.00    -0.120 Cl 
ENDBRANCH  12  13
ENDBRANCH   9  12
TORSDOF 2
ENDMDL
MODEL      269
REMARK 921   NORMALIZED FREE ENERGY PREDICTED BY IDOCK:   -2.46 KCAL/MOL
REMARK 922        TOTAL FREE ENERGY PREDICTED BY IDOCK:   -3.09 KCAL/MOL
REMARK 923 INTER-LIGAND FREE ENERGY PREDICTED BY IDOCK:   -2.81 KCAL/MOL
REMARK 924 INTRA-LIGAND FREE ENERGY PREDICTED BY IDOCK:   -0.27 KCAL/MOL
REMARK 927      BINDING AFFINITY PREDICTED BY RF-SCORE:    0.00 PKD
ROOT
HETATM    1  N   UNL     1      -9.430   2.675  69.780  1.00  0.00    -0.117 NA 
HETATM    2  C   UNL     1      -8.769   2.980  70.912  1.00  0.00    -0.075 C  
HETATM    3  H2  UNL     1      -9.410   1.707  69.457  1.00  0.00     0.000 HD 
HETATM    4  H1  UNL     1      -9.950   3.356  69.227  1.00  0.00     0.000 HD 
HETATM    5  N   UNL     1      -8.116   2.122  71.607  1.00  0.00    -0.044 NA 
HETATM    6  N   UNL     1      -8.752   4.252  71.395  1.00  0.00    -0.108 N  
HETATM    7  H1  UNL     1      -7.615   2.354  72.465  1.00  0.00     0.000 HD 
HETATM    8  H2  UNL     1      -8.096   1.155  71.284  1.00  0.00     0.000 HD 
HETATM    9  C   UNL     1      -9.405   5.353  70.872  1.00  0.00    -0.156 C  
HETATM   10  H   UNL     1      -8.198   4.410  72.237  1.00  0.00     0.000 HD 
HETATM   11  O   UNL     1     -10.254   5.286  69.985  1.00  0.00    -0.243 OA 
ENDROOT
BRANCH   9  12
HETATM   12  C   UNL     1      -8.990   6.667  71.507  1.00  0.00    -0.139 C  
BRANCH  12  13
HETATM   13  C   UNL     1      -9.592   7.888  70.847  1.00  0.00    -0.172 A  
HETATM   14  C   UNL     1      -9.019   8.450  69.688  1.00  0.00    -0.145 A  
HETATM   15  C   UNL     1      -9.633   9.515  69.017  1.00  0.00    -0.166 A  
HETATM   16 CL   UNL     1      -7.539   7.856  69.016  1.00  0.00    -0.097 Cl 
HETATM   17  C   UNL     1     -10.822  10.053  69.496  1.00  0.00    -0.283 A  
HETATM   18  C   UNL     1     -11.378   9.550  70.668  1.00  0.00    -0.364 A  
HETATM   19  C   UNL     1     -10.764   8.489  71.344  1.00  0.00    -0.250 A  
HETATM   20 CL   UNL     1     -11.528   7.952  72.800  1.00  0.00    -0.455 Cl 
ENDBRANCH  12  13
ENDBRANCH   9  12
TORSDOF 2
ENDMDL
MODEL      270
REMARK 921   NORMALIZED FREE ENERGY PREDICTED BY IDOCK:   -2.41 KCAL/MOL
REMARK 922        TOTAL FREE ENERGY PREDICTED BY IDOCK:   -3.03 KCAL/MOL
REMARK 923 INTER-LIGAND FREE ENERGY PREDICTED BY IDOCK:   -2.93 KCAL/MOL
REMARK 924 INTRA-LIGAND FREE ENERGY PREDICTED BY IDOCK:   -0.10 KCAL/MOL
REMARK 927      BINDING AFFINITY PREDICTED BY RF-SCORE:    0.00 PKD
ROOT
HETATM    1  N   UNL     1      -9.974   7.936  66.370  1.00  0.00    -0.458 NA 
HETATM    2  C   UNL     1      -9.729   6.650  66.686  1.00  0.00    -0.159 C  
HETATM    3  H2  UNL     1     -10.408   8.136  65.469  1.00  0.00     0.000 HD 
HETATM    4  H1  UNL     1      -9.749   8.720  66.981  1.00  0.00     0.000 HD 
HETATM    5  N   UNL     1     -10.013   5.663  65.918  1.00  0.00    -0.377 NA 
HETATM    6  N   UNL     1      -9.148   6.316  67.870  1.00  0.00    -0.113 N  
HETATM    7  H1  UNL     1      -9.827   4.690  66.157  1.00  0.00     0.000 HD 
HETATM    8  H2  UNL     1     -10.447   5.863  65.017  1.00  0.00     0.000 HD 
HETATM    9  C   UNL     1      -8.784   7.171  68.893  1.00  0.00    -0.128 C  
HETATM   10  H   UNL     1      -8.961   5.324  68.019  1.00  0.00     0.000 HD 
HETATM   11  O   UNL     1      -9.114   8.355  68.945  1.00  0.00    -0.146 OA 
ENDROOT
BRANCH   9  12
HETATM   12  C   UNL     1      -7.945   6.511  69.972  1.00  0.00    -0.116 C  
BRANCH  12  13
HETATM   13  C   UNL     1      -8.163   7.080  71.357  1.00  0.00    -0.109 A  
HETATM   14  C   UNL     1      -9.398   6.936  72.021  1.00  0.00    -0.140 A  
HETATM   15  C   UNL     1      -9.568   7.371  73.340  1.00  0.00    -0.298 A  
HETATM   16 CL   UNL     1     -10.769   6.207  71.258  1.00  0.00    -0.296 Cl 
HETATM   17  C   UNL     1      -8.515   7.972  74.023  1.00  0.00    -0.312 A  
HETATM   18  C   UNL     1      -7.304   8.173  73.370  1.00  0.00    -0.178 A  
HETATM   19  C   UNL     1      -7.132   7.745  72.048  1.00  0.00    -0.069 A  
HETATM   20 CL   UNL     1      -5.592   8.060  71.325  1.00  0.00    -0.034 Cl 
ENDBRANCH  12  13
ENDBRANCH   9  12
TORSDOF 2
ENDMDL
MODEL      271
REMARK 921   NORMALIZED FREE ENERGY PREDICTED BY IDOCK:   -2.41 KCAL/MOL
REMARK 922        TOTAL FREE ENERGY PREDICTED BY IDOCK:   -3.03 KCAL/MOL
REMARK 923 INTER-LIGAND FREE ENERGY PREDICTED BY IDOCK:   -2.84 KCAL/MOL
REMARK 924 INTRA-LIGAND FREE ENERGY PREDICTED BY IDOCK:   -0.20 KCAL/MOL
REMARK 927      BINDING AFFINITY PREDICTED BY RF-SCORE:    0.00 PKD
ROOT
HETATM    1  N   UNL     1     -12.835   7.683  70.993  1.00  0.00    -0.550 NA 
HETATM    2  C   UNL     1     -11.938   8.684  71.047  1.00  0.00    -0.243 C  
HETATM    3  H2  UNL     1     -13.678   7.760  71.562  1.00  0.00     0.000 HD 
HETATM    4  H1  UNL     1     -12.720   6.851  70.414  1.00  0.00     0.000 HD 
HETATM    5  N   UNL     1     -12.084   9.731  71.774  1.00  0.00    -0.385 NA 
HETATM    6  N   UNL     1     -10.792   8.641  70.316  1.00  0.00    -0.234 N  
HETATM    7  H1  UNL     1     -11.404  10.490  71.815  1.00  0.00     0.000 HD 
HETATM    8  H2  UNL     1     -12.926   9.808  72.344  1.00  0.00     0.000 HD 
HETATM    9  C   UNL     1     -10.407   7.659  69.422  1.00  0.00    -0.214 C  
HETATM   10  H   UNL     1     -10.144   9.420  70.440  1.00  0.00     0.000 HD 
HETATM   11  O   UNL     1     -11.154   6.766  69.024  1.00  0.00    -0.240 OA 
ENDROOT
BRANCH   9  12
HETATM   12  C   UNL     1      -8.970   7.788  68.954  1.00  0.00    -0.141 C  
BRANCH  12  13
HETATM   13  C   UNL     1      -8.423   6.543  68.290  1.00  0.00    -0.116 A  
HETATM   14  C   UNL     1      -8.224   6.485  66.896  1.00  0.00    -0.113 A  
HETATM   15  C   UNL     1      -7.623   5.374  66.293  1.00  0.00    -0.087 A  
HETATM   16 CL   UNL     1      -8.695   7.779  65.848  1.00  0.00    -0.174 Cl 
HETATM   17  C   UNL     1      -7.220   4.289  67.065  1.00  0.00    -0.068 A  
HETATM   18  C   UNL     1      -7.455   4.301  68.436  1.00  0.00    -0.064 A  
HETATM   19  C   UNL     1      -8.061   5.409  69.042  1.00  0.00    -0.094 A  
HETATM   20 CL   UNL     1      -8.322   5.313  70.748  1.00  0.00    -0.112 Cl 
ENDBRANCH  12  13
ENDBRANCH   9  12
TORSDOF 2
ENDMDL
MODEL      272
REMARK 921   NORMALIZED FREE ENERGY PREDICTED BY IDOCK:   -2.41 KCAL/MOL
REMARK 922        TOTAL FREE ENERGY PREDICTED BY IDOCK:   -3.03 KCAL/MOL
REMARK 923 INTER-LIGAND FREE ENERGY PREDICTED BY IDOCK:   -2.73 KCAL/MOL
REMARK 924 INTRA-LIGAND FREE ENERGY PREDICTED BY IDOCK:   -0.30 KCAL/MOL
REMARK 927      BINDING AFFINITY PREDICTED BY RF-SCORE:    0.00 PKD
ROOT
HETATM    1  N   UNL     1     -10.338   6.534  66.255  1.00  0.00    -0.436 NA 
HETATM    2  C   UNL     1      -9.572   7.640  66.276  1.00  0.00    -0.085 C  
HETATM    3  H2  UNL     1     -10.369   5.987  65.395  1.00  0.00     0.000 HD 
HETATM    4  H1  UNL     1     -10.889   6.213  67.051  1.00  0.00     0.000 HD 
HETATM    5  N   UNL     1      -8.878   8.044  65.275  1.00  0.00    -0.383 NA 
HETATM    6  N   UNL     1      -9.489   8.417  67.390  1.00  0.00    -0.143 N  
HETATM    7  H1  UNL     1      -8.298   8.882  65.292  1.00  0.00     0.000 HD 
HETATM    8  H2  UNL     1      -8.910   7.497  64.415  1.00  0.00     0.000 HD 
HETATM    9  C   UNL     1     -10.094   8.191  68.613  1.00  0.00    -0.196 C  
HETATM   10  H   UNL     1      -8.918   9.260  67.315  1.00  0.00     0.000 HD 
HETATM   11  O   UNL     1     -10.649   7.137  68.916  1.00  0.00    -0.206 OA 
ENDROOT
BRANCH   9  12
HETATM   12  C   UNL     1      -9.997   9.366  69.569  1.00  0.00    -0.200 C  
BRANCH  12  13
HETATM   13  C   UNL     1      -8.602   9.614  70.102  1.00  0.00    -0.243 A  
HETATM   14  C   UNL     1      -8.099   8.886  71.199  1.00  0.00    -0.160 A  
HETATM   15  C   UNL     1      -6.776   9.040  71.628  1.00  0.00    -0.033 A  
HETATM   16 CL   UNL     1      -9.074   7.754  72.073  1.00  0.00    -0.166 Cl 
HETATM   17  C   UNL     1      -5.929   9.934  70.982  1.00  0.00    -0.072 A  
HETATM   18  C   UNL     1      -6.418  10.702  69.930  1.00  0.00    -0.124 A  
HETATM   19  C   UNL     1      -7.743  10.555  69.503  1.00  0.00    -0.136 A  
HETATM   20 CL   UNL     1      -8.255  11.570  68.199  1.00  0.00    -0.142 Cl 
ENDBRANCH  12  13
ENDBRANCH   9  12
TORSDOF 2
ENDMDL
MODEL      273
REMARK 921   NORMALIZED FREE ENERGY PREDICTED BY IDOCK:   -2.17 KCAL/MOL
REMARK 922        TOTAL FREE ENERGY PREDICTED BY IDOCK:   -2.76 KCAL/MOL
REMARK 923 INTER-LIGAND FREE ENERGY PREDICTED BY IDOCK:   -2.50 KCAL/MOL
REMARK 924 INTRA-LIGAND FREE ENERGY PREDICTED BY IDOCK:   -0.26 KCAL/MOL
REMARK 927      BINDING AFFINITY PREDICTED BY RF-SCORE:    0.00 PKD
ROOT
HETATM    1  N   UNL     1     -11.626   6.778  69.134  1.00  0.00    -0.605 NA 
HETATM    2  C   UNL     1     -10.917   7.147  70.217  1.00  0.00    -0.263 C  
HETATM    3  H2  UNL     1     -12.511   7.252  68.953  1.00  0.00     0.000 HD 
HETATM    4  H1  UNL     1     -11.328   6.051  68.484  1.00  0.00     0.000 HD 
HETATM    5  N   UNL     1     -11.292   8.062  71.034  1.00  0.00    -0.270 NA 
HETATM    6  N   UNL     1      -9.731   6.552  70.518  1.00  0.00    -0.172 N  
HETATM    7  H1  UNL     1     -10.755   8.342  71.855  1.00  0.00     0.000 HD 
HETATM    8  H2  UNL     1     -12.177   8.536  70.854  1.00  0.00     0.000 HD 
HETATM    9  C   UNL     1      -9.078   5.576  69.788  1.00  0.00    -0.132 C  
HETATM   10  H   UNL     1      -9.273   6.860  71.376  1.00  0.00     0.000 HD 
HETATM   11  O   UNL     1      -9.402   5.242  68.650  1.00  0.00    -0.113 OA 
ENDROOT
BRANCH   9  12
HETATM   12  C   UNL     1      -7.900   4.955  70.516  1.00  0.00    -0.066 C  
BRANCH  12  13
HETATM   13  C   UNL     1      -8.228   4.456  71.906  1.00  0.00    -0.102 A  
HETATM   14  C   UNL     1      -7.763   5.130  73.053  1.00  0.00    -0.097 A  
HETATM   15  C   UNL     1      -8.150   4.730  74.338  1.00  0.00    -0.095 A  
HETATM   16 CL   UNL     1      -6.702   6.492  72.949  1.00  0.00    -0.068 Cl 
HETATM   17  C   UNL     1      -8.997   3.640  74.508  1.00  0.00    -0.100 A  
HETATM   18  C   UNL     1      -9.426   2.927  73.393  1.00  0.00    -0.120 A  
HETATM   19  C   UNL     1      -9.036   3.321  72.107  1.00  0.00    -0.099 A  
HETATM   20 CL   UNL     1      -9.611   2.355  70.793  1.00  0.00    -0.202 Cl 
ENDBRANCH  12  13
ENDBRANCH   9  12
TORSDOF 2
ENDMDL
MODEL      274
REMARK 921   NORMALIZED FREE ENERGY PREDICTED BY IDOCK:   -2.15 KCAL/MOL
REMARK 922        TOTAL FREE ENERGY PREDICTED BY IDOCK:   -2.73 KCAL/MOL
REMARK 923 INTER-LIGAND FREE ENERGY PREDICTED BY IDOCK:   -2.48 KCAL/MOL
REMARK 924 INTRA-LIGAND FREE ENERGY PREDICTED BY IDOCK:   -0.26 KCAL/MOL
REMARK 927      BINDING AFFINITY PREDICTED BY RF-SCORE:    0.00 PKD
ROOT
HETATM    1  N   UNL     1     -11.626   6.778  69.134  1.00  0.00    -0.605 NA 
HETATM    2  C   UNL     1     -10.917   7.147  70.217  1.00  0.00    -0.263 C  
HETATM    3  H2  UNL     1     -12.511   7.252  68.953  1.00  0.00     0.000 HD 
HETATM    4  H1  UNL     1     -11.328   6.051  68.484  1.00  0.00     0.000 HD 
HETATM    5  N   UNL     1     -11.292   8.062  71.034  1.00  0.00    -0.270 NA 
HETATM    6  N   UNL     1      -9.731   6.552  70.518  1.00  0.00    -0.172 N  
HETATM    7  H1  UNL     1     -10.755   8.342  71.855  1.00  0.00     0.000 HD 
HETATM    8  H2  UNL     1     -12.177   8.536  70.854  1.00  0.00     0.000 HD 
HETATM    9  C   UNL     1      -9.078   5.576  69.788  1.00  0.00    -0.132 C  
HETATM   10  H   UNL     1      -9.273   6.860  71.376  1.00  0.00     0.000 HD 
HETATM   11  O   UNL     1      -9.402   5.242  68.650  1.00  0.00    -0.113 OA 
ENDROOT
BRANCH   9  12
HETATM   12  C   UNL     1      -7.900   4.955  70.516  1.00  0.00    -0.066 C  
BRANCH  12  13
HETATM   13  C   UNL     1      -8.228   4.456  71.906  1.00  0.00    -0.102 A  
HETATM   14  C   UNL     1      -8.866   3.215  72.105  1.00  0.00    -0.086 A  
HETATM   15  C   UNL     1      -9.077   2.705  73.391  1.00  0.00    -0.091 A  
HETATM   16 CL   UNL     1      -9.414   2.243  70.783  1.00  0.00    -0.211 Cl 
HETATM   17  C   UNL     1      -8.670   3.427  74.508  1.00  0.00    -0.090 A  
HETATM   18  C   UNL     1      -8.087   4.678  74.338  1.00  0.00    -0.099 A  
HETATM   19  C   UNL     1      -7.880   5.194  73.053  1.00  0.00    -0.098 A  
HETATM   20 CL   UNL     1      -7.163   6.765  72.955  1.00  0.00    -0.079 Cl 
ENDBRANCH  12  13
ENDBRANCH   9  12
TORSDOF 2
ENDMDL
MODEL      275
REMARK 921   NORMALIZED FREE ENERGY PREDICTED BY IDOCK:   -2.14 KCAL/MOL
REMARK 922        TOTAL FREE ENERGY PREDICTED BY IDOCK:   -2.73 KCAL/MOL
REMARK 923 INTER-LIGAND FREE ENERGY PREDICTED BY IDOCK:   -3.39 KCAL/MOL
REMARK 924 INTRA-LIGAND FREE ENERGY PREDICTED BY IDOCK:    0.66 KCAL/MOL
REMARK 927      BINDING AFFINITY PREDICTED BY RF-SCORE:    0.00 PKD
ROOT
HETATM    1  N   UNL     1     -10.640  12.543  64.153  1.00  0.00    -0.370 NA 
HETATM    2  C   UNL     1      -9.888  12.500  65.269  1.00  0.00    -0.139 C  
HETATM    3  H2  UNL     1     -11.073  13.431  63.899  1.00  0.00     0.000 HD 
HETATM    4  H1  UNL     1     -10.801  11.738  63.549  1.00  0.00     0.000 HD 
HETATM    5  N   UNL     1      -9.685  13.513  66.029  1.00  0.00    -0.419 NA 
HETATM    6  N   UNL     1      -9.287  11.346  65.667  1.00  0.00    -0.227 N  
HETATM    7  H1  UNL     1      -9.115  13.480  66.874  1.00  0.00     0.000 HD 
HETATM    8  H2  UNL     1     -10.118  14.401  65.775  1.00  0.00     0.000 HD 
HETATM    9  C   UNL     1      -9.304  10.127  65.015  1.00  0.00    -0.243 C  
HETATM   10  H   UNL     1      -8.766  11.385  66.544  1.00  0.00     0.000 HD 
HETATM   11  O   UNL     1      -9.721   9.971  63.869  1.00  0.00    -0.257 OA 
ENDROOT
BRANCH   9  12
HETATM   12  C   UNL     1      -8.739   8.985  65.840  1.00  0.00    -0.193 C  
BRANCH  12  13
HETATM   13  C   UNL     1      -8.996   9.112  67.325  1.00  0.00    -0.136 A  
HETATM   14  C   UNL     1      -9.955   8.307  67.972  1.00  0.00    -0.185 A  
HETATM   15  C   UNL     1     -10.121   8.349  69.361  1.00  0.00    -0.198 A  
HETATM   16 CL   UNL     1     -10.972   7.212  67.100  1.00  0.00    -0.402 Cl 
HETATM   17  C   UNL     1      -9.346   9.207  70.135  1.00  0.00    -0.235 A  
HETATM   18  C   UNL     1      -8.431  10.050  69.513  1.00  0.00    -0.186 A  
HETATM   19  C   UNL     1      -8.266  10.014  68.123  1.00  0.00    -0.109 A  
HETATM   20 CL   UNL     1      -7.115  11.115  67.450  1.00  0.00    -0.096 Cl 
ENDBRANCH  12  13
ENDBRANCH   9  12
TORSDOF 2
ENDMDL
MODEL      276
REMARK 921   NORMALIZED FREE ENERGY PREDICTED BY IDOCK:   -2.14 KCAL/MOL
REMARK 922        TOTAL FREE ENERGY PREDICTED BY IDOCK:   -2.72 KCAL/MOL
REMARK 923 INTER-LIGAND FREE ENERGY PREDICTED BY IDOCK:   -2.52 KCAL/MOL
REMARK 924 INTRA-LIGAND FREE ENERGY PREDICTED BY IDOCK:   -0.20 KCAL/MOL
REMARK 927      BINDING AFFINITY PREDICTED BY RF-SCORE:    0.00 PKD
ROOT
HETATM    1  N   UNL     1      -9.100   8.323  65.564  1.00  0.00    -0.395 NA 
HETATM    2  C   UNL     1      -9.728   8.297  66.755  1.00  0.00    -0.239 C  
HETATM    3  H2  UNL     1      -9.267   9.119  64.949  1.00  0.00     0.000 HD 
HETATM    4  H1  UNL     1      -8.467   7.591  65.243  1.00  0.00     0.000 HD 
HETATM    5  N   UNL     1     -10.524   9.217  67.159  1.00  0.00    -0.259 NA 
HETATM    6  N   UNL     1      -9.552   7.261  67.619  1.00  0.00    -0.133 N  
HETATM    7  H1  UNL     1     -10.999   9.197  68.061  1.00  0.00     0.000 HD 
HETATM    8  H2  UNL     1     -10.691  10.014  66.544  1.00  0.00     0.000 HD 
HETATM    9  C   UNL     1      -8.722   6.167  67.455  1.00  0.00    -0.104 C  
HETATM   10  H   UNL     1     -10.092   7.295  68.484  1.00  0.00     0.000 HD 
HETATM   11  O   UNL     1      -7.876   6.079  66.568  1.00  0.00    -0.101 OA 
ENDROOT
BRANCH   9  12
HETATM   12  C   UNL     1      -8.936   5.078  68.490  1.00  0.00    -0.125 C  
BRANCH  12  13
HETATM   13  C   UNL     1      -8.749   5.539  69.919  1.00  0.00    -0.127 A  
HETATM   14  C   UNL     1      -9.848   5.928  70.711  1.00  0.00    -0.183 A  
HETATM   15  C   UNL     1      -9.689   6.255  72.062  1.00  0.00    -0.164 A  
HETATM   16 CL   UNL     1     -11.454   6.012  70.073  1.00  0.00    -0.374 Cl 
HETATM   17  C   UNL     1      -8.430   6.218  72.651  1.00  0.00    -0.123 A  
HETATM   18  C   UNL     1      -7.323   5.889  71.875  1.00  0.00    -0.094 A  
HETATM   19  C   UNL     1      -7.477   5.566  70.521  1.00  0.00    -0.080 A  
HETATM   20 CL   UNL     1      -6.034   5.189  69.645  1.00  0.00    -0.020 Cl 
ENDBRANCH  12  13
ENDBRANCH   9  12
TORSDOF 2
ENDMDL
MODEL      277
REMARK 921   NORMALIZED FREE ENERGY PREDICTED BY IDOCK:   -2.07 KCAL/MOL
REMARK 922        TOTAL FREE ENERGY PREDICTED BY IDOCK:   -2.64 KCAL/MOL
REMARK 923 INTER-LIGAND FREE ENERGY PREDICTED BY IDOCK:   -2.36 KCAL/MOL
REMARK 924 INTRA-LIGAND FREE ENERGY PREDICTED BY IDOCK:   -0.28 KCAL/MOL
REMARK 927      BINDING AFFINITY PREDICTED BY RF-SCORE:    0.00 PKD
ROOT
HETATM    1  N   UNL     1      -7.923   4.102  71.595  1.00  0.00    -0.080 NA 
HETATM    2  C   UNL     1      -7.782   4.281  70.268  1.00  0.00    -0.045 C  
HETATM    3  H2  UNL     1      -7.179   3.619  72.097  1.00  0.00     0.000 HD 
HETATM    4  H1  UNL     1      -8.733   4.423  72.125  1.00  0.00     0.000 HD 
HETATM    5  N   UNL     1      -6.763   3.878  69.601  1.00  0.00    -0.034 NA 
HETATM    6  N   UNL     1      -8.740   4.914  69.538  1.00  0.00    -0.086 N  
HETATM    7  H1  UNL     1      -6.657   4.014  68.596  1.00  0.00     0.000 HD 
HETATM    8  H2  UNL     1      -6.019   3.395  70.103  1.00  0.00     0.000 HD 
HETATM    9  C   UNL     1      -9.909   5.483  70.009  1.00  0.00    -0.198 C  
HETATM   10  H   UNL     1      -8.577   4.977  68.533  1.00  0.00     0.000 HD 
HETATM   11  O   UNL     1     -10.153   5.656  71.202  1.00  0.00    -0.188 OA 
ENDROOT
BRANCH   9  12
HETATM   12  C   UNL     1     -10.872   5.896  68.912  1.00  0.00    -0.373 C  
BRANCH  12  13
HETATM   13  C   UNL     1     -10.281   6.857  67.903  1.00  0.00    -0.212 A  
HETATM   14  C   UNL     1     -10.134   8.228  68.199  1.00  0.00    -0.200 A  
HETATM   15  C   UNL     1      -9.494   9.098  67.309  1.00  0.00    -0.187 A  
HETATM   16 CL   UNL     1     -10.717   8.915  69.676  1.00  0.00    -0.233 Cl 
HETATM   17  C   UNL     1      -9.001   8.625  66.097  1.00  0.00    -0.221 A  
HETATM   18  C   UNL     1      -9.183   7.288  65.760  1.00  0.00     0.076 A  
HETATM   19  C   UNL     1      -9.827   6.416  66.646  1.00  0.00    -0.152 A  
HETATM   20 CL   UNL     1     -10.017   4.779  66.121  1.00  0.00    -0.230 Cl 
ENDBRANCH  12  13
ENDBRANCH   9  12
TORSDOF 2
ENDMDL
MODEL      278
REMARK 921   NORMALIZED FREE ENERGY PREDICTED BY IDOCK:   -2.01 KCAL/MOL
REMARK 922        TOTAL FREE ENERGY PREDICTED BY IDOCK:   -2.58 KCAL/MOL
REMARK 923 INTER-LIGAND FREE ENERGY PREDICTED BY IDOCK:   -2.40 KCAL/MOL
REMARK 924 INTRA-LIGAND FREE ENERGY PREDICTED BY IDOCK:   -0.18 KCAL/MOL
REMARK 927      BINDING AFFINITY PREDICTED BY RF-SCORE:    0.00 PKD
ROOT
HETATM    1  N   UNL     1      -8.083  10.095  65.883  1.00  0.00    -0.130 NA 
HETATM    2  C   UNL     1      -8.828   9.982  66.999  1.00  0.00    -0.138 C  
HETATM    3  H2  UNL     1      -8.424  10.700  65.136  1.00  0.00     0.000 HD 
HETATM    4  H1  UNL     1      -7.197   9.610  65.744  1.00  0.00     0.000 HD 
HETATM    5  N   UNL     1      -9.943  10.593  67.174  1.00  0.00    -0.189 NA 
HETATM    6  N   UNL     1      -8.433   9.188  68.030  1.00  0.00    -0.121 N  
HETATM    7  H1  UNL     1     -10.507  10.507  68.019  1.00  0.00     0.000 HD 
HETATM    8  H2  UNL     1     -10.283  11.198  66.427  1.00  0.00     0.000 HD 
HETATM    9  C   UNL     1      -7.262   8.458  68.122  1.00  0.00    -0.091 C  
HETATM   10  H   UNL     1      -9.071   9.125  68.824  1.00  0.00     0.000 HD 
HETATM   11  O   UNL     1      -6.319   8.579  67.343  1.00  0.00    -0.055 OA 
ENDROOT
BRANCH   9  12
HETATM   12  C   UNL     1      -7.235   7.493  69.293  1.00  0.00    -0.086 C  
BRANCH  12  13
HETATM   13  C   UNL     1      -8.588   6.920  69.651  1.00  0.00    -0.134 A  
HETATM   14  C   UNL     1      -9.176   5.896  68.880  1.00  0.00    -0.119 A  
HETATM   15  C   UNL     1     -10.378   5.294  69.269  1.00  0.00    -0.286 A  
HETATM   16 CL   UNL     1      -8.448   5.315  67.422  1.00  0.00    -0.106 Cl 
HETATM   17  C   UNL     1     -11.029   5.708  70.426  1.00  0.00    -0.278 A  
HETATM   18  C   UNL     1     -10.496   6.752  71.174  1.00  0.00    -0.239 A  
HETATM   19  C   UNL     1      -9.296   7.362  70.785  1.00  0.00    -0.159 A  
HETATM   20 CL   UNL     1      -8.731   8.662  71.775  1.00  0.00    -0.264 Cl 
ENDBRANCH  12  13
ENDBRANCH   9  12
TORSDOF 2
ENDMDL
MODEL      279
REMARK 921   NORMALIZED FREE ENERGY PREDICTED BY IDOCK:   -1.98 KCAL/MOL
REMARK 922        TOTAL FREE ENERGY PREDICTED BY IDOCK:   -2.55 KCAL/MOL
REMARK 923 INTER-LIGAND FREE ENERGY PREDICTED BY IDOCK:   -2.29 KCAL/MOL
REMARK 924 INTRA-LIGAND FREE ENERGY PREDICTED BY IDOCK:   -0.27 KCAL/MOL
REMARK 927      BINDING AFFINITY PREDICTED BY RF-SCORE:    0.00 PKD
ROOT
HETATM    1  N   UNL     1     -12.484   6.684  70.707  1.00  0.00    -0.368 NA 
HETATM    2  C   UNL     1     -11.238   7.068  71.043  1.00  0.00    -0.274 C  
HETATM    3  H2  UNL     1     -13.249   6.929  71.336  1.00  0.00     0.000 HD 
HETATM    4  H1  UNL     1     -12.706   6.163  69.860  1.00  0.00     0.000 HD 
HETATM    5  N   UNL     1     -10.960   7.724  72.110  1.00  0.00    -0.248 NA 
HETATM    6  N   UNL     1     -10.174   6.769  70.251  1.00  0.00    -0.193 N  
HETATM    7  H1  UNL     1     -10.016   8.015  72.363  1.00  0.00     0.000 HD 
HETATM    8  H2  UNL     1     -11.725   7.969  72.738  1.00  0.00     0.000 HD 
HETATM    9  C   UNL     1     -10.196   6.115  69.033  1.00  0.00    -0.191 C  
HETATM   10  H   UNL     1      -9.257   7.061  70.593  1.00  0.00     0.000 HD 
HETATM   11  O   UNL     1     -11.225   5.875  68.405  1.00  0.00    -0.202 OA 
ENDROOT
BRANCH   9  12
HETATM   12  C   UNL     1      -8.820   5.729  68.522  1.00  0.00    -0.110 C  
BRANCH  12  13
HETATM   13  C   UNL     1      -7.837   6.878  68.470  1.00  0.00    -0.118 A  
HETATM   14  C   UNL     1      -7.936   7.880  67.484  1.00  0.00    -0.123 A  
HETATM   15  C   UNL     1      -7.093   8.997  67.496  1.00  0.00    -0.076 A  
HETATM   16 CL   UNL     1      -9.107   7.803  66.212  1.00  0.00    -0.216 Cl 
HETATM   17  C   UNL     1      -6.121   9.132  68.482  1.00  0.00    -0.045 A  
HETATM   18  C   UNL     1      -5.969   8.129  69.434  1.00  0.00    -0.037 A  
HETATM   19  C   UNL     1      -6.807   7.008  69.421  1.00  0.00    -0.054 A  
HETATM   20 CL   UNL     1      -6.522   5.812  70.638  1.00  0.00    -0.032 Cl 
ENDBRANCH  12  13
ENDBRANCH   9  12
TORSDOF 2
ENDMDL
MODEL      280
REMARK 921   NORMALIZED FREE ENERGY PREDICTED BY IDOCK:   -1.98 KCAL/MOL
REMARK 922        TOTAL FREE ENERGY PREDICTED BY IDOCK:   -2.54 KCAL/MOL
REMARK 923 INTER-LIGAND FREE ENERGY PREDICTED BY IDOCK:   -2.49 KCAL/MOL
REMARK 924 INTRA-LIGAND FREE ENERGY PREDICTED BY IDOCK:   -0.05 KCAL/MOL
REMARK 927      BINDING AFFINITY PREDICTED BY RF-SCORE:    0.00 PKD
ROOT
HETATM    1  N   UNL     1      -6.495  10.394  70.247  1.00  0.00    -0.132 NA 
HETATM    2  C   UNL     1      -6.941   9.141  70.041  1.00  0.00    -0.054 C  
HETATM    3  H2  UNL     1      -5.613  10.515  70.745  1.00  0.00     0.000 HD 
HETATM    4  H1  UNL     1      -6.990  11.229  69.934  1.00  0.00     0.000 HD 
HETATM    5  N   UNL     1      -6.319   8.091  70.435  1.00  0.00    -0.036 NA 
HETATM    6  N   UNL     1      -8.112   8.910  69.388  1.00  0.00    -0.102 N  
HETATM    7  H1  UNL     1      -6.657   7.142  70.278  1.00  0.00     0.000 HD 
HETATM    8  H2  UNL     1      -5.437   8.212  70.932  1.00  0.00     0.000 HD 
HETATM    9  C   UNL     1      -8.954   9.851  68.823  1.00  0.00    -0.140 C  
HETATM   10  H   UNL     1      -8.401   7.935  69.304  1.00  0.00     0.000 HD 
HETATM   11  O   UNL     1      -8.653  11.035  68.674  1.00  0.00    -0.147 OA 
ENDROOT
BRANCH   9  12
HETATM   12  C   UNL     1     -10.292   9.288  68.382  1.00  0.00    -0.244 C  
BRANCH  12  13
HETATM   13  C   UNL     1     -10.475   7.819  68.695  1.00  0.00    -0.199 A  
HETATM   14  C   UNL     1      -9.965   6.820  67.841  1.00  0.00    -0.141 A  
HETATM   15  C   UNL     1     -10.043   5.465  68.181  1.00  0.00    -0.220 A  
HETATM   16 CL   UNL     1      -9.202   7.203  66.336  1.00  0.00    -0.200 Cl 
HETATM   17  C   UNL     1     -10.646   5.073  69.371  1.00  0.00     0.032 A  
HETATM   18  C   UNL     1     -11.204   6.037  70.204  1.00  0.00    -0.412 A  
HETATM   19  C   UNL     1     -11.133   7.394  69.865  1.00  0.00    -0.190 A  
HETATM   20 CL   UNL     1     -11.874   8.507  70.961  1.00  0.00    -0.305 Cl 
ENDBRANCH  12  13
ENDBRANCH   9  12
TORSDOF 2
ENDMDL
MODEL      281
REMARK 921   NORMALIZED FREE ENERGY PREDICTED BY IDOCK:   -1.82 KCAL/MOL
REMARK 922        TOTAL FREE ENERGY PREDICTED BY IDOCK:   -2.37 KCAL/MOL
REMARK 923 INTER-LIGAND FREE ENERGY PREDICTED BY IDOCK:   -2.20 KCAL/MOL
REMARK 924 INTRA-LIGAND FREE ENERGY PREDICTED BY IDOCK:   -0.17 KCAL/MOL
REMARK 927      BINDING AFFINITY PREDICTED BY RF-SCORE:    0.00 PKD
ROOT
HETATM    1  N   UNL     1     -12.400   7.772  70.662  1.00  0.00    -0.508 NA 
HETATM    2  C   UNL     1     -11.254   8.287  71.143  1.00  0.00    -0.258 C  
HETATM    3  H2  UNL     1     -13.249   7.886  71.216  1.00  0.00     0.000 HD 
HETATM    4  H1  UNL     1     -12.468   7.274  69.774  1.00  0.00     0.000 HD 
HETATM    5  N   UNL     1     -11.169   8.913  72.259  1.00  0.00    -0.289 NA 
HETATM    6  N   UNL     1     -10.086   8.165  70.455  1.00  0.00    -0.191 N  
HETATM    7  H1  UNL     1     -10.300   9.303  72.623  1.00  0.00     0.000 HD 
HETATM    8  H2  UNL     1     -12.017   9.027  72.813  1.00  0.00     0.000 HD 
HETATM    9  C   UNL     1      -9.903   7.581  69.215  1.00  0.00    -0.170 C  
HETATM   10  H   UNL     1      -9.253   8.548  70.904  1.00  0.00     0.000 HD 
HETATM   11  O   UNL     1     -10.826   7.250  68.473  1.00  0.00    -0.162 OA 
ENDROOT
BRANCH   9  12
HETATM   12  C   UNL     1      -8.445   7.396  68.837  1.00  0.00    -0.129 C  
BRANCH  12  13
HETATM   13  C   UNL     1      -7.536   7.101  70.010  1.00  0.00    -0.091 A  
HETATM   14  C   UNL     1      -6.835   8.131  70.668  1.00  0.00    -0.037 A  
HETATM   15  C   UNL     1      -6.076   7.875  71.816  1.00  0.00    -0.036 A  
HETATM   16 CL   UNL     1      -6.876   9.769  70.112  1.00  0.00    -0.093 Cl 
HETATM   17  C   UNL     1      -5.986   6.583  72.324  1.00  0.00    -0.038 A  
HETATM   18  C   UNL     1      -6.627   5.542  71.661  1.00  0.00    -0.052 A  
HETATM   19  C   UNL     1      -7.382   5.793  70.509  1.00  0.00    -0.084 A  
HETATM   20 CL   UNL     1      -8.122   4.425  69.753  1.00  0.00    -0.060 Cl 
ENDBRANCH  12  13
ENDBRANCH   9  12
TORSDOF 2
ENDMDL
MODEL      282
REMARK 921   NORMALIZED FREE ENERGY PREDICTED BY IDOCK:   -1.75 KCAL/MOL
REMARK 922        TOTAL FREE ENERGY PREDICTED BY IDOCK:   -2.29 KCAL/MOL
REMARK 923 INTER-LIGAND FREE ENERGY PREDICTED BY IDOCK:   -2.00 KCAL/MOL
REMARK 924 INTRA-LIGAND FREE ENERGY PREDICTED BY IDOCK:   -0.29 KCAL/MOL
REMARK 927      BINDING AFFINITY PREDICTED BY RF-SCORE:    0.00 PKD
ROOT
HETATM    1  N   UNL     1     -10.338   8.715  67.438  1.00  0.00    -0.263 NA 
HETATM    2  C   UNL     1      -9.803   7.483  67.340  1.00  0.00    -0.169 C  
HETATM    3  H2  UNL     1     -10.985   9.017  66.710  1.00  0.00     0.000 HD 
HETATM    4  H1  UNL     1     -10.132   9.362  68.199  1.00  0.00     0.000 HD 
HETATM    5  N   UNL     1     -10.061   6.670  66.383  1.00  0.00    -0.417 NA 
HETATM    6  N   UNL     1      -8.929   7.020  68.275  1.00  0.00    -0.128 N  
HETATM    7  H1  UNL     1      -9.656   5.737  66.310  1.00  0.00     0.000 HD 
HETATM    8  H2  UNL     1     -10.708   6.972  65.655  1.00  0.00     0.000 HD 
HETATM    9  C   UNL     1      -8.514   7.668  69.424  1.00  0.00    -0.132 C  
HETATM   10  H   UNL     1      -8.538   6.093  68.111  1.00  0.00     0.000 HD 
HETATM   11  O   UNL     1      -9.034   8.696  69.855  1.00  0.00    -0.143 OA 
ENDROOT
BRANCH   9  12
HETATM   12  C   UNL     1      -7.358   6.983  70.128  1.00  0.00    -0.081 C  
BRANCH  12  13
HETATM   13  C   UNL     1      -7.728   5.676  70.794  1.00  0.00    -0.092 A  
HETATM   14  C   UNL     1      -7.446   4.438  70.182  1.00  0.00    -0.046 A  
HETATM   15  C   UNL     1      -7.693   3.228  70.842  1.00  0.00    -0.043 A  
HETATM   16 CL   UNL     1      -6.767   4.334  68.594  1.00  0.00    -0.046 Cl 
HETATM   17  C   UNL     1      -8.243   3.225  72.119  1.00  0.00    -0.067 A  
HETATM   18  C   UNL     1      -8.580   4.433  72.721  1.00  0.00    -0.109 A  
HETATM   19  C   UNL     1      -8.339   5.645  72.062  1.00  0.00    -0.122 A  
HETATM   20 CL   UNL     1      -8.811   7.087  72.892  1.00  0.00    -0.142 Cl 
ENDBRANCH  12  13
ENDBRANCH   9  12
TORSDOF 2
ENDMDL
MODEL      283
REMARK 921   NORMALIZED FREE ENERGY PREDICTED BY IDOCK:   -1.65 KCAL/MOL
REMARK 922        TOTAL FREE ENERGY PREDICTED BY IDOCK:   -2.18 KCAL/MOL
REMARK 923 INTER-LIGAND FREE ENERGY PREDICTED BY IDOCK:   -2.04 KCAL/MOL
REMARK 924 INTRA-LIGAND FREE ENERGY PREDICTED BY IDOCK:   -0.14 KCAL/MOL
REMARK 927      BINDING AFFINITY PREDICTED BY RF-SCORE:    0.00 PKD
ROOT
HETATM    1  N   UNL     1     -10.190  10.696  62.858  1.00  0.00    -0.723 NA 
HETATM    2  C   UNL     1      -9.555   9.617  63.354  1.00  0.00     0.446 C  
HETATM    3  H2  UNL     1     -10.391  10.720  61.859  1.00  0.00     0.000 HD 
HETATM    4  H1  UNL     1     -10.480  11.492  63.427  1.00  0.00     0.000 HD 
HETATM    5  N   UNL     1      -9.190   8.617  62.638  1.00  0.00    -0.322 NA 
HETATM    6  N   UNL     1      -9.253   9.526  64.677  1.00  0.00    -0.378 N  
HETATM    7  H1  UNL     1      -8.709   7.800  63.014  1.00  0.00     0.000 HD 
HETATM    8  H2  UNL     1      -9.391   8.641  61.639  1.00  0.00     0.000 HD 
HETATM    9  C   UNL     1      -9.568  10.434  65.671  1.00  0.00    -0.226 C  
HETATM   10  H   UNL     1      -8.737   8.695  64.968  1.00  0.00     0.000 HD 
HETATM   11  O   UNL     1     -10.342  11.377  65.515  1.00  0.00    -0.247 OA 
ENDROOT
BRANCH   9  12
HETATM   12  C   UNL     1      -8.882  10.153  66.995  1.00  0.00    -0.144 C  
BRANCH  12  13
HETATM   13  C   UNL     1      -7.621   9.325  66.872  1.00  0.00    -0.091 A  
HETATM   14  C   UNL     1      -7.636   7.933  67.095  1.00  0.00    -0.100 A  
HETATM   15  C   UNL     1      -6.496   7.151  66.881  1.00  0.00    -0.054 A  
HETATM   16 CL   UNL     1      -9.058   7.106  67.630  1.00  0.00    -0.127 Cl 
HETATM   17  C   UNL     1      -5.310   7.741  66.456  1.00  0.00    -0.025 A  
HETATM   18  C   UNL     1      -5.256   9.119  66.281  1.00  0.00    -0.036 A  
HETATM   19  C   UNL     1      -6.394   9.906  66.499  1.00  0.00    -0.070 A  
HETATM   20 CL   UNL     1      -6.214  11.611  66.270  1.00  0.00     0.063 Cl 
ENDBRANCH  12  13
ENDBRANCH   9  12
TORSDOF 2
ENDMDL
MODEL      284
REMARK 921   NORMALIZED FREE ENERGY PREDICTED BY IDOCK:   -1.61 KCAL/MOL
REMARK 922        TOTAL FREE ENERGY PREDICTED BY IDOCK:   -2.14 KCAL/MOL
REMARK 923 INTER-LIGAND FREE ENERGY PREDICTED BY IDOCK:   -2.76 KCAL/MOL
REMARK 924 INTRA-LIGAND FREE ENERGY PREDICTED BY IDOCK:    0.62 KCAL/MOL
REMARK 927      BINDING AFFINITY PREDICTED BY RF-SCORE:    0.00 PKD
ROOT
HETATM    1  N   UNL     1      -8.173  20.243  69.073  1.00  0.00     0.338 NA 
HETATM    2  C   UNL     1      -7.079  19.561  68.686  1.00  0.00    -0.338 C  
HETATM    3  H2  UNL     1      -8.065  20.958  69.791  1.00  0.00     0.000 HD 
HETATM    4  H1  UNL     1      -9.104  20.084  68.687  1.00  0.00     0.000 HD 
HETATM    5  N   UNL     1      -5.908  19.760  69.171  1.00  0.00    -0.239 NA 
HETATM    6  N   UNL     1      -7.155  18.590  67.736  1.00  0.00    -0.214 N  
HETATM    7  H1  UNL     1      -5.080  19.243  68.878  1.00  0.00     0.000 HD 
HETATM    8  H2  UNL     1      -5.800  20.476  69.890  1.00  0.00     0.000 HD 
HETATM    9  C   UNL     1      -8.276  18.205  67.023  1.00  0.00    -0.235 C  
HETATM   10  H   UNL     1      -6.290  18.092  67.525  1.00  0.00     0.000 HD 
HETATM   11  O   UNL     1      -9.335  18.830  67.025  1.00  0.00    -0.284 OA 
ENDROOT
BRANCH   9  12
HETATM   12  C   UNL     1      -8.078  16.937  66.213  1.00  0.00    -0.351 C  
BRANCH  12  13
HETATM   13  C   UNL     1      -7.695  15.730  67.042  1.00  0.00    -0.267 A  
HETATM   14  C   UNL     1      -6.403  15.602  67.592  1.00  0.00    -0.163 A  
HETATM   15  C   UNL     1      -6.079  14.539  68.443  1.00  0.00    -0.101 A  
HETATM   16 CL   UNL     1      -5.150  16.749  67.266  1.00  0.00    -0.151 Cl 
HETATM   17  C   UNL     1      -7.029  13.572  68.751  1.00  0.00    -0.102 A  
HETATM   18  C   UNL     1      -8.294  13.648  68.177  1.00  0.00    -0.166 A  
HETATM   19  C   UNL     1      -8.620  14.707  67.321  1.00  0.00    -0.214 A  
HETATM   20 CL   UNL     1     -10.213  14.696  66.648  1.00  0.00    -0.269 Cl 
ENDBRANCH  12  13
ENDBRANCH   9  12
TORSDOF 2
ENDMDL
MODEL      285
REMARK 921   NORMALIZED FREE ENERGY PREDICTED BY IDOCK:    0.25 KCAL/MOL
REMARK 922        TOTAL FREE ENERGY PREDICTED BY IDOCK:   -0.06 KCAL/MOL
REMARK 923 INTER-LIGAND FREE ENERGY PREDICTED BY IDOCK:   -0.06 KCAL/MOL
REMARK 924 INTRA-LIGAND FREE ENERGY PREDICTED BY IDOCK:   -0.00 KCAL/MOL
REMARK 927      BINDING AFFINITY PREDICTED BY RF-SCORE:    0.00 PKD
ROOT
HETATM    1  N   UNL     1      -8.241  19.455  68.919  1.00  0.00    -0.352 NA 
HETATM    2  C   UNL     1      -7.544  18.370  68.534  1.00  0.00    -0.301 C  
HETATM    3  H2  UNL     1      -7.723  20.304  69.147  1.00  0.00     0.000 HD 
HETATM    4  H1  UNL     1      -9.258  19.476  68.996  1.00  0.00     0.000 HD 
HETATM    5  N   UNL     1      -6.265  18.344  68.437  1.00  0.00    -0.195 NA 
HETATM    6  N   UNL     1      -8.173  17.205  68.220  1.00  0.00    -0.222 N  
HETATM    7  H1  UNL     1      -5.738  17.522  68.144  1.00  0.00     0.000 HD 
HETATM    8  H2  UNL     1      -5.748  19.193  68.665  1.00  0.00     0.000 HD 
HETATM    9  C   UNL     1      -9.536  16.972  68.197  1.00  0.00    -0.266 C  
HETATM   10  H   UNL     1      -7.574  16.417  67.974  1.00  0.00     0.000 HD 
HETATM   11  O   UNL     1     -10.383  17.860  68.281  1.00  0.00    -0.362 OA 
ENDROOT
BRANCH   9  12
HETATM   12  C   UNL     1      -9.902  15.508  68.039  1.00  0.00    -0.212 C  
BRANCH  12  13
HETATM   13  C   UNL     1     -10.872  14.999  69.084  1.00  0.00    -0.251 A  
HETATM   14  C   UNL     1     -10.582  15.097  70.460  1.00  0.00    -0.091 A  
HETATM   15  C   UNL     1     -11.521  14.723  71.428  1.00  0.00    -0.235 A  
HETATM   16 CL   UNL     1      -9.065  15.695  71.037  1.00  0.00     2.276 Cl 
HETATM   17  C   UNL     1     -12.763  14.227  71.047  1.00  0.00    -0.430 A  
HETATM   18  C   UNL     1     -13.051  14.071  69.695  1.00  0.00     0.910 A  
HETATM   19  C   UNL     1     -12.113  14.439  68.723  1.00  0.00    -0.241 A  
HETATM   20 CL   UNL     1     -12.565  14.188  67.073  1.00  0.00    -0.085 Cl 
ENDBRANCH  12  13
ENDBRANCH   9  12
TORSDOF 2
ENDMDL
MODEL      286
REMARK 921   NORMALIZED FREE ENERGY PREDICTED BY IDOCK:    9.76 KCAL/MOL
REMARK 922        TOTAL FREE ENERGY PREDICTED BY IDOCK:   10.57 KCAL/MOL
REMARK 923 INTER-LIGAND FREE ENERGY PREDICTED BY IDOCK:   10.66 KCAL/MOL
REMARK 924 INTRA-LIGAND FREE ENERGY PREDICTED BY IDOCK:   -0.10 KCAL/MOL
REMARK 927      BINDING AFFINITY PREDICTED BY RF-SCORE:    0.00 PKD
ROOT
HETATM    1  N   UNL     1      -9.864   9.426  63.343  1.00  0.00     0.071 NA 
HETATM    2  C   UNL     1      -9.970   8.321  64.103  1.00  0.00     4.269 C  
HETATM    3  H2  UNL     1     -10.245   9.398  62.397  1.00  0.00     0.000 HD 
HETATM    4  H1  UNL     1      -9.422  10.289  63.659  1.00  0.00     0.000 HD 
HETATM    5  N   UNL     1     -10.525   7.235  63.706  1.00  0.00     7.948 NA 
HETATM    6  N   UNL     1      -9.478   8.290  65.371  1.00  0.00    -0.339 N  
HETATM    7  H1  UNL     1     -10.606   6.398  64.282  1.00  0.00     0.000 HD 
HETATM    8  H2  UNL     1     -10.907   7.207  62.760  1.00  0.00     0.000 HD 
HETATM    9  C   UNL     1      -8.876   9.327  66.059  1.00  0.00    -0.160 C  
HETATM   10  H   UNL     1      -9.563   7.404  65.870  1.00  0.00     0.000 HD 
HETATM   11  O   UNL     1      -8.872  10.494  65.670  1.00  0.00    -0.168 OA 
ENDROOT
BRANCH   9  12
HETATM   12  C   UNL     1      -8.225   8.899  67.362  1.00  0.00    -0.108 C  
BRANCH  12  13
HETATM   13  C   UNL     1      -8.144   7.400  67.547  1.00  0.00    -0.114 A  
HETATM   14  C   UNL     1      -9.156   6.691  68.225  1.00  0.00    -0.123 A  
HETATM   15  C   UNL     1      -9.134   5.294  68.307  1.00  0.00    -0.122 A  
HETATM   16 CL   UNL     1     -10.488   7.494  68.982  1.00  0.00    -0.217 Cl 
HETATM   17  C   UNL     1      -8.094   4.573  67.729  1.00  0.00    -0.099 A  
HETATM   18  C   UNL     1      -7.057   5.254  67.101  1.00  0.00    -0.070 A  
HETATM   19  C   UNL     1      -7.072   6.652  67.022  1.00  0.00    -0.076 A  
HETATM   20 CL   UNL     1      -5.726   7.400  66.236  1.00  0.00    -0.031 Cl 
ENDBRANCH  12  13
ENDBRANCH   9  12
TORSDOF 2
ENDMDL
