MODEL        1
REMARK 921   NORMALIZED FREE ENERGY PREDICTED BY IDOCK:   -7.45 KCAL/MOL
REMARK 922        TOTAL FREE ENERGY PREDICTED BY IDOCK:  -11.37 KCAL/MOL
REMARK 923 INTER-LIGAND FREE ENERGY PREDICTED BY IDOCK:  -10.06 KCAL/MOL
REMARK 924 INTRA-LIGAND FREE ENERGY PREDICTED BY IDOCK:   -1.31 KCAL/MOL
REMARK 927      BINDING AFFINITY PREDICTED BY RF-SCORE:    0.00 PKD
ROOT
HETATM    1  O   UNL     1     -11.926  15.415  64.018  1.00  0.00    -0.904 OA 
HETATM    2  C   UNL     1     -11.329  14.977  65.252  1.00  0.00    -0.349 C  
HETATM    3  H   UNL     1     -11.296  15.968  63.571  1.00  0.00     0.000 HD 
HETATM    4  C   UNL     1     -12.351  14.081  65.976  1.00  0.00    -0.504 C  
HETATM    5  C   UNL     1     -10.039  14.206  64.904  1.00  0.00    -0.280 C  
HETATM    6  C   UNL     1     -12.523  12.733  65.273  1.00  0.00    -0.465 C  
HETATM    7  C   UNL     1     -10.328  12.841  64.276  1.00  0.00    -0.377 C  
HETATM    8  N   UNL     1     -11.259  12.014  65.061  1.00  0.00    -0.322 NA 
ENDROOT
BRANCH   2   9
HETATM    9  C   UNL     1     -10.995  16.221  66.087  1.00  0.00     0.006 A  
HETATM   10  C   UNL     1     -10.802  16.135  67.478  1.00  0.00    -0.284 A  
HETATM   11  C   UNL     1     -10.898  17.493  65.491  1.00  0.00     0.028 A  
HETATM   12  C   UNL     1     -10.469  18.519  67.635  1.00  0.00    -0.417 A  
HETATM   13  C   UNL     1     -10.543  17.273  68.247  1.00  0.00    -0.383 A  
HETATM   14 CL   UNL     1     -10.175  19.924  68.584  1.00  0.00    -0.552 Cl 
HETATM   15  C   UNL     1     -10.639  18.634  66.259  1.00  0.00    -0.396 A  
ENDBRANCH   2   9
BRANCH   8  16
HETATM   16  C   UNL     1     -10.631  11.524  66.302  1.00  0.00    -0.263 C  
BRANCH  16  17
HETATM   17  C   UNL     1     -11.597  11.375  67.481  1.00  0.00    -0.298 C  
BRANCH  17  18
HETATM   18  C   UNL     1     -11.013  11.912  68.788  1.00  0.00    -0.280 C  
BRANCH  18  19
HETATM   19  C   UNL     1     -11.925  11.623  69.963  1.00  0.00    -0.351 C  
HETATM   20  O   UNL     1     -12.220  10.482  70.314  1.00  0.00    -0.294 OA 
BRANCH  19  21
HETATM   21  C   UNL     1     -12.524  12.774  70.686  1.00  0.00    -0.328 A  
HETATM   22  C   UNL     1     -12.276  14.066  70.196  1.00  0.00    -0.425 A  
HETATM   23  C   UNL     1     -12.797  15.180  70.853  1.00  0.00    -0.479 A  
HETATM   24  C   UNL     1     -13.576  14.999  71.990  1.00  0.00    -0.420 A  
HETATM   25  F   UNL     1     -14.077  16.068  72.621  1.00  0.00    -0.612 F  
HETATM   26  C   UNL     1     -13.844  13.727  72.481  1.00  0.00    -0.626 A  
HETATM   27  C   UNL     1     -13.318  12.608  71.832  1.00  0.00    -0.485 A  
ENDBRANCH  19  21
ENDBRANCH  18  19
ENDBRANCH  17  18
ENDBRANCH  16  17
ENDBRANCH   8  16
TORSDOF 6
ENDMDL
MODEL        2
REMARK 921   NORMALIZED FREE ENERGY PREDICTED BY IDOCK:   -7.35 KCAL/MOL
REMARK 922        TOTAL FREE ENERGY PREDICTED BY IDOCK:  -11.24 KCAL/MOL
REMARK 923 INTER-LIGAND FREE ENERGY PREDICTED BY IDOCK:   -9.92 KCAL/MOL
REMARK 924 INTRA-LIGAND FREE ENERGY PREDICTED BY IDOCK:   -1.32 KCAL/MOL
REMARK 927      BINDING AFFINITY PREDICTED BY RF-SCORE:    0.00 PKD
ROOT
HETATM    1  O   UNL     1     -11.977  15.252  64.047  1.00  0.00    -0.876 OA 
HETATM    2  C   UNL     1     -11.356  14.873  65.289  1.00  0.00    -0.358 C  
HETATM    3  H   UNL     1     -11.363  15.798  63.570  1.00  0.00     0.000 HD 
HETATM    4  C   UNL     1     -12.351  13.987  66.061  1.00  0.00    -0.504 C  
HETATM    5  C   UNL     1     -10.055  14.113  64.953  1.00  0.00    -0.280 C  
HETATM    6  C   UNL     1     -12.506  12.609  65.413  1.00  0.00    -0.355 C  
HETATM    7  C   UNL     1     -10.327  12.719  64.382  1.00  0.00    -0.364 C  
HETATM    8  N   UNL     1     -11.231  11.907  65.211  1.00  0.00    -0.314 NA 
ENDROOT
BRANCH   2   9
HETATM    9  C   UNL     1     -11.035  16.154  66.070  1.00  0.00    -0.056 A  
HETATM   10  C   UNL     1     -10.893  17.392  65.416  1.00  0.00     0.018 A  
HETATM   11  C   UNL     1     -10.846  16.127  67.466  1.00  0.00    -0.284 A  
HETATM   12  C   UNL     1     -10.359  18.493  67.494  1.00  0.00    -0.409 A  
HETATM   13  C   UNL     1     -10.557  18.551  66.120  1.00  0.00    -0.377 A  
HETATM   14 CL   UNL     1      -9.921  19.915  68.358  1.00  0.00    -0.531 Cl 
HETATM   15  C   UNL     1     -10.508  17.287  68.173  1.00  0.00    -0.382 A  
ENDBRANCH   2   9
BRANCH   8  16
HETATM   16  C   UNL     1     -10.578  11.477  66.461  1.00  0.00    -0.258 C  
BRANCH  16  17
HETATM   17  C   UNL     1     -11.542  11.245  67.629  1.00  0.00    -0.290 C  
BRANCH  17  18
HETATM   18  C   UNL     1     -10.945  11.662  68.973  1.00  0.00    -0.283 C  
BRANCH  18  19
HETATM   19  C   UNL     1     -11.947  11.500  70.098  1.00  0.00    -0.369 C  
HETATM   20  O   UNL     1     -12.358  10.403  70.472  1.00  0.00    -0.298 OA 
BRANCH  19  21
HETATM   21  C   UNL     1     -12.486  12.726  70.740  1.00  0.00    -0.357 A  
HETATM   22  C   UNL     1     -13.353  12.575  71.833  1.00  0.00    -0.467 A  
HETATM   23  C   UNL     1     -13.904  13.696  72.455  1.00  0.00    -0.620 A  
HETATM   24  C   UNL     1     -13.573  14.965  71.992  1.00  0.00    -0.407 A  
HETATM   25  F   UNL     1     -14.100  16.040  72.589  1.00  0.00    -0.612 F  
HETATM   26  C   UNL     1     -12.704  15.134  70.921  1.00  0.00    -0.464 A  
HETATM   27  C   UNL     1     -12.157  14.014  70.288  1.00  0.00    -0.425 A  
ENDBRANCH  19  21
ENDBRANCH  18  19
ENDBRANCH  17  18
ENDBRANCH  16  17
ENDBRANCH   8  16
TORSDOF 6
ENDMDL
MODEL        3
REMARK 921   NORMALIZED FREE ENERGY PREDICTED BY IDOCK:   -7.01 KCAL/MOL
REMARK 922        TOTAL FREE ENERGY PREDICTED BY IDOCK:  -10.78 KCAL/MOL
REMARK 923 INTER-LIGAND FREE ENERGY PREDICTED BY IDOCK:   -9.23 KCAL/MOL
REMARK 924 INTRA-LIGAND FREE ENERGY PREDICTED BY IDOCK:   -1.55 KCAL/MOL
REMARK 927      BINDING AFFINITY PREDICTED BY RF-SCORE:    0.00 PKD
ROOT
HETATM    1  O   UNL     1     -13.834  14.383  70.591  1.00  0.00    -0.343 OA 
HETATM    2  C   UNL     1     -12.488  13.895  70.442  1.00  0.00    -0.334 C  
HETATM    3  H   UNL     1     -14.111  14.202  71.481  1.00  0.00     0.000 HD 
HETATM    4  C   UNL     1     -12.039  14.190  68.998  1.00  0.00    -0.348 C  
HETATM    5  C   UNL     1     -11.605  14.624  71.476  1.00  0.00    -0.187 C  
HETATM    6  C   UNL     1     -11.804  15.685  68.771  1.00  0.00    -0.321 C  
HETATM    7  C   UNL     1     -11.372  16.092  71.110  1.00  0.00    -0.361 C  
HETATM    8  N   UNL     1     -10.877  16.289  69.739  1.00  0.00    -0.341 NA 
ENDROOT
BRANCH   2   9
HETATM    9  C   UNL     1     -12.496  12.386  70.721  1.00  0.00    -0.356 A  
HETATM   10  C   UNL     1     -13.248  11.843  71.780  1.00  0.00    -0.426 A  
HETATM   11  C   UNL     1     -11.729  11.498  69.942  1.00  0.00    -0.420 A  
HETATM   12  C   UNL     1     -12.443   9.624  71.289  1.00  0.00    -0.355 A  
HETATM   13  C   UNL     1     -13.222  10.476  72.063  1.00  0.00    -0.483 A  
HETATM   14 CL   UNL     1     -12.389   7.943  71.653  1.00  0.00    -0.324 Cl 
HETATM   15  C   UNL     1     -11.701  10.128  70.225  1.00  0.00    -0.361 A  
ENDBRANCH   2   9
BRANCH   8  16
HETATM   16  C   UNL     1      -9.482  15.834  69.598  1.00  0.00    -0.204 C  
BRANCH  16  17
HETATM   17  C   UNL     1      -8.666  16.612  68.561  1.00  0.00    -0.242 C  
BRANCH  17  18
HETATM   18  C   UNL     1      -8.336  15.773  67.325  1.00  0.00    -0.213 C  
BRANCH  18  19
HETATM   19  C   UNL     1      -9.181  16.181  66.136  1.00  0.00    -0.347 C  
HETATM   20  O   UNL     1      -9.110  17.294  65.617  1.00  0.00    -0.487 OA 
BRANCH  19  21
HETATM   21  C   UNL     1     -10.170  15.205  65.611  1.00  0.00    -0.387 A  
HETATM   22  C   UNL     1      -9.994  13.849  65.927  1.00  0.00    -0.317 A  
HETATM   23  C   UNL     1     -10.884  12.891  65.438  1.00  0.00    -0.307 A  
HETATM   24  C   UNL     1     -11.954  13.295  64.647  1.00  0.00    -0.394 A  
HETATM   25  F   UNL     1     -12.807  12.377  64.178  1.00  0.00    -0.502 F  
HETATM   26  C   UNL     1     -12.152  14.635  64.337  1.00  0.00    -0.481 A  
HETATM   27  C   UNL     1     -11.260  15.597  64.816  1.00  0.00    -0.391 A  
ENDBRANCH  19  21
ENDBRANCH  18  19
ENDBRANCH  17  18
ENDBRANCH  16  17
ENDBRANCH   8  16
TORSDOF 6
ENDMDL
MODEL        4
REMARK 921   NORMALIZED FREE ENERGY PREDICTED BY IDOCK:   -6.97 KCAL/MOL
REMARK 922        TOTAL FREE ENERGY PREDICTED BY IDOCK:  -10.73 KCAL/MOL
REMARK 923 INTER-LIGAND FREE ENERGY PREDICTED BY IDOCK:   -9.06 KCAL/MOL
REMARK 924 INTRA-LIGAND FREE ENERGY PREDICTED BY IDOCK:   -1.67 KCAL/MOL
REMARK 927      BINDING AFFINITY PREDICTED BY RF-SCORE:    0.00 PKD
ROOT
HETATM    1  O   UNL     1      -8.194  10.856  69.472  1.00  0.00    -0.374 OA 
HETATM    2  C   UNL     1      -9.401  10.553  68.750  1.00  0.00    -0.180 C  
HETATM    3  H   UNL     1      -7.971  10.095  69.996  1.00  0.00     0.000 HD 
HETATM    4  C   UNL     1      -9.763  11.786  67.901  1.00  0.00    -0.185 C  
HETATM    5  C   UNL     1      -9.127   9.315  67.871  1.00  0.00    -0.133 C  
HETATM    6  C   UNL     1      -8.795  11.974  66.731  1.00  0.00    -0.198 C  
HETATM    7  C   UNL     1      -8.210   9.633  66.688  1.00  0.00    -0.120 C  
HETATM    8  N   UNL     1      -8.658  10.780  65.884  1.00  0.00    -0.175 NA 
ENDROOT
BRANCH   2   9
HETATM    9  C   UNL     1     -10.503  10.244  69.773  1.00  0.00    -0.300 A  
HETATM   10  C   UNL     1     -10.294   9.320  70.814  1.00  0.00    -0.348 A  
HETATM   11  C   UNL     1     -11.768  10.856  69.687  1.00  0.00    -0.403 A  
HETATM   12  C   UNL     1     -12.555   9.610  71.601  1.00  0.00    -0.402 A  
HETATM   13  C   UNL     1     -11.310   9.004  71.719  1.00  0.00    -0.447 A  
HETATM   14 CL   UNL     1     -13.815   9.202  72.700  1.00  0.00    -0.481 Cl 
HETATM   15  C   UNL     1     -12.788  10.540  70.592  1.00  0.00    -0.407 A  
ENDBRANCH   2   9
BRANCH   8  16
HETATM   16  C   UNL     1      -9.867  10.455  65.105  1.00  0.00    -0.313 C  
BRANCH  16  17
HETATM   17  C   UNL     1     -10.228  11.491  64.037  1.00  0.00    -0.394 C  
BRANCH  17  18
HETATM   18  C   UNL     1     -11.735  11.719  63.926  1.00  0.00    -0.461 C  
BRANCH  18  19
HETATM   19  C   UNL     1     -12.076  13.195  63.945  1.00  0.00    -0.470 C  
HETATM   20  O   UNL     1     -12.622  13.766  63.003  1.00  0.00    -0.721 OA 
BRANCH  19  21
HETATM   21  C   UNL     1     -11.686  13.990  65.138  1.00  0.00    -0.353 A  
HETATM   22  C   UNL     1     -10.653  14.930  64.999  1.00  0.00    -0.446 A  
HETATM   23  C   UNL     1     -10.236  15.684  66.096  1.00  0.00    -0.327 A  
HETATM   24  C   UNL     1     -10.863  15.507  67.325  1.00  0.00    -0.313 A  
HETATM   25  F   UNL     1     -10.464  16.230  68.377  1.00  0.00    -0.239 F  
HETATM   26  C   UNL     1     -11.897  14.591  67.476  1.00  0.00    -0.404 A  
HETATM   27  C   UNL     1     -12.313  13.827  66.384  1.00  0.00    -0.460 A  
ENDBRANCH  19  21
ENDBRANCH  18  19
ENDBRANCH  17  18
ENDBRANCH  16  17
ENDBRANCH   8  16
TORSDOF 6
ENDMDL
MODEL        5
REMARK 921   NORMALIZED FREE ENERGY PREDICTED BY IDOCK:   -6.94 KCAL/MOL
REMARK 922        TOTAL FREE ENERGY PREDICTED BY IDOCK:  -10.68 KCAL/MOL
REMARK 923 INTER-LIGAND FREE ENERGY PREDICTED BY IDOCK:   -8.93 KCAL/MOL
REMARK 924 INTRA-LIGAND FREE ENERGY PREDICTED BY IDOCK:   -1.76 KCAL/MOL
REMARK 927      BINDING AFFINITY PREDICTED BY RF-SCORE:    0.00 PKD
ROOT
HETATM    1  O   UNL     1     -10.688  15.920  67.404  1.00  0.00    -0.312 OA 
HETATM    2  C   UNL     1     -11.092  14.657  67.963  1.00  0.00    -0.281 C  
HETATM    3  H   UNL     1      -9.999  16.274  67.954  1.00  0.00     0.000 HD 
HETATM    4  C   UNL     1     -12.210  14.085  67.070  1.00  0.00    -0.387 C  
HETATM    5  C   UNL     1      -9.854  13.736  67.989  1.00  0.00    -0.239 C  
HETATM    6  C   UNL     1     -11.672  13.615  65.717  1.00  0.00    -0.348 C  
HETATM    7  C   UNL     1      -9.450  13.265  66.591  1.00  0.00    -0.260 C  
HETATM    8  N   UNL     1     -10.554  12.666  65.826  1.00  0.00    -0.266 NA 
ENDROOT
BRANCH   2   9
HETATM    9  C   UNL     1     -11.598  14.908  69.390  1.00  0.00    -0.337 A  
HETATM   10  C   UNL     1     -11.137  16.001  70.146  1.00  0.00    -0.372 A  
HETATM   11  C   UNL     1     -12.521  14.035  69.999  1.00  0.00    -0.339 A  
HETATM   12  C   UNL     1     -12.461  15.320  72.043  1.00  0.00    -0.354 A  
HETATM   13  C   UNL     1     -11.562  16.206  71.461  1.00  0.00    -0.502 A  
HETATM   14 CL   UNL     1     -12.966  15.557  73.671  1.00  0.00    -0.645 Cl 
HETATM   15  C   UNL     1     -12.948  14.238  71.316  1.00  0.00    -0.422 A  
ENDBRANCH   2   9
BRANCH   8  16
HETATM   16  C   UNL     1     -10.935  11.349  66.367  1.00  0.00    -0.260 C  
BRANCH  16  17
HETATM   17  C   UNL     1      -9.810  10.310  66.352  1.00  0.00    -0.272 C  
BRANCH  17  18
HETATM   18  C   UNL     1      -9.943   9.285  67.478  1.00  0.00    -0.254 C  
BRANCH  18  19
HETATM   19  C   UNL     1      -9.680   9.913  68.832  1.00  0.00    -0.175 C  
HETATM   20  O   UNL     1      -8.648  10.529  69.092  1.00  0.00    -0.154 OA 
BRANCH  19  21
HETATM   21  C   UNL     1     -10.696   9.730  69.900  1.00  0.00    -0.303 A  
HETATM   22  C   UNL     1     -10.483   8.720  70.852  1.00  0.00    -0.278 A  
HETATM   23  C   UNL     1     -11.420   8.495  71.860  1.00  0.00    -0.405 A  
HETATM   24  C   UNL     1     -12.560   9.288  71.923  1.00  0.00    -0.390 A  
HETATM   25  F   UNL     1     -13.458   9.073  72.890  1.00  0.00    -0.489 F  
HETATM   26  C   UNL     1     -12.780  10.302  70.998  1.00  0.00    -0.491 A  
HETATM   27  C   UNL     1     -11.849  10.527  69.980  1.00  0.00    -0.388 A  
ENDBRANCH  19  21
ENDBRANCH  18  19
ENDBRANCH  17  18
ENDBRANCH  16  17
ENDBRANCH   8  16
TORSDOF 6
ENDMDL
MODEL        6
REMARK 921   NORMALIZED FREE ENERGY PREDICTED BY IDOCK:   -6.90 KCAL/MOL
REMARK 922        TOTAL FREE ENERGY PREDICTED BY IDOCK:  -10.64 KCAL/MOL
REMARK 923 INTER-LIGAND FREE ENERGY PREDICTED BY IDOCK:   -8.98 KCAL/MOL
REMARK 924 INTRA-LIGAND FREE ENERGY PREDICTED BY IDOCK:   -1.66 KCAL/MOL
REMARK 927      BINDING AFFINITY PREDICTED BY RF-SCORE:    0.00 PKD
ROOT
HETATM    1  O   UNL     1      -8.212  10.826  69.499  1.00  0.00    -0.357 OA 
HETATM    2  C   UNL     1      -9.433  10.585  68.778  1.00  0.00    -0.180 C  
HETATM    3  H   UNL     1      -8.004  10.040  69.990  1.00  0.00     0.000 HD 
HETATM    4  C   UNL     1      -9.769  11.860  67.982  1.00  0.00    -0.191 C  
HETATM    5  C   UNL     1      -9.202   9.374  67.849  1.00  0.00    -0.139 C  
HETATM    6  C   UNL     1      -8.807  12.066  66.809  1.00  0.00    -0.198 C  
HETATM    7  C   UNL     1      -8.288   9.713  66.670  1.00  0.00    -0.123 C  
HETATM    8  N   UNL     1      -8.712  10.903  65.915  1.00  0.00    -0.181 NA 
ENDROOT
BRANCH   2   9
HETATM    9  C   UNL     1     -10.534  10.267  69.800  1.00  0.00    -0.300 A  
HETATM   10  C   UNL     1     -10.501   9.085  70.564  1.00  0.00    -0.271 A  
HETATM   11  C   UNL     1     -11.626  11.136  69.988  1.00  0.00    -0.421 A  
HETATM   12  C   UNL     1     -12.600   9.639  71.615  1.00  0.00    -0.402 A  
HETATM   13  C   UNL     1     -11.524   8.772  71.462  1.00  0.00    -0.375 A  
HETATM   14 CL   UNL     1     -13.873   9.242  72.702  1.00  0.00    -0.460 Cl 
HETATM   15  C   UNL     1     -12.653  10.824  70.886  1.00  0.00    -0.498 A  
ENDBRANCH   2   9
BRANCH   8  16
HETATM   16  C   UNL     1      -9.936  10.641  65.137  1.00  0.00    -0.303 C  
BRANCH  16  17
HETATM   17  C   UNL     1     -10.241  11.693  64.067  1.00  0.00    -0.391 C  
BRANCH  17  18
HETATM   18  C   UNL     1     -11.739  11.958  63.914  1.00  0.00    -0.509 C  
BRANCH  18  19
HETATM   19  C   UNL     1     -12.051  13.439  63.994  1.00  0.00    -0.449 C  
HETATM   20  O   UNL     1     -12.643  14.044  63.103  1.00  0.00    -0.733 OA 
BRANCH  19  21
HETATM   21  C   UNL     1     -11.574  14.193  65.181  1.00  0.00    -0.344 A  
HETATM   22  C   UNL     1     -12.228  13.983  66.406  1.00  0.00    -0.492 A  
HETATM   23  C   UNL     1     -11.832  14.684  67.545  1.00  0.00    -0.375 A  
HETATM   24  C   UNL     1     -10.775  15.583  67.459  1.00  0.00    -0.300 A  
HETATM   25  F   UNL     1     -10.394  16.256  68.551  1.00  0.00    -0.226 F  
HETATM   26  C   UNL     1     -10.106  15.793  66.259  1.00  0.00    -0.320 A  
HETATM   27  C   UNL     1     -10.504  15.100  65.113  1.00  0.00    -0.437 A  
ENDBRANCH  19  21
ENDBRANCH  18  19
ENDBRANCH  17  18
ENDBRANCH  16  17
ENDBRANCH   8  16
TORSDOF 6
ENDMDL
MODEL        7
REMARK 921   NORMALIZED FREE ENERGY PREDICTED BY IDOCK:   -6.85 KCAL/MOL
REMARK 922        TOTAL FREE ENERGY PREDICTED BY IDOCK:  -10.57 KCAL/MOL
REMARK 923 INTER-LIGAND FREE ENERGY PREDICTED BY IDOCK:   -8.91 KCAL/MOL
REMARK 924 INTRA-LIGAND FREE ENERGY PREDICTED BY IDOCK:   -1.66 KCAL/MOL
REMARK 927      BINDING AFFINITY PREDICTED BY RF-SCORE:    0.00 PKD
ROOT
HETATM    1  O   UNL     1     -12.192  14.529  67.463  1.00  0.00    -0.598 OA 
HETATM    2  C   UNL     1     -11.457  13.771  68.441  1.00  0.00    -0.316 C  
HETATM    3  H   UNL     1     -11.914  15.435  67.530  1.00  0.00     0.000 HD 
HETATM    4  C   UNL     1     -11.908  12.302  68.331  1.00  0.00    -0.358 C  
HETATM    5  C   UNL     1      -9.954  13.932  68.131  1.00  0.00    -0.240 C  
HETATM    6  C   UNL     1     -11.396  11.645  67.048  1.00  0.00    -0.305 C  
HETATM    7  C   UNL     1      -9.536  13.172  66.870  1.00  0.00    -0.244 C  
HETATM    8  N   UNL     1      -9.941  11.758  66.869  1.00  0.00    -0.197 NA 
ENDROOT
BRANCH   2   9
HETATM    9  C   UNL     1     -11.778  14.345  69.828  1.00  0.00    -0.361 A  
HETATM   10  C   UNL     1     -12.492  13.595  70.781  1.00  0.00    -0.432 A  
HETATM   11  C   UNL     1     -11.390  15.652  70.182  1.00  0.00    -0.354 A  
HETATM   12  C   UNL     1     -12.443  15.431  72.344  1.00  0.00    -0.379 A  
HETATM   13  C   UNL     1     -12.824  14.132  72.027  1.00  0.00    -0.423 A  
HETATM   14 CL   UNL     1     -12.874  16.102  73.869  1.00  0.00    -0.641 Cl 
HETATM   15  C   UNL     1     -11.722  16.192  71.429  1.00  0.00    -0.506 A  
ENDBRANCH   2   9
BRANCH   8  16
HETATM   16  C   UNL     1      -9.154  10.970  67.835  1.00  0.00    -0.147 C  
BRANCH  16  17
HETATM   17  C   UNL     1      -9.548   9.492  67.915  1.00  0.00    -0.154 C  
BRANCH  17  18
HETATM   18  C   UNL     1      -8.684   8.707  68.902  1.00  0.00    -0.131 C  
BRANCH  18  19
HETATM   19  C   UNL     1      -9.055   9.024  70.336  1.00  0.00    -0.210 C  
HETATM   20  O   UNL     1      -8.232   9.396  71.171  1.00  0.00    -0.314 OA 
BRANCH  19  21
HETATM   21  C   UNL     1     -10.466   8.830  70.756  1.00  0.00    -0.270 A  
HETATM   22  C   UNL     1     -11.214   9.964  71.110  1.00  0.00    -0.404 A  
HETATM   23  C   UNL     1     -12.537   9.831  71.533  1.00  0.00    -0.493 A  
HETATM   24  C   UNL     1     -13.113   8.567  71.586  1.00  0.00    -0.341 A  
HETATM   25  F   UNL     1     -14.382   8.438  71.990  1.00  0.00    -0.430 F  
HETATM   26  C   UNL     1     -12.392   7.434  71.224  1.00  0.00    -0.380 A  
HETATM   27  C   UNL     1     -11.064   7.561  70.809  1.00  0.00    -0.280 A  
ENDBRANCH  19  21
ENDBRANCH  18  19
ENDBRANCH  17  18
ENDBRANCH  16  17
ENDBRANCH   8  16
TORSDOF 6
ENDMDL
MODEL        8
REMARK 921   NORMALIZED FREE ENERGY PREDICTED BY IDOCK:   -6.83 KCAL/MOL
REMARK 922        TOTAL FREE ENERGY PREDICTED BY IDOCK:  -10.54 KCAL/MOL
REMARK 923 INTER-LIGAND FREE ENERGY PREDICTED BY IDOCK:   -9.02 KCAL/MOL
REMARK 924 INTRA-LIGAND FREE ENERGY PREDICTED BY IDOCK:   -1.52 KCAL/MOL
REMARK 927      BINDING AFFINITY PREDICTED BY RF-SCORE:    0.00 PKD
ROOT
HETATM    1  O   UNL     1      -9.765  11.065  69.582  1.00  0.00    -0.410 OA 
HETATM    2  C   UNL     1     -10.665  11.839  68.768  1.00  0.00    -0.221 C  
HETATM    3  H   UNL     1     -10.288  10.470  70.106  1.00  0.00     0.000 HD 
HETATM    4  C   UNL     1      -9.818  12.805  67.918  1.00  0.00    -0.223 C  
HETATM    5  C   UNL     1     -11.469  10.858  67.889  1.00  0.00    -0.344 C  
HETATM    6  C   UNL     1      -9.043  12.068  66.825  1.00  0.00    -0.197 C  
HETATM    7  C   UNL     1     -10.614  10.237  66.782  1.00  0.00    -0.185 C  
HETATM    8  N   UNL     1      -9.890  11.226  65.968  1.00  0.00    -0.219 NA 
ENDROOT
BRANCH   2   9
HETATM    9  C   UNL     1     -11.609  12.609  69.703  1.00  0.00    -0.321 A  
HETATM   10  C   UNL     1     -11.783  14.000  69.581  1.00  0.00    -0.368 A  
HETATM   11  C   UNL     1     -12.311  11.951  70.731  1.00  0.00    -0.416 A  
HETATM   12  C   UNL     1     -13.274  14.037  71.475  1.00  0.00    -0.359 A  
HETATM   13  C   UNL     1     -12.606  14.709  70.459  1.00  0.00    -0.409 A  
HETATM   14 CL   UNL     1     -14.269  14.914  72.573  1.00  0.00    -0.474 Cl 
HETATM   15  C   UNL     1     -13.136  12.659  71.612  1.00  0.00    -0.421 A  
ENDBRANCH   2   9
BRANCH   8  16
HETATM   16  C   UNL     1     -10.806  11.985  65.098  1.00  0.00    -0.300 C  
BRANCH  16  17
HETATM   17  C   UNL     1     -10.376  13.432  64.838  1.00  0.00    -0.382 C  
BRANCH  17  18
HETATM   18  C   UNL     1     -11.512  14.431  65.061  1.00  0.00    -0.372 C  
BRANCH  18  19
HETATM   19  C   UNL     1     -10.997  15.855  65.098  1.00  0.00    -0.377 C  
HETATM   20  O   UNL     1     -11.276  16.687  64.236  1.00  0.00    -1.098 OA 
BRANCH  19  21
HETATM   21  C   UNL     1     -10.080  16.242  66.200  1.00  0.00    -0.362 A  
HETATM   22  C   UNL     1      -8.698  16.118  65.987  1.00  0.00    -0.282 A  
HETATM   23  C   UNL     1      -7.797  16.447  67.000  1.00  0.00    -0.247 A  
HETATM   24  C   UNL     1      -8.280  16.913  68.218  1.00  0.00    -0.222 A  
HETATM   25  F   UNL     1      -7.416  17.229  69.190  1.00  0.00    -0.243 F  
HETATM   26  C   UNL     1      -9.644  17.056  68.442  1.00  0.00    -0.277 A  
HETATM   27  C   UNL     1     -10.552  16.720  67.434  1.00  0.00    -0.291 A  
ENDBRANCH  19  21
ENDBRANCH  18  19
ENDBRANCH  17  18
ENDBRANCH  16  17
ENDBRANCH   8  16
TORSDOF 6
ENDMDL
MODEL        9
REMARK 921   NORMALIZED FREE ENERGY PREDICTED BY IDOCK:   -6.74 KCAL/MOL
REMARK 922        TOTAL FREE ENERGY PREDICTED BY IDOCK:  -10.41 KCAL/MOL
REMARK 923 INTER-LIGAND FREE ENERGY PREDICTED BY IDOCK:   -8.92 KCAL/MOL
REMARK 924 INTRA-LIGAND FREE ENERGY PREDICTED BY IDOCK:   -1.49 KCAL/MOL
REMARK 927      BINDING AFFINITY PREDICTED BY RF-SCORE:    0.00 PKD
ROOT
HETATM    1  O   UNL     1      -9.769   8.771  69.627  1.00  0.00    -0.168 OA 
HETATM    2  C   UNL     1     -10.186   9.915  68.860  1.00  0.00    -0.196 C  
HETATM    3  H   UNL     1     -10.546   8.270  69.847  1.00  0.00     0.000 HD 
HETATM    4  C   UNL     1      -8.926  10.726  68.504  1.00  0.00    -0.160 C  
HETATM    5  C   UNL     1     -10.909   9.399  67.598  1.00  0.00    -0.222 C  
HETATM    6  C   UNL     1      -8.065  10.010  67.462  1.00  0.00    -0.110 C  
HETATM    7  C   UNL     1      -9.943   8.770  66.591  1.00  0.00    -0.285 C  
HETATM    8  N   UNL     1      -8.802   9.633  66.247  1.00  0.00    -0.147 NA 
ENDROOT
BRANCH   2   9
HETATM    9  C   UNL     1     -11.149  10.741  69.723  1.00  0.00    -0.346 A  
HETATM   10  C   UNL     1     -11.329  12.119  69.501  1.00  0.00    -0.277 A  
HETATM   11  C   UNL     1     -11.864  10.151  70.784  1.00  0.00    -0.443 A  
HETATM   12  C   UNL     1     -12.852  12.277  71.365  1.00  0.00    -0.271 A  
HETATM   13  C   UNL     1     -12.171  12.882  70.314  1.00  0.00    -0.362 A  
HETATM   14 CL   UNL     1     -13.870  13.221  72.382  1.00  0.00    -0.680 Cl 
HETATM   15  C   UNL     1     -12.707  10.913  71.600  1.00  0.00    -0.498 A  
ENDBRANCH   2   9
BRANCH   8  16
HETATM   16  C   UNL     1      -9.221  10.779  65.420  1.00  0.00    -0.205 C  
BRANCH  16  17
HETATM   17  C   UNL     1     -10.096  10.405  64.220  1.00  0.00    -0.306 C  
BRANCH  17  18
HETATM   18  C   UNL     1     -10.454  11.614  63.355  1.00  0.00    -0.482 C  
BRANCH  18  19
HETATM   19  C   UNL     1     -11.693  12.316  63.870  1.00  0.00    -0.451 C  
HETATM   20  O   UNL     1     -12.820  12.083  63.438  1.00  0.00    -0.760 OA 
BRANCH  19  21
HETATM   21  C   UNL     1     -11.526  13.364  64.910  1.00  0.00    -0.346 A  
HETATM   22  C   UNL     1     -10.506  14.313  64.736  1.00  0.00    -0.421 A  
HETATM   23  C   UNL     1     -10.294  15.303  65.696  1.00  0.00    -0.389 A  
HETATM   24  C   UNL     1     -11.111  15.350  66.819  1.00  0.00    -0.244 A  
HETATM   25  F   UNL     1     -10.909  16.300  67.740  1.00  0.00    -0.308 F  
HETATM   26  C   UNL     1     -12.135  14.428  67.001  1.00  0.00    -0.374 A  
HETATM   27  C   UNL     1     -12.346  13.429  66.047  1.00  0.00    -0.471 A  
ENDBRANCH  19  21
ENDBRANCH  18  19
ENDBRANCH  17  18
ENDBRANCH  16  17
ENDBRANCH   8  16
TORSDOF 6
ENDMDL
MODEL       10
REMARK 921   NORMALIZED FREE ENERGY PREDICTED BY IDOCK:   -6.72 KCAL/MOL
REMARK 922        TOTAL FREE ENERGY PREDICTED BY IDOCK:  -10.38 KCAL/MOL
REMARK 923 INTER-LIGAND FREE ENERGY PREDICTED BY IDOCK:   -9.41 KCAL/MOL
REMARK 924 INTRA-LIGAND FREE ENERGY PREDICTED BY IDOCK:   -0.97 KCAL/MOL
REMARK 927      BINDING AFFINITY PREDICTED BY RF-SCORE:    0.00 PKD
ROOT
HETATM    1  O   UNL     1     -11.695  13.140  63.015  1.00  0.00    -0.795 OA 
HETATM    2  C   UNL     1     -11.081  12.760  64.260  1.00  0.00    -0.370 C  
HETATM    3  H   UNL     1     -12.253  12.424  62.736  1.00  0.00     0.000 HD 
HETATM    4  C   UNL     1     -10.175  13.922  64.711  1.00  0.00    -0.353 C  
HETATM    5  C   UNL     1     -12.208  12.485  65.277  1.00  0.00    -0.493 C  
HETATM    6  C   UNL     1     -10.991  15.129  65.178  1.00  0.00    -0.417 C  
HETATM    7  C   UNL     1     -12.905  13.768  65.733  1.00  0.00    -0.379 C  
HETATM    8  N   UNL     1     -11.980  14.805  66.216  1.00  0.00    -0.232 NA 
ENDROOT
BRANCH   2   9
HETATM    9  C   UNL     1     -10.263  11.484  64.016  1.00  0.00    -0.394 A  
HETATM   10  C   UNL     1     -10.005  10.573  65.057  1.00  0.00    -0.388 A  
HETATM   11  C   UNL     1      -9.720  11.199  62.748  1.00  0.00    -0.298 A  
HETATM   12  C   UNL     1      -8.685   9.185  63.591  1.00  0.00    -0.125 A  
HETATM   13  C   UNL     1      -9.223   9.434  64.848  1.00  0.00    -0.246 A  
HETATM   14 CL   UNL     1      -7.701   7.796  63.339  1.00  0.00    -0.130 Cl 
HETATM   15  C   UNL     1      -8.935  10.059  62.537  1.00  0.00    -0.285 A  
ENDBRANCH   2   9
BRANCH   8  16
HETATM   16  C   UNL     1     -11.388  14.439  67.515  1.00  0.00    -0.328 C  
BRANCH  16  17
HETATM   17  C   UNL     1     -11.876  15.287  68.693  1.00  0.00    -0.329 C  
BRANCH  17  18
HETATM   18  C   UNL     1     -11.436  14.723  70.044  1.00  0.00    -0.321 C  
BRANCH  18  19
HETATM   19  C   UNL     1     -12.561  13.966  70.721  1.00  0.00    -0.354 C  
HETATM   20  O   UNL     1     -13.537  14.525  71.218  1.00  0.00    -0.371 OA 
BRANCH  19  21
HETATM   21  C   UNL     1     -12.448  12.489  70.826  1.00  0.00    -0.357 A  
HETATM   22  C   UNL     1     -13.143  11.844  71.862  1.00  0.00    -0.474 A  
HETATM   23  C   UNL     1     -13.050  10.460  72.016  1.00  0.00    -0.521 A  
HETATM   24  C   UNL     1     -12.276   9.725  71.126  1.00  0.00    -0.362 A  
HETATM   25  F   UNL     1     -12.187   8.398  71.272  1.00  0.00    -0.294 F  
HETATM   26  C   UNL     1     -11.594  10.345  70.086  1.00  0.00    -0.392 A  
HETATM   27  C   UNL     1     -11.676  11.731  69.932  1.00  0.00    -0.399 A  
ENDBRANCH  19  21
ENDBRANCH  18  19
ENDBRANCH  17  18
ENDBRANCH  16  17
ENDBRANCH   8  16
TORSDOF 6
ENDMDL
MODEL       11
REMARK 921   NORMALIZED FREE ENERGY PREDICTED BY IDOCK:   -6.71 KCAL/MOL
REMARK 922        TOTAL FREE ENERGY PREDICTED BY IDOCK:  -10.37 KCAL/MOL
REMARK 923 INTER-LIGAND FREE ENERGY PREDICTED BY IDOCK:   -9.01 KCAL/MOL
REMARK 924 INTRA-LIGAND FREE ENERGY PREDICTED BY IDOCK:   -1.36 KCAL/MOL
REMARK 927      BINDING AFFINITY PREDICTED BY RF-SCORE:    0.00 PKD
ROOT
HETATM    1  O   UNL     1      -9.840  12.569  63.934  1.00  0.00    -0.593 OA 
HETATM    2  C   UNL     1     -10.321  12.362  65.274  1.00  0.00    -0.282 C  
HETATM    3  H   UNL     1     -10.321  11.986  63.359  1.00  0.00     0.000 HD 
HETATM    4  C   UNL     1      -9.539  13.308  66.205  1.00  0.00    -0.244 C  
HETATM    5  C   UNL     1     -11.833  12.669  65.286  1.00  0.00    -0.452 C  
HETATM    6  C   UNL     1      -9.946  14.768  66.002  1.00  0.00    -0.313 C  
HETATM    7  C   UNL     1     -12.123  14.165  65.153  1.00  0.00    -0.414 C  
HETATM    8  N   UNL     1     -11.393  14.998  66.122  1.00  0.00    -0.314 NA 
ENDROOT
BRANCH   2   9
HETATM    9  C   UNL     1     -10.074  10.893  65.645  1.00  0.00    -0.318 A  
HETATM   10  C   UNL     1     -10.572  10.350  66.845  1.00  0.00    -0.293 A  
HETATM   11  C   UNL     1      -9.318  10.048  64.810  1.00  0.00    -0.330 A  
HETATM   12  C   UNL     1      -9.548   8.219  66.371  1.00  0.00    -0.230 A  
HETATM   13  C   UNL     1     -10.311   9.026  67.206  1.00  0.00    -0.342 A  
HETATM   14 CL   UNL     1      -9.204   6.595  66.827  1.00  0.00    -0.156 Cl 
HETATM   15  C   UNL     1      -9.055   8.721  65.170  1.00  0.00    -0.104 A  
ENDBRANCH   2   9
BRANCH   8  16
HETATM   16  C   UNL     1     -11.918  14.823  67.488  1.00  0.00    -0.210 C  
BRANCH  16  17
HETATM   17  C   UNL     1     -11.454  15.889  68.484  1.00  0.00    -0.377 C  
BRANCH  17  18
HETATM   18  C   UNL     1     -11.119  15.304  69.857  1.00  0.00    -0.303 C  
BRANCH  18  19
HETATM   19  C   UNL     1     -12.373  14.917  70.614  1.00  0.00    -0.344 C  
HETATM   20  O   UNL     1     -13.211  15.738  70.981  1.00  0.00    -0.547 OA 
BRANCH  19  21
HETATM   21  C   UNL     1     -12.567  13.487  70.965  1.00  0.00    -0.438 A  
HETATM   22  C   UNL     1     -11.919  12.518  70.183  1.00  0.00    -0.377 A  
HETATM   23  C   UNL     1     -12.088  11.161  70.459  1.00  0.00    -0.474 A  
HETATM   24  C   UNL     1     -12.893  10.777  71.525  1.00  0.00    -0.462 A  
HETATM   25  F   UNL     1     -13.055   9.476  71.791  1.00  0.00    -0.362 F  
HETATM   26  C   UNL     1     -13.530  11.722  72.320  1.00  0.00    -0.143 A  
HETATM   27  C   UNL     1     -13.371  13.082  72.043  1.00  0.00    -0.588 A  
ENDBRANCH  19  21
ENDBRANCH  18  19
ENDBRANCH  17  18
ENDBRANCH  16  17
ENDBRANCH   8  16
TORSDOF 6
ENDMDL
MODEL       12
REMARK 921   NORMALIZED FREE ENERGY PREDICTED BY IDOCK:   -6.62 KCAL/MOL
REMARK 922        TOTAL FREE ENERGY PREDICTED BY IDOCK:  -10.25 KCAL/MOL
REMARK 923 INTER-LIGAND FREE ENERGY PREDICTED BY IDOCK:   -9.51 KCAL/MOL
REMARK 924 INTRA-LIGAND FREE ENERGY PREDICTED BY IDOCK:   -0.74 KCAL/MOL
REMARK 927      BINDING AFFINITY PREDICTED BY RF-SCORE:    0.00 PKD
ROOT
HETATM    1  O   UNL     1     -11.916  15.448  64.064  1.00  0.00    -0.904 OA 
HETATM    2  C   UNL     1     -11.357  14.950  65.292  1.00  0.00    -0.358 C  
HETATM    3  H   UNL     1     -11.254  15.981  63.639  1.00  0.00     0.000 HD 
HETATM    4  C   UNL     1     -12.431  14.086  65.981  1.00  0.00    -0.489 C  
HETATM    5  C   UNL     1     -10.101  14.126  64.940  1.00  0.00    -0.280 C  
HETATM    6  C   UNL     1     -12.659  12.766  65.240  1.00  0.00    -0.393 C  
HETATM    7  C   UNL     1     -10.448  12.793  64.273  1.00  0.00    -0.399 C  
HETATM    8  N   UNL     1     -11.427  11.993  65.024  1.00  0.00    -0.311 NA 
ENDROOT
BRANCH   2   9
HETATM    9  C   UNL     1     -10.975  16.154  66.164  1.00  0.00    -0.036 A  
HETATM   10  C   UNL     1     -10.974  16.066  67.569  1.00  0.00    -0.261 A  
HETATM   11  C   UNL     1     -10.639  17.393  65.587  1.00  0.00    -0.158 A  
HETATM   12  C   UNL     1     -10.359  18.390  67.769  1.00  0.00    -0.405 A  
HETATM   13  C   UNL     1     -10.670  17.174  68.365  1.00  0.00    -0.347 A  
HETATM   14 CL   UNL     1     -10.009  19.760  68.749  1.00  0.00    -0.524 Cl 
HETATM   15  C   UNL     1     -10.335  18.504  66.382  1.00  0.00    -0.456 A  
ENDBRANCH   2   9
BRANCH   8  16
HETATM   16  C   UNL     1     -10.841  11.441  66.258  1.00  0.00    -0.263 C  
BRANCH  16  17
HETATM   17  C   UNL     1     -11.745  11.549  67.490  1.00  0.00    -0.262 C  
BRANCH  17  18
HETATM   18  C   UNL     1     -11.022  12.146  68.697  1.00  0.00    -0.284 C  
BRANCH  18  19
HETATM   19  C   UNL     1     -11.866  12.048  69.952  1.00  0.00    -0.331 C  
HETATM   20  O   UNL     1     -12.401  13.025  70.474  1.00  0.00    -0.338 OA 
BRANCH  19  21
HETATM   21  C   UNL     1     -12.010  10.719  70.599  1.00  0.00    -0.466 A  
HETATM   22  C   UNL     1     -10.883   9.884  70.656  1.00  0.00    -0.400 A  
HETATM   23  C   UNL     1     -10.974   8.617  71.233  1.00  0.00    -0.333 A  
HETATM   24  C   UNL     1     -12.187   8.195  71.765  1.00  0.00    -0.319 A  
HETATM   25  F   UNL     1     -12.275   6.980  72.319  1.00  0.00    -0.309 F  
HETATM   26  C   UNL     1     -13.310   9.014  71.731  1.00  0.00    -0.453 A  
HETATM   27  C   UNL     1     -13.227  10.280  71.146  1.00  0.00    -0.429 A  
ENDBRANCH  19  21
ENDBRANCH  18  19
ENDBRANCH  17  18
ENDBRANCH  16  17
ENDBRANCH   8  16
TORSDOF 6
ENDMDL
MODEL       13
REMARK 921   NORMALIZED FREE ENERGY PREDICTED BY IDOCK:   -6.60 KCAL/MOL
REMARK 922        TOTAL FREE ENERGY PREDICTED BY IDOCK:  -10.22 KCAL/MOL
REMARK 923 INTER-LIGAND FREE ENERGY PREDICTED BY IDOCK:   -8.83 KCAL/MOL
REMARK 924 INTRA-LIGAND FREE ENERGY PREDICTED BY IDOCK:   -1.39 KCAL/MOL
REMARK 927      BINDING AFFINITY PREDICTED BY RF-SCORE:    0.00 PKD
ROOT
HETATM    1  O   UNL     1     -13.375  10.092  70.082  1.00  0.00    -0.525 OA 
HETATM    2  C   UNL     1     -12.219  10.949  70.078  1.00  0.00    -0.347 C  
HETATM    3  H   UNL     1     -14.086  10.562  69.660  1.00  0.00     0.000 HD 
HETATM    4  C   UNL     1     -11.068  10.187  70.762  1.00  0.00    -0.372 C  
HETATM    5  C   UNL     1     -11.887  11.288  68.610  1.00  0.00    -0.369 C  
HETATM    6  C   UNL     1     -10.550   9.041  69.891  1.00  0.00    -0.228 C  
HETATM    7  C   UNL     1     -11.305  10.092  67.854  1.00  0.00     0.051 C  
HETATM    8  N   UNL     1     -10.165   9.459  68.536  1.00  0.00    -0.192 NA 
ENDROOT
BRANCH   2   9
HETATM    9  C   UNL     1     -12.572  12.227  70.852  1.00  0.00    -0.334 A  
HETATM   10  C   UNL     1     -13.370  12.182  72.010  1.00  0.00    -0.470 A  
HETATM   11  C   UNL     1     -12.130  13.490  70.411  1.00  0.00    -0.415 A  
HETATM   12  C   UNL     1     -13.294  14.583  72.224  1.00  0.00    -0.403 A  
HETATM   13  C   UNL     1     -13.730  13.349  72.690  1.00  0.00    -0.512 A  
HETATM   14 CL   UNL     1     -13.757  16.022  73.046  1.00  0.00    -0.610 Cl 
HETATM   15  C   UNL     1     -12.490  14.659  71.090  1.00  0.00    -0.402 A  
ENDBRANCH   2   9
BRANCH   8  16
HETATM   16  C   UNL     1      -8.965  10.315  68.490  1.00  0.00    -0.134 C  
BRANCH  16  17
HETATM   17  C   UNL     1      -8.012  10.004  67.333  1.00  0.00    -0.106 C  
BRANCH  17  18
HETATM   18  C   UNL     1      -8.031  11.084  66.251  1.00  0.00    -0.148 C  
BRANCH  18  19
HETATM   19  C   UNL     1      -9.176  10.876  65.280  1.00  0.00    -0.210 C  
HETATM   20  O   UNL     1      -9.349   9.824  64.669  1.00  0.00    -0.260 OA 
BRANCH  19  21
HETATM   21  C   UNL     1     -10.096  12.013  65.027  1.00  0.00    -0.293 A  
HETATM   22  C   UNL     1     -10.958  11.936  63.921  1.00  0.00    -0.473 A  
HETATM   23  C   UNL     1     -11.825  12.989  63.629  1.00  0.00    -0.580 A  
HETATM   24  C   UNL     1     -11.839  14.110  64.451  1.00  0.00    -0.428 A  
HETATM   25  F   UNL     1     -12.671  15.120  64.172  1.00  0.00    -0.465 F  
HETATM   26  C   UNL     1     -11.004  14.198  65.559  1.00  0.00    -0.310 A  
HETATM   27  C   UNL     1     -10.127  13.150  65.851  1.00  0.00    -0.292 A  
ENDBRANCH  19  21
ENDBRANCH  18  19
ENDBRANCH  17  18
ENDBRANCH  16  17
ENDBRANCH   8  16
TORSDOF 6
ENDMDL
MODEL       14
REMARK 921   NORMALIZED FREE ENERGY PREDICTED BY IDOCK:   -6.59 KCAL/MOL
REMARK 922        TOTAL FREE ENERGY PREDICTED BY IDOCK:  -10.22 KCAL/MOL
REMARK 923 INTER-LIGAND FREE ENERGY PREDICTED BY IDOCK:   -8.12 KCAL/MOL
REMARK 924 INTRA-LIGAND FREE ENERGY PREDICTED BY IDOCK:   -2.10 KCAL/MOL
REMARK 927      BINDING AFFINITY PREDICTED BY RF-SCORE:    0.00 PKD
ROOT
HETATM    1  O   UNL     1      -9.069  11.891  65.056  1.00  0.00    -0.415 OA 
HETATM    2  C   UNL     1      -9.806  12.090  66.275  1.00  0.00    -0.231 C  
HETATM    3  H   UNL     1      -9.453  11.149  64.603  1.00  0.00     0.000 HD 
HETATM    4  C   UNL     1      -9.185  13.293  67.009  1.00  0.00    -0.237 C  
HETATM    5  C   UNL     1     -11.280  12.348  65.900  1.00  0.00    -0.373 C  
HETATM    6  C   UNL     1      -9.493  14.613  66.297  1.00  0.00    -0.293 C  
HETATM    7  C   UNL     1     -11.486  13.726  65.266  1.00  0.00    -0.312 C  
HETATM    8  N   UNL     1     -10.927  14.832  66.058  1.00  0.00    -0.322 NA 
ENDROOT
BRANCH   2   9
HETATM    9  C   UNL     1      -9.689  10.811  67.115  1.00  0.00    -0.198 A  
HETATM   10  C   UNL     1     -10.533   9.708  66.888  1.00  0.00    -0.282 A  
HETATM   11  C   UNL     1      -8.750  10.709  68.160  1.00  0.00    -0.130 A  
HETATM   12  C   UNL     1      -9.534   8.493  68.715  1.00  0.00    -0.143 A  
HETATM   13  C   UNL     1     -10.459   8.560  67.680  1.00  0.00    -0.308 A  
HETATM   14 CL   UNL     1      -9.458   7.089  69.708  1.00  0.00    -0.146 Cl 
HETATM   15  C   UNL     1      -8.673   9.560  68.956  1.00  0.00    -0.142 A  
ENDBRANCH   2   9
BRANCH   8  16
HETATM   16  C   UNL     1     -11.710  15.068  67.284  1.00  0.00    -0.223 C  
BRANCH  16  17
HETATM   17  C   UNL     1     -11.057  16.036  68.274  1.00  0.00    -0.351 C  
BRANCH  17  18
HETATM   18  C   UNL     1     -10.861  15.417  69.659  1.00  0.00    -0.288 C  
BRANCH  18  19
HETATM   19  C   UNL     1     -12.179  14.968  70.255  1.00  0.00    -0.340 C  
HETATM   20  O   UNL     1     -13.075  15.752  70.562  1.00  0.00    -0.461 OA 
BRANCH  19  21
HETATM   21  C   UNL     1     -12.371  13.519  70.522  1.00  0.00    -0.412 A  
HETATM   22  C   UNL     1     -13.099  13.145  71.663  1.00  0.00    -0.444 A  
HETATM   23  C   UNL     1     -13.286  11.797  71.968  1.00  0.00    -0.460 A  
HETATM   24  C   UNL     1     -12.758  10.826  71.124  1.00  0.00    -0.431 A  
HETATM   25  F   UNL     1     -12.938   9.533  71.416  1.00  0.00    -0.352 F  
HETATM   26  C   UNL     1     -12.048  11.178  69.982  1.00  0.00    -0.437 A  
HETATM   27  C   UNL     1     -11.849  12.526  69.676  1.00  0.00    -0.382 A  
ENDBRANCH  19  21
ENDBRANCH  18  19
ENDBRANCH  17  18
ENDBRANCH  16  17
ENDBRANCH   8  16
TORSDOF 6
ENDMDL
MODEL       15
REMARK 921   NORMALIZED FREE ENERGY PREDICTED BY IDOCK:   -6.56 KCAL/MOL
REMARK 922        TOTAL FREE ENERGY PREDICTED BY IDOCK:  -10.17 KCAL/MOL
REMARK 923 INTER-LIGAND FREE ENERGY PREDICTED BY IDOCK:   -8.96 KCAL/MOL
REMARK 924 INTRA-LIGAND FREE ENERGY PREDICTED BY IDOCK:   -1.21 KCAL/MOL
REMARK 927      BINDING AFFINITY PREDICTED BY RF-SCORE:    0.00 PKD
ROOT
HETATM    1  O   UNL     1      -8.033   9.723  67.054  1.00  0.00    -0.105 OA 
HETATM    2  C   UNL     1      -9.413   9.793  67.455  1.00  0.00    -0.152 C  
HETATM    3  H   UNL     1      -7.698  10.612  67.011  1.00  0.00     0.000 HD 
HETATM    4  C   UNL     1      -9.955   8.352  67.523  1.00  0.00    -0.259 C  
HETATM    5  C   UNL     1      -9.470  10.490  68.829  1.00  0.00    -0.181 C  
HETATM    6  C   UNL     1      -9.374   7.583  68.710  1.00  0.00    -0.147 C  
HETATM    7  C   UNL     1      -8.935   9.603  69.955  1.00  0.00    -0.237 C  
HETATM    8  N   UNL     1      -9.551   8.267  69.999  1.00  0.00    -0.167 NA 
ENDROOT
BRANCH   2   9
HETATM    9  C   UNL     1     -10.171  10.619  66.407  1.00  0.00    -0.291 A  
HETATM   10  C   UNL     1     -10.029  10.361  65.031  1.00  0.00    -0.399 A  
HETATM   11  C   UNL     1     -11.014  11.681  66.789  1.00  0.00    -0.341 A  
HETATM   12  C   UNL     1     -11.496  12.194  64.478  1.00  0.00    -0.334 A  
HETATM   13  C   UNL     1     -10.684  11.141  64.074  1.00  0.00    -0.409 A  
HETATM   14 CL   UNL     1     -12.283  13.171  63.300  1.00  0.00    -0.575 Cl 
HETATM   15  C   UNL     1     -11.670  12.464  65.832  1.00  0.00    -0.476 A  
ENDBRANCH   2   9
BRANCH   8  16
HETATM   16  C   UNL     1     -10.950   8.332  70.457  1.00  0.00    -0.242 C  
BRANCH  16  17
HETATM   17  C   UNL     1     -11.180   9.256  71.657  1.00  0.00    -0.449 C  
BRANCH  17  18
HETATM   18  C   UNL     1     -12.572   9.887  71.653  1.00  0.00    -0.519 C  
BRANCH  18  19
HETATM   19  C   UNL     1     -12.702  10.937  70.569  1.00  0.00    -0.280 C  
HETATM   20  O   UNL     1     -12.748  10.658  69.372  1.00  0.00    -0.224 OA 
BRANCH  19  21
HETATM   21  C   UNL     1     -12.725  12.365  70.975  1.00  0.00    -0.315 A  
HETATM   22  C   UNL     1     -13.396  12.707  72.160  1.00  0.00    -0.570 A  
HETATM   23  C   UNL     1     -13.466  14.038  72.571  1.00  0.00    -0.661 A  
HETATM   24  C   UNL     1     -12.852  15.022  71.804  1.00  0.00    -0.338 A  
HETATM   25  F   UNL     1     -12.918  16.299  72.198  1.00  0.00    -0.473 F  
HETATM   26  C   UNL     1     -12.171  14.701  70.636  1.00  0.00    -0.394 A  
HETATM   27  C   UNL     1     -12.105  13.371  70.215  1.00  0.00    -0.419 A  
ENDBRANCH  19  21
ENDBRANCH  18  19
ENDBRANCH  17  18
ENDBRANCH  16  17
ENDBRANCH   8  16
TORSDOF 6
ENDMDL
MODEL       16
REMARK 921   NORMALIZED FREE ENERGY PREDICTED BY IDOCK:   -6.56 KCAL/MOL
REMARK 922        TOTAL FREE ENERGY PREDICTED BY IDOCK:  -10.17 KCAL/MOL
REMARK 923 INTER-LIGAND FREE ENERGY PREDICTED BY IDOCK:   -8.83 KCAL/MOL
REMARK 924 INTRA-LIGAND FREE ENERGY PREDICTED BY IDOCK:   -1.34 KCAL/MOL
REMARK 927      BINDING AFFINITY PREDICTED BY RF-SCORE:    0.00 PKD
ROOT
HETATM    1  O   UNL     1     -10.340  15.446  70.477  1.00  0.00    -0.450 OA 
HETATM    2  C   UNL     1     -10.728  14.603  69.377  1.00  0.00    -0.222 C  
HETATM    3  H   UNL     1      -9.786  14.932  71.054  1.00  0.00     0.000 HD 
HETATM    4  C   UNL     1     -11.625  15.436  68.441  1.00  0.00    -0.368 C  
HETATM    5  C   UNL     1      -9.442  14.133  68.666  1.00  0.00    -0.163 C  
HETATM    6  C   UNL     1     -10.826  16.502  67.688  1.00  0.00    -0.269 C  
HETATM    7  C   UNL     1      -8.766  15.260  67.882  1.00  0.00    -0.164 C  
HETATM    8  N   UNL     1      -9.669  15.963  66.958  1.00  0.00    -0.225 NA 
ENDROOT
BRANCH   2   9
HETATM    9  C   UNL     1     -11.490  13.399  69.945  1.00  0.00    -0.181 A  
HETATM   10  C   UNL     1     -12.352  13.536  71.050  1.00  0.00    -0.422 A  
HETATM   11  C   UNL     1     -11.332  12.111  69.397  1.00  0.00    -0.311 A  
HETATM   12  C   UNL     1     -12.824  11.171  71.047  1.00  0.00    -0.329 A  
HETATM   13  C   UNL     1     -13.012  12.433  71.598  1.00  0.00    -0.409 A  
HETATM   14 CL   UNL     1     -13.617   9.808  71.736  1.00  0.00    -0.420 Cl 
HETATM   15  C   UNL     1     -11.991  11.005  69.944  1.00  0.00    -0.427 A  
ENDBRANCH   2   9
BRANCH   8  16
HETATM   16  C   UNL     1     -10.028  15.118  65.805  1.00  0.00    -0.345 C  
BRANCH  16  17
HETATM   17  C   UNL     1     -11.268  15.588  65.039  1.00  0.00    -0.364 C  
BRANCH  17  18
HETATM   18  C   UNL     1     -12.381  14.541  65.025  1.00  0.00    -0.353 C  
BRANCH  18  19
HETATM   19  C   UNL     1     -12.128  13.476  63.977  1.00  0.00    -0.441 C  
HETATM   20  O   UNL     1     -12.613  13.522  62.848  1.00  0.00    -0.607 OA 
BRANCH  19  21
HETATM   21  C   UNL     1     -11.294  12.306  64.353  1.00  0.00    -0.396 A  
HETATM   22  C   UNL     1     -11.300  11.892  65.694  1.00  0.00    -0.339 A  
HETATM   23  C   UNL     1     -10.515  10.812  66.101  1.00  0.00    -0.278 A  
HETATM   24  C   UNL     1      -9.739  10.141  65.163  1.00  0.00    -0.304 A  
HETATM   25  F   UNL     1      -8.986   9.105  65.552  1.00  0.00    -0.174 F  
HETATM   26  C   UNL     1      -9.732  10.528  63.828  1.00  0.00    -0.385 A  
HETATM   27  C   UNL     1     -10.508  11.614  63.417  1.00  0.00    -0.482 A  
ENDBRANCH  19  21
ENDBRANCH  18  19
ENDBRANCH  17  18
ENDBRANCH  16  17
ENDBRANCH   8  16
TORSDOF 6
ENDMDL
MODEL       17
REMARK 921   NORMALIZED FREE ENERGY PREDICTED BY IDOCK:   -6.54 KCAL/MOL
REMARK 922        TOTAL FREE ENERGY PREDICTED BY IDOCK:  -10.14 KCAL/MOL
REMARK 923 INTER-LIGAND FREE ENERGY PREDICTED BY IDOCK:   -8.76 KCAL/MOL
REMARK 924 INTRA-LIGAND FREE ENERGY PREDICTED BY IDOCK:   -1.39 KCAL/MOL
REMARK 927      BINDING AFFINITY PREDICTED BY RF-SCORE:    0.00 PKD
ROOT
HETATM    1  O   UNL     1     -13.102  10.235  69.658  1.00  0.00    -0.465 OA 
HETATM    2  C   UNL     1     -12.011  11.173  69.662  1.00  0.00    -0.359 C  
HETATM    3  H   UNL     1     -13.871  10.685  69.329  1.00  0.00     0.000 HD 
HETATM    4  C   UNL     1     -10.764  10.442  70.194  1.00  0.00    -0.292 C  
HETATM    5  C   UNL     1     -11.809  11.668  68.214  1.00  0.00    -0.335 C  
HETATM    6  C   UNL     1     -10.230   9.422  69.187  1.00  0.00    -0.202 C  
HETATM    7  C   UNL     1     -11.200  10.592  67.312  1.00  0.00    -0.161 C  
HETATM    8  N   UNL     1      -9.973   9.990  67.855  1.00  0.00    -0.150 NA 
ENDROOT
BRANCH   2   9
HETATM    9  C   UNL     1     -12.396  12.346  70.575  1.00  0.00    -0.346 A  
HETATM   10  C   UNL     1     -13.174  12.146  71.730  1.00  0.00    -0.423 A  
HETATM   11  C   UNL     1     -12.006  13.664  70.270  1.00  0.00    -0.397 A  
HETATM   12  C   UNL     1     -13.178  14.511  72.205  1.00  0.00    -0.369 A  
HETATM   13  C   UNL     1     -13.563  13.218  72.538  1.00  0.00    -0.637 A  
HETATM   14 CL   UNL     1     -13.678  15.834  73.185  1.00  0.00    -0.586 Cl 
HETATM   15  C   UNL     1     -12.395  14.739  71.077  1.00  0.00    -0.397 A  
ENDBRANCH   2   9
BRANCH   8  16
HETATM   16  C   UNL     1      -8.842  10.935  67.814  1.00  0.00    -0.135 C  
BRANCH  16  17
HETATM   17  C   UNL     1      -8.861  11.890  66.618  1.00  0.00    -0.191 C  
BRANCH  17  18
HETATM   18  C   UNL     1      -8.799  13.359  67.038  1.00  0.00    -0.217 C  
BRANCH  18  19
HETATM   19  C   UNL     1      -9.770  14.205  66.240  1.00  0.00    -0.297 C  
HETATM   20  O   UNL     1     -10.285  13.821  65.193  1.00  0.00    -0.351 OA 
BRANCH  19  21
HETATM   21  C   UNL     1     -10.070  15.576  66.728  1.00  0.00    -0.268 A  
HETATM   22  C   UNL     1     -10.080  16.624  65.794  1.00  0.00    -0.301 A  
HETATM   23  C   UNL     1     -10.334  17.932  66.206  1.00  0.00    -0.364 A  
HETATM   24  C   UNL     1     -10.591  18.187  67.549  1.00  0.00    -0.401 A  
HETATM   25  F   UNL     1     -10.836  19.441  67.945  1.00  0.00    -0.490 F  
HETATM   26  C   UNL     1     -10.601  17.159  68.485  1.00  0.00    -0.361 A  
HETATM   27  C   UNL     1     -10.338  15.849  68.079  1.00  0.00    -0.262 A  
ENDBRANCH  19  21
ENDBRANCH  18  19
ENDBRANCH  17  18
ENDBRANCH  16  17
ENDBRANCH   8  16
TORSDOF 6
ENDMDL
MODEL       18
REMARK 921   NORMALIZED FREE ENERGY PREDICTED BY IDOCK:   -6.53 KCAL/MOL
REMARK 922        TOTAL FREE ENERGY PREDICTED BY IDOCK:  -10.14 KCAL/MOL
REMARK 923 INTER-LIGAND FREE ENERGY PREDICTED BY IDOCK:   -9.11 KCAL/MOL
REMARK 924 INTRA-LIGAND FREE ENERGY PREDICTED BY IDOCK:   -1.02 KCAL/MOL
REMARK 927      BINDING AFFINITY PREDICTED BY RF-SCORE:    0.00 PKD
ROOT
HETATM    1  O   UNL     1     -11.732  15.542  64.012  1.00  0.00    -0.867 OA 
HETATM    2  C   UNL     1     -11.314  14.973  65.266  1.00  0.00    -0.349 C  
HETATM    3  H   UNL     1     -11.003  16.041  63.662  1.00  0.00     0.000 HD 
HETATM    4  C   UNL     1     -12.497  14.164  65.832  1.00  0.00    -0.479 C  
HETATM    5  C   UNL     1     -10.088  14.078  64.993  1.00  0.00    -0.323 C  
HETATM    6  C   UNL     1     -12.743  12.884  65.031  1.00  0.00    -0.404 C  
HETATM    7  C   UNL     1     -10.460  12.790  64.255  1.00  0.00    -0.399 C  
HETATM    8  N   UNL     1     -11.550  12.036  64.894  1.00  0.00    -0.304 NA 
ENDROOT
BRANCH   2   9
HETATM    9  C   UNL     1     -10.933  16.125  66.206  1.00  0.00    -0.031 A  
HETATM   10  C   UNL     1     -10.899  15.947  67.602  1.00  0.00    -0.312 A  
HETATM   11  C   UNL     1     -10.629  17.405  65.704  1.00  0.00    -0.158 A  
HETATM   12  C   UNL     1     -10.317  18.262  67.940  1.00  0.00    -0.399 A  
HETATM   13  C   UNL     1     -10.596  17.005  68.462  1.00  0.00    -0.370 A  
HETATM   14 CL   UNL     1      -9.968  19.572  69.000  1.00  0.00    -0.519 Cl 
HETATM   15  C   UNL     1     -10.326  18.467  66.564  1.00  0.00    -0.426 A  
ENDBRANCH   2   9
BRANCH   8  16
HETATM   16  C   UNL     1     -11.109  11.412  66.155  1.00  0.00    -0.198 C  
BRANCH  16  17
HETATM   17  C   UNL     1      -9.827  10.584  66.034  1.00  0.00    -0.277 C  
BRANCH  17  18
HETATM   18  C   UNL     1      -9.507   9.808  67.312  1.00  0.00    -0.183 C  
BRANCH  18  19
HETATM   19  C   UNL     1      -9.476  10.721  68.521  1.00  0.00    -0.181 C  
HETATM   20  O   UNL     1      -8.667  11.639  68.643  1.00  0.00    -0.153 OA 
BRANCH  19  21
HETATM   21  C   UNL     1     -10.436  10.459  69.623  1.00  0.00    -0.279 A  
HETATM   22  C   UNL     1     -10.210   9.347  70.449  1.00  0.00    -0.310 A  
HETATM   23  C   UNL     1     -11.096   9.046  71.484  1.00  0.00    -0.419 A  
HETATM   24  C   UNL     1     -12.198   9.866  71.698  1.00  0.00    -0.395 A  
HETATM   25  F   UNL     1     -13.049   9.579  72.690  1.00  0.00    -0.456 F  
HETATM   26  C   UNL     1     -12.430  10.980  70.900  1.00  0.00    -0.509 A  
HETATM   27  C   UNL     1     -11.551  11.281  69.857  1.00  0.00    -0.413 A  
ENDBRANCH  19  21
ENDBRANCH  18  19
ENDBRANCH  17  18
ENDBRANCH  16  17
ENDBRANCH   8  16
TORSDOF 6
ENDMDL
MODEL       19
REMARK 921   NORMALIZED FREE ENERGY PREDICTED BY IDOCK:   -6.46 KCAL/MOL
REMARK 922        TOTAL FREE ENERGY PREDICTED BY IDOCK:  -10.04 KCAL/MOL
REMARK 923 INTER-LIGAND FREE ENERGY PREDICTED BY IDOCK:   -8.75 KCAL/MOL
REMARK 924 INTRA-LIGAND FREE ENERGY PREDICTED BY IDOCK:   -1.28 KCAL/MOL
REMARK 927      BINDING AFFINITY PREDICTED BY RF-SCORE:    0.00 PKD
ROOT
HETATM    1  O   UNL     1     -13.426  10.563  69.602  1.00  0.00    -0.287 OA 
HETATM    2  C   UNL     1     -12.059  10.910  69.888  1.00  0.00    -0.354 C  
HETATM    3  H   UNL     1     -13.901  10.551  70.425  1.00  0.00     0.000 HD 
HETATM    4  C   UNL     1     -11.291  10.929  68.553  1.00  0.00    -0.367 C  
HETATM    5  C   UNL     1     -12.057  12.294  70.569  1.00  0.00    -0.371 C  
HETATM    6  C   UNL     1     -11.690  12.124  67.685  1.00  0.00    -0.316 C  
HETATM    7  C   UNL     1     -12.395  13.423  69.592  1.00  0.00    -0.131 C  
HETATM    8  N   UNL     1     -11.571  13.418  68.373  1.00  0.00    -0.310 NA 
ENDROOT
BRANCH   2   9
HETATM    9  C   UNL     1     -11.488   9.849  70.839  1.00  0.00    -0.456 A  
HETATM   10  C   UNL     1     -10.121   9.515  70.823  1.00  0.00    -0.352 A  
HETATM   11  C   UNL     1     -12.320   9.156  71.740  1.00  0.00    -0.444 A  
HETATM   12  C   UNL     1     -10.453   7.839  72.524  1.00  0.00    -0.284 A  
HETATM   13  C   UNL     1      -9.607   8.519  71.656  1.00  0.00    -0.319 A  
HETATM   14 CL   UNL     1      -9.826   6.593  73.533  1.00  0.00    -0.204 Cl 
HETATM   15  C   UNL     1     -11.807   8.157  72.575  1.00  0.00    -0.438 A  
ENDBRANCH   2   9
BRANCH   8  16
HETATM   16  C   UNL     1     -10.182  13.821  68.657  1.00  0.00    -0.208 C  
BRANCH  16  17
HETATM   17  C   UNL     1      -9.800  15.198  68.107  1.00  0.00    -0.218 C  
BRANCH  17  18
HETATM   18  C   UNL     1     -10.931  15.845  67.307  1.00  0.00    -0.234 C  
BRANCH  18  19
HETATM   19  C   UNL     1     -10.627  15.849  65.823  1.00  0.00    -0.355 C  
HETATM   20  O   UNL     1     -10.185  16.835  65.235  1.00  0.00    -0.607 OA 
BRANCH  19  21
HETATM   21  C   UNL     1     -10.923  14.621  65.042  1.00  0.00    -0.415 A  
HETATM   22  C   UNL     1     -12.198  14.492  64.467  1.00  0.00    -0.483 A  
HETATM   23  C   UNL     1     -12.531  13.347  63.744  1.00  0.00    -0.318 A  
HETATM   24  C   UNL     1     -11.585  12.340  63.586  1.00  0.00    -0.496 A  
HETATM   25  F   UNL     1     -11.905  11.241  62.892  1.00  0.00    -0.197 F  
HETATM   26  C   UNL     1     -10.314  12.457  64.135  1.00  0.00    -0.409 A  
HETATM   27  C   UNL     1      -9.977  13.598  64.868  1.00  0.00    -0.183 A  
ENDBRANCH  19  21
ENDBRANCH  18  19
ENDBRANCH  17  18
ENDBRANCH  16  17
ENDBRANCH   8  16
TORSDOF 6
ENDMDL
MODEL       20
REMARK 921   NORMALIZED FREE ENERGY PREDICTED BY IDOCK:   -6.42 KCAL/MOL
REMARK 922        TOTAL FREE ENERGY PREDICTED BY IDOCK:   -9.98 KCAL/MOL
REMARK 923 INTER-LIGAND FREE ENERGY PREDICTED BY IDOCK:   -7.79 KCAL/MOL
REMARK 924 INTRA-LIGAND FREE ENERGY PREDICTED BY IDOCK:   -2.20 KCAL/MOL
REMARK 927      BINDING AFFINITY PREDICTED BY RF-SCORE:    0.00 PKD
ROOT
HETATM    1  O   UNL     1     -11.885  15.355  63.973  1.00  0.00    -0.870 OA 
HETATM    2  C   UNL     1     -11.079  14.997  65.109  1.00  0.00    -0.401 C  
HETATM    3  H   UNL     1     -11.305  15.699  63.302  1.00  0.00     0.000 HD 
HETATM    4  C   UNL     1     -12.019  14.440  66.195  1.00  0.00    -0.381 C  
HETATM    5  C   UNL     1     -10.052  13.942  64.646  1.00  0.00    -0.144 C  
HETATM    6  C   UNL     1     -12.569  13.063  65.818  1.00  0.00    -0.201 C  
HETATM    7  C   UNL     1     -10.699  12.583  64.370  1.00  0.00    -0.350 C  
HETATM    8  N   UNL     1     -11.526  12.085  65.480  1.00  0.00    -0.338 NA 
ENDROOT
BRANCH   2   9
HETATM    9  C   UNL     1     -10.358  16.261  65.598  1.00  0.00    -0.385 A  
HETATM   10  C   UNL     1     -11.024  17.498  65.674  1.00  0.00     0.176 A  
HETATM   11  C   UNL     1      -8.998  16.228  65.962  1.00  0.00    -0.325 A  
HETATM   12  C   UNL     1      -9.011  18.601  66.412  1.00  0.00    -0.279 A  
HETATM   13  C   UNL     1     -10.358  18.659  66.075  1.00  0.00    -0.436 A  
HETATM   14 CL   UNL     1      -8.184  20.035  66.883  1.00  0.00    -0.350 Cl 
HETATM   15  C   UNL     1      -8.328  17.390  66.364  1.00  0.00    -0.302 A  
ENDBRANCH   2   9
BRANCH   8  16
HETATM   16  C   UNL     1     -10.697  11.671  66.627  1.00  0.00    -0.270 C  
BRANCH  16  17
HETATM   17  C   UNL     1     -11.445  10.852  67.683  1.00  0.00    -0.281 C  
BRANCH  17  18
HETATM   18  C   UNL     1     -10.920  11.100  69.098  1.00  0.00    -0.295 C  
BRANCH  18  19
HETATM   19  C   UNL     1     -11.822  12.043  69.866  1.00  0.00    -0.331 C  
HETATM   20  O   UNL     1     -12.766  11.654  70.551  1.00  0.00    -0.188 OA 
BRANCH  19  21
HETATM   21  C   UNL     1     -11.577  13.503  69.744  1.00  0.00    -0.313 A  
HETATM   22  C   UNL     1     -10.342  13.927  69.230  1.00  0.00     0.062 A  
HETATM   23  C   UNL     1     -10.056  15.288  69.117  1.00  0.00    -0.240 A  
HETATM   24  C   UNL     1     -11.011  16.221  69.506  1.00  0.00    -0.339 A  
HETATM   25  F   UNL     1     -10.738  17.526  69.397  1.00  0.00    -0.300 F  
HETATM   26  C   UNL     1     -12.245  15.819  70.003  1.00  0.00    -0.309 A  
HETATM   27  C   UNL     1     -12.534  14.458  70.126  1.00  0.00    -0.395 A  
ENDBRANCH  19  21
ENDBRANCH  18  19
ENDBRANCH  17  18
ENDBRANCH  16  17
ENDBRANCH   8  16
TORSDOF 6
ENDMDL
MODEL       21
REMARK 921   NORMALIZED FREE ENERGY PREDICTED BY IDOCK:   -6.42 KCAL/MOL
REMARK 922        TOTAL FREE ENERGY PREDICTED BY IDOCK:   -9.98 KCAL/MOL
REMARK 923 INTER-LIGAND FREE ENERGY PREDICTED BY IDOCK:   -8.16 KCAL/MOL
REMARK 924 INTRA-LIGAND FREE ENERGY PREDICTED BY IDOCK:   -1.82 KCAL/MOL
REMARK 927      BINDING AFFINITY PREDICTED BY RF-SCORE:    0.00 PKD
ROOT
HETATM    1  O   UNL     1     -11.518  16.188  63.931  1.00  0.00    -1.351 OA 
HETATM    2  C   UNL     1     -11.030  15.529  65.113  1.00  0.00    -0.409 C  
HETATM    3  H   UNL     1     -10.765  16.463  63.420  1.00  0.00     0.000 HD 
HETATM    4  C   UNL     1     -12.250  15.083  65.940  1.00  0.00     0.226 C  
HETATM    5  C   UNL     1     -10.174  14.326  64.663  1.00  0.00    -0.147 C  
HETATM    6  C   UNL     1     -12.991  13.920  65.277  1.00  0.00    -0.297 C  
HETATM    7  C   UNL     1     -11.023  13.192  64.086  1.00  0.00    -0.390 C  
HETATM    8  N   UNL     1     -12.127  12.773  64.963  1.00  0.00    -0.415 NA 
ENDROOT
BRANCH   2   9
HETATM    9  C   UNL     1     -10.169  16.530  65.895  1.00  0.00    -0.368 A  
HETATM   10  C   UNL     1      -8.774  16.368  66.000  1.00  0.00    -0.274 A  
HETATM   11  C   UNL     1     -10.750  17.629  66.556  1.00  0.00    -0.097 A  
HETATM   12  C   UNL     1      -8.597  18.320  67.405  1.00  0.00    -0.249 A  
HETATM   13  C   UNL     1      -7.995  17.253  66.749  1.00  0.00    -0.276 A  
HETATM   14 CL   UNL     1      -7.640  19.396  68.348  1.00  0.00    -0.344 Cl 
HETATM   15  C   UNL     1      -9.971  18.517  67.308  1.00  0.00    -0.350 A  
ENDBRANCH   2   9
BRANCH   8  16
HETATM   16  C   UNL     1     -11.631  12.054  66.151  1.00  0.00    -0.304 C  
BRANCH  16  17
HETATM   17  C   UNL     1     -10.105  11.962  66.241  1.00  0.00    -0.249 C  
BRANCH  17  18
HETATM   18  C   UNL     1      -9.605  11.909  67.685  1.00  0.00    -0.185 C  
BRANCH  18  19
HETATM   19  C   UNL     1      -9.313  13.295  68.222  1.00  0.00    -0.205 C  
HETATM   20  O   UNL     1      -8.226  13.850  68.080  1.00  0.00    -0.139 OA 
BRANCH  19  21
HETATM   21  C   UNL     1     -10.377  13.987  68.993  1.00  0.00    -0.136 A  
HETATM   22  C   UNL     1     -11.492  13.239  69.404  1.00  0.00    -0.323 A  
HETATM   23  C   UNL     1     -12.528  13.849  70.111  1.00  0.00    -0.355 A  
HETATM   24  C   UNL     1     -12.441  15.202  70.418  1.00  0.00    -0.368 A  
HETATM   25  F   UNL     1     -13.434  15.788  71.096  1.00  0.00    -0.542 F  
HETATM   26  C   UNL     1     -11.338  15.955  70.032  1.00  0.00    -0.358 A  
HETATM   27  C   UNL     1     -10.301  15.352  69.317  1.00  0.00    -0.253 A  
ENDBRANCH  19  21
ENDBRANCH  18  19
ENDBRANCH  17  18
ENDBRANCH  16  17
ENDBRANCH   8  16
TORSDOF 6
ENDMDL
MODEL       22
REMARK 921   NORMALIZED FREE ENERGY PREDICTED BY IDOCK:   -6.42 KCAL/MOL
REMARK 922        TOTAL FREE ENERGY PREDICTED BY IDOCK:   -9.98 KCAL/MOL
REMARK 923 INTER-LIGAND FREE ENERGY PREDICTED BY IDOCK:   -9.08 KCAL/MOL
REMARK 924 INTRA-LIGAND FREE ENERGY PREDICTED BY IDOCK:   -0.89 KCAL/MOL
REMARK 927      BINDING AFFINITY PREDICTED BY RF-SCORE:    0.00 PKD
ROOT
HETATM    1  O   UNL     1     -11.442  15.299  64.222  1.00  0.00    -0.666 OA 
HETATM    2  C   UNL     1     -10.850  15.074  65.514  1.00  0.00    -0.351 C  
HETATM    3  H   UNL     1     -10.737  15.454  63.604  1.00  0.00     0.000 HD 
HETATM    4  C   UNL     1     -11.992  14.822  66.517  1.00  0.00    -0.193 C  
HETATM    5  C   UNL     1      -9.912  13.854  65.398  1.00  0.00    -0.274 C  
HETATM    6  C   UNL     1     -12.656  13.462  66.291  1.00  0.00    -0.168 C  
HETATM    7  C   UNL     1     -10.683  12.540  65.252  1.00  0.00    -0.286 C  
HETATM    8  N   UNL     1     -11.709  12.338  66.286  1.00  0.00    -0.511 NA 
ENDROOT
BRANCH   2   9
HETATM    9  C   UNL     1     -10.047  16.326  65.894  1.00  0.00    -0.381 A  
HETATM   10  C   UNL     1     -10.660  17.590  65.970  1.00  0.00    -0.217 A  
HETATM   11  C   UNL     1      -8.664  16.253  66.154  1.00  0.00    -0.353 A  
HETATM   12  C   UNL     1      -8.556  18.640  66.507  1.00  0.00    -0.297 A  
HETATM   13  C   UNL     1      -9.922  18.738  66.272  1.00  0.00    -0.418 A  
HETATM   14 CL   UNL     1      -7.642  20.056  66.854  1.00  0.00    -0.299 Cl 
HETATM   15  C   UNL     1      -7.924  17.401  66.456  1.00  0.00    -0.317 A  
ENDBRANCH   2   9
BRANCH   8  16
HETATM   16  C   UNL     1     -11.104  12.058  67.601  1.00  0.00    -0.264 C  
BRANCH  16  17
HETATM   17  C   UNL     1     -12.107  11.653  68.685  1.00  0.00    -0.184 C  
BRANCH  17  18
HETATM   18  C   UNL     1     -11.782  12.270  70.045  1.00  0.00    -0.319 C  
BRANCH  18  19
HETATM   19  C   UNL     1     -12.668  11.704  71.136  1.00  0.00    -0.325 C  
HETATM   20  O   UNL     1     -13.397  12.406  71.835  1.00  0.00    -0.468 OA 
BRANCH  19  21
HETATM   21  C   UNL     1     -12.613  10.243  71.397  1.00  0.00    -0.539 A  
HETATM   22  C   UNL     1     -11.353   9.627  71.455  1.00  0.00    -0.444 A  
HETATM   23  C   UNL     1     -11.251   8.253  71.674  1.00  0.00    -0.330 A  
HETATM   24  C   UNL     1     -12.407   7.502  71.851  1.00  0.00    -0.310 A  
HETATM   25  F   UNL     1     -12.310   6.184  72.063  1.00  0.00    -0.382 F  
HETATM   26  C   UNL     1     -13.663   8.097  71.812  1.00  0.00    -0.422 A  
HETATM   27  C   UNL     1     -13.772   9.471  71.584  1.00  0.00    -0.365 A  
ENDBRANCH  19  21
ENDBRANCH  18  19
ENDBRANCH  17  18
ENDBRANCH  16  17
ENDBRANCH   8  16
TORSDOF 6
ENDMDL
MODEL       23
REMARK 921   NORMALIZED FREE ENERGY PREDICTED BY IDOCK:   -6.40 KCAL/MOL
REMARK 922        TOTAL FREE ENERGY PREDICTED BY IDOCK:   -9.96 KCAL/MOL
REMARK 923 INTER-LIGAND FREE ENERGY PREDICTED BY IDOCK:   -8.41 KCAL/MOL
REMARK 924 INTRA-LIGAND FREE ENERGY PREDICTED BY IDOCK:   -1.55 KCAL/MOL
REMARK 927      BINDING AFFINITY PREDICTED BY RF-SCORE:    0.00 PKD
ROOT
HETATM    1  O   UNL     1      -8.448  10.615  69.455  1.00  0.00    -0.344 OA 
HETATM    2  C   UNL     1      -9.721  10.796  68.808  1.00  0.00    -0.192 C  
HETATM    3  H   UNL     1      -8.359   9.693  69.668  1.00  0.00     0.000 HD 
HETATM    4  C   UNL     1      -9.864  12.291  68.464  1.00  0.00    -0.157 C  
HETATM    5  C   UNL     1      -9.736   9.914  67.543  1.00  0.00    -0.193 C  
HETATM    6  C   UNL     1      -8.929  12.703  67.325  1.00  0.00    -0.194 C  
HETATM    7  C   UNL     1      -8.825  10.460  66.442  1.00  0.00    -0.147 C  
HETATM    8  N   UNL     1      -9.069  11.874  66.119  1.00  0.00    -0.197 NA 
ENDROOT
BRANCH   2   9
HETATM    9  C   UNL     1     -10.818  10.346  69.783  1.00  0.00    -0.342 A  
HETATM   10  C   UNL     1     -10.743   9.106  70.444  1.00  0.00    -0.282 A  
HETATM   11  C   UNL     1     -11.949  11.149  70.026  1.00  0.00    -0.447 A  
HETATM   12  C   UNL     1     -12.875   9.479  71.506  1.00  0.00    -0.377 A  
HETATM   13  C   UNL     1     -11.762   8.674  71.297  1.00  0.00    -0.341 A  
HETATM   14 CL   UNL     1     -14.143   8.938  72.537  1.00  0.00    -0.506 Cl 
HETATM   15  C   UNL     1     -12.972  10.718  70.880  1.00  0.00    -0.385 A  
ENDBRANCH   2   9
BRANCH   8  16
HETATM   16  C   UNL     1     -10.350  12.055  65.412  1.00  0.00    -0.266 C  
BRANCH  16  17
HETATM   17  C   UNL     1     -10.371  13.232  64.433  1.00  0.00    -0.372 C  
BRANCH  17  18
HETATM   18  C   UNL     1     -11.572  14.153  64.648  1.00  0.00    -0.414 C  
BRANCH  18  19
HETATM   19  C   UNL     1     -11.135  15.582  64.898  1.00  0.00    -0.416 C  
HETATM   20  O   UNL     1     -11.323  16.488  64.088  1.00  0.00    -1.060 OA 
BRANCH  19  21
HETATM   21  C   UNL     1     -10.409  15.884  66.157  1.00  0.00    -0.341 A  
HETATM   22  C   UNL     1      -9.096  16.373  66.064  1.00  0.00    -0.317 A  
HETATM   23  C   UNL     1      -8.364  16.649  67.220  1.00  0.00    -0.198 A  
HETATM   24  C   UNL     1      -8.952  16.451  68.464  1.00  0.00    -0.224 A  
HETATM   25  F   UNL     1      -8.251  16.717  69.572  1.00  0.00    -0.170 F  
HETATM   26  C   UNL     1     -10.256  15.983  68.575  1.00  0.00    -0.236 A  
HETATM   27  C   UNL     1     -10.990  15.695  67.422  1.00  0.00    -0.293 A  
ENDBRANCH  19  21
ENDBRANCH  18  19
ENDBRANCH  17  18
ENDBRANCH  16  17
ENDBRANCH   8  16
TORSDOF 6
ENDMDL
MODEL       24
REMARK 921   NORMALIZED FREE ENERGY PREDICTED BY IDOCK:   -6.39 KCAL/MOL
REMARK 922        TOTAL FREE ENERGY PREDICTED BY IDOCK:   -9.95 KCAL/MOL
REMARK 923 INTER-LIGAND FREE ENERGY PREDICTED BY IDOCK:   -8.54 KCAL/MOL
REMARK 924 INTRA-LIGAND FREE ENERGY PREDICTED BY IDOCK:   -1.41 KCAL/MOL
REMARK 927      BINDING AFFINITY PREDICTED BY RF-SCORE:    0.00 PKD
ROOT
HETATM    1  O   UNL     1     -11.808  15.480  63.787  1.00  0.00    -0.915 OA 
HETATM    2  C   UNL     1     -11.413  14.839  65.013  1.00  0.00    -0.389 C  
HETATM    3  H   UNL     1     -11.072  15.997  63.480  1.00  0.00     0.000 HD 
HETATM    4  C   UNL     1     -12.606  14.001  65.510  1.00  0.00    -0.543 C  
HETATM    5  C   UNL     1     -10.183  13.958  64.709  1.00  0.00    -0.353 C  
HETATM    6  C   UNL     1     -12.840  12.770  64.632  1.00  0.00    -0.274 C  
HETATM    7  C   UNL     1     -10.544  12.716  63.891  1.00  0.00    -0.428 C  
HETATM    8  N   UNL     1     -11.646  11.929  64.466  1.00  0.00    -0.302 NA 
ENDROOT
BRANCH   2   9
HETATM    9  C   UNL     1     -11.046  15.932  66.025  1.00  0.00    -0.037 A  
HETATM   10  C   UNL     1     -10.620  17.205  65.602  1.00  0.00    -0.187 A  
HETATM   11  C   UNL     1     -11.098  15.688  67.411  1.00  0.00    -0.260 A  
HETATM   12  C   UNL     1     -10.287  17.914  67.883  1.00  0.00    -0.389 A  
HETATM   13  C   UNL     1     -10.242  18.187  66.522  1.00  0.00    -0.398 A  
HETATM   14 CL   UNL     1      -9.799  19.115  69.015  1.00  0.00    -0.466 Cl 
HETATM   15  C   UNL     1     -10.720  16.670  68.334  1.00  0.00    -0.353 A  
ENDBRANCH   2   9
BRANCH   8  16
HETATM   16  C   UNL     1     -11.228  11.231  65.695  1.00  0.00    -0.004 C  
BRANCH  16  17
HETATM   17  C   UNL     1      -9.841  10.587  65.615  1.00  0.00    -0.311 C  
BRANCH  17  18
HETATM   18  C   UNL     1      -9.142  10.528  66.973  1.00  0.00    -0.156 C  
BRANCH  18  19
HETATM   19  C   UNL     1      -9.510  11.716  67.838  1.00  0.00    -0.181 C  
HETATM   20  O   UNL     1      -8.968  12.814  67.728  1.00  0.00    -0.172 OA 
BRANCH  19  21
HETATM   21  C   UNL     1     -10.537  11.524  68.893  1.00  0.00    -0.236 A  
HETATM   22  C   UNL     1     -10.599  10.280  69.540  1.00  0.00    -0.270 A  
HETATM   23  C   UNL     1     -11.561  10.043  70.522  1.00  0.00    -0.403 A  
HETATM   24  C   UNL     1     -12.449  11.057  70.865  1.00  0.00    -0.410 A  
HETATM   25  F   UNL     1     -13.372  10.831  71.807  1.00  0.00    -0.480 F  
HETATM   26  C   UNL     1     -12.393  12.300  70.246  1.00  0.00    -0.267 A  
HETATM   27  C   UNL     1     -11.437  12.539  69.256  1.00  0.00    -0.353 A  
ENDBRANCH  19  21
ENDBRANCH  18  19
ENDBRANCH  17  18
ENDBRANCH  16  17
ENDBRANCH   8  16
TORSDOF 6
ENDMDL
MODEL       25
REMARK 921   NORMALIZED FREE ENERGY PREDICTED BY IDOCK:   -6.39 KCAL/MOL
REMARK 922        TOTAL FREE ENERGY PREDICTED BY IDOCK:   -9.94 KCAL/MOL
REMARK 923 INTER-LIGAND FREE ENERGY PREDICTED BY IDOCK:   -9.33 KCAL/MOL
REMARK 924 INTRA-LIGAND FREE ENERGY PREDICTED BY IDOCK:   -0.60 KCAL/MOL
REMARK 927      BINDING AFFINITY PREDICTED BY RF-SCORE:    0.00 PKD
ROOT
HETATM    1  O   UNL     1     -11.376  11.937  68.411  1.00  0.00    -0.229 OA 
HETATM    2  C   UNL     1     -11.347  13.368  68.259  1.00  0.00    -0.295 C  
HETATM    3  H   UNL     1     -12.260  11.690  68.658  1.00  0.00     0.000 HD 
HETATM    4  C   UNL     1      -9.914  13.768  67.858  1.00  0.00    -0.240 C  
HETATM    5  C   UNL     1     -12.372  13.748  67.170  1.00  0.00    -0.244 C  
HETATM    6  C   UNL     1      -9.586  13.343  66.425  1.00  0.00    -0.257 C  
HETATM    7  C   UNL     1     -11.908  13.344  65.768  1.00  0.00    -0.377 C  
HETATM    8  N   UNL     1     -10.558  13.822  65.432  1.00  0.00    -0.307 NA 
ENDROOT
BRANCH   2   9
HETATM    9  C   UNL     1     -11.741  13.998  69.602  1.00  0.00    -0.368 A  
HETATM   10  C   UNL     1     -11.469  15.350  69.881  1.00  0.00    -0.329 A  
HETATM   11  C   UNL     1     -12.363  13.235  70.609  1.00  0.00    -0.416 A  
HETATM   12  C   UNL     1     -12.384  15.134  72.101  1.00  0.00    -0.358 A  
HETATM   13  C   UNL     1     -11.786  15.914  71.119  1.00  0.00    -0.490 A  
HETATM   14 CL   UNL     1     -12.752  15.821  73.636  1.00  0.00    -0.660 Cl 
HETATM   15  C   UNL     1     -12.681  13.797  71.850  1.00  0.00    -0.347 A  
ENDBRANCH   2   9
BRANCH   8  16
HETATM   16  C   UNL     1     -10.536  15.281  65.227  1.00  0.00    -0.411 C  
BRANCH  16  17
HETATM   17  C   UNL     1      -9.618  16.041  66.189  1.00  0.00    -0.366 C  
BRANCH  17  18
HETATM   18  C   UNL     1     -10.358  17.125  66.972  1.00  0.00    -0.308 C  
BRANCH  18  19
HETATM   19  C   UNL     1      -9.998  18.511  66.475  1.00  0.00    -0.380 C  
HETATM   20  O   UNL     1     -10.613  19.075  65.572  1.00  0.00    -0.557 OA 
BRANCH  19  21
HETATM   21  C   UNL     1      -8.822  19.189  67.076  1.00  0.00    -0.318 A  
HETATM   22  C   UNL     1      -8.445  18.830  68.380  1.00  0.00    -0.374 A  
HETATM   23  C   UNL     1      -7.361  19.455  68.997  1.00  0.00    -0.395 A  
HETATM   24  C   UNL     1      -6.649  20.427  68.303  1.00  0.00    -0.292 A  
HETATM   25  F   UNL     1      -5.608  21.026  68.894  1.00  0.00    -0.331 F  
HETATM   26  C   UNL     1      -6.998  20.785  67.007  1.00  0.00    -0.386 A  
HETATM   27  C   UNL     1      -8.088  20.168  66.387  1.00  0.00    -0.298 A  
ENDBRANCH  19  21
ENDBRANCH  18  19
ENDBRANCH  17  18
ENDBRANCH  16  17
ENDBRANCH   8  16
TORSDOF 6
ENDMDL
MODEL       26
REMARK 921   NORMALIZED FREE ENERGY PREDICTED BY IDOCK:   -6.35 KCAL/MOL
REMARK 922        TOTAL FREE ENERGY PREDICTED BY IDOCK:   -9.89 KCAL/MOL
REMARK 923 INTER-LIGAND FREE ENERGY PREDICTED BY IDOCK:   -7.20 KCAL/MOL
REMARK 924 INTRA-LIGAND FREE ENERGY PREDICTED BY IDOCK:   -2.69 KCAL/MOL
REMARK 927      BINDING AFFINITY PREDICTED BY RF-SCORE:    0.00 PKD
ROOT
HETATM    1  O   UNL     1      -9.401   6.654  65.787  1.00  0.00    -0.383 OA 
HETATM    2  C   UNL     1      -9.266   7.568  66.891  1.00  0.00    -0.149 C  
HETATM    3  H   UNL     1     -10.302   6.350  65.771  1.00  0.00     0.000 HD 
HETATM    4  C   UNL     1      -7.807   8.060  66.917  1.00  0.00    -0.103 C  
HETATM    5  C   UNL     1     -10.257   8.729  66.666  1.00  0.00    -0.340 C  
HETATM    6  C   UNL     1      -7.506   9.006  65.752  1.00  0.00    -0.090 C  
HETATM    7  C   UNL     1      -9.819   9.655  65.529  1.00  0.00    -0.281 C  
HETATM    8  N   UNL     1      -8.437  10.140  65.660  1.00  0.00    -0.147 NA 
ENDROOT
BRANCH   2   9
HETATM    9  C   UNL     1      -9.617   6.813  68.180  1.00  0.00    -0.122 A  
HETATM   10  C   UNL     1     -10.956   6.619  68.571  1.00  0.00    -0.314 A  
HETATM   11  C   UNL     1      -8.610   6.312  69.027  1.00  0.00    -0.123 A  
HETATM   12  C   UNL     1     -10.262   5.502  70.592  1.00  0.00    -0.240 A  
HETATM   13  C   UNL     1     -11.276   5.971  69.767  1.00  0.00    -0.440 A  
HETATM   14 CL   UNL     1     -10.656   4.726  72.077  1.00  0.00    -0.224 Cl 
HETATM   15  C   UNL     1      -8.929   5.663  70.226  1.00  0.00    -0.152 A  
ENDBRANCH   2   9
BRANCH   8  16
HETATM   16  C   UNL     1      -8.308  11.114  66.758  1.00  0.00    -0.152 C  
BRANCH  16  17
HETATM   17  C   UNL     1      -9.442  12.141  66.829  1.00  0.00    -0.213 C  
BRANCH  17  18
HETATM   18  C   UNL     1      -9.960  12.346  68.252  1.00  0.00    -0.224 C  
BRANCH  18  19
HETATM   19  C   UNL     1     -11.176  11.485  68.528  1.00  0.00    -0.258 C  
HETATM   20  O   UNL     1     -12.189  11.519  67.832  1.00  0.00    -0.586 OA 
BRANCH  19  21
HETATM   21  C   UNL     1     -11.153  10.599  69.720  1.00  0.00    -0.358 A  
HETATM   22  C   UNL     1      -9.944   9.968  70.053  1.00  0.00    -0.273 A  
HETATM   23  C   UNL     1      -9.877   9.109  71.150  1.00  0.00    -0.371 A  
HETATM   24  C   UNL     1     -11.015   8.895  71.920  1.00  0.00    -0.369 A  
HETATM   25  F   UNL     1     -10.952   8.072  72.973  1.00  0.00    -0.401 F  
HETATM   26  C   UNL     1     -12.217   9.524  71.614  1.00  0.00    -0.477 A  
HETATM   27  C   UNL     1     -12.292  10.378  70.511  1.00  0.00    -0.410 A  
ENDBRANCH  19  21
ENDBRANCH  18  19
ENDBRANCH  17  18
ENDBRANCH  16  17
ENDBRANCH   8  16
TORSDOF 6
ENDMDL
MODEL       27
REMARK 921   NORMALIZED FREE ENERGY PREDICTED BY IDOCK:   -6.35 KCAL/MOL
REMARK 922        TOTAL FREE ENERGY PREDICTED BY IDOCK:   -9.89 KCAL/MOL
REMARK 923 INTER-LIGAND FREE ENERGY PREDICTED BY IDOCK:   -8.25 KCAL/MOL
REMARK 924 INTRA-LIGAND FREE ENERGY PREDICTED BY IDOCK:   -1.64 KCAL/MOL
REMARK 927      BINDING AFFINITY PREDICTED BY RF-SCORE:    0.00 PKD
ROOT
HETATM    1  O   UNL     1     -11.543   7.665  70.113  1.00  0.00    -0.472 OA 
HETATM    2  C   UNL     1     -10.886   8.899  69.774  1.00  0.00    -0.200 C  
HETATM    3  H   UNL     1     -12.419   7.692  69.746  1.00  0.00     0.000 HD 
HETATM    4  C   UNL     1      -9.466   8.854  70.369  1.00  0.00    -0.227 C  
HETATM    5  C   UNL     1     -10.858   9.012  68.235  1.00  0.00    -0.072 C  
HETATM    6  C   UNL     1      -8.569   7.865  69.623  1.00  0.00    -0.133 C  
HETATM    7  C   UNL     1      -9.872   8.029  67.598  1.00  0.00    -0.167 C  
HETATM    8  N   UNL     1      -8.519   8.094  68.171  1.00  0.00    -0.126 NA 
ENDROOT
BRANCH   2   9
HETATM    9  C   UNL     1     -11.700  10.053  70.376  1.00  0.00    -0.365 A  
HETATM   10  C   UNL     1     -11.578  11.366  69.885  1.00  0.00    -0.402 A  
HETATM   11  C   UNL     1     -12.578   9.838  71.456  1.00  0.00    -0.493 A  
HETATM   12  C   UNL     1     -13.130  12.188  71.538  1.00  0.00    -0.257 A  
HETATM   13  C   UNL     1     -12.284  12.425  70.461  1.00  0.00    -0.382 A  
HETATM   14 CL   UNL     1     -13.982  13.496  72.263  1.00  0.00    -0.652 Cl 
HETATM   15  C   UNL     1     -13.286  10.897  72.035  1.00  0.00    -0.456 A  
ENDBRANCH   2   9
BRANCH   8  16
HETATM   16  C   UNL     1      -7.826   9.336  67.784  1.00  0.00    -0.092 C  
BRANCH  16  17
HETATM   17  C   UNL     1      -7.547   9.462  66.283  1.00  0.00    -0.097 C  
BRANCH  17  18
HETATM   18  C   UNL     1      -8.042  10.787  65.703  1.00  0.00    -0.112 C  
BRANCH  18  19
HETATM   19  C   UNL     1      -9.250  10.585  64.811  1.00  0.00    -0.227 C  
HETATM   20  O   UNL     1      -9.323   9.681  63.982  1.00  0.00    -0.227 OA 
BRANCH  19  21
HETATM   21  C   UNL     1     -10.370  11.555  64.918  1.00  0.00    -0.340 A  
HETATM   22  C   UNL     1     -10.783  11.952  66.199  1.00  0.00    -0.318 A  
HETATM   23  C   UNL     1     -11.846  12.843  66.352  1.00  0.00    -0.478 A  
HETATM   24  C   UNL     1     -12.482  13.345  65.222  1.00  0.00    -0.483 A  
HETATM   25  F   UNL     1     -13.501  14.200  65.368  1.00  0.00    -0.436 F  
HETATM   26  C   UNL     1     -12.077  12.975  63.945  1.00  0.00    -0.541 A  
HETATM   27  C   UNL     1     -11.019  12.076  63.787  1.00  0.00    -0.492 A  
ENDBRANCH  19  21
ENDBRANCH  18  19
ENDBRANCH  17  18
ENDBRANCH  16  17
ENDBRANCH   8  16
TORSDOF 6
ENDMDL
MODEL       28
REMARK 921   NORMALIZED FREE ENERGY PREDICTED BY IDOCK:   -6.33 KCAL/MOL
REMARK 922        TOTAL FREE ENERGY PREDICTED BY IDOCK:   -9.86 KCAL/MOL
REMARK 923 INTER-LIGAND FREE ENERGY PREDICTED BY IDOCK:   -8.84 KCAL/MOL
REMARK 924 INTRA-LIGAND FREE ENERGY PREDICTED BY IDOCK:   -1.02 KCAL/MOL
REMARK 927      BINDING AFFINITY PREDICTED BY RF-SCORE:    0.00 PKD
ROOT
HETATM    1  O   UNL     1     -10.814  15.032  64.292  1.00  0.00    -0.582 OA 
HETATM    2  C   UNL     1     -10.966  14.747  65.694  1.00  0.00    -0.344 C  
HETATM    3  H   UNL     1      -9.945  15.395  64.162  1.00  0.00     0.000 HD 
HETATM    4  C   UNL     1     -12.374  14.158  65.904  1.00  0.00    -0.486 C  
HETATM    5  C   UNL     1      -9.863  13.746  66.095  1.00  0.00    -0.310 C  
HETATM    6  C   UNL     1     -12.488  12.743  65.334  1.00  0.00    -0.416 C  
HETATM    7  C   UNL     1     -10.117  12.345  65.535  1.00  0.00    -0.267 C  
HETATM    8  N   UNL     1     -11.458  11.822  65.835  1.00  0.00    -0.324 NA 
ENDROOT
BRANCH   2   9
HETATM    9  C   UNL     1     -10.797  16.062  66.467  1.00  0.00    -0.167 A  
HETATM   10  C   UNL     1     -10.631  17.288  65.795  1.00  0.00    -0.198 A  
HETATM   11  C   UNL     1     -10.775  16.081  67.876  1.00  0.00    -0.316 A  
HETATM   12  C   UNL     1     -10.398  18.467  67.886  1.00  0.00    -0.401 A  
HETATM   13  C   UNL     1     -10.432  18.480  66.497  1.00  0.00    -0.435 A  
HETATM   14 CL   UNL     1     -10.127  19.930  68.750  1.00  0.00    -0.530 Cl 
HETATM   15  C   UNL     1     -10.575  17.274  68.580  1.00  0.00    -0.329 A  
ENDBRANCH   2   9
BRANCH   8  16
HETATM   16  C   UNL     1     -11.599  11.484  67.263  1.00  0.00    -0.199 C  
BRANCH  16  17
HETATM   17  C   UNL     1     -10.577  10.465  67.775  1.00  0.00    -0.294 C  
BRANCH  17  18
HETATM   18  C   UNL     1      -9.883  10.924  69.057  1.00  0.00    -0.196 C  
BRANCH  18  19
HETATM   19  C   UNL     1      -9.605   9.758  69.984  1.00  0.00    -0.241 C  
HETATM   20  O   UNL     1      -8.467   9.378  70.255  1.00  0.00    -0.174 OA 
BRANCH  19  21
HETATM   21  C   UNL     1     -10.763   9.018  70.548  1.00  0.00    -0.285 A  
HETATM   22  C   UNL     1     -10.886   7.652  70.249  1.00  0.00    -0.253 A  
HETATM   23  C   UNL     1     -11.968   6.919  70.736  1.00  0.00    -0.424 A  
HETATM   24  C   UNL     1     -12.917   7.551  71.532  1.00  0.00    -0.359 A  
HETATM   25  F   UNL     1     -13.955   6.849  72.001  1.00  0.00    -0.397 F  
HETATM   26  C   UNL     1     -12.803   8.899  71.851  1.00  0.00    -0.437 A  
HETATM   27  C   UNL     1     -11.726   9.640  71.358  1.00  0.00    -0.478 A  
ENDBRANCH  19  21
ENDBRANCH  18  19
ENDBRANCH  17  18
ENDBRANCH  16  17
ENDBRANCH   8  16
TORSDOF 6
ENDMDL
MODEL       29
REMARK 921   NORMALIZED FREE ENERGY PREDICTED BY IDOCK:   -6.33 KCAL/MOL
REMARK 922        TOTAL FREE ENERGY PREDICTED BY IDOCK:   -9.86 KCAL/MOL
REMARK 923 INTER-LIGAND FREE ENERGY PREDICTED BY IDOCK:   -7.37 KCAL/MOL
REMARK 924 INTRA-LIGAND FREE ENERGY PREDICTED BY IDOCK:   -2.49 KCAL/MOL
REMARK 927      BINDING AFFINITY PREDICTED BY RF-SCORE:    0.00 PKD
ROOT
HETATM    1  O   UNL     1     -10.666  18.407  65.213  1.00  0.00    -0.594 OA 
HETATM    2  C   UNL     1     -10.038  17.882  66.396  1.00  0.00    -0.369 C  
HETATM    3  H   UNL     1     -11.607  18.320  65.321  1.00  0.00     0.000 HD 
HETATM    4  C   UNL     1      -8.514  18.023  66.221  1.00  0.00    -0.214 C  
HETATM    5  C   UNL     1     -10.552  18.693  67.604  1.00  0.00    -0.458 C  
HETATM    6  C   UNL     1      -8.066  19.483  66.311  1.00  0.00    -0.334 C  
HETATM    7  C   UNL     1      -9.981  20.112  67.637  1.00  0.00    -0.420 C  
HETATM    8  N   UNL     1      -8.515  20.163  67.535  1.00  0.00    -0.338 NA 
ENDROOT
BRANCH   2   9
HETATM    9  C   UNL     1     -10.443  16.408  66.535  1.00  0.00    -0.282 A  
HETATM   10  C   UNL     1     -11.259  15.972  67.596  1.00  0.00    -0.183 A  
HETATM   11  C   UNL     1      -9.990  15.439  65.620  1.00  0.00    -0.396 A  
HETATM   12  C   UNL     1     -11.117  13.686  66.842  1.00  0.00    -0.304 A  
HETATM   13  C   UNL     1     -11.592  14.624  67.750  1.00  0.00    -0.382 A  
HETATM   14 CL   UNL     1     -11.506  12.022  67.045  1.00  0.00    -0.400 Cl 
HETATM   15  C   UNL     1     -10.322  14.088  65.772  1.00  0.00    -0.330 A  
ENDBRANCH   2   9
BRANCH   8  16
HETATM   16  C   UNL     1      -7.870  19.670  68.766  1.00  0.00    -0.297 C  
BRANCH  16  17
HETATM   17  C   UNL     1      -6.388  20.032  68.890  1.00  0.00    -0.346 C  
BRANCH  17  18
HETATM   18  C   UNL     1      -5.469  18.834  68.650  1.00  0.00    -0.197 C  
BRANCH  18  19
HETATM   19  C   UNL     1      -5.744  17.719  69.637  1.00  0.00    -0.234 C  
HETATM   20  O   UNL     1      -5.470  17.804  70.833  1.00  0.00    -0.241 OA 
BRANCH  19  21
HETATM   21  C   UNL     1      -6.326  16.453  69.122  1.00  0.00    -0.177 A  
HETATM   22  C   UNL     1      -5.537  15.655  68.279  1.00  0.00    -0.115 A  
HETATM   23  C   UNL     1      -6.047  14.469  67.751  1.00  0.00    -0.133 A  
HETATM   24  C   UNL     1      -7.340  14.077  68.080  1.00  0.00    -0.141 A  
HETATM   25  F   UNL     1      -7.830  12.939  67.575  1.00  0.00    -0.131 F  
HETATM   26  C   UNL     1      -8.130  14.846  68.926  1.00  0.00    -0.165 A  
HETATM   27  C   UNL     1      -7.628  16.039  69.450  1.00  0.00    -0.191 A  
ENDBRANCH  19  21
ENDBRANCH  18  19
ENDBRANCH  17  18
ENDBRANCH  16  17
ENDBRANCH   8  16
TORSDOF 6
ENDMDL
MODEL       30
REMARK 921   NORMALIZED FREE ENERGY PREDICTED BY IDOCK:   -6.31 KCAL/MOL
REMARK 922        TOTAL FREE ENERGY PREDICTED BY IDOCK:   -9.84 KCAL/MOL
REMARK 923 INTER-LIGAND FREE ENERGY PREDICTED BY IDOCK:   -7.84 KCAL/MOL
REMARK 924 INTRA-LIGAND FREE ENERGY PREDICTED BY IDOCK:   -2.00 KCAL/MOL
REMARK 927      BINDING AFFINITY PREDICTED BY RF-SCORE:    0.00 PKD
ROOT
HETATM    1  O   UNL     1     -10.273  14.332  69.700  1.00  0.00    -0.429 OA 
HETATM    2  C   UNL     1     -10.998  13.396  68.883  1.00  0.00    -0.248 C  
HETATM    3  H   UNL     1      -9.611  13.847  70.179  1.00  0.00     0.000 HD 
HETATM    4  C   UNL     1     -12.071  14.183  68.107  1.00  0.00    -0.297 C  
HETATM    5  C   UNL     1      -9.989  12.717  67.934  1.00  0.00    -0.228 C  
HETATM    6  C   UNL     1     -11.453  15.061  67.016  1.00  0.00    -0.284 C  
HETATM    7  C   UNL     1      -9.494  13.662  66.837  1.00  0.00    -0.262 C  
HETATM    8  N   UNL     1     -10.577  14.324  66.093  1.00  0.00    -0.288 NA 
ENDROOT
BRANCH   2   9
HETATM    9  C   UNL     1     -11.640  12.354  69.810  1.00  0.00    -0.302 A  
HETATM   10  C   UNL     1     -12.501  12.739  70.854  1.00  0.00    -0.373 A  
HETATM   11  C   UNL     1     -11.366  10.981  69.661  1.00  0.00    -0.363 A  
HETATM   12  C   UNL     1     -12.750  10.449  71.567  1.00  0.00    -0.459 A  
HETATM   13  C   UNL     1     -13.051  11.796  71.727  1.00  0.00    -0.480 A  
HETATM   14 CL   UNL     1     -13.407   9.289  72.657  1.00  0.00    -0.441 Cl 
HETATM   15  C   UNL     1     -11.915  10.035  70.534  1.00  0.00    -0.357 A  
ENDBRANCH   2   9
BRANCH   8  16
HETATM   16  C   UNL     1     -11.290  13.375  65.219  1.00  0.00    -0.296 C  
BRANCH  16  17
HETATM   17  C   UNL     1     -10.443  12.814  64.073  1.00  0.00    -0.433 C  
BRANCH  17  18
HETATM   18  C   UNL     1     -10.822  11.378  63.711  1.00  0.00    -0.468 C  
BRANCH  18  19
HETATM   19  C   UNL     1      -9.634  10.445  63.826  1.00  0.00    -0.310 C  
HETATM   20  O   UNL     1      -9.063   9.967  62.848  1.00  0.00    -0.245 OA 
BRANCH  19  21
HETATM   21  C   UNL     1      -9.173  10.059  65.185  1.00  0.00    -0.273 A  
HETATM   22  C   UNL     1     -10.034   9.288  65.982  1.00  0.00    -0.325 A  
HETATM   23  C   UNL     1      -9.656   8.920  67.274  1.00  0.00    -0.212 A  
HETATM   24  C   UNL     1      -8.413   9.311  67.759  1.00  0.00    -0.116 A  
HETATM   25  F   UNL     1      -8.050   8.958  68.997  1.00  0.00    -0.105 F  
HETATM   26  C   UNL     1      -7.542  10.062  66.978  1.00  0.00    -0.092 A  
HETATM   27  C   UNL     1      -7.919  10.442  65.687  1.00  0.00    -0.153 A  
ENDBRANCH  19  21
ENDBRANCH  18  19
ENDBRANCH  17  18
ENDBRANCH  16  17
ENDBRANCH   8  16
TORSDOF 6
ENDMDL
MODEL       31
REMARK 921   NORMALIZED FREE ENERGY PREDICTED BY IDOCK:   -6.30 KCAL/MOL
REMARK 922        TOTAL FREE ENERGY PREDICTED BY IDOCK:   -9.82 KCAL/MOL
REMARK 923 INTER-LIGAND FREE ENERGY PREDICTED BY IDOCK:   -8.41 KCAL/MOL
REMARK 924 INTRA-LIGAND FREE ENERGY PREDICTED BY IDOCK:   -1.41 KCAL/MOL
REMARK 927      BINDING AFFINITY PREDICTED BY RF-SCORE:    0.00 PKD
ROOT
HETATM    1  O   UNL     1      -9.178   9.168  64.992  1.00  0.00    -0.371 OA 
HETATM    2  C   UNL     1      -9.677   9.916  66.114  1.00  0.00    -0.236 C  
HETATM    3  H   UNL     1      -8.541   9.710  64.541  1.00  0.00     0.000 HD 
HETATM    4  C   UNL     1     -10.710   9.036  66.844  1.00  0.00    -0.150 C  
HETATM    5  C   UNL     1      -8.478  10.261  67.022  1.00  0.00    -0.129 C  
HETATM    6  C   UNL     1     -10.045   7.871  67.579  1.00  0.00    -0.213 C  
HETATM    7  C   UNL     1      -7.941   9.037  67.766  1.00  0.00    -0.101 C  
HETATM    8  N   UNL     1      -8.975   8.287  68.496  1.00  0.00    -0.137 NA 
ENDROOT
BRANCH   2   9
HETATM    9  C   UNL     1     -10.325  11.201  65.580  1.00  0.00    -0.326 A  
HETATM   10  C   UNL     1     -10.487  12.333  66.400  1.00  0.00    -0.263 A  
HETATM   11  C   UNL     1     -10.804  11.279  64.257  1.00  0.00    -0.398 A  
HETATM   12  C   UNL     1     -11.595  13.531  64.625  1.00  0.00    -0.368 A  
HETATM   13  C   UNL     1     -11.118  13.487  65.929  1.00  0.00    -0.292 A  
HETATM   14 CL   UNL     1     -12.394  14.943  64.052  1.00  0.00    -0.296 Cl 
HETATM   15  C   UNL     1     -11.436  12.434  63.784  1.00  0.00    -0.544 A  
ENDBRANCH   2   9
BRANCH   8  16
HETATM   16  C   UNL     1      -9.451   9.032  69.675  1.00  0.00    -0.171 C  
BRANCH  16  17
HETATM   17  C   UNL     1     -10.701   8.440  70.334  1.00  0.00    -0.244 C  
BRANCH  17  18
HETATM   18  C   UNL     1     -11.119   9.203  71.591  1.00  0.00    -0.445 C  
BRANCH  18  19
HETATM   19  C   UNL     1     -12.478   9.851  71.419  1.00  0.00    -0.398 C  
HETATM   20  O   UNL     1     -13.528   9.212  71.436  1.00  0.00    -0.350 OA 
BRANCH  19  21
HETATM   21  C   UNL     1     -12.531  11.315  71.174  1.00  0.00    -0.479 A  
HETATM   22  C   UNL     1     -11.894  11.819  70.030  1.00  0.00    -0.422 A  
HETATM   23  C   UNL     1     -11.897  13.189  69.768  1.00  0.00    -0.386 A  
HETATM   24  C   UNL     1     -12.550  14.050  70.644  1.00  0.00    -0.344 A  
HETATM   25  F   UNL     1     -12.553  15.364  70.394  1.00  0.00    -0.365 F  
HETATM   26  C   UNL     1     -13.199  13.567  71.774  1.00  0.00    -0.490 A  
HETATM   27  C   UNL     1     -13.191  12.196  72.046  1.00  0.00    -0.496 A  
ENDBRANCH  19  21
ENDBRANCH  18  19
ENDBRANCH  17  18
ENDBRANCH  16  17
ENDBRANCH   8  16
TORSDOF 6
ENDMDL
MODEL       32
REMARK 921   NORMALIZED FREE ENERGY PREDICTED BY IDOCK:   -6.29 KCAL/MOL
REMARK 922        TOTAL FREE ENERGY PREDICTED BY IDOCK:   -9.81 KCAL/MOL
REMARK 923 INTER-LIGAND FREE ENERGY PREDICTED BY IDOCK:   -7.73 KCAL/MOL
REMARK 924 INTRA-LIGAND FREE ENERGY PREDICTED BY IDOCK:   -2.08 KCAL/MOL
REMARK 927      BINDING AFFINITY PREDICTED BY RF-SCORE:    0.00 PKD
ROOT
HETATM    1  O   UNL     1     -11.287  15.260  67.435  1.00  0.00    -0.333 OA 
HETATM    2  C   UNL     1     -11.495  13.886  67.062  1.00  0.00    -0.346 C  
HETATM    3  H   UNL     1     -10.563  15.287  68.049  1.00  0.00     0.000 HD 
HETATM    4  C   UNL     1     -12.670  13.842  66.066  1.00  0.00    -0.410 C  
HETATM    5  C   UNL     1     -10.189  13.367  66.426  1.00  0.00    -0.293 C  
HETATM    6  C   UNL     1     -12.285  14.430  64.707  1.00  0.00    -0.446 C  
HETATM    7  C   UNL     1      -9.941  13.961  65.038  1.00  0.00    -0.181 C  
HETATM    8  N   UNL     1     -11.083  13.819  64.121  1.00  0.00    -0.266 NA 
ENDROOT
BRANCH   2   9
HETATM    9  C   UNL     1     -11.819  13.091  68.334  1.00  0.00    -0.370 A  
HETATM   10  C   UNL     1     -11.839  11.683  68.330  1.00  0.00    -0.335 A  
HETATM   11  C   UNL     1     -12.134  13.745  69.541  1.00  0.00    -0.386 A  
HETATM   12  C   UNL     1     -12.501  11.630  70.648  1.00  0.00    -0.295 A  
HETATM   13  C   UNL     1     -12.178  10.958  69.475  1.00  0.00    -0.331 A  
HETATM   14 CL   UNL     1     -12.943  10.738  72.052  1.00  0.00    -0.534 Cl 
HETATM   15  C   UNL     1     -12.474  13.020  70.689  1.00  0.00    -0.347 A  
ENDBRANCH   2   9
BRANCH   8  16
HETATM   16  C   UNL     1     -11.266  12.419  63.699  1.00  0.00    -0.474 C  
BRANCH  16  17
HETATM   17  C   UNL     1      -9.961  11.645  63.493  1.00  0.00    -0.429 C  
BRANCH  17  18
HETATM   18  C   UNL     1      -9.966  10.288  64.196  1.00  0.00    -0.246 C  
BRANCH  18  19
HETATM   19  C   UNL     1      -8.897  10.215  65.267  1.00  0.00    -0.178 C  
HETATM   20  O   UNL     1      -7.755  10.637  65.099  1.00  0.00    -0.102 OA 
BRANCH  19  21
HETATM   21  C   UNL     1      -9.239   9.561  66.556  1.00  0.00    -0.201 A  
HETATM   22  C   UNL     1      -8.586  10.003  67.717  1.00  0.00    -0.118 A  
HETATM   23  C   UNL     1      -8.856   9.404  68.948  1.00  0.00    -0.136 A  
HETATM   24  C   UNL     1      -9.790   8.376  69.017  1.00  0.00    -0.183 A  
HETATM   25  F   UNL     1     -10.051   7.803  70.197  1.00  0.00    -0.189 F  
HETATM   26  C   UNL     1     -10.457   7.936  67.880  1.00  0.00    -0.261 A  
HETATM   27  C   UNL     1     -10.184   8.525  66.643  1.00  0.00    -0.345 A  
ENDBRANCH  19  21
ENDBRANCH  18  19
ENDBRANCH  17  18
ENDBRANCH  16  17
ENDBRANCH   8  16
TORSDOF 6
ENDMDL
MODEL       33
REMARK 921   NORMALIZED FREE ENERGY PREDICTED BY IDOCK:   -6.29 KCAL/MOL
REMARK 922        TOTAL FREE ENERGY PREDICTED BY IDOCK:   -9.81 KCAL/MOL
REMARK 923 INTER-LIGAND FREE ENERGY PREDICTED BY IDOCK:   -8.68 KCAL/MOL
REMARK 924 INTRA-LIGAND FREE ENERGY PREDICTED BY IDOCK:   -1.12 KCAL/MOL
REMARK 927      BINDING AFFINITY PREDICTED BY RF-SCORE:    0.00 PKD
ROOT
HETATM    1  O   UNL     1     -12.404  14.231  67.611  1.00  0.00    -0.598 OA 
HETATM    2  C   UNL     1     -11.399  14.012  68.617  1.00  0.00    -0.276 C  
HETATM    3  H   UNL     1     -13.212  14.466  68.053  1.00  0.00     0.000 HD 
HETATM    4  C   UNL     1     -10.091  13.632  67.898  1.00  0.00    -0.244 C  
HETATM    5  C   UNL     1     -11.249  15.317  69.426  1.00  0.00    -0.291 C  
HETATM    6  C   UNL     1      -9.476  14.827  67.168  1.00  0.00    -0.227 C  
HETATM    7  C   UNL     1     -10.554  16.421  68.625  1.00  0.00    -0.305 C  
HETATM    8  N   UNL     1      -9.276  16.003  68.027  1.00  0.00    -0.193 NA 
ENDROOT
BRANCH   2   9
HETATM    9  C   UNL     1     -11.879  12.874  69.529  1.00  0.00    -0.383 A  
HETATM   10  C   UNL     1     -12.497  13.141  70.765  1.00  0.00    -0.389 A  
HETATM   11  C   UNL     1     -11.692  11.525  69.170  1.00  0.00    -0.395 A  
HETATM   12  C   UNL     1     -12.682  10.785  71.245  1.00  0.00    -0.441 A  
HETATM   13  C   UNL     1     -12.894  12.108  71.616  1.00  0.00    -0.390 A  
HETATM   14 CL   UNL     1     -13.148   9.512  72.305  1.00  0.00    -0.502 Cl 
HETATM   15  C   UNL     1     -12.089  10.488  70.022  1.00  0.00    -0.351 A  
ENDBRANCH   2   9
BRANCH   8  16
HETATM   16  C   UNL     1      -8.232  15.826  69.053  1.00  0.00    -0.234 C  
BRANCH  16  17
HETATM   17  C   UNL     1      -6.887  16.468  68.702  1.00  0.00    -0.160 C  
BRANCH  17  18
HETATM   18  C   UNL     1      -6.494  17.577  69.678  1.00  0.00    -0.147 C  
BRANCH  18  19
HETATM   19  C   UNL     1      -6.558  18.941  69.022  1.00  0.00    -0.281 C  
HETATM   20  O   UNL     1      -5.680  19.790  69.160  1.00  0.00    -0.213 OA 
BRANCH  19  21
HETATM   21  C   UNL     1      -7.761  19.276  68.216  1.00  0.00    -0.351 A  
HETATM   22  C   UNL     1      -8.948  19.591  68.897  1.00  0.00    -0.316 A  
HETATM   23  C   UNL     1     -10.109  19.889  68.185  1.00  0.00    -0.569 A  
HETATM   24  C   UNL     1     -10.077  19.888  66.795  1.00  0.00    -0.459 A  
HETATM   25  F   UNL     1     -11.191  20.175  66.111  1.00  0.00    -0.334 F  
HETATM   26  C   UNL     1      -8.908  19.593  66.105  1.00  0.00    -0.367 A  
HETATM   27  C   UNL     1      -7.743  19.284  66.812  1.00  0.00    -0.267 A  
ENDBRANCH  19  21
ENDBRANCH  18  19
ENDBRANCH  17  18
ENDBRANCH  16  17
ENDBRANCH   8  16
TORSDOF 6
ENDMDL
MODEL       34
REMARK 921   NORMALIZED FREE ENERGY PREDICTED BY IDOCK:   -6.26 KCAL/MOL
REMARK 922        TOTAL FREE ENERGY PREDICTED BY IDOCK:   -9.77 KCAL/MOL
REMARK 923 INTER-LIGAND FREE ENERGY PREDICTED BY IDOCK:   -9.16 KCAL/MOL
REMARK 924 INTRA-LIGAND FREE ENERGY PREDICTED BY IDOCK:   -0.61 KCAL/MOL
REMARK 927      BINDING AFFINITY PREDICTED BY RF-SCORE:    0.00 PKD
ROOT
HETATM    1  O   UNL     1      -9.076  10.729  69.432  1.00  0.00    -0.374 OA 
HETATM    2  C   UNL     1     -10.427  11.038  69.046  1.00  0.00    -0.216 C  
HETATM    3  H   UNL     1      -8.987   9.783  69.446  1.00  0.00     0.000 HD 
HETATM    4  C   UNL     1     -10.570  12.572  69.024  1.00  0.00    -0.083 C  
HETATM    5  C   UNL     1     -10.673  10.422  67.653  1.00  0.00    -0.335 C  
HETATM    6  C   UNL     1      -9.812  13.196  67.851  1.00  0.00    -0.231 C  
HETATM    7  C   UNL     1      -9.927  11.170  66.546  1.00  0.00    -0.214 C  
HETATM    8  N   UNL     1     -10.169  12.621  66.547  1.00  0.00    -0.239 NA 
ENDROOT
BRANCH   2   9
HETATM    9  C   UNL     1     -11.373  10.410  70.079  1.00  0.00    -0.384 A  
HETATM   10  C   UNL     1     -11.352   9.027  70.341  1.00  0.00    -0.242 A  
HETATM   11  C   UNL     1     -12.311  11.194  70.779  1.00  0.00    -0.504 A  
HETATM   12  C   UNL     1     -13.169   9.241  71.913  1.00  0.00    -0.423 A  
HETATM   13  C   UNL     1     -12.243   8.447  71.248  1.00  0.00    -0.305 A  
HETATM   14 CL   UNL     1     -14.283   8.523  73.011  1.00  0.00     0.085 Cl 
HETATM   15  C   UNL     1     -13.204  10.614  71.687  1.00  0.00    -0.495 A  
ENDBRANCH   2   9
BRANCH   8  16
HETATM   16  C   UNL     1     -11.538  12.941  66.103  1.00  0.00    -0.372 C  
BRANCH  16  17
HETATM   17  C   UNL     1     -11.651  14.232  65.287  1.00  0.00    -0.348 C  
BRANCH  17  18
HETATM   18  C   UNL     1     -10.455  15.161  65.489  1.00  0.00    -0.400 C  
BRANCH  18  19
HETATM   19  C   UNL     1     -10.834  16.610  65.259  1.00  0.00    -0.183 C  
HETATM   20  O   UNL     1     -11.308  17.015  64.199  1.00  0.00    -1.164 OA 
BRANCH  19  21
HETATM   21  C   UNL     1     -10.574  17.585  66.349  1.00  0.00    -0.195 A  
HETATM   22  C   UNL     1     -10.333  17.087  67.639  1.00  0.00    -0.332 A  
HETATM   23  C   UNL     1     -10.106  17.964  68.701  1.00  0.00    -0.394 A  
HETATM   24  C   UNL     1     -10.107  19.334  68.467  1.00  0.00    -0.430 A  
HETATM   25  F   UNL     1      -9.890  20.175  69.484  1.00  0.00    -0.307 F  
HETATM   26  C   UNL     1     -10.330  19.844  67.193  1.00  0.00    -0.581 A  
HETATM   27  C   UNL     1     -10.566  18.972  66.128  1.00  0.00    -0.495 A  
ENDBRANCH  19  21
ENDBRANCH  18  19
ENDBRANCH  17  18
ENDBRANCH  16  17
ENDBRANCH   8  16
TORSDOF 6
ENDMDL
MODEL       35
REMARK 921   NORMALIZED FREE ENERGY PREDICTED BY IDOCK:   -6.26 KCAL/MOL
REMARK 922        TOTAL FREE ENERGY PREDICTED BY IDOCK:   -9.76 KCAL/MOL
REMARK 923 INTER-LIGAND FREE ENERGY PREDICTED BY IDOCK:   -8.07 KCAL/MOL
REMARK 924 INTRA-LIGAND FREE ENERGY PREDICTED BY IDOCK:   -1.69 KCAL/MOL
REMARK 927      BINDING AFFINITY PREDICTED BY RF-SCORE:    0.00 PKD
ROOT
HETATM    1  O   UNL     1      -9.287   7.990  68.862  1.00  0.00    -0.150 OA 
HETATM    2  C   UNL     1      -9.656   9.228  68.227  1.00  0.00    -0.147 C  
HETATM    3  H   UNL     1     -10.082   7.492  69.010  1.00  0.00     0.000 HD 
HETATM    4  C   UNL     1      -8.366  10.035  67.987  1.00  0.00    -0.117 C  
HETATM    5  C   UNL     1     -10.370   8.885  66.903  1.00  0.00    -0.332 C  
HETATM    6  C   UNL     1      -7.508   9.417  66.881  1.00  0.00    -0.091 C  
HETATM    7  C   UNL     1      -9.406   8.347  65.844  1.00  0.00    -0.136 C  
HETATM    8  N   UNL     1      -8.234   9.207  65.620  1.00  0.00    -0.116 NA 
ENDROOT
BRANCH   2   9
HETATM    9  C   UNL     1     -10.610   9.978  69.167  1.00  0.00    -0.240 A  
HETATM   10  C   UNL     1     -11.080  11.267  68.852  1.00  0.00    -0.295 A  
HETATM   11  C   UNL     1     -11.025   9.412  70.387  1.00  0.00    -0.317 A  
HETATM   12  C   UNL     1     -12.292  11.394  70.933  1.00  0.00    -0.381 A  
HETATM   13  C   UNL     1     -11.912  11.970  69.727  1.00  0.00    -0.370 A  
HETATM   14 CL   UNL     1     -13.297  12.269  72.022  1.00  0.00    -0.578 Cl 
HETATM   15  C   UNL     1     -11.858  10.114  71.265  1.00  0.00    -0.448 A  
ENDBRANCH   2   9
BRANCH   8  16
HETATM   16  C   UNL     1      -8.603  10.454  64.925  1.00  0.00    -0.182 C  
BRANCH  16  17
HETATM   17  C   UNL     1      -9.724  10.294  63.894  1.00  0.00    -0.325 C  
BRANCH  17  18
HETATM   18  C   UNL     1     -10.088  11.614  63.214  1.00  0.00    -0.454 C  
BRANCH  18  19
HETATM   19  C   UNL     1     -11.368  12.193  63.781  1.00  0.00    -0.451 C  
HETATM   20  O   UNL     1     -12.471  11.999  63.274  1.00  0.00    -0.566 OA 
BRANCH  19  21
HETATM   21  C   UNL     1     -11.272  13.073  64.974  1.00  0.00    -0.324 A  
HETATM   22  C   UNL     1     -12.445  13.340  65.698  1.00  0.00    -0.510 A  
HETATM   23  C   UNL     1     -12.410  14.178  66.812  1.00  0.00    -0.333 A  
HETATM   24  C   UNL     1     -11.199  14.735  67.209  1.00  0.00    -0.346 A  
HETATM   25  F   UNL     1     -11.165  15.538  68.279  1.00  0.00    -0.280 F  
HETATM   26  C   UNL     1     -10.025  14.469  66.515  1.00  0.00    -0.290 A  
HETATM   27  C   UNL     1     -10.056  13.638  65.392  1.00  0.00    -0.291 A  
ENDBRANCH  19  21
ENDBRANCH  18  19
ENDBRANCH  17  18
ENDBRANCH  16  17
ENDBRANCH   8  16
TORSDOF 6
ENDMDL
MODEL       36
REMARK 921   NORMALIZED FREE ENERGY PREDICTED BY IDOCK:   -6.23 KCAL/MOL
REMARK 922        TOTAL FREE ENERGY PREDICTED BY IDOCK:   -9.72 KCAL/MOL
REMARK 923 INTER-LIGAND FREE ENERGY PREDICTED BY IDOCK:   -8.28 KCAL/MOL
REMARK 924 INTRA-LIGAND FREE ENERGY PREDICTED BY IDOCK:   -1.44 KCAL/MOL
REMARK 927      BINDING AFFINITY PREDICTED BY RF-SCORE:    0.00 PKD
ROOT
HETATM    1  O   UNL     1      -8.632  10.066  68.229  1.00  0.00    -0.113 OA 
HETATM    2  C   UNL     1      -9.900  10.742  68.141  1.00  0.00    -0.158 C  
HETATM    3  H   UNL     1      -8.793   9.134  68.135  1.00  0.00     0.000 HD 
HETATM    4  C   UNL     1      -9.639  12.252  68.293  1.00  0.00    -0.212 C  
HETATM    5  C   UNL     1     -10.521  10.404  66.769  1.00  0.00    -0.287 C  
HETATM    6  C   UNL     1      -8.944  12.835  67.061  1.00  0.00    -0.221 C  
HETATM    7  C   UNL     1      -9.795  11.100  65.615  1.00  0.00    -0.235 C  
HETATM    8  N   UNL     1      -9.645  12.551  65.800  1.00  0.00    -0.184 NA 
ENDROOT
BRANCH   2   9
HETATM    9  C   UNL     1     -10.796  10.220  69.272  1.00  0.00    -0.275 A  
HETATM   10  C   UNL     1     -11.891  10.970  69.741  1.00  0.00    -0.421 A  
HETATM   11  C   UNL     1     -10.536   8.984  69.896  1.00  0.00    -0.240 A  
HETATM   12  C   UNL     1     -12.391   9.302  71.410  1.00  0.00    -0.343 A  
HETATM   13  C   UNL     1     -12.681  10.518  70.801  1.00  0.00    -0.471 A  
HETATM   14 CL   UNL     1     -13.349   8.756  72.731  1.00  0.00    -0.335 Cl 
HETATM   15  C   UNL     1     -11.326   8.529  70.958  1.00  0.00    -0.313 A  
ENDBRANCH   2   9
BRANCH   8  16
HETATM   16  C   UNL     1     -10.936  13.250  65.661  1.00  0.00    -0.277 C  
BRANCH  16  17
HETATM   17  C   UNL     1     -10.964  14.652  66.276  1.00  0.00    -0.327 C  
BRANCH  17  18
HETATM   18  C   UNL     1     -11.892  14.744  67.487  1.00  0.00    -0.326 C  
BRANCH  18  19
HETATM   19  C   UNL     1     -11.309  15.634  68.566  1.00  0.00    -0.360 C  
HETATM   20  O   UNL     1     -10.427  16.461  68.344  1.00  0.00    -0.268 OA 
BRANCH  19  21
HETATM   21  C   UNL     1     -11.796  15.460  69.958  1.00  0.00    -0.368 A  
HETATM   22  C   UNL     1     -12.714  14.430  70.215  1.00  0.00    -0.318 A  
HETATM   23  C   UNL     1     -13.219  14.241  71.502  1.00  0.00    -0.420 A  
HETATM   24  C   UNL     1     -12.792  15.073  72.531  1.00  0.00    -0.357 A  
HETATM   25  F   UNL     1     -13.275  14.892  73.766  1.00  0.00    -0.510 F  
HETATM   26  C   UNL     1     -11.872  16.089  72.298  1.00  0.00    -0.628 A  
HETATM   27  C   UNL     1     -11.371  16.288  71.010  1.00  0.00    -0.315 A  
ENDBRANCH  19  21
ENDBRANCH  18  19
ENDBRANCH  17  18
ENDBRANCH  16  17
ENDBRANCH   8  16
TORSDOF 6
ENDMDL
MODEL       37
REMARK 921   NORMALIZED FREE ENERGY PREDICTED BY IDOCK:   -6.23 KCAL/MOL
REMARK 922        TOTAL FREE ENERGY PREDICTED BY IDOCK:   -9.72 KCAL/MOL
REMARK 923 INTER-LIGAND FREE ENERGY PREDICTED BY IDOCK:   -8.11 KCAL/MOL
REMARK 924 INTRA-LIGAND FREE ENERGY PREDICTED BY IDOCK:   -1.61 KCAL/MOL
REMARK 927      BINDING AFFINITY PREDICTED BY RF-SCORE:    0.00 PKD
ROOT
HETATM    1  O   UNL     1      -9.664   9.108  67.712  1.00  0.00    -0.146 OA 
HETATM    2  C   UNL     1      -9.974  10.278  68.490  1.00  0.00    -0.164 C  
HETATM    3  H   UNL     1     -10.475   8.789  67.333  1.00  0.00     0.000 HD 
HETATM    4  C   UNL     1      -8.659  10.795  69.104  1.00  0.00    -0.097 C  
HETATM    5  C   UNL     1     -10.611  11.318  67.545  1.00  0.00    -0.257 C  
HETATM    6  C   UNL     1      -7.744  11.416  68.046  1.00  0.00    -0.114 C  
HETATM    7  C   UNL     1      -9.592  11.930  66.581  1.00  0.00    -0.209 C  
HETATM    8  N   UNL     1      -8.395  12.465  67.248  1.00  0.00    -0.177 NA 
ENDROOT
BRANCH   2   9
HETATM    9  C   UNL     1     -10.972   9.872  69.583  1.00  0.00    -0.285 A  
HETATM   10  C   UNL     1     -10.916   8.602  70.187  1.00  0.00    -0.234 A  
HETATM   11  C   UNL     1     -11.993  10.749  69.999  1.00  0.00    -0.427 A  
HETATM   12  C   UNL     1     -12.858   9.093  71.529  1.00  0.00    -0.347 A  
HETATM   13  C   UNL     1     -11.851   8.214  71.150  1.00  0.00    -0.303 A  
HETATM   14 CL   UNL     1     -14.025   8.607  72.697  1.00  0.00    -0.358 Cl 
HETATM   15  C   UNL     1     -12.930  10.362  70.963  1.00  0.00    -0.490 A  
ENDBRANCH   2   9
BRANCH   8  16
HETATM   16  C   UNL     1      -8.701  13.693  68.005  1.00  0.00    -0.176 C  
BRANCH  16  17
HETATM   17  C   UNL     1      -9.415  14.776  67.190  1.00  0.00    -0.233 C  
BRANCH  17  18
HETATM   18  C   UNL     1     -10.297  15.675  68.056  1.00  0.00    -0.246 C  
BRANCH  18  19
HETATM   19  C   UNL     1     -11.532  14.942  68.539  1.00  0.00    -0.315 C  
HETATM   20  O   UNL     1     -12.259  14.295  67.788  1.00  0.00    -0.325 OA 
BRANCH  19  21
HETATM   21  C   UNL     1     -11.898  15.053  69.974  1.00  0.00    -0.360 A  
HETATM   22  C   UNL     1     -12.771  14.094  70.512  1.00  0.00    -0.374 A  
HETATM   23  C   UNL     1     -13.163  14.170  71.848  1.00  0.00    -0.468 A  
HETATM   24  C   UNL     1     -12.670  15.195  72.647  1.00  0.00    -0.380 A  
HETATM   25  F   UNL     1     -13.045  15.268  73.929  1.00  0.00    -0.574 F  
HETATM   26  C   UNL     1     -11.793  16.145  72.135  1.00  0.00    -0.626 A  
HETATM   27  C   UNL     1     -11.404  16.080  70.795  1.00  0.00    -0.427 A  
ENDBRANCH  19  21
ENDBRANCH  18  19
ENDBRANCH  17  18
ENDBRANCH  16  17
ENDBRANCH   8  16
TORSDOF 6
ENDMDL
MODEL       38
REMARK 921   NORMALIZED FREE ENERGY PREDICTED BY IDOCK:   -6.18 KCAL/MOL
REMARK 922        TOTAL FREE ENERGY PREDICTED BY IDOCK:   -9.66 KCAL/MOL
REMARK 923 INTER-LIGAND FREE ENERGY PREDICTED BY IDOCK:   -8.95 KCAL/MOL
REMARK 924 INTRA-LIGAND FREE ENERGY PREDICTED BY IDOCK:   -0.71 KCAL/MOL
REMARK 927      BINDING AFFINITY PREDICTED BY RF-SCORE:    0.00 PKD
ROOT
HETATM    1  O   UNL     1     -12.839  10.494  69.099  1.00  0.00    -0.535 OA 
HETATM    2  C   UNL     1     -11.435  10.811  69.130  1.00  0.00    -0.298 C  
HETATM    3  H   UNL     1     -13.208  10.729  69.943  1.00  0.00     0.000 HD 
HETATM    4  C   UNL     1     -10.837  10.430  67.763  1.00  0.00    -0.351 C  
HETATM    5  C   UNL     1     -11.299  12.322  69.413  1.00  0.00    -0.294 C  
HETATM    6  C   UNL     1     -11.298  11.382  66.657  1.00  0.00    -0.157 C  
HETATM    7  C   UNL     1     -11.714  13.177  68.214  1.00  0.00    -0.349 C  
HETATM    8  N   UNL     1     -11.049  12.799  66.958  1.00  0.00    -0.267 NA 
ENDROOT
BRANCH   2   9
HETATM    9  C   UNL     1     -10.789   9.999  70.261  1.00  0.00    -0.370 A  
HETATM   10  C   UNL     1      -9.396   9.806  70.318  1.00  0.00    -0.236 A  
HETATM   11  C   UNL     1     -11.573   9.397  71.265  1.00  0.00    -0.434 A  
HETATM   12  C   UNL     1      -9.610   8.434  72.289  1.00  0.00    -0.304 A  
HETATM   13  C   UNL     1      -8.810   9.030  71.321  1.00  0.00    -0.259 A  
HETATM   14 CL   UNL     1      -8.891   7.457  73.510  1.00  0.00    -0.208 Cl 
HETATM   15  C   UNL     1     -10.989   8.619  72.270  1.00  0.00    -0.392 A  
ENDBRANCH   2   9
BRANCH   8  16
HETATM   16  C   UNL     1      -9.622  13.168  66.970  1.00  0.00    -0.241 C  
BRANCH  16  17
HETATM   17  C   UNL     1      -9.347  14.637  66.635  1.00  0.00    -0.293 C  
BRANCH  17  18
HETATM   18  C   UNL     1     -10.047  15.087  65.354  1.00  0.00    -0.396 C  
BRANCH  18  19
HETATM   19  C   UNL     1     -10.427  16.553  65.416  1.00  0.00    -0.269 C  
HETATM   20  O   UNL     1     -11.200  17.077  64.616  1.00  0.00    -0.968 OA 
BRANCH  19  21
HETATM   21  C   UNL     1      -9.796  17.397  66.462  1.00  0.00    -0.310 A  
HETATM   22  C   UNL     1      -8.477  17.834  66.256  1.00  0.00    -0.225 A  
HETATM   23  C   UNL     1      -7.834  18.609  67.221  1.00  0.00    -0.240 A  
HETATM   24  C   UNL     1      -8.515  18.959  68.381  1.00  0.00    -0.350 A  
HETATM   25  F   UNL     1      -7.898  19.704  69.306  1.00  0.00    -0.392 F  
HETATM   26  C   UNL     1      -9.825  18.549  68.595  1.00  0.00    -0.419 A  
HETATM   27  C   UNL     1     -10.472  17.764  67.637  1.00  0.00    -0.393 A  
ENDBRANCH  19  21
ENDBRANCH  18  19
ENDBRANCH  17  18
ENDBRANCH  16  17
ENDBRANCH   8  16
TORSDOF 6
ENDMDL
MODEL       39
REMARK 921   NORMALIZED FREE ENERGY PREDICTED BY IDOCK:   -6.17 KCAL/MOL
REMARK 922        TOTAL FREE ENERGY PREDICTED BY IDOCK:   -9.65 KCAL/MOL
REMARK 923 INTER-LIGAND FREE ENERGY PREDICTED BY IDOCK:   -8.40 KCAL/MOL
REMARK 924 INTRA-LIGAND FREE ENERGY PREDICTED BY IDOCK:   -1.24 KCAL/MOL
REMARK 927      BINDING AFFINITY PREDICTED BY RF-SCORE:    0.00 PKD
ROOT
HETATM    1  O   UNL     1     -10.236  13.082  69.204  1.00  0.00    -0.428 OA 
HETATM    2  C   UNL     1      -9.741  13.816  68.069  1.00  0.00    -0.232 C  
HETATM    3  H   UNL     1     -10.100  12.157  69.033  1.00  0.00     0.000 HD 
HETATM    4  C   UNL     1      -9.962  15.315  68.347  1.00  0.00    -0.220 C  
HETATM    5  C   UNL     1      -8.244  13.480  67.905  1.00  0.00    -0.168 C  
HETATM    6  C   UNL     1      -9.016  15.837  69.431  1.00  0.00    -0.247 C  
HETATM    7  C   UNL     1      -7.382  14.114  68.999  1.00  0.00    -0.102 C  
HETATM    8  N   UNL     1      -7.598  15.560  69.158  1.00  0.00    -0.186 NA 
ENDROOT
BRANCH   2   9
HETATM    9  C   UNL     1     -10.526  13.363  66.831  1.00  0.00    -0.273 A  
HETATM   10  C   UNL     1     -11.872  13.731  66.645  1.00  0.00    -0.445 A  
HETATM   11  C   UNL     1      -9.932  12.541  65.853  1.00  0.00    -0.269 A  
HETATM   12  C   UNL     1     -11.995  12.458  64.600  1.00  0.00    -0.394 A  
HETATM   13  C   UNL     1     -12.602  13.282  65.541  1.00  0.00    -0.505 A  
HETATM   14 CL   UNL     1     -12.901  11.885  63.253  1.00  0.00    -0.542 Cl 
HETATM   15  C   UNL     1     -10.661  12.090  64.747  1.00  0.00    -0.352 A  
ENDBRANCH   2   9
BRANCH   8  16
HETATM   16  C   UNL     1      -7.048  16.317  68.019  1.00  0.00    -0.133 C  
BRANCH  16  17
HETATM   17  C   UNL     1      -5.873  17.232  68.378  1.00  0.00    -0.145 C  
BRANCH  17  18
HETATM   18  C   UNL     1      -6.213  18.210  69.503  1.00  0.00    -0.235 C  
BRANCH  18  19
HETATM   19  C   UNL     1      -6.666  19.548  68.955  1.00  0.00    -0.328 C  
HETATM   20  O   UNL     1      -6.073  20.600  69.189  1.00  0.00    -0.341 OA 
BRANCH  19  21
HETATM   21  C   UNL     1      -7.907  19.589  68.140  1.00  0.00    -0.347 A  
HETATM   22  C   UNL     1      -7.789  19.855  66.767  1.00  0.00    -0.330 A  
HETATM   23  C   UNL     1      -8.928  19.927  65.964  1.00  0.00    -0.301 A  
HETATM   24  C   UNL     1     -10.179  19.717  66.533  1.00  0.00    -0.492 A  
HETATM   25  F   UNL     1     -11.271  19.785  65.764  1.00  0.00    -0.414 F  
HETATM   26  C   UNL     1     -10.313  19.437  67.888  1.00  0.00    -0.542 A  
HETATM   27  C   UNL     1      -9.177  19.374  68.699  1.00  0.00    -0.432 A  
ENDBRANCH  19  21
ENDBRANCH  18  19
ENDBRANCH  17  18
ENDBRANCH  16  17
ENDBRANCH   8  16
TORSDOF 6
ENDMDL
MODEL       40
REMARK 921   NORMALIZED FREE ENERGY PREDICTED BY IDOCK:   -6.17 KCAL/MOL
REMARK 922        TOTAL FREE ENERGY PREDICTED BY IDOCK:   -9.64 KCAL/MOL
REMARK 923 INTER-LIGAND FREE ENERGY PREDICTED BY IDOCK:   -8.14 KCAL/MOL
REMARK 924 INTRA-LIGAND FREE ENERGY PREDICTED BY IDOCK:   -1.50 KCAL/MOL
REMARK 927      BINDING AFFINITY PREDICTED BY RF-SCORE:    0.00 PKD
ROOT
HETATM    1  O   UNL     1     -10.427   8.670  66.611  1.00  0.00    -0.277 OA 
HETATM    2  C   UNL     1     -10.229   9.702  67.594  1.00  0.00    -0.216 C  
HETATM    3  H   UNL     1     -11.305   8.326  66.726  1.00  0.00     0.000 HD 
HETATM    4  C   UNL     1      -8.805  10.260  67.408  1.00  0.00    -0.134 C  
HETATM    5  C   UNL     1     -11.302  10.786  67.364  1.00  0.00    -0.239 C  
HETATM    6  C   UNL     1      -8.683  11.089  66.128  1.00  0.00    -0.184 C  
HETATM    7  C   UNL     1     -11.040  11.604  66.097  1.00  0.00    -0.280 C  
HETATM    8  N   UNL     1      -9.681  12.163  66.024  1.00  0.00    -0.243 NA 
ENDROOT
BRANCH   2   9
HETATM    9  C   UNL     1     -10.398   9.074  68.984  1.00  0.00    -0.233 A  
HETATM   10  C   UNL     1     -10.592   7.689  69.141  1.00  0.00    -0.195 A  
HETATM   11  C   UNL     1     -10.392   9.868  70.148  1.00  0.00    -0.336 A  
HETATM   12  C   UNL     1     -10.798   7.930  71.531  1.00  0.00    -0.229 A  
HETATM   13  C   UNL     1     -10.792   7.121  70.401  1.00  0.00    -0.269 A  
HETATM   14 CL   UNL     1     -11.068   7.235  73.082  1.00  0.00    -0.359 Cl 
HETATM   15  C   UNL     1     -10.592   9.301  71.412  1.00  0.00    -0.417 A  
ENDBRANCH   2   9
BRANCH   8  16
HETATM   16  C   UNL     1      -9.492  13.254  66.997  1.00  0.00    -0.243 C  
BRANCH  16  17
HETATM   17  C   UNL     1     -10.038  14.610  66.540  1.00  0.00    -0.286 C  
BRANCH  17  18
HETATM   18  C   UNL     1     -11.426  14.905  67.107  1.00  0.00    -0.344 C  
BRANCH  18  19
HETATM   19  C   UNL     1     -11.341  15.517  68.490  1.00  0.00    -0.351 C  
HETATM   20  O   UNL     1     -10.726  16.555  68.724  1.00  0.00    -0.296 OA 
BRANCH  19  21
HETATM   21  C   UNL     1     -11.993  14.800  69.616  1.00  0.00    -0.360 A  
HETATM   22  C   UNL     1     -12.746  15.550  70.533  1.00  0.00    -0.436 A  
HETATM   23  C   UNL     1     -13.359  14.925  71.619  1.00  0.00    -0.461 A  
HETATM   24  C   UNL     1     -13.228  13.550  71.778  1.00  0.00    -0.404 A  
HETATM   25  F   UNL     1     -13.816  12.949  72.819  1.00  0.00    -0.582 F  
HETATM   26  C   UNL     1     -12.499  12.789  70.872  1.00  0.00    -0.373 A  
HETATM   27  C   UNL     1     -11.876  13.410  69.787  1.00  0.00    -0.393 A  
ENDBRANCH  19  21
ENDBRANCH  18  19
ENDBRANCH  17  18
ENDBRANCH  16  17
ENDBRANCH   8  16
TORSDOF 6
ENDMDL
MODEL       41
REMARK 921   NORMALIZED FREE ENERGY PREDICTED BY IDOCK:   -6.17 KCAL/MOL
REMARK 922        TOTAL FREE ENERGY PREDICTED BY IDOCK:   -9.64 KCAL/MOL
REMARK 923 INTER-LIGAND FREE ENERGY PREDICTED BY IDOCK:   -8.30 KCAL/MOL
REMARK 924 INTRA-LIGAND FREE ENERGY PREDICTED BY IDOCK:   -1.34 KCAL/MOL
REMARK 927      BINDING AFFINITY PREDICTED BY RF-SCORE:    0.00 PKD
ROOT
HETATM    1  O   UNL     1     -12.491  10.905  68.905  1.00  0.00    -0.745 OA 
HETATM    2  C   UNL     1     -11.679  12.093  68.870  1.00  0.00    -0.327 C  
HETATM    3  H   UNL     1     -13.392  11.165  68.749  1.00  0.00     0.000 HD 
HETATM    4  C   UNL     1     -10.219  11.671  69.122  1.00  0.00     0.007 C  
HETATM    5  C   UNL     1     -11.854  12.744  67.482  1.00  0.00    -0.402 C  
HETATM    6  C   UNL     1      -9.632  10.915  67.928  1.00  0.00    -0.166 C  
HETATM    7  C   UNL     1     -11.164  11.945  66.374  1.00  0.00    -0.331 C  
HETATM    8  N   UNL     1      -9.753  11.640  66.655  1.00  0.00    -0.198 NA 
ENDROOT
BRANCH   2   9
HETATM    9  C   UNL     1     -12.177  13.042  69.968  1.00  0.00    -0.306 A  
HETATM   10  C   UNL     1     -12.152  14.438  69.792  1.00  0.00    -0.386 A  
HETATM   11  C   UNL     1     -12.650  12.547  71.199  1.00  0.00    -0.349 A  
HETATM   12  C   UNL     1     -13.009  14.790  72.019  1.00  0.00    -0.330 A  
HETATM   13  C   UNL     1     -12.562  15.306  70.808  1.00  0.00    -0.474 A  
HETATM   14 CL   UNL     1     -13.492  15.858  73.279  1.00  0.00    -0.652 Cl 
HETATM   15  C   UNL     1     -13.062  13.414  72.217  1.00  0.00    -0.484 A  
ENDBRANCH   2   9
BRANCH   8  16
HETATM   16  C   UNL     1      -8.912  12.848  66.571  1.00  0.00    -0.078 C  
BRANCH  16  17
HETATM   17  C   UNL     1      -7.702  12.842  67.510  1.00  0.00    -0.174 C  
BRANCH  17  18
HETATM   18  C   UNL     1      -7.707  14.024  68.480  1.00  0.00    -0.139 C  
BRANCH  18  19
HETATM   19  C   UNL     1      -7.314  15.312  67.785  1.00  0.00    -0.163 C  
HETATM   20  O   UNL     1      -6.295  15.419  67.105  1.00  0.00    -0.305 OA 
BRANCH  19  21
HETATM   21  C   UNL     1      -8.178  16.505  67.977  1.00  0.00    -0.172 A  
HETATM   22  C   UNL     1      -9.557  16.367  67.755  1.00  0.00    -0.231 A  
HETATM   23  C   UNL     1     -10.406  17.465  67.901  1.00  0.00    -0.369 A  
HETATM   24  C   UNL     1      -9.876  18.692  68.283  1.00  0.00    -0.371 A  
HETATM   25  F   UNL     1     -10.691  19.744  68.423  1.00  0.00    -0.506 F  
HETATM   26  C   UNL     1      -8.516  18.843  68.521  1.00  0.00    -0.384 A  
HETATM   27  C   UNL     1      -7.659  17.750  68.368  1.00  0.00    -0.269 A  
ENDBRANCH  19  21
ENDBRANCH  18  19
ENDBRANCH  17  18
ENDBRANCH  16  17
ENDBRANCH   8  16
TORSDOF 6
ENDMDL
MODEL       42
REMARK 921   NORMALIZED FREE ENERGY PREDICTED BY IDOCK:   -6.16 KCAL/MOL
REMARK 922        TOTAL FREE ENERGY PREDICTED BY IDOCK:   -9.63 KCAL/MOL
REMARK 923 INTER-LIGAND FREE ENERGY PREDICTED BY IDOCK:   -7.81 KCAL/MOL
REMARK 924 INTRA-LIGAND FREE ENERGY PREDICTED BY IDOCK:   -1.83 KCAL/MOL
REMARK 927      BINDING AFFINITY PREDICTED BY RF-SCORE:    0.00 PKD
ROOT
HETATM    1  O   UNL     1     -11.939  11.941  66.848  1.00  0.00    -0.614 OA 
HETATM    2  C   UNL     1     -11.171  11.595  68.015  1.00  0.00    -0.263 C  
HETATM    3  H   UNL     1     -11.875  12.882  66.728  1.00  0.00     0.000 HD 
HETATM    4  C   UNL     1     -11.275  10.070  68.210  1.00  0.00    -0.195 C  
HETATM    5  C   UNL     1      -9.714  12.042  67.770  1.00  0.00    -0.192 C  
HETATM    6  C   UNL     1     -10.490   9.306  67.141  1.00  0.00    -0.249 C  
HETATM    7  C   UNL     1      -9.001  11.163  66.740  1.00  0.00    -0.165 C  
HETATM    8  N   UNL     1      -9.085   9.723  67.032  1.00  0.00    -0.137 NA 
ENDROOT
BRANCH   2   9
HETATM    9  C   UNL     1     -11.763  12.347  69.215  1.00  0.00    -0.386 A  
HETATM   10  C   UNL     1     -12.218  11.659  70.355  1.00  0.00    -0.434 A  
HETATM   11  C   UNL     1     -11.894  13.749  69.202  1.00  0.00    -0.398 A  
HETATM   12  C   UNL     1     -12.931  13.720  71.383  1.00  0.00    -0.355 A  
HETATM   13  C   UNL     1     -12.798  12.337  71.429  1.00  0.00    -0.373 A  
HETATM   14 CL   UNL     1     -13.669  14.554  72.696  1.00  0.00    -0.559 Cl 
HETATM   15  C   UNL     1     -12.476  14.431  70.277  1.00  0.00    -0.413 A  
ENDBRANCH   2   9
BRANCH   8  16
HETATM   16  C   UNL     1      -8.259   9.359  68.197  1.00  0.00    -0.118 C  
BRANCH  16  17
HETATM   17  C   UNL     1      -8.186   7.855  68.474  1.00  0.00    -0.127 C  
BRANCH  17  18
HETATM   18  C   UNL     1      -8.077   7.537  69.966  1.00  0.00    -0.127 C  
BRANCH  18  19
HETATM   19  C   UNL     1      -9.176   6.595  70.413  1.00  0.00    -0.156 C  
HETATM   20  O   UNL     1      -9.074   5.372  70.346  1.00  0.00    -0.135 OA 
BRANCH  19  21
HETATM   21  C   UNL     1     -10.446   7.184  70.909  1.00  0.00    -0.225 A  
HETATM   22  C   UNL     1     -10.376   8.343  71.698  1.00  0.00    -0.312 A  
HETATM   23  C   UNL     1     -11.540   8.920  72.207  1.00  0.00    -0.332 A  
HETATM   24  C   UNL     1     -12.771   8.345  71.913  1.00  0.00    -0.355 A  
HETATM   25  F   UNL     1     -13.888   8.899  72.400  1.00  0.00    -0.393 F  
HETATM   26  C   UNL     1     -12.861   7.206  71.121  1.00  0.00    -0.340 A  
HETATM   27  C   UNL     1     -11.698   6.619  70.617  1.00  0.00    -0.452 A  
ENDBRANCH  19  21
ENDBRANCH  18  19
ENDBRANCH  17  18
ENDBRANCH  16  17
ENDBRANCH   8  16
TORSDOF 6
ENDMDL
MODEL       43
REMARK 921   NORMALIZED FREE ENERGY PREDICTED BY IDOCK:   -6.13 KCAL/MOL
REMARK 922        TOTAL FREE ENERGY PREDICTED BY IDOCK:   -9.59 KCAL/MOL
REMARK 923 INTER-LIGAND FREE ENERGY PREDICTED BY IDOCK:   -8.67 KCAL/MOL
REMARK 924 INTRA-LIGAND FREE ENERGY PREDICTED BY IDOCK:   -0.92 KCAL/MOL
REMARK 927      BINDING AFFINITY PREDICTED BY RF-SCORE:    0.00 PKD
ROOT
HETATM    1  O   UNL     1     -13.444  10.619  69.373  1.00  0.00     0.014 OA 
HETATM    2  C   UNL     1     -12.046  10.853  69.620  1.00  0.00    -0.329 C  
HETATM    3  H   UNL     1     -13.912  10.777  70.185  1.00  0.00     0.000 HD 
HETATM    4  C   UNL     1     -11.287  10.596  68.304  1.00  0.00    -0.357 C  
HETATM    5  C   UNL     1     -11.888  12.312  70.096  1.00  0.00    -0.352 C  
HETATM    6  C   UNL     1     -11.559  11.691  67.270  1.00  0.00    -0.238 C  
HETATM    7  C   UNL     1     -12.106  13.319  68.965  1.00  0.00    -0.226 C  
HETATM    8  N   UNL     1     -11.295  13.049  67.768  1.00  0.00    -0.275 NA 
ENDROOT
BRANCH   2   9
HETATM    9  C   UNL     1     -11.588   9.883  70.719  1.00  0.00    -0.430 A  
HETATM   10  C   UNL     1     -10.231   9.547  70.877  1.00  0.00    -0.356 A  
HETATM   11  C   UNL     1     -12.517   9.277  71.588  1.00  0.00    -0.448 A  
HETATM   12  C   UNL     1     -10.757   8.035  72.680  1.00  0.00    -0.358 A  
HETATM   13  C   UNL     1      -9.817   8.631  71.847  1.00  0.00    -0.384 A  
HETATM   14 CL   UNL     1     -10.251   6.887  73.859  1.00  0.00    -0.383 Cl 
HETATM   15  C   UNL     1     -12.105   8.359  72.560  1.00  0.00    -0.403 A  
ENDBRANCH   2   9
BRANCH   8  16
HETATM   16  C   UNL     1      -9.869  13.335  68.005  1.00  0.00    -0.230 C  
BRANCH  16  17
HETATM   17  C   UNL     1      -9.058  13.597  66.733  1.00  0.00    -0.230 C  
BRANCH  17  18
HETATM   18  C   UNL     1      -8.534  15.031  66.656  1.00  0.00    -0.192 C  
BRANCH  18  19
HETATM   19  C   UNL     1      -9.559  15.964  66.043  1.00  0.00    -0.350 C  
HETATM   20  O   UNL     1     -10.120  15.728  64.975  1.00  0.00    -0.425 OA 
BRANCH  19  21
HETATM   21  C   UNL     1      -9.857  17.238  66.745  1.00  0.00    -0.296 A  
HETATM   22  C   UNL     1      -9.504  17.346  68.100  1.00  0.00    -0.288 A  
HETATM   23  C   UNL     1      -9.784  18.515  68.809  1.00  0.00    -0.390 A  
HETATM   24  C   UNL     1     -10.403  19.576  68.158  1.00  0.00    -0.433 A  
HETATM   25  F   UNL     1     -10.672  20.697  68.837  1.00  0.00    -0.340 F  
HETATM   26  C   UNL     1     -10.746  19.492  66.814  1.00  0.00    -0.569 A  
HETATM   27  C   UNL     1     -10.476  18.321  66.101  1.00  0.00    -0.403 A  
ENDBRANCH  19  21
ENDBRANCH  18  19
ENDBRANCH  17  18
ENDBRANCH  16  17
ENDBRANCH   8  16
TORSDOF 6
ENDMDL
MODEL       44
REMARK 921   NORMALIZED FREE ENERGY PREDICTED BY IDOCK:   -6.12 KCAL/MOL
REMARK 922        TOTAL FREE ENERGY PREDICTED BY IDOCK:   -9.57 KCAL/MOL
REMARK 923 INTER-LIGAND FREE ENERGY PREDICTED BY IDOCK:   -6.76 KCAL/MOL
REMARK 924 INTRA-LIGAND FREE ENERGY PREDICTED BY IDOCK:   -2.81 KCAL/MOL
REMARK 927      BINDING AFFINITY PREDICTED BY RF-SCORE:    0.00 PKD
ROOT
HETATM    1  O   UNL     1     -11.216  16.133  64.163  1.00  0.00    -1.120 OA 
HETATM    2  C   UNL     1     -10.831  15.499  65.396  1.00  0.00    -0.390 C  
HETATM    3  H   UNL     1     -10.424  16.428  63.729  1.00  0.00     0.000 HD 
HETATM    4  C   UNL     1     -12.115  15.021  66.099  1.00  0.00     0.149 C  
HETATM    5  C   UNL     1      -9.897  14.320  65.049  1.00  0.00    -0.058 C  
HETATM    6  C   UNL     1     -12.749  13.830  65.377  1.00  0.00    -0.472 C  
HETATM    7  C   UNL     1     -10.648  13.155  64.400  1.00  0.00    -0.421 C  
HETATM    8  N   UNL     1     -11.822  12.709  65.166  1.00  0.00    -0.374 NA 
ENDROOT
BRANCH   2   9
HETATM    9  C   UNL     1     -10.085  16.533  66.251  1.00  0.00    -0.347 A  
HETATM   10  C   UNL     1      -8.758  16.900  65.958  1.00  0.00    -0.193 A  
HETATM   11  C   UNL     1     -10.696  17.127  67.372  1.00  0.00    -0.242 A  
HETATM   12  C   UNL     1      -8.684  18.367  67.872  1.00  0.00    -0.283 A  
HETATM   13  C   UNL     1      -8.062  17.808  66.761  1.00  0.00    -0.265 A  
HETATM   14 CL   UNL     1      -7.819  19.465  68.876  1.00  0.00    -0.392 Cl 
HETATM   15  C   UNL     1     -10.000  18.036  68.178  1.00  0.00    -0.356 A  
ENDBRANCH   2   9
BRANCH   8  16
HETATM   16  C   UNL     1     -11.427  12.015  66.405  1.00  0.00    -0.353 C  
BRANCH  16  17
HETATM   17  C   UNL     1     -10.383  10.913  66.206  1.00  0.00    -0.306 C  
BRANCH  17  18
HETATM   18  C   UNL     1      -9.363  10.859  67.344  1.00  0.00    -0.166 C  
BRANCH  18  19
HETATM   19  C   UNL     1      -8.091  11.598  66.984  1.00  0.00    -0.164 C  
HETATM   20  O   UNL     1      -7.299  11.188  66.138  1.00  0.00    -0.107 OA 
BRANCH  19  21
HETATM   21  C   UNL     1      -7.770  12.845  67.724  1.00  0.00    -0.151 A  
HETATM   22  C   UNL     1      -8.788  13.447  68.480  1.00  0.00    -0.068 A  
HETATM   23  C   UNL     1      -8.543  14.632  69.174  1.00  0.00    -0.035 A  
HETATM   24  C   UNL     1      -7.277  15.204  69.122  1.00  0.00    -0.163 A  
HETATM   25  F   UNL     1      -7.040  16.340  69.788  1.00  0.00    -0.214 F  
HETATM   26  C   UNL     1      -6.253  14.614  68.390  1.00  0.00    -0.102 A  
HETATM   27  C   UNL     1      -6.495  13.432  67.686  1.00  0.00    -0.169 A  
ENDBRANCH  19  21
ENDBRANCH  18  19
ENDBRANCH  17  18
ENDBRANCH  16  17
ENDBRANCH   8  16
TORSDOF 6
ENDMDL
MODEL       45
REMARK 921   NORMALIZED FREE ENERGY PREDICTED BY IDOCK:   -6.10 KCAL/MOL
REMARK 922        TOTAL FREE ENERGY PREDICTED BY IDOCK:   -9.55 KCAL/MOL
REMARK 923 INTER-LIGAND FREE ENERGY PREDICTED BY IDOCK:   -8.61 KCAL/MOL
REMARK 924 INTRA-LIGAND FREE ENERGY PREDICTED BY IDOCK:   -0.94 KCAL/MOL
REMARK 927      BINDING AFFINITY PREDICTED BY RF-SCORE:    0.00 PKD
ROOT
HETATM    1  O   UNL     1     -13.488  10.468  69.675  1.00  0.00    -0.287 OA 
HETATM    2  C   UNL     1     -12.093  10.765  69.867  1.00  0.00    -0.337 C  
HETATM    3  H   UNL     1     -13.923  10.565  70.514  1.00  0.00     0.000 HD 
HETATM    4  C   UNL     1     -11.387  10.607  68.506  1.00  0.00    -0.348 C  
HETATM    5  C   UNL     1     -11.987  12.209  70.401  1.00  0.00    -0.360 C  
HETATM    6  C   UNL     1     -11.765  11.729  67.537  1.00  0.00    -0.240 C  
HETATM    7  C   UNL     1     -12.312  13.251  69.329  1.00  0.00    -0.008 C  
HETATM    8  N   UNL     1     -11.548  13.076  68.084  1.00  0.00    -0.319 NA 
ENDROOT
BRANCH   2   9
HETATM    9  C   UNL     1     -11.533   9.775  70.897  1.00  0.00    -0.447 A  
HETATM   10  C   UNL     1     -10.155   9.502  70.973  1.00  0.00    -0.299 A  
HETATM   11  C   UNL     1     -12.385   9.087  71.783  1.00  0.00    -0.438 A  
HETATM   12  C   UNL     1     -10.514   7.891  72.731  1.00  0.00    -0.346 A  
HETATM   13  C   UNL     1      -9.648   8.568  71.880  1.00  0.00    -0.353 A  
HETATM   14 CL   UNL     1      -9.893   6.721  73.832  1.00  0.00    -0.281 Cl 
HETATM   15  C   UNL     1     -11.880   8.150  72.692  1.00  0.00    -0.389 A  
ENDBRANCH   2   9
BRANCH   8  16
HETATM   16  C   UNL     1     -10.128  13.428  68.267  1.00  0.00    -0.247 C  
BRANCH  16  17
HETATM   17  C   UNL     1      -9.651  14.600  67.404  1.00  0.00    -0.215 C  
BRANCH  17  18
HETATM   18  C   UNL     1     -10.731  15.665  67.213  1.00  0.00    -0.305 C  
BRANCH  18  19
HETATM   19  C   UNL     1     -10.693  16.698  68.322  1.00  0.00    -0.351 C  
HETATM   20  O   UNL     1     -11.346  16.589  69.358  1.00  0.00    -0.248 OA 
BRANCH  19  21
HETATM   21  C   UNL     1      -9.864  17.913  68.120  1.00  0.00    -0.334 A  
HETATM   22  C   UNL     1     -10.444  19.010  67.462  1.00  0.00    -0.537 A  
HETATM   23  C   UNL     1      -9.699  20.166  67.229  1.00  0.00    -0.574 A  
HETATM   24  C   UNL     1      -8.381  20.228  67.666  1.00  0.00    -0.268 A  
HETATM   25  F   UNL     1      -7.666  21.337  67.443  1.00  0.00    -0.398 F  
HETATM   26  C   UNL     1      -7.794  19.158  68.332  1.00  0.00    -0.370 A  
HETATM   27  C   UNL     1      -8.533  17.995  68.561  1.00  0.00    -0.314 A  
ENDBRANCH  19  21
ENDBRANCH  18  19
ENDBRANCH  17  18
ENDBRANCH  16  17
ENDBRANCH   8  16
TORSDOF 6
ENDMDL
MODEL       46
REMARK 921   NORMALIZED FREE ENERGY PREDICTED BY IDOCK:   -6.09 KCAL/MOL
REMARK 922        TOTAL FREE ENERGY PREDICTED BY IDOCK:   -9.54 KCAL/MOL
REMARK 923 INTER-LIGAND FREE ENERGY PREDICTED BY IDOCK:   -7.34 KCAL/MOL
REMARK 924 INTRA-LIGAND FREE ENERGY PREDICTED BY IDOCK:   -2.20 KCAL/MOL
REMARK 927      BINDING AFFINITY PREDICTED BY RF-SCORE:    0.00 PKD
ROOT
HETATM    1  O   UNL     1     -13.237  10.710  72.673  1.00  0.00    -0.379 OA 
HETATM    2  C   UNL     1     -12.694  10.234  71.429  1.00  0.00    -0.442 C  
HETATM    3  H   UNL     1     -14.027  11.200  72.476  1.00  0.00     0.000 HD 
HETATM    4  C   UNL     1     -11.413   9.439  71.750  1.00  0.00    -0.413 C  
HETATM    5  C   UNL     1     -13.762   9.348  70.756  1.00  0.00     0.160 C  
HETATM    6  C   UNL     1     -11.728   8.105  72.428  1.00  0.00    -0.399 C  
HETATM    7  C   UNL     1     -13.941   8.007  71.471  1.00  0.00    -0.358 C  
HETATM    8  N   UNL     1     -12.682   7.275  71.680  1.00  0.00    -0.363 NA 
ENDROOT
BRANCH   2   9
HETATM    9  C   UNL     1     -12.382  11.452  70.549  1.00  0.00    -0.439 A  
HETATM   10  C   UNL     1     -12.569  12.763  71.025  1.00  0.00    -0.362 A  
HETATM   11  C   UNL     1     -11.924  11.296  69.226  1.00  0.00    -0.411 A  
HETATM   12  C   UNL     1     -11.894  13.689  68.903  1.00  0.00    -0.364 A  
HETATM   13  C   UNL     1     -12.329  13.873  70.210  1.00  0.00    -0.413 A  
HETATM   14 CL   UNL     1     -11.622  15.054  67.891  1.00  0.00    -0.354 Cl 
HETATM   15  C   UNL     1     -11.684  12.406  68.408  1.00  0.00    -0.386 A  
ENDBRANCH   2   9
BRANCH   8  16
HETATM   16  C   UNL     1     -12.150   6.744  70.412  1.00  0.00    -0.211 C  
BRANCH  16  17
HETATM   17  C   UNL     1     -10.804   6.025  70.544  1.00  0.00    -0.382 C  
BRANCH  17  18
HETATM   18  C   UNL     1      -9.863   6.324  69.377  1.00  0.00    -0.180 C  
BRANCH  18  19
HETATM   19  C   UNL     1      -9.111   7.622  69.590  1.00  0.00    -0.147 C  
HETATM   20  O   UNL     1      -8.471   7.862  70.612  1.00  0.00    -0.121 OA 
BRANCH  19  21
HETATM   21  C   UNL     1      -9.194   8.662  68.533  1.00  0.00    -0.138 A  
HETATM   22  C   UNL     1      -8.366   9.790  68.647  1.00  0.00    -0.111 A  
HETATM   23  C   UNL     1      -8.424  10.805  67.692  1.00  0.00    -0.119 A  
HETATM   24  C   UNL     1      -9.298  10.682  66.618  1.00  0.00    -0.165 A  
HETATM   25  F   UNL     1      -9.354  11.655  65.701  1.00  0.00    -0.220 F  
HETATM   26  C   UNL     1     -10.114   9.565  66.480  1.00  0.00    -0.326 A  
HETATM   27  C   UNL     1     -10.066   8.550  67.438  1.00  0.00    -0.298 A  
ENDBRANCH  19  21
ENDBRANCH  18  19
ENDBRANCH  17  18
ENDBRANCH  16  17
ENDBRANCH   8  16
TORSDOF 6
ENDMDL
MODEL       47
REMARK 921   NORMALIZED FREE ENERGY PREDICTED BY IDOCK:   -6.09 KCAL/MOL
REMARK 922        TOTAL FREE ENERGY PREDICTED BY IDOCK:   -9.53 KCAL/MOL
REMARK 923 INTER-LIGAND FREE ENERGY PREDICTED BY IDOCK:   -8.14 KCAL/MOL
REMARK 924 INTRA-LIGAND FREE ENERGY PREDICTED BY IDOCK:   -1.39 KCAL/MOL
REMARK 927      BINDING AFFINITY PREDICTED BY RF-SCORE:    0.00 PKD
ROOT
HETATM    1  O   UNL     1     -13.165  15.917  70.109  1.00  0.00    -0.665 OA 
HETATM    2  C   UNL     1     -12.085  14.999  69.860  1.00  0.00    -0.334 C  
HETATM    3  H   UNL     1     -13.245  16.023  71.050  1.00  0.00     0.000 HD 
HETATM    4  C   UNL     1     -11.956  14.828  68.335  1.00  0.00    -0.270 C  
HETATM    5  C   UNL     1     -10.805  15.598  70.479  1.00  0.00    -0.347 C  
HETATM    6  C   UNL     1     -11.392  16.085  67.669  1.00  0.00    -0.109 C  
HETATM    7  C   UNL     1     -10.286  16.802  69.690  1.00  0.00    -0.151 C  
HETATM    8  N   UNL     1     -10.122  16.541  68.252  1.00  0.00    -0.249 NA 
ENDROOT
BRANCH   2   9
HETATM    9  C   UNL     1     -12.429  13.665  70.538  1.00  0.00    -0.394 A  
HETATM   10  C   UNL     1     -11.913  12.448  70.057  1.00  0.00    -0.372 A  
HETATM   11  C   UNL     1     -13.294  13.615  71.649  1.00  0.00    -0.424 A  
HETATM   12  C   UNL     1     -13.130  11.207  71.728  1.00  0.00    -0.431 A  
HETATM   13  C   UNL     1     -12.260  11.229  70.644  1.00  0.00    -0.489 A  
HETATM   14 CL   UNL     1     -13.578   9.704  72.437  1.00  0.00    -0.471 Cl 
HETATM   15  C   UNL     1     -13.644  12.395  72.238  1.00  0.00    -0.371 A  
ENDBRANCH   2   9
BRANCH   8  16
HETATM   16  C   UNL     1      -8.985  15.639  67.992  1.00  0.00    -0.178 C  
BRANCH  16  17
HETATM   17  C   UNL     1      -9.024  14.951  66.625  1.00  0.00    -0.301 C  
BRANCH  17  18
HETATM   18  C   UNL     1      -8.805  13.441  66.722  1.00  0.00    -0.145 C  
BRANCH  18  19
HETATM   19  C   UNL     1      -9.867  12.677  65.959  1.00  0.00    -0.254 C  
HETATM   20  O   UNL     1     -10.652  13.220  65.184  1.00  0.00    -0.304 OA 
BRANCH  19  21
HETATM   21  C   UNL     1      -9.989  11.216  66.198  1.00  0.00    -0.273 A  
HETATM   22  C   UNL     1     -10.639  10.788  67.367  1.00  0.00    -0.287 A  
HETATM   23  C   UNL     1     -10.758   9.426  67.647  1.00  0.00    -0.295 A  
HETATM   24  C   UNL     1     -10.240   8.497  66.752  1.00  0.00    -0.300 A  
HETATM   25  F   UNL     1     -10.355   7.191  67.020  1.00  0.00    -0.252 F  
HETATM   26  C   UNL     1      -9.608   8.903  65.583  1.00  0.00    -0.175 A  
HETATM   27  C   UNL     1      -9.477  10.265  65.301  1.00  0.00    -0.296 A  
ENDBRANCH  19  21
ENDBRANCH  18  19
ENDBRANCH  17  18
ENDBRANCH  16  17
ENDBRANCH   8  16
TORSDOF 6
ENDMDL
MODEL       48
REMARK 921   NORMALIZED FREE ENERGY PREDICTED BY IDOCK:   -6.08 KCAL/MOL
REMARK 922        TOTAL FREE ENERGY PREDICTED BY IDOCK:   -9.52 KCAL/MOL
REMARK 923 INTER-LIGAND FREE ENERGY PREDICTED BY IDOCK:   -7.42 KCAL/MOL
REMARK 924 INTRA-LIGAND FREE ENERGY PREDICTED BY IDOCK:   -2.10 KCAL/MOL
REMARK 927      BINDING AFFINITY PREDICTED BY RF-SCORE:    0.00 PKD
ROOT
HETATM    1  O   UNL     1      -8.424   7.777  66.951  1.00  0.00    -0.120 OA 
HETATM    2  C   UNL     1      -9.054   8.934  67.531  1.00  0.00    -0.133 C  
HETATM    3  H   UNL     1      -9.075   7.086  66.903  1.00  0.00     0.000 HD 
HETATM    4  C   UNL     1      -7.999  10.053  67.608  1.00  0.00    -0.105 C  
HETATM    5  C   UNL     1     -10.240   9.328  66.627  1.00  0.00    -0.323 C  
HETATM    6  C   UNL     1      -7.655  10.606  66.223  1.00  0.00    -0.137 C  
HETATM    7  C   UNL     1      -9.783   9.939  65.301  1.00  0.00    -0.313 C  
HETATM    8  N   UNL     1      -8.830  11.049  65.458  1.00  0.00    -0.191 NA 
ENDROOT
BRANCH   2   9
HETATM    9  C   UNL     1      -9.556   8.551  68.930  1.00  0.00    -0.160 A  
HETATM   10  C   UNL     1     -10.520   7.540  69.108  1.00  0.00    -0.220 A  
HETATM   11  C   UNL     1      -9.089   9.218  70.079  1.00  0.00    -0.229 A  
HETATM   12  C   UNL     1     -10.545   7.907  71.491  1.00  0.00    -0.222 A  
HETATM   13  C   UNL     1     -11.012   7.221  70.376  1.00  0.00    -0.273 A  
HETATM   14 CL   UNL     1     -11.169   7.532  73.051  1.00  0.00    -0.404 Cl 
HETATM   15  C   UNL     1      -9.581   8.900  71.350  1.00  0.00    -0.359 A  
ENDBRANCH   2   9
BRANCH   8  16
HETATM   16  C   UNL     1      -9.485  12.250  66.006  1.00  0.00    -0.189 C  
BRANCH  16  17
HETATM   17  C   UNL     1     -10.592  12.826  65.118  1.00  0.00    -0.324 C  
BRANCH  17  18
HETATM   18  C   UNL     1     -11.925  12.958  65.854  1.00  0.00    -0.504 C  
BRANCH  18  19
HETATM   19  C   UNL     1     -11.766  13.712  67.159  1.00  0.00    -0.383 C  
HETATM   20  O   UNL     1     -11.409  14.887  67.211  1.00  0.00    -0.336 OA 
BRANCH  19  21
HETATM   21  C   UNL     1     -12.008  12.978  68.427  1.00  0.00    -0.309 A  
HETATM   22  C   UNL     1     -12.219  13.726  69.596  1.00  0.00    -0.359 A  
HETATM   23  C   UNL     1     -12.428  13.082  70.816  1.00  0.00    -0.384 A  
HETATM   24  C   UNL     1     -12.440  11.692  70.860  1.00  0.00    -0.341 A  
HETATM   25  F   UNL     1     -12.641  11.074  72.030  1.00  0.00    -0.427 F  
HETATM   26  C   UNL     1     -12.248  10.936  69.710  1.00  0.00    -0.381 A  
HETATM   27  C   UNL     1     -12.029  11.575  68.488  1.00  0.00    -0.293 A  
ENDBRANCH  19  21
ENDBRANCH  18  19
ENDBRANCH  17  18
ENDBRANCH  16  17
ENDBRANCH   8  16
TORSDOF 6
ENDMDL
MODEL       49
REMARK 921   NORMALIZED FREE ENERGY PREDICTED BY IDOCK:   -6.07 KCAL/MOL
REMARK 922        TOTAL FREE ENERGY PREDICTED BY IDOCK:   -9.51 KCAL/MOL
REMARK 923 INTER-LIGAND FREE ENERGY PREDICTED BY IDOCK:   -7.67 KCAL/MOL
REMARK 924 INTRA-LIGAND FREE ENERGY PREDICTED BY IDOCK:   -1.85 KCAL/MOL
REMARK 927      BINDING AFFINITY PREDICTED BY RF-SCORE:    0.00 PKD
ROOT
HETATM    1  O   UNL     1      -9.913   9.521  64.852  1.00  0.00    -0.396 OA 
HETATM    2  C   UNL     1      -9.695   9.729  66.259  1.00  0.00    -0.234 C  
HETATM    3  H   UNL     1      -9.431  10.191  64.381  1.00  0.00     0.000 HD 
HETATM    4  C   UNL     1     -10.477   8.642  67.021  1.00  0.00    -0.354 C  
HETATM    5  C   UNL     1      -8.178   9.631  66.521  1.00  0.00    -0.119 C  
HETATM    6  C   UNL     1      -9.837   7.262  66.856  1.00  0.00    -0.214 C  
HETATM    7  C   UNL     1      -7.659   8.196  66.405  1.00  0.00    -0.091 C  
HETATM    8  N   UNL     1      -8.412   7.227  67.215  1.00  0.00    -0.118 NA 
ENDROOT
BRANCH   2   9
HETATM    9  C   UNL     1     -10.207  11.131  66.617  1.00  0.00    -0.274 A  
HETATM   10  C   UNL     1      -9.687  11.838  67.717  1.00  0.00    -0.185 A  
HETATM   11  C   UNL     1     -11.233  11.744  65.872  1.00  0.00    -0.345 A  
HETATM   12  C   UNL     1     -11.207  13.670  67.329  1.00  0.00    -0.309 A  
HETATM   13  C   UNL     1     -10.182  13.096  68.072  1.00  0.00    -0.233 A  
HETATM   14 CL   UNL     1     -11.835  15.207  67.781  1.00  0.00    -0.261 Cl 
HETATM   15  C   UNL     1     -11.731  13.003  66.226  1.00  0.00    -0.440 A  
ENDBRANCH   2   9
BRANCH   8  16
HETATM   16  C   UNL     1      -8.151   7.407  68.655  1.00  0.00    -0.125 C  
BRANCH  16  17
HETATM   17  C   UNL     1      -8.764   6.325  69.548  1.00  0.00    -0.132 C  
BRANCH  17  18
HETATM   18  C   UNL     1      -9.528   6.908  70.737  1.00  0.00    -0.165 C  
BRANCH  18  19
HETATM   19  C   UNL     1     -11.002   7.065  70.425  1.00  0.00    -0.268 C  
HETATM   20  O   UNL     1     -11.635   6.245  69.763  1.00  0.00    -0.436 OA 
BRANCH  19  21
HETATM   21  C   UNL     1     -11.693   8.289  70.904  1.00  0.00    -0.256 A  
HETATM   22  C   UNL     1     -11.285   9.528  70.384  1.00  0.00    -0.323 A  
HETATM   23  C   UNL     1     -11.889  10.707  70.820  1.00  0.00    -0.459 A  
HETATM   24  C   UNL     1     -12.909  10.645  71.763  1.00  0.00    -0.444 A  
HETATM   25  F   UNL     1     -13.488  11.776  72.181  1.00  0.00    -0.572 F  
HETATM   26  C   UNL     1     -13.336   9.426  72.277  1.00  0.00    -0.539 A  
HETATM   27  C   UNL     1     -12.729   8.242  71.851  1.00  0.00    -0.373 A  
ENDBRANCH  19  21
ENDBRANCH  18  19
ENDBRANCH  17  18
ENDBRANCH  16  17
ENDBRANCH   8  16
TORSDOF 6
ENDMDL
MODEL       50
REMARK 921   NORMALIZED FREE ENERGY PREDICTED BY IDOCK:   -6.06 KCAL/MOL
REMARK 922        TOTAL FREE ENERGY PREDICTED BY IDOCK:   -9.50 KCAL/MOL
REMARK 923 INTER-LIGAND FREE ENERGY PREDICTED BY IDOCK:   -8.86 KCAL/MOL
REMARK 924 INTRA-LIGAND FREE ENERGY PREDICTED BY IDOCK:   -0.64 KCAL/MOL
REMARK 927      BINDING AFFINITY PREDICTED BY RF-SCORE:    0.00 PKD
ROOT
HETATM    1  O   UNL     1      -9.795   6.043  71.317  1.00  0.00    -0.174 OA 
HETATM    2  C   UNL     1     -10.569   6.772  70.348  1.00  0.00    -0.227 C  
HETATM    3  H   UNL     1      -8.892   6.036  71.021  1.00  0.00     0.000 HD 
HETATM    4  C   UNL     1     -12.033   6.782  70.828  1.00  0.00    -0.433 C  
HETATM    5  C   UNL     1      -9.988   8.198  70.256  1.00  0.00    -0.189 C  
HETATM    6  C   UNL     1     -12.224   7.683  72.050  1.00  0.00    -0.293 C  
HETATM    7  C   UNL     1     -10.303   9.035  71.498  1.00  0.00    -0.342 C  
HETATM    8  N   UNL     1     -11.731   9.053  71.853  1.00  0.00    -0.367 NA 
ENDROOT
BRANCH   2   9
HETATM    9  C   UNL     1     -10.436   6.057  68.996  1.00  0.00    -0.319 A  
HETATM   10  C   UNL     1      -9.678   4.878  68.866  1.00  0.00    -0.242 A  
HETATM   11  C   UNL     1     -11.046   6.572  67.836  1.00  0.00    -0.352 A  
HETATM   12  C   UNL     1     -10.117   4.790  66.497  1.00  0.00    -0.257 A  
HETATM   13  C   UNL     1      -9.518   4.250  67.628  1.00  0.00    -0.217 A  
HETATM   14 CL   UNL     1      -9.900   4.031  64.967  1.00  0.00    -0.192 Cl 
HETATM   15  C   UNL     1     -10.887   5.945  66.595  1.00  0.00    -0.292 A  
ENDBRANCH   2   9
BRANCH   8  16
HETATM   16  C   UNL     1     -12.518   9.842  70.888  1.00  0.00    -0.277 C  
BRANCH  16  17
HETATM   17  C   UNL     1     -12.265  11.351  70.950  1.00  0.00    -0.447 C  
BRANCH  17  18
HETATM   18  C   UNL     1     -11.695  11.905  69.644  1.00  0.00    -0.413 C  
BRANCH  18  19
HETATM   19  C   UNL     1     -12.118  13.343  69.421  1.00  0.00    -0.269 C  
HETATM   20  O   UNL     1     -12.163  13.860  68.307  1.00  0.00    -0.332 OA 
BRANCH  19  21
HETATM   21  C   UNL     1     -12.447  14.170  70.610  1.00  0.00    -0.432 A  
HETATM   22  C   UNL     1     -13.764  14.141  71.094  1.00  0.00    -0.206 A  
HETATM   23  C   UNL     1     -14.127  14.918  72.195  1.00  0.00    -0.616 A  
HETATM   24  C   UNL     1     -13.168  15.710  72.817  1.00  0.00    -0.516 A  
HETATM   25  F   UNL     1     -13.516  16.455  73.872  1.00  0.00    -0.488 F  
HETATM   26  C   UNL     1     -11.856  15.740  72.360  1.00  0.00    -0.606 A  
HETATM   27  C   UNL     1     -11.489  14.971  71.253  1.00  0.00    -0.359 A  
ENDBRANCH  19  21
ENDBRANCH  18  19
ENDBRANCH  17  18
ENDBRANCH  16  17
ENDBRANCH   8  16
TORSDOF 6
ENDMDL
MODEL       51
REMARK 921   NORMALIZED FREE ENERGY PREDICTED BY IDOCK:   -6.06 KCAL/MOL
REMARK 922        TOTAL FREE ENERGY PREDICTED BY IDOCK:   -9.49 KCAL/MOL
REMARK 923 INTER-LIGAND FREE ENERGY PREDICTED BY IDOCK:   -8.60 KCAL/MOL
REMARK 924 INTRA-LIGAND FREE ENERGY PREDICTED BY IDOCK:   -0.89 KCAL/MOL
REMARK 927      BINDING AFFINITY PREDICTED BY RF-SCORE:    0.00 PKD
ROOT
HETATM    1  O   UNL     1     -10.161   6.094  71.539  1.00  0.00    -0.188 OA 
HETATM    2  C   UNL     1     -10.828   6.808  70.483  1.00  0.00    -0.258 C  
HETATM    3  H   UNL     1      -9.239   6.039  71.315  1.00  0.00     0.000 HD 
HETATM    4  C   UNL     1     -12.322   6.898  70.848  1.00  0.00    -0.365 C  
HETATM    5  C   UNL     1     -10.182   8.205  70.375  1.00  0.00    -0.203 C  
HETATM    6  C   UNL     1     -12.566   7.861  72.011  1.00  0.00    -0.296 C  
HETATM    7  C   UNL     1     -10.553   9.110  71.551  1.00  0.00    -0.358 C  
HETATM    8  N   UNL     1     -12.001   9.201  71.794  1.00  0.00    -0.358 NA 
ENDROOT
BRANCH   2   9
HETATM    9  C   UNL     1     -10.625   6.026  69.178  1.00  0.00    -0.362 A  
HETATM   10  C   UNL     1      -9.981   4.775  69.170  1.00  0.00    -0.233 A  
HETATM   11  C   UNL     1     -11.051   6.549  67.942  1.00  0.00    -0.352 A  
HETATM   12  C   UNL     1     -10.171   4.629  66.770  1.00  0.00    -0.185 A  
HETATM   13  C   UNL     1      -9.754   4.082  67.978  1.00  0.00    -0.142 A  
HETATM   14 CL   UNL     1      -9.870   3.788  65.299  1.00  0.00    -0.170 Cl 
HETATM   15  C   UNL     1     -10.825   5.857  66.747  1.00  0.00    -0.347 A  
ENDBRANCH   2   9
BRANCH   8  16
HETATM   16  C   UNL     1     -12.679   9.974  70.738  1.00  0.00    -0.273 C  
BRANCH  16  17
HETATM   17  C   UNL     1     -12.081  11.361  70.488  1.00  0.00    -0.487 C  
BRANCH  17  18
HETATM   18  C   UNL     1     -11.434  11.482  69.108  1.00  0.00    -0.362 C  
BRANCH  18  19
HETATM   19  C   UNL     1     -11.629  12.866  68.524  1.00  0.00    -0.323 C  
HETATM   20  O   UNL     1     -11.678  13.881  69.216  1.00  0.00    -0.287 OA 
BRANCH  19  21
HETATM   21  C   UNL     1     -11.814  12.988  67.055  1.00  0.00    -0.437 A  
HETATM   22  C   UNL     1     -11.387  11.925  66.243  1.00  0.00    -0.394 A  
HETATM   23  C   UNL     1     -11.519  12.002  64.856  1.00  0.00    -0.352 A  
HETATM   24  C   UNL     1     -12.090  13.135  64.287  1.00  0.00    -0.414 A  
HETATM   25  F   UNL     1     -12.218  13.209  62.957  1.00  0.00    -0.617 F  
HETATM   26  C   UNL     1     -12.533  14.189  65.077  1.00  0.00    -0.434 A  
HETATM   27  C   UNL     1     -12.395  14.122  66.465  1.00  0.00    -0.405 A  
ENDBRANCH  19  21
ENDBRANCH  18  19
ENDBRANCH  17  18
ENDBRANCH  16  17
ENDBRANCH   8  16
TORSDOF 6
ENDMDL
MODEL       52
REMARK 921   NORMALIZED FREE ENERGY PREDICTED BY IDOCK:   -6.06 KCAL/MOL
REMARK 922        TOTAL FREE ENERGY PREDICTED BY IDOCK:   -9.49 KCAL/MOL
REMARK 923 INTER-LIGAND FREE ENERGY PREDICTED BY IDOCK:   -8.61 KCAL/MOL
REMARK 924 INTRA-LIGAND FREE ENERGY PREDICTED BY IDOCK:   -0.88 KCAL/MOL
REMARK 927      BINDING AFFINITY PREDICTED BY RF-SCORE:    0.00 PKD
ROOT
HETATM    1  O   UNL     1     -12.544  14.030  67.912  1.00  0.00    -0.399 OA 
HETATM    2  C   UNL     1     -11.713  13.432  68.922  1.00  0.00    -0.328 C  
HETATM    3  H   UNL     1     -12.316  14.951  67.856  1.00  0.00     0.000 HD 
HETATM    4  C   UNL     1     -12.083  11.939  69.013  1.00  0.00    -0.245 C  
HETATM    5  C   UNL     1     -10.242  13.632  68.503  1.00  0.00    -0.234 C  
HETATM    6  C   UNL     1     -11.606  11.161  67.785  1.00  0.00    -0.223 C  
HETATM    7  C   UNL     1      -9.851  12.750  67.315  1.00  0.00    -0.207 C  
HETATM    8  N   UNL     1     -10.173  11.327  67.503  1.00  0.00    -0.186 NA 
ENDROOT
BRANCH   2   9
HETATM    9  C   UNL     1     -11.988  14.150  70.251  1.00  0.00    -0.404 A  
HETATM   10  C   UNL     1     -11.464  15.431  70.510  1.00  0.00    -0.354 A  
HETATM   11  C   UNL     1     -12.752  13.540  71.264  1.00  0.00    -0.432 A  
HETATM   12  C   UNL     1     -12.420  15.434  72.724  1.00  0.00    -0.401 A  
HETATM   13  C   UNL     1     -11.676  16.067  71.736  1.00  0.00    -0.593 A  
HETATM   14 CL   UNL     1     -12.660  16.207  74.243  1.00  0.00    -0.659 Cl 
HETATM   15  C   UNL     1     -12.965  14.175  72.492  1.00  0.00    -0.498 A  
ENDBRANCH   2   9
BRANCH   8  16
HETATM   16  C   UNL     1      -9.289  10.701  68.503  1.00  0.00    -0.170 C  
BRANCH  16  17
HETATM   17  C   UNL     1      -9.907   9.503  69.231  1.00  0.00    -0.184 C  
BRANCH  17  18
HETATM   18  C   UNL     1      -9.483   9.426  70.698  1.00  0.00    -0.325 C  
BRANCH  18  19
HETATM   19  C   UNL     1     -10.659   9.100  71.597  1.00  0.00    -0.357 C  
HETATM   20  O   UNL     1     -11.566   9.898  71.825  1.00  0.00    -0.302 OA 
BRANCH  19  21
HETATM   21  C   UNL     1     -10.684   7.774  72.266  1.00  0.00    -0.325 A  
HETATM   22  C   UNL     1     -11.191   6.679  71.548  1.00  0.00    -0.313 A  
HETATM   23  C   UNL     1     -11.256   5.418  72.141  1.00  0.00    -0.197 A  
HETATM   24  C   UNL     1     -10.801   5.252  73.444  1.00  0.00    -0.302 A  
HETATM   25  F   UNL     1     -10.863   4.043  74.013  1.00  0.00    -0.247 F  
HETATM   26  C   UNL     1     -10.282   6.322  74.165  1.00  0.00    -0.338 A  
HETATM   27  C   UNL     1     -10.222   7.589  73.579  1.00  0.00    -0.380 A  
ENDBRANCH  19  21
ENDBRANCH  18  19
ENDBRANCH  17  18
ENDBRANCH  16  17
ENDBRANCH   8  16
TORSDOF 6
ENDMDL
MODEL       53
REMARK 921   NORMALIZED FREE ENERGY PREDICTED BY IDOCK:   -6.04 KCAL/MOL
REMARK 922        TOTAL FREE ENERGY PREDICTED BY IDOCK:   -9.47 KCAL/MOL
REMARK 923 INTER-LIGAND FREE ENERGY PREDICTED BY IDOCK:   -8.58 KCAL/MOL
REMARK 924 INTRA-LIGAND FREE ENERGY PREDICTED BY IDOCK:   -0.89 KCAL/MOL
REMARK 927      BINDING AFFINITY PREDICTED BY RF-SCORE:    0.00 PKD
ROOT
HETATM    1  O   UNL     1      -9.689  10.453  70.166  1.00  0.00    -0.386 OA 
HETATM    2  C   UNL     1     -10.312  10.217  68.890  1.00  0.00    -0.204 C  
HETATM    3  H   UNL     1      -8.793  10.143  70.113  1.00  0.00     0.000 HD 
HETATM    4  C   UNL     1     -11.765  10.721  68.977  1.00  0.00    -0.357 C  
HETATM    5  C   UNL     1      -9.504  10.984  67.822  1.00  0.00    -0.169 C  
HETATM    6  C   UNL     1     -11.835  12.249  69.026  1.00  0.00    -0.305 C  
HETATM    7  C   UNL     1      -9.707  12.498  67.915  1.00  0.00    -0.205 C  
HETATM    8  N   UNL     1     -11.120  12.906  67.922  1.00  0.00    -0.241 NA 
ENDROOT
BRANCH   2   9
HETATM    9  C   UNL     1     -10.266   8.709  68.610  1.00  0.00    -0.214 A  
HETATM   10  C   UNL     1      -9.931   7.789  69.621  1.00  0.00    -0.190 A  
HETATM   11  C   UNL     1     -10.531   8.199  67.324  1.00  0.00    -0.379 A  
HETATM   12  C   UNL     1     -10.095   5.945  68.075  1.00  0.00    -0.162 A  
HETATM   13  C   UNL     1      -9.844   6.419  69.357  1.00  0.00    -0.170 A  
HETATM   14 CL   UNL     1      -9.964   4.262  67.743  1.00  0.00    -0.127 Cl 
HETATM   15  C   UNL     1     -10.444   6.828  67.058  1.00  0.00    -0.369 A  
ENDBRANCH   2   9
BRANCH   8  16
HETATM   16  C   UNL     1     -11.746  12.711  66.602  1.00  0.00    -0.398 C  
BRANCH  16  17
HETATM   17  C   UNL     1     -12.061  14.010  65.855  1.00  0.00    -0.448 C  
BRANCH  17  18
HETATM   18  C   UNL     1     -10.818  14.648  65.235  1.00  0.00    -0.387 C  
BRANCH  18  19
HETATM   19  C   UNL     1     -10.986  16.145  65.073  1.00  0.00    -0.344 C  
HETATM   20  O   UNL     1     -11.501  16.654  64.080  1.00  0.00    -1.192 OA 
BRANCH  19  21
HETATM   21  C   UNL     1     -10.460  17.030  66.143  1.00  0.00    -0.274 A  
HETATM   22  C   UNL     1     -10.583  18.419  65.975  1.00  0.00    -0.339 A  
HETATM   23  C   UNL     1     -10.084  19.292  66.942  1.00  0.00    -0.467 A  
HETATM   24  C   UNL     1      -9.477  18.775  68.080  1.00  0.00    -0.326 A  
HETATM   25  F   UNL     1      -8.999  19.612  69.008  1.00  0.00    -0.392 F  
HETATM   26  C   UNL     1      -9.360  17.403  68.271  1.00  0.00    -0.278 A  
HETATM   27  C   UNL     1      -9.850  16.524  67.302  1.00  0.00    -0.254 A  
ENDBRANCH  19  21
ENDBRANCH  18  19
ENDBRANCH  17  18
ENDBRANCH  16  17
ENDBRANCH   8  16
TORSDOF 6
ENDMDL
MODEL       54
REMARK 921   NORMALIZED FREE ENERGY PREDICTED BY IDOCK:   -6.03 KCAL/MOL
REMARK 922        TOTAL FREE ENERGY PREDICTED BY IDOCK:   -9.45 KCAL/MOL
REMARK 923 INTER-LIGAND FREE ENERGY PREDICTED BY IDOCK:   -8.01 KCAL/MOL
REMARK 924 INTRA-LIGAND FREE ENERGY PREDICTED BY IDOCK:   -1.44 KCAL/MOL
REMARK 927      BINDING AFFINITY PREDICTED BY RF-SCORE:    0.00 PKD
ROOT
HETATM    1  O   UNL     1     -10.957  11.042  64.495  1.00  0.00    -0.270 OA 
HETATM    2  C   UNL     1     -10.934  11.752  65.746  1.00  0.00    -0.301 C  
HETATM    3  H   UNL     1     -11.696  10.446  64.513  1.00  0.00     0.000 HD 
HETATM    4  C   UNL     1      -9.735  12.718  65.717  1.00  0.00    -0.167 C  
HETATM    5  C   UNL     1     -12.272  12.506  65.887  1.00  0.00    -0.310 C  
HETATM    6  C   UNL     1      -9.971  13.886  64.757  1.00  0.00    -0.070 C  
HETATM    7  C   UNL     1     -12.370  13.699  64.934  1.00  0.00    -0.406 C  
HETATM    8  N   UNL     1     -11.221  14.615  65.012  1.00  0.00    -0.365 NA 
ENDROOT
BRANCH   2   9
HETATM    9  C   UNL     1     -10.784  10.721  66.874  1.00  0.00    -0.309 A  
HETATM   10  C   UNL     1     -10.401   9.394  66.604  1.00  0.00    -0.284 A  
HETATM   11  C   UNL     1     -11.053  11.064  68.214  1.00  0.00    -0.316 A  
HETATM   12  C   UNL     1     -10.595   8.804  68.935  1.00  0.00    -0.155 A  
HETATM   13  C   UNL     1     -10.308   8.443  67.624  1.00  0.00    -0.317 A  
HETATM   14 CL   UNL     1     -10.506   7.628  70.187  1.00  0.00    -0.222 Cl 
HETATM   15  C   UNL     1     -10.961  10.113  69.236  1.00  0.00    -0.279 A  
ENDBRANCH   2   9
BRANCH   8  16
HETATM   16  C   UNL     1     -11.224  15.378  66.274  1.00  0.00    -0.162 C  
BRANCH  16  17
HETATM   17  C   UNL     1      -9.835  15.813  66.751  1.00  0.00    -0.256 C  
BRANCH  17  18
HETATM   18  C   UNL     1      -9.578  15.450  68.214  1.00  0.00    -0.205 C  
BRANCH  18  19
HETATM   19  C   UNL     1     -10.455  16.259  69.148  1.00  0.00    -0.280 C  
HETATM   20  O   UNL     1     -10.475  17.488  69.147  1.00  0.00    -0.347 OA 
BRANCH  19  21
HETATM   21  C   UNL     1     -11.288  15.527  70.137  1.00  0.00    -0.339 A  
HETATM   22  C   UNL     1     -11.806  14.275  69.770  1.00  0.00    -0.380 A  
HETATM   23  C   UNL     1     -12.614  13.561  70.655  1.00  0.00    -0.345 A  
HETATM   24  C   UNL     1     -12.888  14.093  71.910  1.00  0.00    -0.341 A  
HETATM   25  F   UNL     1     -13.661  13.407  72.760  1.00  0.00    -0.616 F  
HETATM   26  C   UNL     1     -12.371  15.324  72.296  1.00  0.00    -0.450 A  
HETATM   27  C   UNL     1     -11.570  16.048  71.410  1.00  0.00    -0.520 A  
ENDBRANCH  19  21
ENDBRANCH  18  19
ENDBRANCH  17  18
ENDBRANCH  16  17
ENDBRANCH   8  16
TORSDOF 6
ENDMDL
MODEL       55
REMARK 921   NORMALIZED FREE ENERGY PREDICTED BY IDOCK:   -5.99 KCAL/MOL
REMARK 922        TOTAL FREE ENERGY PREDICTED BY IDOCK:   -9.40 KCAL/MOL
REMARK 923 INTER-LIGAND FREE ENERGY PREDICTED BY IDOCK:   -8.19 KCAL/MOL
REMARK 924 INTRA-LIGAND FREE ENERGY PREDICTED BY IDOCK:   -1.21 KCAL/MOL
REMARK 927      BINDING AFFINITY PREDICTED BY RF-SCORE:    0.00 PKD
ROOT
HETATM    1  O   UNL     1      -8.727  10.673  69.304  1.00  0.00    -0.264 OA 
HETATM    2  C   UNL     1     -10.133  10.607  69.007  1.00  0.00    -0.213 C  
HETATM    3  H   UNL     1      -8.342   9.834  69.076  1.00  0.00     0.000 HD 
HETATM    4  C   UNL     1     -10.756  11.966  69.377  1.00  0.00    -0.012 C  
HETATM    5  C   UNL     1     -10.283  10.300  67.502  1.00  0.00    -0.254 C  
HETATM    6  C   UNL     1     -10.332  13.068  68.404  1.00  0.00    -0.252 C  
HETATM    7  C   UNL     1      -9.905  11.496  66.625  1.00  0.00    -0.202 C  
HETATM    8  N   UNL     1     -10.593  12.742  66.995  1.00  0.00    -0.240 NA 
ENDROOT
BRANCH   2   9
HETATM    9  C   UNL     1     -10.743   9.473  69.843  1.00  0.00    -0.268 A  
HETATM   10  C   UNL     1     -11.395   9.735  71.062  1.00  0.00    -0.460 A  
HETATM   11  C   UNL     1     -10.647   8.130  69.429  1.00  0.00    -0.206 A  
HETATM   12  C   UNL     1     -11.788   7.384  71.423  1.00  0.00    -0.300 A  
HETATM   13  C   UNL     1     -11.912   8.701  71.847  1.00  0.00    -0.424 A  
HETATM   14 CL   UNL     1     -12.402   6.107  72.401  1.00  0.00    -0.182 Cl 
HETATM   15  C   UNL     1     -11.163   7.093  70.214  1.00  0.00    -0.309 A  
ENDBRANCH   2   9
BRANCH   8  16
HETATM   16  C   UNL     1     -12.024  12.694  66.645  1.00  0.00    -0.312 C  
BRANCH  16  17
HETATM   17  C   UNL     1     -12.531  13.925  65.888  1.00  0.00    -0.519 C  
BRANCH  17  18
HETATM   18  C   UNL     1     -11.649  14.281  64.691  1.00  0.00    -0.415 C  
BRANCH  18  19
HETATM   19  C   UNL     1     -11.246  15.742  64.714  1.00  0.00    -0.366 C  
HETATM   20  O   UNL     1     -11.596  16.544  63.851  1.00  0.00    -1.175 OA 
BRANCH  19  21
HETATM   21  C   UNL     1     -10.352  16.206  65.805  1.00  0.00    -0.398 A  
HETATM   22  C   UNL     1     -10.846  17.161  66.708  1.00  0.00     0.022 A  
HETATM   23  C   UNL     1     -10.036  17.644  67.735  1.00  0.00    -0.338 A  
HETATM   24  C   UNL     1      -8.739  17.161  67.867  1.00  0.00    -0.222 A  
HETATM   25  F   UNL     1      -7.962  17.624  68.853  1.00  0.00    -0.272 F  
HETATM   26  C   UNL     1      -8.238  16.204  66.993  1.00  0.00    -0.250 A  
HETATM   27  C   UNL     1      -9.041  15.723  65.956  1.00  0.00    -0.361 A  
ENDBRANCH  19  21
ENDBRANCH  18  19
ENDBRANCH  17  18
ENDBRANCH  16  17
ENDBRANCH   8  16
TORSDOF 6
ENDMDL
MODEL       56
REMARK 921   NORMALIZED FREE ENERGY PREDICTED BY IDOCK:   -5.99 KCAL/MOL
REMARK 922        TOTAL FREE ENERGY PREDICTED BY IDOCK:   -9.40 KCAL/MOL
REMARK 923 INTER-LIGAND FREE ENERGY PREDICTED BY IDOCK:   -7.89 KCAL/MOL
REMARK 924 INTRA-LIGAND FREE ENERGY PREDICTED BY IDOCK:   -1.51 KCAL/MOL
REMARK 927      BINDING AFFINITY PREDICTED BY RF-SCORE:    0.00 PKD
ROOT
HETATM    1  O   UNL     1      -8.200   8.615  67.703  1.00  0.00    -0.109 OA 
HETATM    2  C   UNL     1      -9.520   9.137  67.939  1.00  0.00    -0.141 C  
HETATM    3  H   UNL     1      -8.288   7.700  67.463  1.00  0.00     0.000 HD 
HETATM    4  C   UNL     1      -9.376  10.620  68.328  1.00  0.00    -0.156 C  
HETATM    5  C   UNL     1     -10.335   8.963  66.641  1.00  0.00    -0.294 C  
HETATM    6  C   UNL     1      -8.962  11.483  67.134  1.00  0.00    -0.166 C  
HETATM    7  C   UNL     1      -9.887   9.926  65.539  1.00  0.00    -0.311 C  
HETATM    8  N   UNL     1      -9.842  11.333  65.966  1.00  0.00    -0.219 NA 
ENDROOT
BRANCH   2   9
HETATM    9  C   UNL     1     -10.155   8.326  69.077  1.00  0.00    -0.208 A  
HETATM   10  C   UNL     1     -10.215   8.833  70.389  1.00  0.00    -0.228 A  
HETATM   11  C   UNL     1     -10.673   7.036  68.851  1.00  0.00    -0.227 A  
HETATM   12  C   UNL     1     -11.241   6.802  71.187  1.00  0.00    -0.283 A  
HETATM   13  C   UNL     1     -10.752   8.079  71.435  1.00  0.00    -0.270 A  
HETATM   14 CL   UNL     1     -11.880   5.863  72.480  1.00  0.00    -0.308 Cl 
HETATM   15  C   UNL     1     -11.211   6.279  69.898  1.00  0.00    -0.498 A  
ENDBRANCH   2   9
BRANCH   8  16
HETATM   16  C   UNL     1     -11.196  11.883  66.161  1.00  0.00    -0.333 C  
BRANCH  16  17
HETATM   17  C   UNL     1     -11.377  13.313  65.645  1.00  0.00    -0.325 C  
BRANCH  17  18
HETATM   18  C   UNL     1     -12.134  14.202  66.632  1.00  0.00    -0.480 C  
BRANCH  18  19
HETATM   19  C   UNL     1     -11.316  14.463  67.881  1.00  0.00    -0.301 C  
HETATM   20  O   UNL     1     -10.152  14.855  67.847  1.00  0.00    -0.225 OA 
BRANCH  19  21
HETATM   21  C   UNL     1     -11.942  14.185  69.199  1.00  0.00    -0.388 A  
HETATM   22  C   UNL     1     -11.879  12.875  69.700  1.00  0.00    -0.387 A  
HETATM   23  C   UNL     1     -12.471  12.559  70.923  1.00  0.00    -0.361 A  
HETATM   24  C   UNL     1     -13.112  13.557  71.649  1.00  0.00    -0.374 A  
HETATM   25  F   UNL     1     -13.679  13.255  72.822  1.00  0.00    -0.615 F  
HETATM   26  C   UNL     1     -13.170  14.863  71.176  1.00  0.00    -0.476 A  
HETATM   27  C   UNL     1     -12.587  15.183  69.948  1.00  0.00    -0.205 A  
ENDBRANCH  19  21
ENDBRANCH  18  19
ENDBRANCH  17  18
ENDBRANCH  16  17
ENDBRANCH   8  16
TORSDOF 6
ENDMDL
MODEL       57
REMARK 921   NORMALIZED FREE ENERGY PREDICTED BY IDOCK:   -5.97 KCAL/MOL
REMARK 922        TOTAL FREE ENERGY PREDICTED BY IDOCK:   -9.38 KCAL/MOL
REMARK 923 INTER-LIGAND FREE ENERGY PREDICTED BY IDOCK:   -7.19 KCAL/MOL
REMARK 924 INTRA-LIGAND FREE ENERGY PREDICTED BY IDOCK:   -2.19 KCAL/MOL
REMARK 927      BINDING AFFINITY PREDICTED BY RF-SCORE:    0.00 PKD
ROOT
HETATM    1  O   UNL     1     -12.734   8.432  73.037  1.00  0.00    -0.697 OA 
HETATM    2  C   UNL     1     -11.762   8.494  71.979  1.00  0.00    -0.362 C  
HETATM    3  H   UNL     1     -13.593   8.550  72.649  1.00  0.00     0.000 HD 
HETATM    4  C   UNL     1     -10.369   8.301  72.608  1.00  0.00    -0.374 C  
HETATM    5  C   UNL     1     -12.092   7.376  70.968  1.00  0.00    -0.330 C  
HETATM    6  C   UNL     1     -10.153   6.862  73.079  1.00  0.00    -0.201 C  
HETATM    7  C   UNL     1     -11.766   5.984  71.514  1.00  0.00    -0.105 C  
HETATM    8  N   UNL     1     -10.396   5.857  72.034  1.00  0.00    -0.201 NA 
ENDROOT
BRANCH   2   9
HETATM    9  C   UNL     1     -11.878   9.869  71.306  1.00  0.00    -0.479 A  
HETATM   10  C   UNL     1     -11.108  10.195  70.175  1.00  0.00    -0.378 A  
HETATM   11  C   UNL     1     -12.741  10.858  71.816  1.00  0.00    -0.435 A  
HETATM   12  C   UNL     1     -12.027  12.424  70.122  1.00  0.00    -0.298 A  
HETATM   13  C   UNL     1     -11.179  11.461  69.588  1.00  0.00    -0.301 A  
HETATM   14 CL   UNL     1     -12.097  13.992  69.416  1.00  0.00    -0.381 Cl 
HETATM   15  C   UNL     1     -12.814  12.127  71.231  1.00  0.00    -0.349 A  
ENDBRANCH   2   9
BRANCH   8  16
HETATM   16  C   UNL     1      -9.402   5.872  70.946  1.00  0.00    -0.161 C  
BRANCH  16  17
HETATM   17  C   UNL     1      -9.773   5.003  69.740  1.00  0.00    -0.266 C  
BRANCH  17  18
HETATM   18  C   UNL     1      -9.248   5.573  68.422  1.00  0.00    -0.124 C  
BRANCH  18  19
HETATM   19  C   UNL     1     -10.171   6.643  67.875  1.00  0.00    -0.171 C  
HETATM   20  O   UNL     1     -11.345   6.426  67.584  1.00  0.00    -0.267 OA 
BRANCH  19  21
HETATM   21  C   UNL     1      -9.611   7.999  67.639  1.00  0.00    -0.185 A  
HETATM   22  C   UNL     1     -10.262   8.833  66.716  1.00  0.00    -0.354 A  
HETATM   23  C   UNL     1      -9.761  10.106  66.443  1.00  0.00    -0.259 A  
HETATM   24  C   UNL     1      -8.621  10.547  67.105  1.00  0.00    -0.127 A  
HETATM   25  F   UNL     1      -8.141  11.769  66.845  1.00  0.00    -0.149 F  
HETATM   26  C   UNL     1      -7.973   9.741  68.033  1.00  0.00    -0.097 A  
HETATM   27  C   UNL     1      -8.464   8.462  68.304  1.00  0.00    -0.135 A  
ENDBRANCH  19  21
ENDBRANCH  18  19
ENDBRANCH  17  18
ENDBRANCH  16  17
ENDBRANCH   8  16
TORSDOF 6
ENDMDL
MODEL       58
REMARK 921   NORMALIZED FREE ENERGY PREDICTED BY IDOCK:   -5.96 KCAL/MOL
REMARK 922        TOTAL FREE ENERGY PREDICTED BY IDOCK:   -9.36 KCAL/MOL
REMARK 923 INTER-LIGAND FREE ENERGY PREDICTED BY IDOCK:   -8.14 KCAL/MOL
REMARK 924 INTRA-LIGAND FREE ENERGY PREDICTED BY IDOCK:   -1.22 KCAL/MOL
REMARK 927      BINDING AFFINITY PREDICTED BY RF-SCORE:    0.00 PKD
ROOT
HETATM    1  O   UNL     1     -11.714  13.086  63.121  1.00  0.00    -0.803 OA 
HETATM    2  C   UNL     1     -11.080  12.746  64.368  1.00  0.00    -0.349 C  
HETATM    3  H   UNL     1     -12.263  12.353  62.867  1.00  0.00     0.000 HD 
HETATM    4  C   UNL     1     -10.189  13.933  64.780  1.00  0.00    -0.353 C  
HETATM    5  C   UNL     1     -12.190  12.478  65.405  1.00  0.00    -0.475 C  
HETATM    6  C   UNL     1     -11.020  15.138  65.227  1.00  0.00    -0.395 C  
HETATM    7  C   UNL     1     -12.904  13.760  65.837  1.00  0.00    -0.315 C  
HETATM    8  N   UNL     1     -11.992  14.824  66.284  1.00  0.00    -0.232 NA 
ENDROOT
BRANCH   2   9
HETATM    9  C   UNL     1     -10.243  11.479  64.146  1.00  0.00    -0.374 A  
HETATM   10  C   UNL     1      -9.639  11.211  62.903  1.00  0.00    -0.373 A  
HETATM   11  C   UNL     1     -10.073  10.529  65.172  1.00  0.00    -0.383 A  
HETATM   12  C   UNL     1      -8.778   9.108  63.711  1.00  0.00    -0.125 A  
HETATM   13  C   UNL     1      -8.915  10.036  62.685  1.00  0.00    -0.278 A  
HETATM   14 CL   UNL     1      -7.907   7.650  63.436  1.00  0.00    -0.133 Cl 
HETATM   15  C   UNL     1      -9.349   9.352  64.956  1.00  0.00    -0.258 A  
ENDBRANCH   2   9
BRANCH   8  16
HETATM   16  C   UNL     1     -11.379  14.499  67.585  1.00  0.00    -0.337 C  
BRANCH  16  17
HETATM   17  C   UNL     1     -11.533  15.593  68.645  1.00  0.00    -0.381 C  
BRANCH  17  18
HETATM   18  C   UNL     1     -10.420  15.555  69.693  1.00  0.00    -0.289 C  
BRANCH  18  19
HETATM   19  C   UNL     1      -9.050  15.572  69.046  1.00  0.00    -0.236 C  
HETATM   20  O   UNL     1      -8.227  14.673  69.202  1.00  0.00    -0.142 OA 
BRANCH  19  21
HETATM   21  C   UNL     1      -8.676  16.754  68.227  1.00  0.00    -0.227 A  
HETATM   22  C   UNL     1      -8.072  16.531  66.979  1.00  0.00    -0.235 A  
HETATM   23  C   UNL     1      -7.682  17.608  66.183  1.00  0.00    -0.293 A  
HETATM   24  C   UNL     1      -7.910  18.905  66.631  1.00  0.00    -0.259 A  
HETATM   25  F   UNL     1      -7.536  19.939  65.868  1.00  0.00    -0.287 F  
HETATM   26  C   UNL     1      -8.520  19.144  67.856  1.00  0.00    -0.335 A  
HETATM   27  C   UNL     1      -8.904  18.069  68.661  1.00  0.00    -0.272 A  
ENDBRANCH  19  21
ENDBRANCH  18  19
ENDBRANCH  17  18
ENDBRANCH  16  17
ENDBRANCH   8  16
TORSDOF 6
ENDMDL
MODEL       59
REMARK 921   NORMALIZED FREE ENERGY PREDICTED BY IDOCK:   -5.95 KCAL/MOL
REMARK 922        TOTAL FREE ENERGY PREDICTED BY IDOCK:   -9.35 KCAL/MOL
REMARK 923 INTER-LIGAND FREE ENERGY PREDICTED BY IDOCK:   -7.78 KCAL/MOL
REMARK 924 INTRA-LIGAND FREE ENERGY PREDICTED BY IDOCK:   -1.56 KCAL/MOL
REMARK 927      BINDING AFFINITY PREDICTED BY RF-SCORE:    0.00 PKD
ROOT
HETATM    1  O   UNL     1      -8.614   9.977  65.705  1.00  0.00    -0.137 OA 
HETATM    2  C   UNL     1      -9.657  10.366  66.617  1.00  0.00    -0.177 C  
HETATM    3  H   UNL     1      -8.933   9.239  65.198  1.00  0.00     0.000 HD 
HETATM    4  C   UNL     1      -9.140  11.562  67.439  1.00  0.00    -0.166 C  
HETATM    5  C   UNL     1     -10.899  10.741  65.782  1.00  0.00    -0.076 C  
HETATM    6  C   UNL     1      -9.042  12.833  66.592  1.00  0.00    -0.187 C  
HETATM    7  C   UNL     1     -10.721  12.066  65.037  1.00  0.00    -0.296 C  
HETATM    8  N   UNL     1     -10.293  13.177  65.901  1.00  0.00    -0.285 NA 
ENDROOT
BRANCH   2   9
HETATM    9  C   UNL     1      -9.969   9.167  67.523  1.00  0.00    -0.258 A  
HETATM   10  C   UNL     1      -9.693   9.204  68.903  1.00  0.00    -0.165 A  
HETATM   11  C   UNL     1     -10.516   7.981  66.998  1.00  0.00    -0.410 A  
HETATM   12  C   UNL     1     -10.459   6.934  69.174  1.00  0.00    -0.207 A  
HETATM   13  C   UNL     1      -9.935   8.098  69.722  1.00  0.00    -0.191 A  
HETATM   14 CL   UNL     1     -10.733   5.562  70.177  1.00  0.00    -0.374 Cl 
HETATM   15  C   UNL     1     -10.757   6.871  67.816  1.00  0.00    -0.321 A  
ENDBRANCH   2   9
BRANCH   8  16
HETATM   16  C   UNL     1     -11.377  13.610  66.802  1.00  0.00    -0.328 C  
BRANCH  16  17
HETATM   17  C   UNL     1     -11.130  14.959  67.484  1.00  0.00    -0.319 C  
BRANCH  17  18
HETATM   18  C   UNL     1     -10.717  14.808  68.948  1.00  0.00    -0.253 C  
BRANCH  18  19
HETATM   19  C   UNL     1     -11.920  14.823  69.868  1.00  0.00    -0.328 C  
HETATM   20  O   UNL     1     -12.543  15.848  70.135  1.00  0.00    -0.297 OA 
BRANCH  19  21
HETATM   21  C   UNL     1     -12.330  13.546  70.507  1.00  0.00    -0.412 A  
HETATM   22  C   UNL     1     -13.206  13.605  71.603  1.00  0.00    -0.447 A  
HETATM   23  C   UNL     1     -13.601  12.435  72.251  1.00  0.00    -0.371 A  
HETATM   24  C   UNL     1     -13.133  11.209  71.793  1.00  0.00    -0.431 A  
HETATM   25  F   UNL     1     -13.513  10.086  72.414  1.00  0.00    -0.483 F  
HETATM   26  C   UNL     1     -12.278  11.130  70.700  1.00  0.00    -0.492 A  
HETATM   27  C   UNL     1     -11.871  12.300  70.052  1.00  0.00    -0.372 A  
ENDBRANCH  19  21
ENDBRANCH  18  19
ENDBRANCH  17  18
ENDBRANCH  16  17
ENDBRANCH   8  16
TORSDOF 6
ENDMDL
MODEL       60
REMARK 921   NORMALIZED FREE ENERGY PREDICTED BY IDOCK:   -5.91 KCAL/MOL
REMARK 922        TOTAL FREE ENERGY PREDICTED BY IDOCK:   -9.30 KCAL/MOL
REMARK 923 INTER-LIGAND FREE ENERGY PREDICTED BY IDOCK:   -7.75 KCAL/MOL
REMARK 924 INTRA-LIGAND FREE ENERGY PREDICTED BY IDOCK:   -1.55 KCAL/MOL
REMARK 927      BINDING AFFINITY PREDICTED BY RF-SCORE:    0.00 PKD
ROOT
HETATM    1  O   UNL     1     -11.827  14.079  66.899  1.00  0.00    -0.385 OA 
HETATM    2  C   UNL     1     -11.116  13.356  67.920  1.00  0.00    -0.265 C  
HETATM    3  H   UNL     1     -11.599  14.998  66.982  1.00  0.00     0.000 HD 
HETATM    4  C   UNL     1     -11.485  11.867  67.786  1.00  0.00    -0.389 C  
HETATM    5  C   UNL     1      -9.607  13.592  67.701  1.00  0.00    -0.221 C  
HETATM    6  C   UNL     1     -10.864  11.238  66.537  1.00  0.00    -0.265 C  
HETATM    7  C   UNL     1      -9.075  12.856  66.469  1.00  0.00    -0.132 C  
HETATM    8  N   UNL     1      -9.409  11.424  66.446  1.00  0.00    -0.198 NA 
ENDROOT
BRANCH   2   9
HETATM    9  C   UNL     1     -11.548  13.912  69.284  1.00  0.00    -0.358 A  
HETATM   10  C   UNL     1     -11.024  15.121  69.779  1.00  0.00    -0.293 A  
HETATM   11  C   UNL     1     -12.463  13.215  70.097  1.00  0.00    -0.192 A  
HETATM   12  C   UNL     1     -12.274  14.889  71.828  1.00  0.00    -0.348 A  
HETATM   13  C   UNL     1     -11.381  15.605  71.040  1.00  0.00    -0.426 A  
HETATM   14 CL   UNL     1     -12.695  15.472  73.391  1.00  0.00    -0.584 Cl 
HETATM   15  C   UNL     1     -12.822  13.698  71.361  1.00  0.00    -0.442 A  
ENDBRANCH   2   9
BRANCH   8  16
HETATM   16  C   UNL     1      -8.644  10.675  67.460  1.00  0.00    -0.122 C  
BRANCH  16  17
HETATM   17  C   UNL     1      -8.520   9.175  67.176  1.00  0.00    -0.120 C  
BRANCH  17  18
HETATM   18  C   UNL     1      -8.560   8.331  68.450  1.00  0.00    -0.133 C  
BRANCH  18  19
HETATM   19  C   UNL     1      -9.900   7.643  68.616  1.00  0.00    -0.171 C  
HETATM   20  O   UNL     1     -10.340   6.834  67.802  1.00  0.00    -0.164 OA 
BRANCH  19  21
HETATM   21  C   UNL     1     -10.732   8.002  69.793  1.00  0.00    -0.231 A  
HETATM   22  C   UNL     1     -11.520   6.999  70.379  1.00  0.00    -0.355 A  
HETATM   23  C   UNL     1     -12.336   7.293  71.472  1.00  0.00    -0.397 A  
HETATM   24  C   UNL     1     -12.350   8.584  71.985  1.00  0.00    -0.365 A  
HETATM   25  F   UNL     1     -13.131   8.867  73.034  1.00  0.00    -0.442 F  
HETATM   26  C   UNL     1     -11.564   9.587  71.428  1.00  0.00    -0.466 A  
HETATM   27  C   UNL     1     -10.752   9.301  70.328  1.00  0.00    -0.284 A  
ENDBRANCH  19  21
ENDBRANCH  18  19
ENDBRANCH  17  18
ENDBRANCH  16  17
ENDBRANCH   8  16
TORSDOF 6
ENDMDL
MODEL       61
REMARK 921   NORMALIZED FREE ENERGY PREDICTED BY IDOCK:   -5.91 KCAL/MOL
REMARK 922        TOTAL FREE ENERGY PREDICTED BY IDOCK:   -9.29 KCAL/MOL
REMARK 923 INTER-LIGAND FREE ENERGY PREDICTED BY IDOCK:   -8.31 KCAL/MOL
REMARK 924 INTRA-LIGAND FREE ENERGY PREDICTED BY IDOCK:   -0.98 KCAL/MOL
REMARK 927      BINDING AFFINITY PREDICTED BY RF-SCORE:    0.00 PKD
ROOT
HETATM    1  O   UNL     1     -12.518  15.193  68.400  1.00  0.00    -0.491 OA 
HETATM    2  C   UNL     1     -11.243  14.800  67.862  1.00  0.00    -0.306 C  
HETATM    3  H   UNL     1     -12.787  15.989  67.956  1.00  0.00     0.000 HD 
HETATM    4  C   UNL     1     -10.807  13.510  68.582  1.00  0.00    -0.281 C  
HETATM    5  C   UNL     1     -11.418  14.577  66.346  1.00  0.00    -0.362 C  
HETATM    6  C   UNL     1     -11.653  12.308  68.156  1.00  0.00    -0.339 C  
HETATM    7  C   UNL     1     -12.214  13.308  66.033  1.00  0.00    -0.424 C  
HETATM    8  N   UNL     1     -11.696  12.104  66.701  1.00  0.00    -0.562 NA 
ENDROOT
BRANCH   2   9
HETATM    9  C   UNL     1     -10.247  15.939  68.119  1.00  0.00    -0.232 A  
HETATM   10  C   UNL     1     -10.672  17.279  68.187  1.00  0.00    -0.363 A  
HETATM   11  C   UNL     1      -8.870  15.683  68.269  1.00  0.00    -0.180 A  
HETATM   12  C   UNL     1      -8.406  18.041  68.504  1.00  0.00    -0.304 A  
HETATM   13  C   UNL     1      -9.761  18.322  68.376  1.00  0.00    -0.373 A  
HETATM   14 CL   UNL     1      -7.281  19.327  68.712  1.00  0.00    -0.367 Cl 
HETATM   15  C   UNL     1      -7.956  16.726  68.458  1.00  0.00    -0.235 A  
ENDBRANCH   2   9
BRANCH   8  16
HETATM   16  C   UNL     1     -10.413  11.672  66.118  1.00  0.00    -0.247 C  
BRANCH  16  17
HETATM   17  C   UNL     1     -10.268  10.156  65.965  1.00  0.00    -0.288 C  
BRANCH  17  18
HETATM   18  C   UNL     1      -9.593   9.506  67.174  1.00  0.00    -0.206 C  
BRANCH  18  19
HETATM   19  C   UNL     1     -10.336   8.264  67.622  1.00  0.00    -0.248 C  
HETATM   20  O   UNL     1     -10.724   7.400  66.838  1.00  0.00    -0.346 OA 
BRANCH  19  21
HETATM   21  C   UNL     1     -10.646   8.114  69.067  1.00  0.00    -0.167 A  
HETATM   22  C   UNL     1     -10.636   9.266  69.870  1.00  0.00    -0.246 A  
HETATM   23  C   UNL     1     -10.898   9.173  71.237  1.00  0.00    -0.402 A  
HETATM   24  C   UNL     1     -11.184   7.932  71.794  1.00  0.00    -0.260 A  
HETATM   25  F   UNL     1     -11.436   7.842  73.105  1.00  0.00    -0.450 F  
HETATM   26  C   UNL     1     -11.213   6.783  71.012  1.00  0.00    -0.335 A  
HETATM   27  C   UNL     1     -10.943   6.869  69.644  1.00  0.00    -0.298 A  
ENDBRANCH  19  21
ENDBRANCH  18  19
ENDBRANCH  17  18
ENDBRANCH  16  17
ENDBRANCH   8  16
TORSDOF 6
ENDMDL
MODEL       62
REMARK 921   NORMALIZED FREE ENERGY PREDICTED BY IDOCK:   -5.87 KCAL/MOL
REMARK 922        TOTAL FREE ENERGY PREDICTED BY IDOCK:   -9.24 KCAL/MOL
REMARK 923 INTER-LIGAND FREE ENERGY PREDICTED BY IDOCK:   -7.98 KCAL/MOL
REMARK 924 INTRA-LIGAND FREE ENERGY PREDICTED BY IDOCK:   -1.27 KCAL/MOL
REMARK 927      BINDING AFFINITY PREDICTED BY RF-SCORE:    0.00 PKD
ROOT
HETATM    1  O   UNL     1      -7.485  10.898  65.558  1.00  0.00    -0.340 OA 
HETATM    2  C   UNL     1      -8.855  10.600  65.877  1.00  0.00    -0.174 C  
HETATM    3  H   UNL     1      -7.247  11.696  66.017  1.00  0.00     0.000 HD 
HETATM    4  C   UNL     1      -9.240   9.307  65.133  1.00  0.00    -0.264 C  
HETATM    5  C   UNL     1      -8.957  10.430  67.407  1.00  0.00    -0.140 C  
HETATM    6  C   UNL     1      -8.555   8.079  65.736  1.00  0.00    -0.153 C  
HETATM    7  C   UNL     1      -8.307   9.133  67.893  1.00  0.00    -0.117 C  
HETATM    8  N   UNL     1      -8.776   7.933  67.182  1.00  0.00    -0.130 NA 
ENDROOT
BRANCH   2   9
HETATM    9  C   UNL     1      -9.720  11.781  65.415  1.00  0.00    -0.242 A  
HETATM   10  C   UNL     1      -9.736  12.995  66.127  1.00  0.00    -0.255 A  
HETATM   11  C   UNL     1     -10.546  11.678  64.279  1.00  0.00    -0.394 A  
HETATM   12  C   UNL     1     -11.374  13.921  64.618  1.00  0.00    -0.375 A  
HETATM   13  C   UNL     1     -10.557  14.056  65.734  1.00  0.00    -0.303 A  
HETATM   14 CL   UNL     1     -12.403  15.218  64.148  1.00  0.00    -0.275 Cl 
HETATM   15  C   UNL     1     -11.368  12.739  63.884  1.00  0.00    -0.498 A  
ENDBRANCH   2   9
BRANCH   8  16
HETATM   16  C   UNL     1     -10.164   7.598  67.547  1.00  0.00    -0.227 C  
BRANCH  16  17
HETATM   17  C   UNL     1     -10.303   6.352  68.427  1.00  0.00    -0.228 C  
BRANCH  17  18
HETATM   18  C   UNL     1     -11.354   6.523  69.524  1.00  0.00    -0.419 C  
BRANCH  18  19
HETATM   19  C   UNL     1     -10.827   7.362  70.671  1.00  0.00    -0.242 C  
HETATM   20  O   UNL     1      -9.864   7.025  71.356  1.00  0.00    -0.177 OA 
BRANCH  19  21
HETATM   21  C   UNL     1     -11.539   8.622  71.003  1.00  0.00    -0.325 A  
HETATM   22  C   UNL     1     -12.650   8.549  71.859  1.00  0.00    -0.400 A  
HETATM   23  C   UNL     1     -13.366   9.702  72.183  1.00  0.00    -0.545 A  
HETATM   24  C   UNL     1     -12.961  10.926  71.663  1.00  0.00    -0.464 A  
HETATM   25  F   UNL     1     -13.647  12.032  71.974  1.00  0.00    -0.506 F  
HETATM   26  C   UNL     1     -11.855  11.019  70.826  1.00  0.00    -0.383 A  
HETATM   27  C   UNL     1     -11.139   9.867  70.491  1.00  0.00    -0.398 A  
ENDBRANCH  19  21
ENDBRANCH  18  19
ENDBRANCH  17  18
ENDBRANCH  16  17
ENDBRANCH   8  16
TORSDOF 6
ENDMDL
MODEL       63
REMARK 921   NORMALIZED FREE ENERGY PREDICTED BY IDOCK:   -5.86 KCAL/MOL
REMARK 922        TOTAL FREE ENERGY PREDICTED BY IDOCK:   -9.23 KCAL/MOL
REMARK 923 INTER-LIGAND FREE ENERGY PREDICTED BY IDOCK:   -7.98 KCAL/MOL
REMARK 924 INTRA-LIGAND FREE ENERGY PREDICTED BY IDOCK:   -1.26 KCAL/MOL
REMARK 927      BINDING AFFINITY PREDICTED BY RF-SCORE:    0.00 PKD
ROOT
HETATM    1  O   UNL     1     -12.455  15.415  68.542  1.00  0.00    -0.465 OA 
HETATM    2  C   UNL     1     -11.212  14.842  68.099  1.00  0.00    -0.299 C  
HETATM    3  H   UNL     1     -12.641  16.167  67.991  1.00  0.00     0.000 HD 
HETATM    4  C   UNL     1     -10.912  13.624  68.992  1.00  0.00    -0.271 C  
HETATM    5  C   UNL     1     -11.378  14.439  66.619  1.00  0.00    -0.359 C  
HETATM    6  C   UNL     1     -11.858  12.458  68.698  1.00  0.00    -0.302 C  
HETATM    7  C   UNL     1     -12.282  13.217  66.447  1.00  0.00    -0.356 C  
HETATM    8  N   UNL     1     -11.891  12.070  67.281  1.00  0.00    -0.598 NA 
ENDROOT
BRANCH   2   9
HETATM    9  C   UNL     1     -10.120  15.912  68.239  1.00  0.00    -0.224 A  
HETATM   10  C   UNL     1      -8.843  15.590  68.737  1.00  0.00    -0.203 A  
HETATM   11  C   UNL     1     -10.369  17.256  67.899  1.00  0.00    -0.360 A  
HETATM   12  C   UNL     1      -8.140  17.892  68.579  1.00  0.00    -0.301 A  
HETATM   13  C   UNL     1      -7.862  16.570  68.907  1.00  0.00    -0.240 A  
HETATM   14 CL   UNL     1      -6.941  19.104  68.813  1.00  0.00    -0.341 Cl 
HETATM   15  C   UNL     1      -9.388  18.239  68.069  1.00  0.00    -0.293 A  
ENDBRANCH   2   9
BRANCH   8  16
HETATM   16  C   UNL     1     -10.642  11.452  66.798  1.00  0.00    -0.255 C  
BRANCH  16  17
HETATM   17  C   UNL     1     -10.632   9.922  66.856  1.00  0.00    -0.248 C  
BRANCH  17  18
HETATM   18  C   UNL     1      -9.410   9.371  67.592  1.00  0.00    -0.146 C  
BRANCH  18  19
HETATM   19  C   UNL     1      -9.508   9.611  69.085  1.00  0.00    -0.171 C  
HETATM   20  O   UNL     1      -8.762  10.380  69.687  1.00  0.00    -0.146 OA 
BRANCH  19  21
HETATM   21  C   UNL     1     -10.521   8.844  69.854  1.00  0.00    -0.223 A  
HETATM   22  C   UNL     1     -10.653   7.471  69.592  1.00  0.00    -0.243 A  
HETATM   23  C   UNL     1     -11.606   6.713  70.272  1.00  0.00    -0.454 A  
HETATM   24  C   UNL     1     -12.415   7.327  71.223  1.00  0.00    -0.366 A  
HETATM   25  F   UNL     1     -13.329   6.600  71.876  1.00  0.00    -0.380 F  
HETATM   26  C   UNL     1     -12.288   8.682  71.505  1.00  0.00    -0.370 A  
HETATM   27  C   UNL     1     -11.341   9.448  70.821  1.00  0.00    -0.363 A  
ENDBRANCH  19  21
ENDBRANCH  18  19
ENDBRANCH  17  18
ENDBRANCH  16  17
ENDBRANCH   8  16
TORSDOF 6
ENDMDL
MODEL       64
REMARK 921   NORMALIZED FREE ENERGY PREDICTED BY IDOCK:   -5.83 KCAL/MOL
REMARK 922        TOTAL FREE ENERGY PREDICTED BY IDOCK:   -9.18 KCAL/MOL
REMARK 923 INTER-LIGAND FREE ENERGY PREDICTED BY IDOCK:   -6.58 KCAL/MOL
REMARK 924 INTRA-LIGAND FREE ENERGY PREDICTED BY IDOCK:   -2.60 KCAL/MOL
REMARK 927      BINDING AFFINITY PREDICTED BY RF-SCORE:    0.00 PKD
ROOT
HETATM    1  O   UNL     1     -10.287  12.176  69.283  1.00  0.00    -0.424 OA 
HETATM    2  C   UNL     1     -10.103  10.821  68.835  1.00  0.00    -0.205 C  
HETATM    3  H   UNL     1      -9.577  12.383  69.879  1.00  0.00     0.000 HD 
HETATM    4  C   UNL     1     -11.254  10.486  67.868  1.00  0.00    -0.358 C  
HETATM    5  C   UNL     1      -8.729  10.736  68.139  1.00  0.00    -0.130 C  
HETATM    6  C   UNL     1     -11.110  11.225  66.536  1.00  0.00    -0.216 C  
HETATM    7  C   UNL     1      -8.719  11.443  66.782  1.00  0.00    -0.174 C  
HETATM    8  N   UNL     1      -9.807  11.019  65.887  1.00  0.00    -0.221 NA 
ENDROOT
BRANCH   2   9
HETATM    9  C   UNL     1     -10.132   9.905  70.066  1.00  0.00    -0.308 A  
HETATM   10  C   UNL     1     -11.334   9.636  70.748  1.00  0.00    -0.409 A  
HETATM   11  C   UNL     1      -8.952   9.325  70.570  1.00  0.00    -0.296 A  
HETATM   12  C   UNL     1     -10.174   8.294  72.381  1.00  0.00    -0.327 A  
HETATM   13  C   UNL     1     -11.356   8.840  71.895  1.00  0.00    -0.431 A  
HETATM   14 CL   UNL     1     -10.196   7.333  73.808  1.00  0.00    -0.393 Cl 
HETATM   15  C   UNL     1      -8.972   8.527  71.720  1.00  0.00    -0.288 A  
ENDBRANCH   2   9
BRANCH   8  16
HETATM   16  C   UNL     1      -9.594   9.649  65.388  1.00  0.00    -0.291 C  
BRANCH  16  17
HETATM   17  C   UNL     1      -8.128   9.293  65.125  1.00  0.00    -0.124 C  
BRANCH  17  18
HETATM   18  C   UNL     1      -7.611   8.204  66.066  1.00  0.00    -0.082 C  
BRANCH  18  19
HETATM   19  C   UNL     1      -8.513   6.987  66.054  1.00  0.00    -0.139 C  
HETATM   20  O   UNL     1      -8.688   6.296  65.052  1.00  0.00    -0.048 OA 
BRANCH  19  21
HETATM   21  C   UNL     1      -9.251   6.648  67.297  1.00  0.00    -0.129 A  
HETATM   22  C   UNL     1      -8.527   6.105  68.371  1.00  0.00    -0.114 A  
HETATM   23  C   UNL     1      -9.179   5.749  69.552  1.00  0.00    -0.150 A  
HETATM   24  C   UNL     1     -10.550   5.951  69.661  1.00  0.00    -0.313 A  
HETATM   25  F   UNL     1     -11.176   5.610  70.794  1.00  0.00    -0.336 F  
HETATM   26  C   UNL     1     -11.281   6.501  68.615  1.00  0.00    -0.302 A  
HETATM   27  C   UNL     1     -10.634   6.851  67.427  1.00  0.00    -0.373 A  
ENDBRANCH  19  21
ENDBRANCH  18  19
ENDBRANCH  17  18
ENDBRANCH  16  17
ENDBRANCH   8  16
TORSDOF 6
ENDMDL
MODEL       65
REMARK 921   NORMALIZED FREE ENERGY PREDICTED BY IDOCK:   -5.80 KCAL/MOL
REMARK 922        TOTAL FREE ENERGY PREDICTED BY IDOCK:   -9.15 KCAL/MOL
REMARK 923 INTER-LIGAND FREE ENERGY PREDICTED BY IDOCK:   -7.36 KCAL/MOL
REMARK 924 INTRA-LIGAND FREE ENERGY PREDICTED BY IDOCK:   -1.79 KCAL/MOL
REMARK 927      BINDING AFFINITY PREDICTED BY RF-SCORE:    0.00 PKD
ROOT
HETATM    1  O   UNL     1     -12.725   8.564  73.022  1.00  0.00    -0.679 OA 
HETATM    2  C   UNL     1     -11.659   8.289  72.096  1.00  0.00    -0.364 C  
HETATM    3  H   UNL     1     -13.527   8.660  72.521  1.00  0.00     0.000 HD 
HETATM    4  C   UNL     1     -10.359   8.133  72.909  1.00  0.00    -0.333 C  
HETATM    5  C   UNL     1     -12.016   6.994  71.336  1.00  0.00    -0.380 C  
HETATM    6  C   UNL     1     -10.348   6.834  73.718  1.00  0.00    -0.368 C  
HETATM    7  C   UNL     1     -11.897   5.750  72.219  1.00  0.00    -0.153 C  
HETATM    8  N   UNL     1     -10.603   5.634  72.908  1.00  0.00    -0.216 NA 
ENDROOT
BRANCH   2   9
HETATM    9  C   UNL     1     -11.561   9.468  71.119  1.00  0.00    -0.439 A  
HETATM   10  C   UNL     1     -12.498  10.519  71.147  1.00  0.00    -0.517 A  
HETATM   11  C   UNL     1     -10.546   9.524  70.145  1.00  0.00    -0.298 A  
HETATM   12  C   UNL     1     -11.434  11.592  69.267  1.00  0.00    -0.305 A  
HETATM   13  C   UNL     1     -12.437  11.570  70.229  1.00  0.00    -0.284 A  
HETATM   14 CL   UNL     1     -11.374  12.874  68.121  1.00  0.00    -0.303 Cl 
HETATM   15  C   UNL     1     -10.483  10.577  69.224  1.00  0.00    -0.258 A  
ENDBRANCH   2   9
BRANCH   8  16
HETATM   16  C   UNL     1      -9.518   5.303  71.967  1.00  0.00    -0.145 C  
BRANCH  16  17
HETATM   17  C   UNL     1      -9.807   4.098  71.067  1.00  0.00    -0.247 C  
BRANCH  17  18
HETATM   18  C   UNL     1      -8.685   3.832  70.063  1.00  0.00    -0.119 C  
BRANCH  18  19
HETATM   19  C   UNL     1      -9.200   3.853  68.639  1.00  0.00    -0.151 C  
HETATM   20  O   UNL     1      -9.364   2.832  67.974  1.00  0.00    -0.193 OA 
BRANCH  19  21
HETATM   21  C   UNL     1      -9.472   5.171  68.010  1.00  0.00    -0.156 A  
HETATM   22  C   UNL     1      -8.400   6.065  67.854  1.00  0.00    -0.116 A  
HETATM   23  C   UNL     1      -8.609   7.323  67.290  1.00  0.00    -0.121 A  
HETATM   24  C   UNL     1      -9.885   7.679  66.870  1.00  0.00    -0.234 A  
HETATM   25  F   UNL     1     -10.086   8.886  66.328  1.00  0.00    -0.328 F  
HETATM   26  C   UNL     1     -10.955   6.802  67.002  1.00  0.00    -0.439 A  
HETATM   27  C   UNL     1     -10.754   5.544  67.574  1.00  0.00    -0.211 A  
ENDBRANCH  19  21
ENDBRANCH  18  19
ENDBRANCH  17  18
ENDBRANCH  16  17
ENDBRANCH   8  16
TORSDOF 6
ENDMDL
MODEL       66
REMARK 921   NORMALIZED FREE ENERGY PREDICTED BY IDOCK:   -5.74 KCAL/MOL
REMARK 922        TOTAL FREE ENERGY PREDICTED BY IDOCK:   -9.06 KCAL/MOL
REMARK 923 INTER-LIGAND FREE ENERGY PREDICTED BY IDOCK:   -7.66 KCAL/MOL
REMARK 924 INTRA-LIGAND FREE ENERGY PREDICTED BY IDOCK:   -1.40 KCAL/MOL
REMARK 927      BINDING AFFINITY PREDICTED BY RF-SCORE:    0.00 PKD
ROOT
HETATM    1  O   UNL     1     -10.519  14.353  69.792  1.00  0.00    -0.443 OA 
HETATM    2  C   UNL     1     -11.078  13.292  68.997  1.00  0.00    -0.244 C  
HETATM    3  H   UNL     1      -9.870  13.971  70.371  1.00  0.00     0.000 HD 
HETATM    4  C   UNL     1     -12.130  13.913  68.059  1.00  0.00    -0.318 C  
HETATM    5  C   UNL     1      -9.926  12.635  68.209  1.00  0.00    -0.229 C  
HETATM    6  C   UNL     1     -11.482  14.754  66.957  1.00  0.00    -0.353 C  
HETATM    7  C   UNL     1      -9.405  13.532  67.084  1.00  0.00    -0.240 C  
HETATM    8  N   UNL     1     -10.461  14.030  66.188  1.00  0.00    -0.290 NA 
ENDROOT
BRANCH   2   9
HETATM    9  C   UNL     1     -11.720  12.273  69.949  1.00  0.00    -0.346 A  
HETATM   10  C   UNL     1     -11.429  10.899  69.851  1.00  0.00    -0.402 A  
HETATM   11  C   UNL     1     -12.642  12.677  70.934  1.00  0.00    -0.338 A  
HETATM   12  C   UNL     1     -12.965  10.389  71.638  1.00  0.00    -0.475 A  
HETATM   13  C   UNL     1     -12.046   9.965  70.686  1.00  0.00    -0.343 A  
HETATM   14 CL   UNL     1     -13.744   9.236  72.651  1.00  0.00    -0.464 Cl 
HETATM   15  C   UNL     1     -13.261  11.742  71.771  1.00  0.00    -0.434 A  
ENDBRANCH   2   9
BRANCH   8  16
HETATM   16  C   UNL     1     -11.000  12.953  65.338  1.00  0.00    -0.278 C  
BRANCH  16  17
HETATM   17  C   UNL     1      -9.957  11.935  64.870  1.00  0.00    -0.269 C  
BRANCH  17  18
HETATM   18  C   UNL     1     -10.411  10.490  65.080  1.00  0.00    -0.310 C  
BRANCH  18  19
HETATM   19  C   UNL     1      -9.246   9.589  65.436  1.00  0.00    -0.247 C  
HETATM   20  O   UNL     1      -8.101   9.789  65.034  1.00  0.00    -0.122 OA 
BRANCH  19  21
HETATM   21  C   UNL     1      -9.516   8.389  66.268  1.00  0.00    -0.292 A  
HETATM   22  C   UNL     1      -8.795   7.216  65.993  1.00  0.00    -0.154 A  
HETATM   23  C   UNL     1      -9.029   6.056  66.732  1.00  0.00    -0.122 A  
HETATM   24  C   UNL     1      -9.973   6.076  67.752  1.00  0.00    -0.131 A  
HETATM   25  F   UNL     1     -10.198   4.964  68.462  1.00  0.00    -0.232 F  
HETATM   26  C   UNL     1     -10.685   7.232  68.049  1.00  0.00    -0.209 A  
HETATM   27  C   UNL     1     -10.461   8.394  67.306  1.00  0.00    -0.373 A  
ENDBRANCH  19  21
ENDBRANCH  18  19
ENDBRANCH  17  18
ENDBRANCH  16  17
ENDBRANCH   8  16
TORSDOF 6
ENDMDL
MODEL       67
REMARK 921   NORMALIZED FREE ENERGY PREDICTED BY IDOCK:   -5.74 KCAL/MOL
REMARK 922        TOTAL FREE ENERGY PREDICTED BY IDOCK:   -9.06 KCAL/MOL
REMARK 923 INTER-LIGAND FREE ENERGY PREDICTED BY IDOCK:   -8.38 KCAL/MOL
REMARK 924 INTRA-LIGAND FREE ENERGY PREDICTED BY IDOCK:   -0.67 KCAL/MOL
REMARK 927      BINDING AFFINITY PREDICTED BY RF-SCORE:    0.00 PKD
ROOT
HETATM    1  O   UNL     1     -12.313  14.047  65.521  1.00  0.00    -0.430 OA 
HETATM    2  C   UNL     1     -11.026  14.110  66.162  1.00  0.00    -0.309 C  
HETATM    3  H   UNL     1     -12.274  14.586  64.739  1.00  0.00     0.000 HD 
HETATM    4  C   UNL     1     -11.090  13.237  67.430  1.00  0.00    -0.300 C  
HETATM    5  C   UNL     1      -9.974  13.589  65.162  1.00  0.00    -0.201 C  
HETATM    6  C   UNL     1     -11.143  11.746  67.090  1.00  0.00    -0.296 C  
HETATM    7  C   UNL     1     -10.068  12.075  64.955  1.00  0.00    -0.260 C  
HETATM    8  N   UNL     1     -10.053  11.305  66.207  1.00  0.00    -0.222 NA 
ENDROOT
BRANCH   2   9
HETATM    9  C   UNL     1     -10.742  15.576  66.516  1.00  0.00    -0.304 A  
HETATM   10  C   UNL     1     -10.597  16.554  65.514  1.00  0.00    -0.310 A  
HETATM   11  C   UNL     1     -10.590  15.986  67.855  1.00  0.00    -0.301 A  
HETATM   12  C   UNL     1     -10.133  18.254  67.160  1.00  0.00    -0.356 A  
HETATM   13  C   UNL     1     -10.294  17.880  65.831  1.00  0.00    -0.259 A  
HETATM   14 CL   UNL     1      -9.735  19.882  67.550  1.00  0.00    -0.490 Cl 
HETATM   15  C   UNL     1     -10.286  17.314  68.175  1.00  0.00    -0.357 A  
ENDBRANCH   2   9
BRANCH   8  16
HETATM   16  C   UNL     1      -8.722  11.328  66.840  1.00  0.00    -0.157 C  
BRANCH  16  17
HETATM   17  C   UNL     1      -8.741  11.123  68.358  1.00  0.00    -0.157 C  
BRANCH  17  18
HETATM   18  C   UNL     1      -9.033   9.675  68.752  1.00  0.00    -0.134 C  
BRANCH  18  19
HETATM   19  C   UNL     1      -9.100   9.513  70.257  1.00  0.00    -0.253 C  
HETATM   20  O   UNL     1      -8.098   9.465  70.967  1.00  0.00    -0.300 OA 
BRANCH  19  21
HETATM   21  C   UNL     1     -10.436   9.359  70.887  1.00  0.00    -0.381 A  
HETATM   22  C   UNL     1     -11.429  10.301  70.574  1.00  0.00    -0.427 A  
HETATM   23  C   UNL     1     -12.693  10.212  71.158  1.00  0.00    -0.494 A  
HETATM   24  C   UNL     1     -12.965   9.174  72.042  1.00  0.00    -0.424 A  
HETATM   25  F   UNL     1     -14.177   9.088  72.602  1.00  0.00    -0.485 F  
HETATM   26  C   UNL     1     -11.999   8.224  72.352  1.00  0.00    -0.447 A  
HETATM   27  C   UNL     1     -10.729   8.313  71.777  1.00  0.00    -0.332 A  
ENDBRANCH  19  21
ENDBRANCH  18  19
ENDBRANCH  17  18
ENDBRANCH  16  17
ENDBRANCH   8  16
TORSDOF 6
ENDMDL
MODEL       68
REMARK 921   NORMALIZED FREE ENERGY PREDICTED BY IDOCK:   -5.73 KCAL/MOL
REMARK 922        TOTAL FREE ENERGY PREDICTED BY IDOCK:   -9.05 KCAL/MOL
REMARK 923 INTER-LIGAND FREE ENERGY PREDICTED BY IDOCK:   -7.55 KCAL/MOL
REMARK 924 INTRA-LIGAND FREE ENERGY PREDICTED BY IDOCK:   -1.50 KCAL/MOL
REMARK 927      BINDING AFFINITY PREDICTED BY RF-SCORE:    0.00 PKD
ROOT
HETATM    1  O   UNL     1     -12.531  14.514  67.242  1.00  0.00    -0.578 OA 
HETATM    2  C   UNL     1     -11.342  14.556  66.433  1.00  0.00    -0.349 C  
HETATM    3  H   UNL     1     -13.022  15.312  67.079  1.00  0.00     0.000 HD 
HETATM    4  C   UNL     1     -10.548  13.263  66.697  1.00  0.00    -0.283 C  
HETATM    5  C   UNL     1     -11.778  14.668  64.957  1.00  0.00    -0.385 C  
HETATM    6  C   UNL     1     -11.236  12.040  66.089  1.00  0.00    -0.343 C  
HETATM    7  C   UNL     1     -12.383  13.365  64.430  1.00  0.00    -0.341 C  
HETATM    8  N   UNL     1     -11.535  12.184  64.657  1.00  0.00    -0.327 NA 
ENDROOT
BRANCH   2   9
HETATM    9  C   UNL     1     -10.533  15.795  66.842  1.00  0.00    -0.315 A  
HETATM   10  C   UNL     1      -9.425  16.225  66.088  1.00  0.00    -0.373 A  
HETATM   11  C   UNL     1     -10.856  16.525  68.002  1.00  0.00    -0.337 A  
HETATM   12  C   UNL     1      -8.992  18.018  67.642  1.00  0.00    -0.251 A  
HETATM   13  C   UNL     1      -8.660  17.325  66.483  1.00  0.00    -0.298 A  
HETATM   14 CL   UNL     1      -8.035  19.357  68.143  1.00  0.00    -0.342 Cl 
HETATM   15  C   UNL     1     -10.091  17.627  68.401  1.00  0.00    -0.368 A  
ENDBRANCH   2   9
BRANCH   8  16
HETATM   16  C   UNL     1     -10.341  12.202  63.793  1.00  0.00    -0.437 C  
BRANCH  16  17
HETATM   17  C   UNL     1      -9.805  10.815  63.428  1.00  0.00    -0.400 C  
BRANCH  17  18
HETATM   18  C   UNL     1      -8.442  10.528  64.060  1.00  0.00    -0.118 C  
BRANCH  18  19
HETATM   19  C   UNL     1      -8.467   9.252  64.875  1.00  0.00    -0.168 C  
HETATM   20  O   UNL     1      -8.219   8.148  64.394  1.00  0.00    -0.154 OA 
BRANCH  19  21
HETATM   21  C   UNL     1      -8.855   9.341  66.306  1.00  0.00    -0.172 A  
HETATM   22  C   UNL     1      -9.895   8.517  66.764  1.00  0.00    -0.327 A  
HETATM   23  C   UNL     1     -10.311   8.581  68.094  1.00  0.00    -0.258 A  
HETATM   24  C   UNL     1      -9.675   9.458  68.966  1.00  0.00    -0.166 A  
HETATM   25  F   UNL     1     -10.072   9.520  70.243  1.00  0.00    -0.219 F  
HETATM   26  C   UNL     1      -8.633  10.270  68.534  1.00  0.00    -0.126 A  
HETATM   27  C   UNL     1      -8.219  10.217  67.201  1.00  0.00    -0.121 A  
ENDBRANCH  19  21
ENDBRANCH  18  19
ENDBRANCH  17  18
ENDBRANCH  16  17
ENDBRANCH   8  16
TORSDOF 6
ENDMDL
MODEL       69
REMARK 921   NORMALIZED FREE ENERGY PREDICTED BY IDOCK:   -5.72 KCAL/MOL
REMARK 922        TOTAL FREE ENERGY PREDICTED BY IDOCK:   -9.04 KCAL/MOL
REMARK 923 INTER-LIGAND FREE ENERGY PREDICTED BY IDOCK:   -7.78 KCAL/MOL
REMARK 924 INTRA-LIGAND FREE ENERGY PREDICTED BY IDOCK:   -1.26 KCAL/MOL
REMARK 927      BINDING AFFINITY PREDICTED BY RF-SCORE:    0.00 PKD
ROOT
HETATM    1  O   UNL     1      -7.796  10.166  69.543  1.00  0.00    -0.131 OA 
HETATM    2  C   UNL     1      -8.949   9.698  68.820  1.00  0.00    -0.134 C  
HETATM    3  H   UNL     1      -7.266   9.410  69.766  1.00  0.00     0.000 HD 
HETATM    4  C   UNL     1      -9.807  10.925  68.459  1.00  0.00    -0.188 C  
HETATM    5  C   UNL     1      -8.449   8.960  67.561  1.00  0.00    -0.116 C  
HETATM    6  C   UNL     1      -9.147  11.781  67.376  1.00  0.00    -0.175 C  
HETATM    7  C   UNL     1      -7.879   9.919  66.513  1.00  0.00    -0.110 C  
HETATM    8  N   UNL     1      -8.784  11.026  66.169  1.00  0.00    -0.181 NA 
ENDROOT
BRANCH   2   9
HETATM    9  C   UNL     1      -9.721   8.732  69.730  1.00  0.00    -0.179 A  
HETATM   10  C   UNL     1      -9.846   8.974  71.111  1.00  0.00    -0.371 A  
HETATM   11  C   UNL     1     -10.305   7.558  69.216  1.00  0.00    -0.209 A  
HETATM   12  C   UNL     1     -11.063   6.914  71.417  1.00  0.00    -0.250 A  
HETATM   13  C   UNL     1     -10.510   8.073  71.948  1.00  0.00    -0.296 A  
HETATM   14 CL   UNL     1     -11.858   5.792  72.452  1.00  0.00    -0.304 Cl 
HETATM   15  C   UNL     1     -10.969   6.655  70.053  1.00  0.00    -0.363 A  
ENDBRANCH   2   9
BRANCH   8  16
HETATM   16  C   UNL     1      -9.941  10.554  65.386  1.00  0.00    -0.289 C  
BRANCH  16  17
HETATM   17  C   UNL     1     -10.365  11.497  64.256  1.00  0.00    -0.376 C  
BRANCH  17  18
HETATM   18  C   UNL     1     -11.846  11.869  64.327  1.00  0.00    -0.367 C  
BRANCH  18  19
HETATM   19  C   UNL     1     -12.052  13.360  64.153  1.00  0.00    -0.433 C  
HETATM   20  O   UNL     1     -12.518  13.854  63.129  1.00  0.00    -0.766 OA 
BRANCH  19  21
HETATM   21  C   UNL     1     -11.625  14.260  65.255  1.00  0.00    -0.348 A  
HETATM   22  C   UNL     1     -12.019  13.939  66.564  1.00  0.00    -0.470 A  
HETATM   23  C   UNL     1     -11.662  14.766  67.629  1.00  0.00    -0.364 A  
HETATM   24  C   UNL     1     -10.901  15.904  67.385  1.00  0.00    -0.291 A  
HETATM   25  F   UNL     1     -10.558  16.697  68.407  1.00  0.00    -0.272 F  
HETATM   26  C   UNL     1     -10.489  16.229  66.098  1.00  0.00    -0.330 A  
HETATM   27  C   UNL     1     -10.851  15.410  65.026  1.00  0.00    -0.462 A  
ENDBRANCH  19  21
ENDBRANCH  18  19
ENDBRANCH  17  18
ENDBRANCH  16  17
ENDBRANCH   8  16
TORSDOF 6
ENDMDL
MODEL       70
REMARK 921   NORMALIZED FREE ENERGY PREDICTED BY IDOCK:   -5.71 KCAL/MOL
REMARK 922        TOTAL FREE ENERGY PREDICTED BY IDOCK:   -9.03 KCAL/MOL
REMARK 923 INTER-LIGAND FREE ENERGY PREDICTED BY IDOCK:   -8.16 KCAL/MOL
REMARK 924 INTRA-LIGAND FREE ENERGY PREDICTED BY IDOCK:   -0.87 KCAL/MOL
REMARK 927      BINDING AFFINITY PREDICTED BY RF-SCORE:    0.00 PKD
ROOT
HETATM    1  O   UNL     1     -11.489  15.072  64.540  1.00  0.00    -0.555 OA 
HETATM    2  C   UNL     1     -10.932  14.671  65.805  1.00  0.00    -0.330 C  
HETATM    3  H   UNL     1     -10.822  15.561  64.072  1.00  0.00     0.000 HD 
HETATM    4  C   UNL     1     -12.013  13.878  66.564  1.00  0.00    -0.470 C  
HETATM    5  C   UNL     1      -9.685  13.810  65.521  1.00  0.00    -0.097 C  
HETATM    6  C   UNL     1     -12.254  12.504  65.935  1.00  0.00    -0.238 C  
HETATM    7  C   UNL     1     -10.045  12.429  64.967  1.00  0.00    -0.247 C  
HETATM    8  N   UNL     1     -11.031  11.703  65.783  1.00  0.00    -0.292 NA 
ENDROOT
BRANCH   2   9
HETATM    9  C   UNL     1     -10.538  15.940  66.574  1.00  0.00    -0.297 A  
HETATM   10  C   UNL     1      -9.696  16.910  65.999  1.00  0.00    -0.260 A  
HETATM   11  C   UNL     1     -10.984  16.161  67.892  1.00  0.00    -0.318 A  
HETATM   12  C   UNL     1      -9.740  18.228  68.017  1.00  0.00    -0.312 A  
HETATM   13  C   UNL     1      -9.298  18.043  66.713  1.00  0.00    -0.287 A  
HETATM   14 CL   UNL     1      -9.231  19.611  68.906  1.00  0.00    -0.364 Cl 
HETATM   15  C   UNL     1     -10.587  17.295  68.609  1.00  0.00    -0.329 A  
ENDBRANCH   2   9
BRANCH   8  16
HETATM   16  C   UNL     1     -10.447  11.250  67.058  1.00  0.00    -0.234 C  
BRANCH  16  17
HETATM   17  C   UNL     1     -11.472  10.733  68.072  1.00  0.00    -0.333 C  
BRANCH  17  18
HETATM   18  C   UNL     1     -11.132  11.136  69.507  1.00  0.00    -0.311 C  
BRANCH  18  19
HETATM   19  C   UNL     1     -11.896  10.300  70.514  1.00  0.00    -0.329 C  
HETATM   20  O   UNL     1     -13.094  10.459  70.740  1.00  0.00    -0.385 OA 
BRANCH  19  21
HETATM   21  C   UNL     1     -11.148   9.279  71.290  1.00  0.00    -0.427 A  
HETATM   22  C   UNL     1     -11.870   8.448  72.161  1.00  0.00    -0.441 A  
HETATM   23  C   UNL     1     -11.208   7.489  72.928  1.00  0.00    -0.396 A  
HETATM   24  C   UNL     1      -9.830   7.353  72.811  1.00  0.00    -0.189 A  
HETATM   25  F   UNL     1      -9.195   6.433  73.547  1.00  0.00    -0.130 F  
HETATM   26  C   UNL     1      -9.101   8.157  71.943  1.00  0.00    -0.230 A  
HETATM   27  C   UNL     1      -9.756   9.125  71.178  1.00  0.00    -0.360 A  
ENDBRANCH  19  21
ENDBRANCH  18  19
ENDBRANCH  17  18
ENDBRANCH  16  17
ENDBRANCH   8  16
TORSDOF 6
ENDMDL
MODEL       71
REMARK 921   NORMALIZED FREE ENERGY PREDICTED BY IDOCK:   -5.70 KCAL/MOL
REMARK 922        TOTAL FREE ENERGY PREDICTED BY IDOCK:   -9.01 KCAL/MOL
REMARK 923 INTER-LIGAND FREE ENERGY PREDICTED BY IDOCK:   -8.34 KCAL/MOL
REMARK 924 INTRA-LIGAND FREE ENERGY PREDICTED BY IDOCK:   -0.68 KCAL/MOL
REMARK 927      BINDING AFFINITY PREDICTED BY RF-SCORE:    0.00 PKD
ROOT
HETATM    1  O   UNL     1     -11.734   8.055  70.093  1.00  0.00    -0.478 OA 
HETATM    2  C   UNL     1     -10.850   9.175  70.284  1.00  0.00    -0.246 C  
HETATM    3  H   UNL     1     -12.076   7.808  70.944  1.00  0.00     0.000 HD 
HETATM    4  C   UNL     1     -10.296   9.576  68.904  1.00  0.00    -0.225 C  
HETATM    5  C   UNL     1     -11.667  10.316  70.925  1.00  0.00    -0.472 C  
HETATM    6  C   UNL     1     -11.367  10.232  68.030  1.00  0.00    -0.146 C  
HETATM    7  C   UNL     1     -12.652  10.950  69.942  1.00  0.00    -0.144 C  
HETATM    8  N   UNL     1     -12.036  11.371  68.674  1.00  0.00    -0.517 NA 
ENDROOT
BRANCH   2   9
HETATM    9  C   UNL     1      -9.722   8.735  71.226  1.00  0.00    -0.335 A  
HETATM   10  C   UNL     1      -9.994   8.292  72.534  1.00  0.00    -0.373 A  
HETATM   11  C   UNL     1      -8.374   8.785  70.821  1.00  0.00    -0.185 A  
HETATM   12  C   UNL     1      -7.642   8.010  72.988  1.00  0.00    -0.132 A  
HETATM   13  C   UNL     1      -8.965   7.934  73.409  1.00  0.00    -0.339 A  
HETATM   14 CL   UNL     1      -6.373   7.593  74.073  1.00  0.00    -0.076 Cl 
HETATM   15  C   UNL     1      -7.341   8.428  71.695  1.00  0.00    -0.110 A  
ENDBRANCH   2   9
BRANCH   8  16
HETATM   16  C   UNL     1     -11.169  12.549  68.860  1.00  0.00    -0.281 C  
BRANCH  16  17
HETATM   17  C   UNL     1     -11.258  13.583  67.734  1.00  0.00    -0.308 C  
BRANCH  17  18
HETATM   18  C   UNL     1     -10.459  14.851  68.036  1.00  0.00    -0.246 C  
BRANCH  18  19
HETATM   19  C   UNL     1     -10.455  15.798  66.854  1.00  0.00    -0.315 C  
HETATM   20  O   UNL     1     -10.539  15.412  65.690  1.00  0.00    -0.318 OA 
BRANCH  19  21
HETATM   21  C   UNL     1     -10.293  17.250  67.119  1.00  0.00    -0.321 A  
HETATM   22  C   UNL     1     -10.358  18.135  66.031  1.00  0.00    -0.360 A  
HETATM   23  C   UNL     1     -10.190  19.506  66.226  1.00  0.00    -0.582 A  
HETATM   24  C   UNL     1      -9.972  19.990  67.511  1.00  0.00    -0.427 A  
HETATM   25  F   UNL     1      -9.811  21.305  67.699  1.00  0.00    -0.540 F  
HETATM   26  C   UNL     1      -9.920  19.131  68.603  1.00  0.00    -0.486 A  
HETATM   27  C   UNL     1     -10.079  17.757  68.412  1.00  0.00    -0.376 A  
ENDBRANCH  19  21
ENDBRANCH  18  19
ENDBRANCH  17  18
ENDBRANCH  16  17
ENDBRANCH   8  16
TORSDOF 6
ENDMDL
MODEL       72
REMARK 921   NORMALIZED FREE ENERGY PREDICTED BY IDOCK:   -5.68 KCAL/MOL
REMARK 922        TOTAL FREE ENERGY PREDICTED BY IDOCK:   -8.98 KCAL/MOL
REMARK 923 INTER-LIGAND FREE ENERGY PREDICTED BY IDOCK:   -8.13 KCAL/MOL
REMARK 924 INTRA-LIGAND FREE ENERGY PREDICTED BY IDOCK:   -0.85 KCAL/MOL
REMARK 927      BINDING AFFINITY PREDICTED BY RF-SCORE:    0.00 PKD
ROOT
HETATM    1  O   UNL     1     -10.056   6.937  71.732  1.00  0.00    -0.186 OA 
HETATM    2  C   UNL     1     -10.455   7.563  70.499  1.00  0.00    -0.219 C  
HETATM    3  H   UNL     1     -10.844   6.688  72.200  1.00  0.00     0.000 HD 
HETATM    4  C   UNL     1      -9.176   7.967  69.742  1.00  0.00    -0.149 C  
HETATM    5  C   UNL     1     -11.293   6.541  69.702  1.00  0.00    -0.443 C  
HETATM    6  C   UNL     1      -8.433   6.748  69.191  1.00  0.00    -0.128 C  
HETATM    7  C   UNL     1     -10.438   5.407  69.132  1.00  0.00    -0.207 C  
HETATM    8  N   UNL     1      -9.274   5.872  68.363  1.00  0.00    -0.117 NA 
ENDROOT
BRANCH   2   9
HETATM    9  C   UNL     1     -11.305   8.793  70.844  1.00  0.00    -0.322 A  
HETATM   10  C   UNL     1     -11.114  10.021  70.183  1.00  0.00    -0.371 A  
HETATM   11  C   UNL     1     -12.287   8.740  71.852  1.00  0.00    -0.429 A  
HETATM   12  C   UNL     1     -12.806  11.078  71.537  1.00  0.00    -0.450 A  
HETATM   13  C   UNL     1     -11.856  11.154  70.526  1.00  0.00    -0.448 A  
HETATM   14 CL   UNL     1     -13.703  12.480  71.977  1.00  0.00    -0.368 Cl 
HETATM   15  C   UNL     1     -13.031   9.874  72.198  1.00  0.00    -0.471 A  
ENDBRANCH   2   9
BRANCH   8  16
HETATM   16  C   UNL     1      -9.679   6.468  67.077  1.00  0.00    -0.151 C  
BRANCH  16  17
HETATM   17  C   UNL     1      -9.027   7.820  66.775  1.00  0.00    -0.163 C  
BRANCH  17  18
HETATM   18  C   UNL     1      -9.937   8.742  65.963  1.00  0.00    -0.153 C  
BRANCH  18  19
HETATM   19  C   UNL     1      -9.776  10.189  66.384  1.00  0.00    -0.205 C  
HETATM   20  O   UNL     1      -9.071  10.534  67.330  1.00  0.00    -0.142 OA 
BRANCH  19  21
HETATM   21  C   UNL     1     -10.545  11.223  65.646  1.00  0.00    -0.303 A  
HETATM   22  C   UNL     1     -10.310  11.368  64.270  1.00  0.00    -0.383 A  
HETATM   23  C   UNL     1     -10.991  12.341  63.538  1.00  0.00    -0.521 A  
HETATM   24  C   UNL     1     -11.916  13.156  64.180  1.00  0.00    -0.436 A  
HETATM   25  F   UNL     1     -12.570  14.089  63.479  1.00  0.00    -0.435 F  
HETATM   26  C   UNL     1     -12.173  13.017  65.539  1.00  0.00    -0.521 A  
HETATM   27  C   UNL     1     -11.487  12.050  66.279  1.00  0.00    -0.408 A  
ENDBRANCH  19  21
ENDBRANCH  18  19
ENDBRANCH  17  18
ENDBRANCH  16  17
ENDBRANCH   8  16
TORSDOF 6
ENDMDL
MODEL       73
REMARK 921   NORMALIZED FREE ENERGY PREDICTED BY IDOCK:   -5.61 KCAL/MOL
REMARK 922        TOTAL FREE ENERGY PREDICTED BY IDOCK:   -8.89 KCAL/MOL
REMARK 923 INTER-LIGAND FREE ENERGY PREDICTED BY IDOCK:   -6.47 KCAL/MOL
REMARK 924 INTRA-LIGAND FREE ENERGY PREDICTED BY IDOCK:   -2.42 KCAL/MOL
REMARK 927      BINDING AFFINITY PREDICTED BY RF-SCORE:    0.00 PKD
ROOT
HETATM    1  O   UNL     1     -12.686  14.127  66.251  1.00  0.00    -0.514 OA 
HETATM    2  C   UNL     1     -11.432  14.147  66.955  1.00  0.00    -0.352 C  
HETATM    3  H   UNL     1     -12.553  14.547  65.409  1.00  0.00     0.000 HD 
HETATM    4  C   UNL     1     -11.648  13.466  68.320  1.00  0.00    -0.379 C  
HETATM    5  C   UNL     1     -10.396  13.391  66.097  1.00  0.00    -0.295 C  
HETATM    6  C   UNL     1     -11.845  11.955  68.175  1.00  0.00    -0.270 C  
HETATM    7  C   UNL     1     -10.643  11.881  66.084  1.00  0.00    -0.258 C  
HETATM    8  N   UNL     1     -10.770  11.291  67.426  1.00  0.00    -0.227 NA 
ENDROOT
BRANCH   2   9
HETATM    9  C   UNL     1     -11.008  15.612  67.130  1.00  0.00    -0.270 A  
HETATM   10  C   UNL     1     -10.648  16.405  66.024  1.00  0.00    -0.275 A  
HETATM   11  C   UNL     1     -10.939  16.202  68.407  1.00  0.00    -0.341 A  
HETATM   12  C   UNL     1     -10.145  18.277  67.459  1.00  0.00    -0.350 A  
HETATM   13  C   UNL     1     -10.219  17.725  66.186  1.00  0.00    -0.339 A  
HETATM   14 CL   UNL     1      -9.592  19.894  67.661  1.00  0.00    -0.468 Cl 
HETATM   15  C   UNL     1     -10.509  17.524  68.571  1.00  0.00    -0.361 A  
ENDBRANCH   2   9
BRANCH   8  16
HETATM   16  C   UNL     1      -9.475  11.266  68.129  1.00  0.00    -0.184 C  
BRANCH  16  17
HETATM   17  C   UNL     1      -8.343  10.595  67.345  1.00  0.00    -0.119 C  
BRANCH  17  18
HETATM   18  C   UNL     1      -7.156  11.531  67.112  1.00  0.00    -0.140 C  
BRANCH  18  19
HETATM   19  C   UNL     1      -6.741  12.229  68.392  1.00  0.00    -0.064 C  
HETATM   20  O   UNL     1      -6.364  11.620  69.391  1.00  0.00    -0.083 OA 
BRANCH  19  21
HETATM   21  C   UNL     1      -6.844  13.709  68.448  1.00  0.00    -0.102 A  
HETATM   22  C   UNL     1      -6.540  14.349  69.661  1.00  0.00    -0.147 A  
HETATM   23  C   UNL     1      -6.644  15.736  69.770  1.00  0.00    -0.154 A  
HETATM   24  C   UNL     1      -7.035  16.480  68.663  1.00  0.00    -0.167 A  
HETATM   25  F   UNL     1      -7.134  17.811  68.767  1.00  0.00    -0.222 F  
HETATM   26  C   UNL     1      -7.325  15.866  67.451  1.00  0.00    -0.224 A  
HETATM   27  C   UNL     1      -7.232  14.476  67.338  1.00  0.00    -0.165 A  
ENDBRANCH  19  21
ENDBRANCH  18  19
ENDBRANCH  17  18
ENDBRANCH  16  17
ENDBRANCH   8  16
TORSDOF 6
ENDMDL
MODEL       74
REMARK 921   NORMALIZED FREE ENERGY PREDICTED BY IDOCK:   -5.61 KCAL/MOL
REMARK 922        TOTAL FREE ENERGY PREDICTED BY IDOCK:   -8.88 KCAL/MOL
REMARK 923 INTER-LIGAND FREE ENERGY PREDICTED BY IDOCK:   -8.13 KCAL/MOL
REMARK 924 INTRA-LIGAND FREE ENERGY PREDICTED BY IDOCK:   -0.75 KCAL/MOL
REMARK 927      BINDING AFFINITY PREDICTED BY RF-SCORE:    0.00 PKD
ROOT
HETATM    1  O   UNL     1     -10.586   4.740  71.412  1.00  0.00    -0.113 OA 
HETATM    2  C   UNL     1     -10.592   5.918  70.586  1.00  0.00    -0.268 C  
HETATM    3  H   UNL     1      -9.712   4.368  71.381  1.00  0.00     0.000 HD 
HETATM    4  C   UNL     1     -12.009   6.520  70.637  1.00  0.00    -0.345 C  
HETATM    5  C   UNL     1      -9.537   6.893  71.147  1.00  0.00    -0.167 C  
HETATM    6  C   UNL     1     -12.310   7.151  71.997  1.00  0.00    -0.263 C  
HETATM    7  C   UNL     1      -9.973   7.524  72.471  1.00  0.00    -0.198 C  
HETATM    8  N   UNL     1     -11.308   8.140  72.422  1.00  0.00    -0.365 NA 
ENDROOT
BRANCH   2   9
HETATM    9  C   UNL     1     -10.221   5.498  69.157  1.00  0.00    -0.309 A  
HETATM   10  C   UNL     1     -10.885   6.042  68.041  1.00  0.00    -0.374 A  
HETATM   11  C   UNL     1      -9.223   4.534  68.917  1.00  0.00    -0.190 A  
HETATM   12  C   UNL     1      -9.602   4.663  66.535  1.00  0.00    -0.182 A  
HETATM   13  C   UNL     1     -10.580   5.629  66.742  1.00  0.00    -0.372 A  
HETATM   14 CL   UNL     1      -9.243   4.135  64.937  1.00  0.00    -0.145 Cl 
HETATM   15  C   UNL     1      -8.916   4.118  67.617  1.00  0.00    -0.141 A  
ENDBRANCH   2   9
BRANCH   8  16
HETATM   16  C   UNL     1     -11.304   9.374  71.615  1.00  0.00    -0.382 C  
BRANCH  16  17
HETATM   17  C   UNL     1     -12.566  10.228  71.763  1.00  0.00    -0.488 C  
BRANCH  17  18
HETATM   18  C   UNL     1     -12.629  11.364  70.742  1.00  0.00    -0.409 C  
BRANCH  18  19
HETATM   19  C   UNL     1     -12.875  12.700  71.413  1.00  0.00    -0.261 C  
HETATM   20  O   UNL     1     -13.612  12.831  72.388  1.00  0.00    -0.565 OA 
BRANCH  19  21
HETATM   21  C   UNL     1     -12.232  13.906  70.832  1.00  0.00    -0.436 A  
HETATM   22  C   UNL     1     -11.912  14.967  71.694  1.00  0.00    -0.429 A  
HETATM   23  C   UNL     1     -11.328  16.130  71.192  1.00  0.00    -0.368 A  
HETATM   24  C   UNL     1     -11.051  16.223  69.832  1.00  0.00    -0.347 A  
HETATM   25  F   UNL     1     -10.490  17.339  69.350  1.00  0.00    -0.320 F  
HETATM   26  C   UNL     1     -11.347  15.177  68.967  1.00  0.00    -0.307 A  
HETATM   27  C   UNL     1     -11.940  14.014  69.462  1.00  0.00    -0.390 A  
ENDBRANCH  19  21
ENDBRANCH  18  19
ENDBRANCH  17  18
ENDBRANCH  16  17
ENDBRANCH   8  16
TORSDOF 6
ENDMDL
MODEL       75
REMARK 921   NORMALIZED FREE ENERGY PREDICTED BY IDOCK:   -5.59 KCAL/MOL
REMARK 922        TOTAL FREE ENERGY PREDICTED BY IDOCK:   -8.86 KCAL/MOL
REMARK 923 INTER-LIGAND FREE ENERGY PREDICTED BY IDOCK:   -7.90 KCAL/MOL
REMARK 924 INTRA-LIGAND FREE ENERGY PREDICTED BY IDOCK:   -0.96 KCAL/MOL
REMARK 927      BINDING AFFINITY PREDICTED BY RF-SCORE:    0.00 PKD
ROOT
HETATM    1  O   UNL     1     -12.567  14.748  68.499  1.00  0.00    -0.469 OA 
HETATM    2  C   UNL     1     -11.339  14.752  67.750  1.00  0.00    -0.330 C  
HETATM    3  H   UNL     1     -13.194  15.288  68.032  1.00  0.00     0.000 HD 
HETATM    4  C   UNL     1     -10.323  13.877  68.508  1.00  0.00    -0.244 C  
HETATM    5  C   UNL     1     -11.641  14.190  66.345  1.00  0.00    -0.380 C  
HETATM    6  C   UNL     1     -10.679  12.391  68.423  1.00  0.00    -0.235 C  
HETATM    7  C   UNL     1     -11.907  12.683  66.366  1.00  0.00    -0.402 C  
HETATM    8  N   UNL     1     -10.859  11.907  67.046  1.00  0.00    -0.246 NA 
ENDROOT
BRANCH   2   9
HETATM    9  C   UNL     1     -10.849  16.203  67.647  1.00  0.00    -0.297 A  
HETATM   10  C   UNL     1     -10.515  16.774  66.405  1.00  0.00    -0.269 A  
HETATM   11  C   UNL     1     -10.693  17.002  68.797  1.00  0.00    -0.313 A  
HETATM   12  C   UNL     1      -9.866  18.840  67.467  1.00  0.00    -0.320 A  
HETATM   13  C   UNL     1     -10.027  18.080  66.314  1.00  0.00    -0.338 A  
HETATM   14 CL   UNL     1      -9.241  20.440  67.358  1.00  0.00    -0.510 Cl 
HETATM   15  C   UNL     1     -10.203  18.309  68.708  1.00  0.00    -0.342 A  
ENDBRANCH   2   9
BRANCH   8  16
HETATM   16  C   UNL     1      -9.615  11.869  66.256  1.00  0.00    -0.229 C  
BRANCH  16  17
HETATM   17  C   UNL     1      -8.974  10.483  66.154  1.00  0.00    -0.178 C  
BRANCH  17  18
HETATM   18  C   UNL     1     -10.008   9.368  65.999  1.00  0.00    -0.352 C  
BRANCH  18  19
HETATM   19  C   UNL     1      -9.535   8.079  66.640  1.00  0.00    -0.212 C  
HETATM   20  O   UNL     1      -8.669   7.364  66.140  1.00  0.00    -0.145 OA 
BRANCH  19  21
HETATM   21  C   UNL     1     -10.182   7.645  67.905  1.00  0.00    -0.250 A  
HETATM   22  C   UNL     1     -10.282   8.575  68.952  1.00  0.00    -0.221 A  
HETATM   23  C   UNL     1     -10.861   8.208  70.166  1.00  0.00    -0.241 A  
HETATM   24  C   UNL     1     -11.353   6.918  70.326  1.00  0.00    -0.324 A  
HETATM   25  F   UNL     1     -11.910   6.565  71.490  1.00  0.00    -0.324 F  
HETATM   26  C   UNL     1     -11.277   5.988  69.295  1.00  0.00    -0.367 A  
HETATM   27  C   UNL     1     -10.690   6.348  68.079  1.00  0.00    -0.362 A  
ENDBRANCH  19  21
ENDBRANCH  18  19
ENDBRANCH  17  18
ENDBRANCH  16  17
ENDBRANCH   8  16
TORSDOF 6
ENDMDL
MODEL       76
REMARK 921   NORMALIZED FREE ENERGY PREDICTED BY IDOCK:   -5.58 KCAL/MOL
REMARK 922        TOTAL FREE ENERGY PREDICTED BY IDOCK:   -8.85 KCAL/MOL
REMARK 923 INTER-LIGAND FREE ENERGY PREDICTED BY IDOCK:   -7.93 KCAL/MOL
REMARK 924 INTRA-LIGAND FREE ENERGY PREDICTED BY IDOCK:   -0.92 KCAL/MOL
REMARK 927      BINDING AFFINITY PREDICTED BY RF-SCORE:    0.00 PKD
ROOT
HETATM    1  O   UNL     1     -10.835   8.542  67.052  1.00  0.00    -0.371 OA 
HETATM    2  C   UNL     1     -10.405   9.554  67.980  1.00  0.00    -0.214 C  
HETATM    3  H   UNL     1     -11.731   8.313  67.267  1.00  0.00     0.000 HD 
HETATM    4  C   UNL     1      -8.951   9.925  67.631  1.00  0.00    -0.133 C  
HETATM    5  C   UNL     1     -11.353  10.762  67.834  1.00  0.00    -0.372 C  
HETATM    6  C   UNL     1      -8.865  10.713  66.323  1.00  0.00    -0.161 C  
HETATM    7  C   UNL     1     -11.129  11.523  66.526  1.00  0.00    -0.282 C  
HETATM    8  N   UNL     1      -9.727  11.903  66.296  1.00  0.00    -0.223 NA 
ENDROOT
BRANCH   2   9
HETATM    9  C   UNL     1     -10.501   8.971  69.397  1.00  0.00    -0.229 A  
HETATM   10  C   UNL     1     -11.239   9.621  70.405  1.00  0.00    -0.342 A  
HETATM   11  C   UNL     1      -9.831   7.782  69.742  1.00  0.00    -0.178 A  
HETATM   12  C   UNL     1     -10.607   7.949  72.024  1.00  0.00    -0.238 A  
HETATM   13  C   UNL     1     -11.291   9.116  71.707  1.00  0.00    -0.451 A  
HETATM   14 CL   UNL     1     -10.650   7.341  73.633  1.00  0.00    -0.407 Cl 
HETATM   15  C   UNL     1      -9.881   7.275  71.046  1.00  0.00    -0.183 A  
ENDBRANCH   2   9
BRANCH   8  16
HETATM   16  C   UNL     1      -9.301  12.975  67.214  1.00  0.00    -0.220 C  
BRANCH  16  17
HETATM   17  C   UNL     1     -10.084  14.282  67.065  1.00  0.00    -0.260 C  
BRANCH  17  18
HETATM   18  C   UNL     1     -10.389  14.939  68.412  1.00  0.00    -0.233 C  
BRANCH  18  19
HETATM   19  C   UNL     1      -9.310  15.928  68.803  1.00  0.00    -0.220 C  
HETATM   20  O   UNL     1      -8.333  15.615  69.481  1.00  0.00    -0.246 OA 
BRANCH  19  21
HETATM   21  C   UNL     1      -9.471  17.344  68.386  1.00  0.00    -0.293 A  
HETATM   22  C   UNL     1      -8.391  18.219  68.580  1.00  0.00    -0.327 A  
HETATM   23  C   UNL     1      -8.502  19.564  68.225  1.00  0.00    -0.376 A  
HETATM   24  C   UNL     1      -9.687  20.027  67.665  1.00  0.00    -0.403 A  
HETATM   25  F   UNL     1      -9.794  21.316  67.324  1.00  0.00    -0.600 F  
HETATM   26  C   UNL     1     -10.762  19.171  67.452  1.00  0.00    -0.578 A  
HETATM   27  C   UNL     1     -10.659  17.826  67.813  1.00  0.00    -0.392 A  
ENDBRANCH  19  21
ENDBRANCH  18  19
ENDBRANCH  17  18
ENDBRANCH  16  17
ENDBRANCH   8  16
TORSDOF 6
ENDMDL
MODEL       77
REMARK 921   NORMALIZED FREE ENERGY PREDICTED BY IDOCK:   -5.58 KCAL/MOL
REMARK 922        TOTAL FREE ENERGY PREDICTED BY IDOCK:   -8.85 KCAL/MOL
REMARK 923 INTER-LIGAND FREE ENERGY PREDICTED BY IDOCK:   -7.10 KCAL/MOL
REMARK 924 INTRA-LIGAND FREE ENERGY PREDICTED BY IDOCK:   -1.75 KCAL/MOL
REMARK 927      BINDING AFFINITY PREDICTED BY RF-SCORE:    0.00 PKD
ROOT
HETATM    1  O   UNL     1      -9.923  12.339  69.076  1.00  0.00    -0.421 OA 
HETATM    2  C   UNL     1     -10.549  11.099  68.698  1.00  0.00    -0.193 C  
HETATM    3  H   UNL     1     -10.390  13.044  68.642  1.00  0.00     0.000 HD 
HETATM    4  C   UNL     1      -9.791   9.957  69.401  1.00  0.00    -0.231 C  
HETATM    5  C   UNL     1     -12.026  11.162  69.139  1.00  0.00    -0.413 C  
HETATM    6  C   UNL     1     -10.061   9.940  70.907  1.00  0.00     0.101 C  
HETATM    7  C   UNL     1     -12.183  11.060  70.658  1.00  0.00    -0.385 C  
HETATM    8  N   UNL     1     -11.490   9.905  71.249  1.00  0.00    -0.375 NA 
ENDROOT
BRANCH   2   9
HETATM    9  C   UNL     1     -10.456  10.966  67.171  1.00  0.00    -0.281 A  
HETATM   10  C   UNL     1      -9.864   9.838  66.572  1.00  0.00    -0.286 A  
HETATM   11  C   UNL     1     -10.937  11.980  66.321  1.00  0.00    -0.340 A  
HETATM   12  C   UNL     1     -10.206  10.759  64.370  1.00  0.00    -0.364 A  
HETATM   13  C   UNL     1      -9.738   9.735  65.184  1.00  0.00    -0.338 A  
HETATM   14 CL   UNL     1     -10.028  10.645  62.662  1.00  0.00    -0.159 Cl 
HETATM   15  C   UNL     1     -10.811  11.880  64.931  1.00  0.00    -0.356 A  
ENDBRANCH   2   9
BRANCH   8  16
HETATM   16  C   UNL     1     -12.159   8.638  70.903  1.00  0.00    -0.147 C  
BRANCH  16  17
HETATM   17  C   UNL     1     -11.963   7.520  71.930  1.00  0.00    -0.335 C  
BRANCH  17  18
HETATM   18  C   UNL     1     -11.675   6.167  71.278  1.00  0.00    -0.211 C  
BRANCH  18  19
HETATM   19  C   UNL     1     -10.336   6.168  70.570  1.00  0.00    -0.215 C  
HETATM   20  O   UNL     1      -9.297   6.547  71.107  1.00  0.00    -0.163 OA 
BRANCH  19  21
HETATM   21  C   UNL     1     -10.292   5.734  69.150  1.00  0.00    -0.316 A  
HETATM   22  C   UNL     1     -10.959   6.519  68.196  1.00  0.00    -0.365 A  
HETATM   23  C   UNL     1     -10.967   6.140  66.853  1.00  0.00    -0.384 A  
HETATM   24  C   UNL     1     -10.295   4.986  66.466  1.00  0.00    -0.284 A  
HETATM   25  F   UNL     1     -10.301   4.622  65.178  1.00  0.00    -0.195 F  
HETATM   26  C   UNL     1      -9.617   4.204  67.394  1.00  0.00    -0.222 A  
HETATM   27  C   UNL     1      -9.614   4.574  68.742  1.00  0.00    -0.227 A  
ENDBRANCH  19  21
ENDBRANCH  18  19
ENDBRANCH  17  18
ENDBRANCH  16  17
ENDBRANCH   8  16
TORSDOF 6
ENDMDL
MODEL       78
REMARK 921   NORMALIZED FREE ENERGY PREDICTED BY IDOCK:   -5.54 KCAL/MOL
REMARK 922        TOTAL FREE ENERGY PREDICTED BY IDOCK:   -8.80 KCAL/MOL
REMARK 923 INTER-LIGAND FREE ENERGY PREDICTED BY IDOCK:   -6.72 KCAL/MOL
REMARK 924 INTRA-LIGAND FREE ENERGY PREDICTED BY IDOCK:   -2.08 KCAL/MOL
REMARK 927      BINDING AFFINITY PREDICTED BY RF-SCORE:    0.00 PKD
ROOT
HETATM    1  O   UNL     1      -8.280  11.140  69.353  1.00  0.00    -0.376 OA 
HETATM    2  C   UNL     1      -9.170  10.127  68.851  1.00  0.00    -0.172 C  
HETATM    3  H   UNL     1      -7.976  10.861  70.209  1.00  0.00     0.000 HD 
HETATM    4  C   UNL     1      -9.663  10.580  67.464  1.00  0.00    -0.190 C  
HETATM    5  C   UNL     1      -8.382   8.803  68.773  1.00  0.00    -0.124 C  
HETATM    6  C   UNL     1      -8.554  10.501  66.413  1.00  0.00    -0.144 C  
HETATM    7  C   UNL     1      -7.353   8.805  67.640  1.00  0.00    -0.085 C  
HETATM    8  N   UNL     1      -7.913   9.180  66.333  1.00  0.00    -0.099 NA 
ENDROOT
BRANCH   2   9
HETATM    9  C   UNL     1     -10.340   9.991  69.836  1.00  0.00    -0.315 A  
HETATM   10  C   UNL     1     -10.253   9.149  70.960  1.00  0.00    -0.372 A  
HETATM   11  C   UNL     1     -11.549  10.683  69.630  1.00  0.00    -0.368 A  
HETATM   12  C   UNL     1     -12.519   9.672  71.597  1.00  0.00    -0.407 A  
HETATM   13  C   UNL     1     -11.332   8.989  71.833  1.00  0.00    -0.438 A  
HETATM   14 CL   UNL     1     -13.857   9.455  72.658  1.00  0.00    -0.409 Cl 
HETATM   15  C   UNL     1     -12.631  10.524  70.503  1.00  0.00    -0.423 A  
ENDBRANCH   2   9
BRANCH   8  16
HETATM   16  C   UNL     1      -8.786   8.121  65.795  1.00  0.00    -0.154 C  
BRANCH  16  17
HETATM   17  C   UNL     1      -8.037   6.963  65.130  1.00  0.00    -0.132 C  
BRANCH  17  18
HETATM   18  C   UNL     1      -8.009   5.706  66.000  1.00  0.00    -0.106 C  
BRANCH  18  19
HETATM   19  C   UNL     1      -9.409   5.228  66.328  1.00  0.00    -0.153 C  
HETATM   20  O   UNL     1     -10.192   4.822  65.472  1.00  0.00    -0.189 OA 
BRANCH  19  21
HETATM   21  C   UNL     1      -9.861   5.300  67.740  1.00  0.00    -0.187 A  
HETATM   22  C   UNL     1     -10.946   6.137  68.047  1.00  0.00    -0.399 A  
HETATM   23  C   UNL     1     -11.393   6.256  69.363  1.00  0.00    -0.448 A  
HETATM   24  C   UNL     1     -10.765   5.526  70.366  1.00  0.00    -0.251 A  
HETATM   25  F   UNL     1     -11.195   5.639  71.628  1.00  0.00    -0.316 F  
HETATM   26  C   UNL     1      -9.700   4.680  70.078  1.00  0.00    -0.277 A  
HETATM   27  C   UNL     1      -9.242   4.564  68.764  1.00  0.00    -0.184 A  
ENDBRANCH  19  21
ENDBRANCH  18  19
ENDBRANCH  17  18
ENDBRANCH  16  17
ENDBRANCH   8  16
TORSDOF 6
ENDMDL
MODEL       79
REMARK 921   NORMALIZED FREE ENERGY PREDICTED BY IDOCK:   -5.54 KCAL/MOL
REMARK 922        TOTAL FREE ENERGY PREDICTED BY IDOCK:   -8.79 KCAL/MOL
REMARK 923 INTER-LIGAND FREE ENERGY PREDICTED BY IDOCK:   -7.66 KCAL/MOL
REMARK 924 INTRA-LIGAND FREE ENERGY PREDICTED BY IDOCK:   -1.14 KCAL/MOL
REMARK 927      BINDING AFFINITY PREDICTED BY RF-SCORE:    0.00 PKD
ROOT
HETATM    1  O   UNL     1     -12.548  14.305  67.823  1.00  0.00    -0.487 OA 
HETATM    2  C   UNL     1     -11.533  14.501  66.822  1.00  0.00    -0.367 C  
HETATM    3  H   UNL     1     -13.250  14.923  67.650  1.00  0.00     0.000 HD 
HETATM    4  C   UNL     1     -10.397  13.500  67.103  1.00  0.00    -0.250 C  
HETATM    5  C   UNL     1     -12.178  14.262  65.442  1.00  0.00    -0.408 C  
HETATM    6  C   UNL     1     -10.813  12.064  66.778  1.00  0.00    -0.266 C  
HETATM    7  C   UNL     1     -12.483  12.783  65.191  1.00  0.00    -0.501 C  
HETATM    8  N   UNL     1     -11.331  11.896  65.412  1.00  0.00    -0.308 NA 
ENDROOT
BRANCH   2   9
HETATM    9  C   UNL     1     -11.033  15.949  66.930  1.00  0.00    -0.172 A  
HETATM   10  C   UNL     1     -10.960  16.605  68.173  1.00  0.00    -0.327 A  
HETATM   11  C   UNL     1     -10.655  16.675  65.785  1.00  0.00    -0.278 A  
HETATM   12  C   UNL     1     -10.197  18.635  67.120  1.00  0.00    -0.379 A  
HETATM   13  C   UNL     1     -10.548  17.937  68.268  1.00  0.00    -0.314 A  
HETATM   14 CL   UNL     1      -9.713  20.283  67.233  1.00  0.00    -0.562 Cl 
HETATM   15  C   UNL     1     -10.242  18.009  65.878  1.00  0.00    -0.231 A  
ENDBRANCH   2   9
BRANCH   8  16
HETATM   16  C   UNL     1     -10.312  12.061  64.360  1.00  0.00    -0.305 C  
BRANCH  16  17
HETATM   17  C   UNL     1      -9.934  10.764  63.638  1.00  0.00    -0.405 C  
BRANCH  17  18
HETATM   18  C   UNL     1      -8.491  10.340  63.910  1.00  0.00    -0.179 C  
BRANCH  18  19
HETATM   19  C   UNL     1      -8.301   9.914  65.351  1.00  0.00    -0.146 C  
HETATM   20  O   UNL     1      -7.713  10.606  66.179  1.00  0.00    -0.136 OA 
BRANCH  19  21
HETATM   21  C   UNL     1      -8.810   8.580  65.761  1.00  0.00    -0.229 A  
HETATM   22  C   UNL     1      -9.952   8.528  66.576  1.00  0.00    -0.350 A  
HETATM   23  C   UNL     1     -10.455   7.300  67.006  1.00  0.00    -0.398 A  
HETATM   24  C   UNL     1      -9.824   6.127  66.608  1.00  0.00    -0.159 A  
HETATM   25  F   UNL     1     -10.306   4.949  67.020  1.00  0.00    -0.213 F  
HETATM   26  C   UNL     1      -8.701   6.159  65.789  1.00  0.00    -0.151 A  
HETATM   27  C   UNL     1      -8.188   7.386  65.363  1.00  0.00    -0.135 A  
ENDBRANCH  19  21
ENDBRANCH  18  19
ENDBRANCH  17  18
ENDBRANCH  16  17
ENDBRANCH   8  16
TORSDOF 6
ENDMDL
MODEL       80
REMARK 921   NORMALIZED FREE ENERGY PREDICTED BY IDOCK:   -5.51 KCAL/MOL
REMARK 922        TOTAL FREE ENERGY PREDICTED BY IDOCK:   -8.75 KCAL/MOL
REMARK 923 INTER-LIGAND FREE ENERGY PREDICTED BY IDOCK:   -6.82 KCAL/MOL
REMARK 924 INTRA-LIGAND FREE ENERGY PREDICTED BY IDOCK:   -1.93 KCAL/MOL
REMARK 927      BINDING AFFINITY PREDICTED BY RF-SCORE:    0.00 PKD
ROOT
HETATM    1  O   UNL     1     -10.912   6.300  66.216  1.00  0.00    -0.552 OA 
HETATM    2  C   UNL     1     -10.138   7.036  67.181  1.00  0.00    -0.217 C  
HETATM    3  H   UNL     1     -10.527   6.451  65.360  1.00  0.00     0.000 HD 
HETATM    4  C   UNL     1     -10.762   6.791  68.568  1.00  0.00    -0.280 C  
HETATM    5  C   UNL     1      -8.684   6.525  67.110  1.00  0.00    -0.111 C  
HETATM    6  C   UNL     1     -10.509   5.365  69.061  1.00  0.00    -0.182 C  
HETATM    7  C   UNL     1      -8.533   5.120  67.698  1.00  0.00    -0.105 C  
HETATM    8  N   UNL     1      -9.090   4.982  69.052  1.00  0.00    -0.101 NA 
ENDROOT
BRANCH   2   9
HETATM    9  C   UNL     1     -10.197   8.523  66.804  1.00  0.00    -0.370 A  
HETATM   10  C   UNL     1      -9.614   8.997  65.614  1.00  0.00    -0.237 A  
HETATM   11  C   UNL     1     -10.814   9.465  67.650  1.00  0.00    -0.222 A  
HETATM   12  C   UNL     1     -10.228  11.266  66.152  1.00  0.00    -0.245 A  
HETATM   13  C   UNL     1      -9.627  10.356  65.290  1.00  0.00    -0.316 A  
HETATM   14 CL   UNL     1     -10.222  12.944  65.766  1.00  0.00    -0.291 Cl 
HETATM   15  C   UNL     1     -10.827  10.827  67.328  1.00  0.00    -0.344 A  
ENDBRANCH   2   9
BRANCH   8  16
HETATM   16  C   UNL     1      -8.270   5.695  70.049  1.00  0.00    -0.110 C  
BRANCH  16  17
HETATM   17  C   UNL     1      -8.330   5.099  71.458  1.00  0.00    -0.120 C  
BRANCH  17  18
HETATM   18  C   UNL     1      -8.776   6.117  72.508  1.00  0.00    -0.121 C  
BRANCH  18  19
HETATM   19  C   UNL     1     -10.275   6.073  72.720  1.00  0.00    -0.188 C  
HETATM   20  O   UNL     1     -10.849   5.110  73.226  1.00  0.00    -0.242 OA 
BRANCH  19  21
HETATM   21  C   UNL     1     -11.085   7.226  72.252  1.00  0.00    -0.298 A  
HETATM   22  C   UNL     1     -12.470   7.047  72.102  1.00  0.00    -0.193 A  
HETATM   23  C   UNL     1     -13.269   8.094  71.642  1.00  0.00    -0.357 A  
HETATM   24  C   UNL     1     -12.685   9.321  71.349  1.00  0.00    -0.330 A  
HETATM   25  F   UNL     1     -13.452  10.325  70.909  1.00  0.00    -0.430 F  
HETATM   26  C   UNL     1     -11.319   9.521  71.506  1.00  0.00    -0.456 A  
HETATM   27  C   UNL     1     -10.512   8.474  71.957  1.00  0.00    -0.407 A  
ENDBRANCH  19  21
ENDBRANCH  18  19
ENDBRANCH  17  18
ENDBRANCH  16  17
ENDBRANCH   8  16
TORSDOF 6
ENDMDL
MODEL       81
REMARK 921   NORMALIZED FREE ENERGY PREDICTED BY IDOCK:   -5.51 KCAL/MOL
REMARK 922        TOTAL FREE ENERGY PREDICTED BY IDOCK:   -8.75 KCAL/MOL
REMARK 923 INTER-LIGAND FREE ENERGY PREDICTED BY IDOCK:   -7.23 KCAL/MOL
REMARK 924 INTRA-LIGAND FREE ENERGY PREDICTED BY IDOCK:   -1.51 KCAL/MOL
REMARK 927      BINDING AFFINITY PREDICTED BY RF-SCORE:    0.00 PKD
ROOT
HETATM    1  O   UNL     1     -12.492  14.918  68.512  1.00  0.00    -0.575 OA 
HETATM    2  C   UNL     1     -11.323  14.765  67.687  1.00  0.00    -0.339 C  
HETATM    3  H   UNL     1     -12.883  15.760  68.307  1.00  0.00     0.000 HD 
HETATM    4  C   UNL     1     -10.689  13.401  68.020  1.00  0.00    -0.261 C  
HETATM    5  C   UNL     1     -11.772  14.841  66.213  1.00  0.00    -0.260 C  
HETATM    6  C   UNL     1     -11.536  12.238  67.497  1.00  0.00    -0.347 C  
HETATM    7  C   UNL     1     -12.544  13.595  65.775  1.00  0.00    -0.461 C  
HETATM    8  N   UNL     1     -11.844  12.334  66.063  1.00  0.00    -0.562 NA 
ENDROOT
BRANCH   2   9
HETATM    9  C   UNL     1     -10.359  15.915  68.009  1.00  0.00    -0.262 A  
HETATM   10  C   UNL     1     -10.785  17.256  67.973  1.00  0.00    -0.367 A  
HETATM   11  C   UNL     1      -9.009  15.666  68.325  1.00  0.00    -0.181 A  
HETATM   12  C   UNL     1      -8.567  18.033  68.514  1.00  0.00    -0.297 A  
HETATM   13  C   UNL     1      -9.898  18.306  68.221  1.00  0.00    -0.366 A  
HETATM   14 CL   UNL     1      -7.469  19.328  68.796  1.00  0.00    -0.377 Cl 
HETATM   15  C   UNL     1      -8.119  16.717  68.574  1.00  0.00    -0.241 A  
ENDBRANCH   2   9
BRANCH   8  16
HETATM   16  C   UNL     1     -10.674  12.152  65.184  1.00  0.00    -0.292 C  
BRANCH  16  17
HETATM   17  C   UNL     1     -10.643  10.811  64.445  1.00  0.00    -0.246 C  
BRANCH  17  18
HETATM   18  C   UNL     1      -9.412   9.976  64.797  1.00  0.00    -0.366 C  
BRANCH  18  19
HETATM   19  C   UNL     1      -9.512   9.405  66.197  1.00  0.00    -0.226 C  
HETATM   20  O   UNL     1     -10.256   8.470  66.485  1.00  0.00    -0.289 OA 
BRANCH  19  21
HETATM   21  C   UNL     1      -8.708  10.041  67.272  1.00  0.00    -0.127 A  
HETATM   22  C   UNL     1      -7.869  11.112  66.928  1.00  0.00    -0.152 A  
HETATM   23  C   UNL     1      -7.077  11.726  67.898  1.00  0.00    -0.087 A  
HETATM   24  C   UNL     1      -7.137  11.278  69.213  1.00  0.00    -0.112 A  
HETATM   25  F   UNL     1      -6.378  11.867  70.144  1.00  0.00    -0.144 F  
HETATM   26  C   UNL     1      -7.973  10.228  69.575  1.00  0.00    -0.171 A  
HETATM   27  C   UNL     1      -8.762   9.603  68.606  1.00  0.00    -0.124 A  
ENDBRANCH  19  21
ENDBRANCH  18  19
ENDBRANCH  17  18
ENDBRANCH  16  17
ENDBRANCH   8  16
TORSDOF 6
ENDMDL
MODEL       82
REMARK 921   NORMALIZED FREE ENERGY PREDICTED BY IDOCK:   -5.50 KCAL/MOL
REMARK 922        TOTAL FREE ENERGY PREDICTED BY IDOCK:   -8.74 KCAL/MOL
REMARK 923 INTER-LIGAND FREE ENERGY PREDICTED BY IDOCK:   -7.66 KCAL/MOL
REMARK 924 INTRA-LIGAND FREE ENERGY PREDICTED BY IDOCK:   -1.08 KCAL/MOL
REMARK 927      BINDING AFFINITY PREDICTED BY RF-SCORE:    0.00 PKD
ROOT
HETATM    1  O   UNL     1     -11.742  12.293  63.868  1.00  0.00    -0.376 OA 
HETATM    2  C   UNL     1     -11.091  12.515  65.132  1.00  0.00    -0.299 C  
HETATM    3  H   UNL     1     -12.456  11.682  64.012  1.00  0.00     0.000 HD 
HETATM    4  C   UNL     1      -9.935  13.505  64.897  1.00  0.00    -0.176 C  
HETATM    5  C   UNL     1     -12.140  13.083  66.110  1.00  0.00    -0.473 C  
HETATM    6  C   UNL     1     -10.446  14.919  64.613  1.00  0.00    -0.111 C  
HETATM    7  C   UNL     1     -12.523  14.527  65.778  1.00  0.00    -0.208 C  
HETATM    8  N   UNL     1     -11.369  15.428  65.638  1.00  0.00    -0.206 NA 
ENDROOT
BRANCH   2   9
HETATM    9  C   UNL     1     -10.567  11.165  65.640  1.00  0.00    -0.286 A  
HETATM   10  C   UNL     1     -10.766  10.760  66.974  1.00  0.00    -0.320 A  
HETATM   11  C   UNL     1      -9.847  10.298  64.795  1.00  0.00    -0.403 A  
HETATM   12  C   UNL     1      -9.530   8.724  66.599  1.00  0.00    -0.203 A  
HETATM   13  C   UNL     1     -10.252   9.552  67.451  1.00  0.00    -0.285 A  
HETATM   14 CL   UNL     1      -8.874   7.247  67.193  1.00  0.00    -0.123 Cl 
HETATM   15  C   UNL     1      -9.330   9.088  65.271  1.00  0.00    -0.158 A  
ENDBRANCH   2   9
BRANCH   8  16
HETATM   16  C   UNL     1     -10.731  15.695  66.939  1.00  0.00    -0.307 C  
BRANCH  16  17
HETATM   17  C   UNL     1     -11.204  16.982  67.622  1.00  0.00     0.094 C  
BRANCH  17  18
HETATM   18  C   UNL     1     -10.420  17.291  68.898  1.00  0.00    -0.327 C  
BRANCH  18  19
HETATM   19  C   UNL     1     -10.148  16.035  69.700  1.00  0.00    -0.244 C  
HETATM   20  O   UNL     1      -9.043  15.499  69.747  1.00  0.00    -0.251 OA 
BRANCH  19  21
HETATM   21  C   UNL     1     -11.284  15.403  70.420  1.00  0.00    -0.345 A  
HETATM   22  C   UNL     1     -11.845  16.093  71.506  1.00  0.00    -0.528 A  
HETATM   23  C   UNL     1     -12.898  15.530  72.229  1.00  0.00    -0.493 A  
HETATM   24  C   UNL     1     -13.397  14.288  71.853  1.00  0.00    -0.388 A  
HETATM   25  F   UNL     1     -14.407  13.749  72.545  1.00  0.00    -0.584 F  
HETATM   26  C   UNL     1     -12.863  13.598  70.771  1.00  0.00    -0.273 A  
HETATM   27  C   UNL     1     -11.803  14.152  70.050  1.00  0.00    -0.388 A  
ENDBRANCH  19  21
ENDBRANCH  18  19
ENDBRANCH  17  18
ENDBRANCH  16  17
ENDBRANCH   8  16
TORSDOF 6
ENDMDL
MODEL       83
REMARK 921   NORMALIZED FREE ENERGY PREDICTED BY IDOCK:   -5.49 KCAL/MOL
REMARK 922        TOTAL FREE ENERGY PREDICTED BY IDOCK:   -8.73 KCAL/MOL
REMARK 923 INTER-LIGAND FREE ENERGY PREDICTED BY IDOCK:   -7.04 KCAL/MOL
REMARK 924 INTRA-LIGAND FREE ENERGY PREDICTED BY IDOCK:   -1.69 KCAL/MOL
REMARK 927      BINDING AFFINITY PREDICTED BY RF-SCORE:    0.00 PKD
ROOT
HETATM    1  O   UNL     1     -10.465  10.572  65.077  1.00  0.00    -0.286 OA 
HETATM    2  C   UNL     1     -10.059  10.625  66.457  1.00  0.00    -0.223 C  
HETATM    3  H   UNL     1     -10.072  11.313  64.631  1.00  0.00     0.000 HD 
HETATM    4  C   UNL     1     -10.696   9.423  67.180  1.00  0.00    -0.234 C  
HETATM    5  C   UNL     1      -8.518  10.566  66.499  1.00  0.00    -0.139 C  
HETATM    6  C   UNL     1     -10.045   8.101  66.765  1.00  0.00    -0.295 C  
HETATM    7  C   UNL     1      -7.979   9.180  66.141  1.00  0.00    -0.103 C  
HETATM    8  N   UNL     1      -8.584   8.090  66.922  1.00  0.00    -0.126 NA 
ENDROOT
BRANCH   2   9
HETATM    9  C   UNL     1     -10.557  11.951  67.048  1.00  0.00    -0.260 A  
HETATM   10  C   UNL     1     -10.769  13.079  66.233  1.00  0.00    -0.290 A  
HETATM   11  C   UNL     1     -10.791  12.090  68.430  1.00  0.00    -0.266 A  
HETATM   12  C   UNL     1     -11.386  14.413  68.145  1.00  0.00    -0.294 A  
HETATM   13  C   UNL     1     -11.178  14.300  66.775  1.00  0.00    -0.337 A  
HETATM   14 CL   UNL     1     -11.866  15.924  68.817  1.00  0.00    -0.364 Cl 
HETATM   15  C   UNL     1     -11.200  13.312  68.975  1.00  0.00    -0.320 A  
ENDBRANCH   2   9
BRANCH   8  16
HETATM   16  C   UNL     1      -8.130   8.114  68.325  1.00  0.00    -0.128 C  
BRANCH  16  17
HETATM   17  C   UNL     1      -7.959   6.730  68.957  1.00  0.00    -0.116 C  
BRANCH  17  18
HETATM   18  C   UNL     1      -8.697   6.597  70.289  1.00  0.00    -0.147 C  
BRANCH  18  19
HETATM   19  C   UNL     1     -10.194   6.478  70.083  1.00  0.00    -0.192 C  
HETATM   20  O   UNL     1     -10.702   5.622  69.362  1.00  0.00    -0.297 OA 
BRANCH  19  21
HETATM   21  C   UNL     1     -11.074   7.473  70.747  1.00  0.00    -0.280 A  
HETATM   22  C   UNL     1     -12.361   7.065  71.135  1.00  0.00    -0.423 A  
HETATM   23  C   UNL     1     -13.233   7.969  71.742  1.00  0.00    -0.367 A  
HETATM   24  C   UNL     1     -12.811   9.274  71.973  1.00  0.00    -0.415 A  
HETATM   25  F   UNL     1     -13.647  10.141  72.555  1.00  0.00    -0.442 F  
HETATM   26  C   UNL     1     -11.536   9.691  71.609  1.00  0.00    -0.406 A  
HETATM   27  C   UNL     1     -10.662   8.793  70.993  1.00  0.00    -0.290 A  
ENDBRANCH  19  21
ENDBRANCH  18  19
ENDBRANCH  17  18
ENDBRANCH  16  17
ENDBRANCH   8  16
TORSDOF 6
ENDMDL
MODEL       84
REMARK 921   NORMALIZED FREE ENERGY PREDICTED BY IDOCK:   -5.48 KCAL/MOL
REMARK 922        TOTAL FREE ENERGY PREDICTED BY IDOCK:   -8.71 KCAL/MOL
REMARK 923 INTER-LIGAND FREE ENERGY PREDICTED BY IDOCK:   -7.58 KCAL/MOL
REMARK 924 INTRA-LIGAND FREE ENERGY PREDICTED BY IDOCK:   -1.13 KCAL/MOL
REMARK 927      BINDING AFFINITY PREDICTED BY RF-SCORE:    0.00 PKD
ROOT
HETATM    1  O   UNL     1     -11.586   7.531  69.959  1.00  0.00    -0.480 OA 
HETATM    2  C   UNL     1     -10.458   8.383  70.231  1.00  0.00    -0.218 C  
HETATM    3  H   UNL     1     -12.073   7.428  70.768  1.00  0.00     0.000 HD 
HETATM    4  C   UNL     1      -9.668   8.549  68.919  1.00  0.00    -0.172 C  
HETATM    5  C   UNL     1     -11.000   9.732  70.747  1.00  0.00    -0.406 C  
HETATM    6  C   UNL     1     -10.420   9.420  67.910  1.00  0.00    -0.243 C  
HETATM    7  C   UNL     1     -11.664  10.554  69.640  1.00  0.00    -0.256 C  
HETATM    8  N   UNL     1     -10.821  10.728  68.447  1.00  0.00    -0.213 NA 
ENDROOT
BRANCH   2   9
HETATM    9  C   UNL     1      -9.601   7.707  71.310  1.00  0.00    -0.171 A  
HETATM   10  C   UNL     1      -9.280   8.371  72.509  1.00  0.00    -0.338 A  
HETATM   11  C   UNL     1      -9.085   6.410  71.124  1.00  0.00    -0.150 A  
HETATM   12  C   UNL     1      -7.953   6.501  73.255  1.00  0.00    -0.099 A  
HETATM   13  C   UNL     1      -8.463   7.776  73.473  1.00  0.00    -0.259 A  
HETATM   14 CL   UNL     1      -6.926   5.777  74.431  1.00  0.00    -0.080 Cl 
HETATM   15  C   UNL     1      -8.265   5.812  72.088  1.00  0.00    -0.112 A  
ENDBRANCH   2   9
BRANCH   8  16
HETATM   16  C   UNL     1      -9.693  11.640  68.710  1.00  0.00    -0.095 C  
BRANCH  16  17
HETATM   17  C   UNL     1      -9.642  12.863  67.790  1.00  0.00    -0.212 C  
BRANCH  17  18
HETATM   18  C   UNL     1     -10.015  14.158  68.513  1.00  0.00    -0.235 C  
BRANCH  18  19
HETATM   19  C   UNL     1     -11.493  14.203  68.841  1.00  0.00    -0.293 C  
HETATM   20  O   UNL     1     -12.369  14.006  68.001  1.00  0.00    -0.239 OA 
BRANCH  19  21
HETATM   21  C   UNL     1     -11.894  14.546  70.229  1.00  0.00    -0.373 A  
HETATM   22  C   UNL     1     -12.766  13.675  70.902  1.00  0.00    -0.382 A  
HETATM   23  C   UNL     1     -13.189  13.967  72.199  1.00  0.00    -0.536 A  
HETATM   24  C   UNL     1     -12.727  15.119  72.825  1.00  0.00    -0.398 A  
HETATM   25  F   UNL     1     -13.132  15.399  74.069  1.00  0.00    -0.571 F  
HETATM   26  C   UNL     1     -11.852  15.985  72.180  1.00  0.00    -0.623 A  
HETATM   27  C   UNL     1     -11.432  15.703  70.877  1.00  0.00    -0.425 A  
ENDBRANCH  19  21
ENDBRANCH  18  19
ENDBRANCH  17  18
ENDBRANCH  16  17
ENDBRANCH   8  16
TORSDOF 6
ENDMDL
MODEL       85
REMARK 921   NORMALIZED FREE ENERGY PREDICTED BY IDOCK:   -5.45 KCAL/MOL
REMARK 922        TOTAL FREE ENERGY PREDICTED BY IDOCK:   -8.67 KCAL/MOL
REMARK 923 INTER-LIGAND FREE ENERGY PREDICTED BY IDOCK:   -7.99 KCAL/MOL
REMARK 924 INTRA-LIGAND FREE ENERGY PREDICTED BY IDOCK:   -0.68 KCAL/MOL
REMARK 927      BINDING AFFINITY PREDICTED BY RF-SCORE:    0.00 PKD
ROOT
HETATM    1  O   UNL     1     -12.799  14.062  66.142  1.00  0.00    -0.479 OA 
HETATM    2  C   UNL     1     -11.506  13.970  66.767  1.00  0.00    -0.363 C  
HETATM    3  H   UNL     1     -12.691  14.523  65.318  1.00  0.00     0.000 HD 
HETATM    4  C   UNL     1     -11.682  13.223  68.102  1.00  0.00    -0.397 C  
HETATM    5  C   UNL     1     -10.571  13.208  65.805  1.00  0.00    -0.293 C  
HETATM    6  C   UNL     1     -11.977  11.737  67.887  1.00  0.00    -0.098 C  
HETATM    7  C   UNL     1     -10.908  11.718  65.724  1.00  0.00    -0.291 C  
HETATM    8  N   UNL     1     -10.990  11.058  67.036  1.00  0.00    -0.284 NA 
ENDROOT
BRANCH   2   9
HETATM    9  C   UNL     1     -10.985  15.396  66.996  1.00  0.00    -0.306 A  
HETATM   10  C   UNL     1     -10.408  16.139  65.949  1.00  0.00    -0.384 A  
HETATM   11  C   UNL     1     -11.044  15.996  68.269  1.00  0.00    -0.351 A  
HETATM   12  C   UNL     1      -9.949  17.981  67.436  1.00  0.00    -0.326 A  
HETATM   13  C   UNL     1      -9.893  17.419  66.166  1.00  0.00    -0.260 A  
HETATM   14 CL   UNL     1      -9.292  19.548  67.709  1.00  0.00    -0.385 Cl 
HETATM   15  C   UNL     1     -10.528  17.278  68.488  1.00  0.00    -0.375 A  
ENDBRANCH   2   9
BRANCH   8  16
HETATM   16  C   UNL     1      -9.659  10.918  67.655  1.00  0.00    -0.163 C  
BRANCH  16  17
HETATM   17  C   UNL     1      -9.685  10.742  69.176  1.00  0.00    -0.181 C  
BRANCH  17  18
HETATM   18  C   UNL     1     -10.108   9.334  69.596  1.00  0.00    -0.208 C  
BRANCH  18  19
HETATM   19  C   UNL     1     -11.000   9.366  70.820  1.00  0.00    -0.304 C  
HETATM   20  O   UNL     1     -11.635  10.363  71.157  1.00  0.00    -0.333 OA 
BRANCH  19  21
HETATM   21  C   UNL     1     -11.068   8.150  71.670  1.00  0.00    -0.310 A  
HETATM   22  C   UNL     1     -10.202   8.061  72.771  1.00  0.00    -0.389 A  
HETATM   23  C   UNL     1     -10.212   6.929  73.586  1.00  0.00    -0.372 A  
HETATM   24  C   UNL     1     -11.099   5.895  73.307  1.00  0.00    -0.178 A  
HETATM   25  F   UNL     1     -11.109   4.809  74.088  1.00  0.00    -0.338 F  
HETATM   26  C   UNL     1     -11.974   5.972  72.230  1.00  0.00    -0.259 A  
HETATM   27  C   UNL     1     -11.962   7.099  71.405  1.00  0.00    -0.364 A  
ENDBRANCH  19  21
ENDBRANCH  18  19
ENDBRANCH  17  18
ENDBRANCH  16  17
ENDBRANCH   8  16
TORSDOF 6
ENDMDL
MODEL       86
REMARK 921   NORMALIZED FREE ENERGY PREDICTED BY IDOCK:   -5.43 KCAL/MOL
REMARK 922        TOTAL FREE ENERGY PREDICTED BY IDOCK:   -8.64 KCAL/MOL
REMARK 923 INTER-LIGAND FREE ENERGY PREDICTED BY IDOCK:   -7.72 KCAL/MOL
REMARK 924 INTRA-LIGAND FREE ENERGY PREDICTED BY IDOCK:   -0.92 KCAL/MOL
REMARK 927      BINDING AFFINITY PREDICTED BY RF-SCORE:    0.00 PKD
ROOT
HETATM    1  O   UNL     1     -10.035   5.181  67.317  1.00  0.00    -0.159 OA 
HETATM    2  C   UNL     1      -9.763   6.486  67.858  1.00  0.00    -0.122 C  
HETATM    3  H   UNL     1      -9.243   4.872  66.892  1.00  0.00     0.000 HD 
HETATM    4  C   UNL     1     -11.047   6.986  68.546  1.00  0.00    -0.071 C  
HETATM    5  C   UNL     1      -8.595   6.348  68.857  1.00  0.00    -0.123 C  
HETATM    6  C   UNL     1     -11.334   6.219  69.838  1.00  0.00    -0.434 C  
HETATM    7  C   UNL     1      -9.013   5.634  70.145  1.00  0.00    -0.138 C  
HETATM    8  N   UNL     1     -10.206   6.212  70.781  1.00  0.00    -0.192 NA 
ENDROOT
BRANCH   2   9
HETATM    9  C   UNL     1      -9.362   7.408  66.698  1.00  0.00    -0.215 A  
HETATM   10  C   UNL     1      -8.363   7.034  65.780  1.00  0.00    -0.143 A  
HETATM   11  C   UNL     1      -9.964   8.670  66.531  1.00  0.00    -0.353 A  
HETATM   12  C   UNL     1      -8.564   9.138  64.619  1.00  0.00    -0.182 A  
HETATM   13  C   UNL     1      -7.966   7.890  64.750  1.00  0.00    -0.140 A  
HETATM   14 CL   UNL     1      -8.058  10.203  63.366  1.00  0.00    -0.157 Cl 
HETATM   15  C   UNL     1      -9.567   9.530  65.500  1.00  0.00    -0.349 A  
ENDBRANCH   2   9
BRANCH   8  16
HETATM   16  C   UNL     1      -9.916   7.528  71.380  1.00  0.00    -0.185 C  
BRANCH  16  17
HETATM   17  C   UNL     1     -11.154   8.287  71.866  1.00  0.00    -0.357 C  
BRANCH  17  18
HETATM   18  C   UNL     1     -11.321   9.640  71.174  1.00  0.00    -0.456 C  
BRANCH  18  19
HETATM   19  C   UNL     1     -12.665  10.264  71.494  1.00  0.00    -0.452 C  
HETATM   20  O   UNL     1     -13.654   9.598  71.793  1.00  0.00    -0.379 OA 
BRANCH  19  21
HETATM   21  C   UNL     1     -12.795  11.740  71.393  1.00  0.00    -0.440 A  
HETATM   22  C   UNL     1     -12.116  12.396  70.354  1.00  0.00    -0.381 A  
HETATM   23  C   UNL     1     -12.189  13.783  70.231  1.00  0.00    -0.429 A  
HETATM   24  C   UNL     1     -12.952  14.510  71.138  1.00  0.00    -0.346 A  
HETATM   25  F   UNL     1     -13.024  15.841  71.020  1.00  0.00    -0.480 F  
HETATM   26  C   UNL     1     -13.644  13.875  72.163  1.00  0.00    -0.599 A  
HETATM   27  C   UNL     1     -13.567  12.487  72.297  1.00  0.00    -0.443 A  
ENDBRANCH  19  21
ENDBRANCH  18  19
ENDBRANCH  17  18
ENDBRANCH  16  17
ENDBRANCH   8  16
TORSDOF 6
ENDMDL
MODEL       87
REMARK 921   NORMALIZED FREE ENERGY PREDICTED BY IDOCK:   -5.41 KCAL/MOL
REMARK 922        TOTAL FREE ENERGY PREDICTED BY IDOCK:   -8.62 KCAL/MOL
REMARK 923 INTER-LIGAND FREE ENERGY PREDICTED BY IDOCK:   -7.39 KCAL/MOL
REMARK 924 INTRA-LIGAND FREE ENERGY PREDICTED BY IDOCK:   -1.23 KCAL/MOL
REMARK 927      BINDING AFFINITY PREDICTED BY RF-SCORE:    0.00 PKD
ROOT
HETATM    1  O   UNL     1      -9.947  14.703  70.066  1.00  0.00    -0.395 OA 
HETATM    2  C   UNL     1     -10.068  14.469  68.652  1.00  0.00    -0.244 C  
HETATM    3  H   UNL     1     -10.639  15.301  70.322  1.00  0.00     0.000 HD 
HETATM    4  C   UNL     1      -8.945  13.499  68.238  1.00  0.00    -0.180 C  
HETATM    5  C   UNL     1     -11.465  13.870  68.390  1.00  0.00    -0.346 C  
HETATM    6  C   UNL     1      -9.196  12.083  68.762  1.00  0.00     0.069 C  
HETATM    7  C   UNL     1     -11.581  12.426  68.885  1.00  0.00    -0.316 C  
HETATM    8  N   UNL     1     -10.513  11.544  68.392  1.00  0.00    -0.199 NA 
ENDROOT
BRANCH   2   9
HETATM    9  C   UNL     1      -9.925  15.817  67.933  1.00  0.00    -0.227 A  
HETATM   10  C   UNL     1      -8.795  16.108  67.145  1.00  0.00    -0.218 A  
HETATM   11  C   UNL     1     -10.908  16.817  68.060  1.00  0.00    -0.341 A  
HETATM   12  C   UNL     1      -9.620  18.327  66.683  1.00  0.00    -0.315 A  
HETATM   13  C   UNL     1      -8.642  17.352  66.527  1.00  0.00    -0.293 A  
HETATM   14 CL   UNL     1      -9.420  19.867  65.942  1.00  0.00    -0.382 Cl 
HETATM   15  C   UNL     1     -10.757  18.064  67.441  1.00  0.00    -0.334 A  
ENDBRANCH   2   9
BRANCH   8  16
HETATM   16  C   UNL     1     -10.664  11.264  66.953  1.00  0.00    -0.273 C  
BRANCH  16  17
HETATM   17  C   UNL     1      -9.522  10.444  66.346  1.00  0.00    -0.209 C  
BRANCH  17  18
HETATM   18  C   UNL     1      -9.876   9.871  64.974  1.00  0.00    -0.323 C  
BRANCH  18  19
HETATM   19  C   UNL     1      -9.720  10.910  63.882  1.00  0.00    -0.303 C  
HETATM   20  O   UNL     1      -8.902  10.802  62.971  1.00  0.00    -0.200 OA 
BRANCH  19  21
HETATM   21  C   UNL     1     -10.562  12.131  63.950  1.00  0.00    -0.457 A  
HETATM   22  C   UNL     1     -10.000  13.295  64.497  1.00  0.00    -0.117 A  
HETATM   23  C   UNL     1     -10.759  14.461  64.604  1.00  0.00    -0.357 A  
HETATM   24  C   UNL     1     -12.073  14.464  64.149  1.00  0.00    -0.376 A  
HETATM   25  F   UNL     1     -12.801  15.582  64.250  1.00  0.00    -0.264 F  
HETATM   26  C   UNL     1     -12.641  13.325  63.590  1.00  0.00    -0.200 A  
HETATM   27  C   UNL     1     -11.889  12.152  63.489  1.00  0.00    -0.597 A  
ENDBRANCH  19  21
ENDBRANCH  18  19
ENDBRANCH  17  18
ENDBRANCH  16  17
ENDBRANCH   8  16
TORSDOF 6
ENDMDL
MODEL       88
REMARK 921   NORMALIZED FREE ENERGY PREDICTED BY IDOCK:   -5.37 KCAL/MOL
REMARK 922        TOTAL FREE ENERGY PREDICTED BY IDOCK:   -8.56 KCAL/MOL
REMARK 923 INTER-LIGAND FREE ENERGY PREDICTED BY IDOCK:   -7.73 KCAL/MOL
REMARK 924 INTRA-LIGAND FREE ENERGY PREDICTED BY IDOCK:   -0.83 KCAL/MOL
REMARK 927      BINDING AFFINITY PREDICTED BY RF-SCORE:    0.00 PKD
ROOT
HETATM    1  O   UNL     1      -9.620  12.117  64.839  1.00  0.00    -0.439 OA 
HETATM    2  C   UNL     1      -9.866  12.651  66.153  1.00  0.00    -0.259 C  
HETATM    3  H   UNL     1      -8.820  12.511  64.511  1.00  0.00     0.000 HD 
HETATM    4  C   UNL     1     -11.163  12.012  66.684  1.00  0.00    -0.380 C  
HETATM    5  C   UNL     1      -8.653  12.300  67.039  1.00  0.00    -0.191 C  
HETATM    6  C   UNL     1     -10.968  10.535  67.031  1.00  0.00    -0.180 C  
HETATM    7  C   UNL     1      -8.598  10.811  67.388  1.00  0.00    -0.126 C  
HETATM    8  N   UNL     1      -9.851  10.290  67.955  1.00  0.00    -0.155 NA 
ENDROOT
BRANCH   2   9
HETATM    9  C   UNL     1     -10.011  14.174  66.028  1.00  0.00    -0.340 A  
HETATM   10  C   UNL     1      -9.403  15.042  66.954  1.00  0.00    -0.258 A  
HETATM   11  C   UNL     1     -10.779  14.750  64.998  1.00  0.00    -0.452 A  
HETATM   12  C   UNL     1     -10.348  16.968  65.852  1.00  0.00    -0.298 A  
HETATM   13  C   UNL     1      -9.571  16.427  66.869  1.00  0.00    -0.255 A  
HETATM   14 CL   UNL     1     -10.575  18.672  65.761  1.00  0.00    -0.427 Cl 
HETATM   15  C   UNL     1     -10.948  16.137  64.911  1.00  0.00    -0.364 A  
ENDBRANCH   2   9
BRANCH   8  16
HETATM   16  C   UNL     1     -10.079  10.797  69.320  1.00  0.00    -0.177 C  
BRANCH  16  17
HETATM   17  C   UNL     1     -11.385  10.319  69.962  1.00  0.00    -0.370 C  
BRANCH  17  18
HETATM   18  C   UNL     1     -11.153   9.563  71.270  1.00  0.00    -0.449 C  
BRANCH  18  19
HETATM   19  C   UNL     1     -12.030   8.331  71.361  1.00  0.00    -0.299 C  
HETATM   20  O   UNL     1     -13.230   8.385  71.623  1.00  0.00    -0.335 OA 
BRANCH  19  21
HETATM   21  C   UNL     1     -11.396   7.002  71.172  1.00  0.00    -0.319 A  
HETATM   22  C   UNL     1     -11.041   6.267  72.314  1.00  0.00    -0.311 A  
HETATM   23  C   UNL     1     -10.422   5.023  72.187  1.00  0.00    -0.274 A  
HETATM   24  C   UNL     1     -10.172   4.511  70.919  1.00  0.00    -0.099 A  
HETATM   25  F   UNL     1      -9.579   3.318  70.797  1.00  0.00    -0.206 F  
HETATM   26  C   UNL     1     -10.530   5.218  69.777  1.00  0.00    -0.340 A  
HETATM   27  C   UNL     1     -11.143   6.467  69.898  1.00  0.00    -0.430 A  
ENDBRANCH  19  21
ENDBRANCH  18  19
ENDBRANCH  17  18
ENDBRANCH  16  17
ENDBRANCH   8  16
TORSDOF 6
ENDMDL
MODEL       89
REMARK 921   NORMALIZED FREE ENERGY PREDICTED BY IDOCK:   -5.37 KCAL/MOL
REMARK 922        TOTAL FREE ENERGY PREDICTED BY IDOCK:   -8.56 KCAL/MOL
REMARK 923 INTER-LIGAND FREE ENERGY PREDICTED BY IDOCK:   -7.69 KCAL/MOL
REMARK 924 INTRA-LIGAND FREE ENERGY PREDICTED BY IDOCK:   -0.87 KCAL/MOL
REMARK 927      BINDING AFFINITY PREDICTED BY RF-SCORE:    0.00 PKD
ROOT
HETATM    1  O   UNL     1      -8.415   8.576  68.253  1.00  0.00    -0.132 OA 
HETATM    2  C   UNL     1      -9.607   9.125  68.843  1.00  0.00    -0.152 C  
HETATM    3  H   UNL     1      -8.616   7.696  67.958  1.00  0.00     0.000 HD 
HETATM    4  C   UNL     1      -9.281  10.552  69.321  1.00  0.00    -0.164 C  
HETATM    5  C   UNL     1     -10.712   9.122  67.766  1.00  0.00    -0.243 C  
HETATM    6  C   UNL     1      -9.100  11.517  68.147  1.00  0.00    -0.181 C  
HETATM    7  C   UNL     1     -10.470  10.175  66.682  1.00  0.00    -0.185 C  
HETATM    8  N   UNL     1     -10.235  11.527  67.213  1.00  0.00    -0.199 NA 
ENDROOT
BRANCH   2   9
HETATM    9  C   UNL     1     -10.012   8.227  70.021  1.00  0.00    -0.188 A  
HETATM   10  C   UNL     1     -10.090   8.734  71.331  1.00  0.00    -0.354 A  
HETATM   11  C   UNL     1     -10.291   6.860  69.831  1.00  0.00    -0.223 A  
HETATM   12  C   UNL     1     -10.669   6.559  72.197  1.00  0.00    -0.221 A  
HETATM   13  C   UNL     1     -10.414   7.908  72.411  1.00  0.00    -0.339 A  
HETATM   14 CL   UNL     1     -11.044   5.536  73.530  1.00  0.00    -0.287 Cl 
HETATM   15  C   UNL     1     -10.616   6.031  70.911  1.00  0.00    -0.310 A  
ENDBRANCH   2   9
BRANCH   8  16
HETATM   16  C   UNL     1     -11.468  12.109  67.774  1.00  0.00    -0.332 C  
BRANCH  16  17
HETATM   17  C   UNL     1     -11.976  13.347  67.030  1.00  0.00    -0.429 C  
BRANCH  17  18
HETATM   18  C   UNL     1     -11.549  14.652  67.702  1.00  0.00    -0.383 C  
BRANCH  18  19
HETATM   19  C   UNL     1     -10.483  15.367  66.897  1.00  0.00    -0.295 C  
HETATM   20  O   UNL     1      -9.658  14.773  66.207  1.00  0.00    -0.280 OA 
BRANCH  19  21
HETATM   21  C   UNL     1     -10.410  16.848  66.989  1.00  0.00    -0.307 A  
HETATM   22  C   UNL     1     -10.169  17.423  68.247  1.00  0.00    -0.362 A  
HETATM   23  C   UNL     1     -10.114  18.809  68.389  1.00  0.00    -0.443 A  
HETATM   24  C   UNL     1     -10.285  19.617  67.270  1.00  0.00    -0.433 A  
HETATM   25  F   UNL     1     -10.231  20.947  67.405  1.00  0.00    -0.512 F  
HETATM   26  C   UNL     1     -10.509  19.065  66.014  1.00  0.00    -0.530 A  
HETATM   27  C   UNL     1     -10.574  17.677  65.868  1.00  0.00    -0.203 A  
ENDBRANCH  19  21
ENDBRANCH  18  19
ENDBRANCH  17  18
ENDBRANCH  16  17
ENDBRANCH   8  16
TORSDOF 6
ENDMDL
MODEL       90
REMARK 921   NORMALIZED FREE ENERGY PREDICTED BY IDOCK:   -5.35 KCAL/MOL
REMARK 922        TOTAL FREE ENERGY PREDICTED BY IDOCK:   -8.53 KCAL/MOL
REMARK 923 INTER-LIGAND FREE ENERGY PREDICTED BY IDOCK:   -7.68 KCAL/MOL
REMARK 924 INTRA-LIGAND FREE ENERGY PREDICTED BY IDOCK:   -0.85 KCAL/MOL
REMARK 927      BINDING AFFINITY PREDICTED BY RF-SCORE:    0.00 PKD
ROOT
HETATM    1  O   UNL     1      -9.562  14.785  69.402  1.00  0.00    -0.378 OA 
HETATM    2  C   UNL     1      -9.533  15.433  68.118  1.00  0.00    -0.202 C  
HETATM    3  H   UNL     1      -9.975  15.379  70.018  1.00  0.00     0.000 HD 
HETATM    4  C   UNL     1      -8.863  14.469  67.120  1.00  0.00    -0.245 C  
HETATM    5  C   UNL     1     -10.989  15.750  67.716  1.00  0.00    -0.314 C  
HETATM    6  C   UNL     1      -9.762  13.276  66.793  1.00  0.00    -0.258 C  
HETATM    7  C   UNL     1     -11.774  14.493  67.336  1.00  0.00    -0.400 C  
HETATM    8  N   UNL     1     -11.103  13.659  66.327  1.00  0.00    -0.299 NA 
ENDROOT
BRANCH   2   9
HETATM    9  C   UNL     1      -8.726  16.731  68.258  1.00  0.00    -0.227 A  
HETATM   10  C   UNL     1      -7.528  16.769  68.995  1.00  0.00    -0.228 A  
HETATM   11  C   UNL     1      -9.174  17.933  67.676  1.00  0.00    -0.258 A  
HETATM   12  C   UNL     1      -7.289  19.135  68.591  1.00  0.00    -0.330 A  
HETATM   13  C   UNL     1      -6.816  17.960  69.162  1.00  0.00    -0.219 A  
HETATM   14 CL   UNL     1      -6.426  20.606  68.817  1.00  0.00    -0.279 Cl 
HETATM   15  C   UNL     1      -8.462  19.126  67.843  1.00  0.00    -0.335 A  
ENDBRANCH   2   9
BRANCH   8  16
HETATM   16  C   UNL     1     -11.116  14.300  65.000  1.00  0.00    -0.373 C  
BRANCH  16  17
HETATM   17  C   UNL     1     -11.827  13.488  63.913  1.00  0.00    -0.460 C  
BRANCH  17  18
HETATM   18  C   UNL     1     -11.707  11.980  64.135  1.00  0.00    -0.457 C  
BRANCH  18  19
HETATM   19  C   UNL     1     -10.327  11.474  63.770  1.00  0.00    -0.399 C  
HETATM   20  O   UNL     1      -9.661  11.954  62.854  1.00  0.00    -0.367 OA 
BRANCH  19  21
HETATM   21  C   UNL     1      -9.781  10.318  64.525  1.00  0.00    -0.395 A  
HETATM   22  C   UNL     1     -10.273  10.079  65.819  1.00  0.00    -0.270 A  
HETATM   23  C   UNL     1      -9.775   9.019  66.576  1.00  0.00    -0.311 A  
HETATM   24  C   UNL     1      -8.798   8.191  66.034  1.00  0.00    -0.172 A  
HETATM   25  F   UNL     1      -8.321   7.174  66.760  1.00  0.00    -0.107 F  
HETATM   26  C   UNL     1      -8.311   8.403  64.750  1.00  0.00    -0.151 A  
HETATM   27  C   UNL     1      -8.799   9.469  63.989  1.00  0.00    -0.243 A  
ENDBRANCH  19  21
ENDBRANCH  18  19
ENDBRANCH  17  18
ENDBRANCH  16  17
ENDBRANCH   8  16
TORSDOF 6
ENDMDL
MODEL       91
REMARK 921   NORMALIZED FREE ENERGY PREDICTED BY IDOCK:   -5.33 KCAL/MOL
REMARK 922        TOTAL FREE ENERGY PREDICTED BY IDOCK:   -8.51 KCAL/MOL
REMARK 923 INTER-LIGAND FREE ENERGY PREDICTED BY IDOCK:   -7.77 KCAL/MOL
REMARK 924 INTRA-LIGAND FREE ENERGY PREDICTED BY IDOCK:   -0.75 KCAL/MOL
REMARK 927      BINDING AFFINITY PREDICTED BY RF-SCORE:    0.00 PKD
ROOT
HETATM    1  O   UNL     1     -10.525   9.534  66.729  1.00  0.00    -0.239 OA 
HETATM    2  C   UNL     1     -10.445  10.472  67.818  1.00  0.00    -0.224 C  
HETATM    3  H   UNL     1     -11.383   9.126  66.760  1.00  0.00     0.000 HD 
HETATM    4  C   UNL     1      -9.055  11.133  67.768  1.00  0.00    -0.149 C  
HETATM    5  C   UNL     1     -11.577  11.505  67.635  1.00  0.00    -0.320 C  
HETATM    6  C   UNL     1      -8.926  12.093  66.583  1.00  0.00    -0.198 C  
HETATM    7  C   UNL     1     -11.308  12.461  66.471  1.00  0.00    -0.340 C  
HETATM    8  N   UNL     1      -9.988  13.108  66.530  1.00  0.00    -0.262 NA 
ENDROOT
BRANCH   2   9
HETATM    9  C   UNL     1     -10.641   9.697  69.128  1.00  0.00    -0.237 A  
HETATM   10  C   UNL     1      -9.967   8.484  69.367  1.00  0.00    -0.194 A  
HETATM   11  C   UNL     1     -11.523  10.161  70.124  1.00  0.00    -0.368 A  
HETATM   12  C   UNL     1     -11.067   8.227  71.498  1.00  0.00    -0.259 A  
HETATM   13  C   UNL     1     -10.178   7.754  70.539  1.00  0.00    -0.201 A  
HETATM   14 CL   UNL     1     -11.346   7.316  72.931  1.00  0.00    -0.315 Cl 
HETATM   15  C   UNL     1     -11.736   9.431  71.299  1.00  0.00    -0.432 A  
ENDBRANCH   2   9
BRANCH   8  16
HETATM   16  C   UNL     1      -9.922  14.104  67.614  1.00  0.00    -0.233 C  
BRANCH  16  17
HETATM   17  C   UNL     1     -10.318  15.522  67.193  1.00  0.00    -0.272 C  
BRANCH  17  18
HETATM   18  C   UNL     1      -9.207  16.239  66.425  1.00  0.00    -0.332 C  
BRANCH  18  19
HETATM   19  C   UNL     1      -9.464  17.730  66.343  1.00  0.00    -0.264 C  
HETATM   20  O   UNL     1     -10.395  18.213  65.702  1.00  0.00    -0.603 OA 
BRANCH  19  21
HETATM   21  C   UNL     1      -8.516  18.643  67.032  1.00  0.00    -0.275 A  
HETATM   22  C   UNL     1      -8.197  19.860  66.409  1.00  0.00    -0.365 A  
HETATM   23  C   UNL     1      -7.294  20.741  67.005  1.00  0.00    -0.354 A  
HETATM   24  C   UNL     1      -6.725  20.410  68.230  1.00  0.00    -0.278 A  
HETATM   25  F   UNL     1      -5.860  21.255  68.803  1.00  0.00    -0.368 F  
HETATM   26  C   UNL     1      -7.041  19.217  68.869  1.00  0.00    -0.372 A  
HETATM   27  C   UNL     1      -7.937  18.327  68.272  1.00  0.00    -0.312 A  
ENDBRANCH  19  21
ENDBRANCH  18  19
ENDBRANCH  17  18
ENDBRANCH  16  17
ENDBRANCH   8  16
TORSDOF 6
ENDMDL
MODEL       92
REMARK 921   NORMALIZED FREE ENERGY PREDICTED BY IDOCK:   -5.33 KCAL/MOL
REMARK 922        TOTAL FREE ENERGY PREDICTED BY IDOCK:   -8.51 KCAL/MOL
REMARK 923 INTER-LIGAND FREE ENERGY PREDICTED BY IDOCK:   -7.86 KCAL/MOL
REMARK 924 INTRA-LIGAND FREE ENERGY PREDICTED BY IDOCK:   -0.65 KCAL/MOL
REMARK 927      BINDING AFFINITY PREDICTED BY RF-SCORE:    0.00 PKD
ROOT
HETATM    1  O   UNL     1      -8.209   9.435  67.451  1.00  0.00    -0.119 OA 
HETATM    2  C   UNL     1      -9.350  10.116  68.003  1.00  0.00    -0.141 C  
HETATM    3  H   UNL     1      -8.449   8.525  67.320  1.00  0.00     0.000 HD 
HETATM    4  C   UNL     1      -8.960  11.591  68.216  1.00  0.00    -0.177 C  
HETATM    5  C   UNL     1     -10.515   9.971  67.002  1.00  0.00    -0.302 C  
HETATM    6  C   UNL     1      -8.824  12.339  66.888  1.00  0.00    -0.207 C  
HETATM    7  C   UNL     1     -10.311  10.821  65.746  1.00  0.00    -0.230 C  
HETATM    8  N   UNL     1     -10.011  12.233  66.028  1.00  0.00    -0.248 NA 
ENDROOT
BRANCH   2   9
HETATM    9  C   UNL     1      -9.708   9.441  69.335  1.00  0.00    -0.181 A  
HETATM   10  C   UNL     1     -10.800   9.882  70.106  1.00  0.00    -0.356 A  
HETATM   11  C   UNL     1      -8.938   8.376  69.842  1.00  0.00    -0.142 A  
HETATM   12  C   UNL     1     -10.313   8.261  71.824  1.00  0.00    -0.254 A  
HETATM   13  C   UNL     1     -11.100   9.299  71.340  1.00  0.00    -0.437 A  
HETATM   14 CL   UNL     1     -10.668   7.559  73.355  1.00  0.00    -0.433 Cl 
HETATM   15  C   UNL     1      -9.237   7.792  71.077  1.00  0.00    -0.158 A  
ENDBRANCH   2   9
BRANCH   8  16
HETATM   16  C   UNL     1     -11.194  12.943  66.547  1.00  0.00    -0.302 C  
BRANCH  16  17
HETATM   17  C   UNL     1     -11.511  14.255  65.823  1.00  0.00    -0.335 C  
BRANCH  17  18
HETATM   18  C   UNL     1     -10.313  15.204  65.776  1.00  0.00    -0.359 C  
BRANCH  18  19
HETATM   19  C   UNL     1     -10.690  16.542  65.175  1.00  0.00    -0.244 C  
HETATM   20  O   UNL     1     -11.361  16.648  64.151  1.00  0.00    -1.141 OA 
BRANCH  19  21
HETATM   21  C   UNL     1     -10.182  17.774  65.832  1.00  0.00    -0.231 A  
HETATM   22  C   UNL     1      -8.961  17.702  66.522  1.00  0.00    -0.283 A  
HETATM   23  C   UNL     1      -8.454  18.826  67.174  1.00  0.00    -0.283 A  
HETATM   24  C   UNL     1      -9.161  20.023  67.121  1.00  0.00    -0.363 A  
HETATM   25  F   UNL     1      -8.675  21.101  67.746  1.00  0.00    -0.178 F  
HETATM   26  C   UNL     1     -10.363  20.116  66.430  1.00  0.00    -0.510 A  
HETATM   27  C   UNL     1     -10.880  18.991  65.782  1.00  0.00    -0.247 A  
ENDBRANCH  19  21
ENDBRANCH  18  19
ENDBRANCH  17  18
ENDBRANCH  16  17
ENDBRANCH   8  16
TORSDOF 6
ENDMDL
MODEL       93
REMARK 921   NORMALIZED FREE ENERGY PREDICTED BY IDOCK:   -5.32 KCAL/MOL
REMARK 922        TOTAL FREE ENERGY PREDICTED BY IDOCK:   -8.50 KCAL/MOL
REMARK 923 INTER-LIGAND FREE ENERGY PREDICTED BY IDOCK:   -7.15 KCAL/MOL
REMARK 924 INTRA-LIGAND FREE ENERGY PREDICTED BY IDOCK:   -1.35 KCAL/MOL
REMARK 927      BINDING AFFINITY PREDICTED BY RF-SCORE:    0.00 PKD
ROOT
HETATM    1  O   UNL     1      -9.295   7.596  65.546  1.00  0.00    -0.379 OA 
HETATM    2  C   UNL     1      -9.208   8.418  66.724  1.00  0.00    -0.171 C  
HETATM    3  H   UNL     1     -10.163   7.207  65.528  1.00  0.00     0.000 HD 
HETATM    4  C   UNL     1      -7.802   9.047  66.754  1.00  0.00    -0.104 C  
HETATM    5  C   UNL     1     -10.312   9.491  66.634  1.00  0.00    -0.280 C  
HETATM    6  C   UNL     1      -7.635  10.117  65.673  1.00  0.00    -0.144 C  
HETATM    7  C   UNL     1     -10.007  10.552  65.575  1.00  0.00    -0.279 C  
HETATM    8  N   UNL     1      -8.673  11.157  65.710  1.00  0.00    -0.179 NA 
ENDROOT
BRANCH   2   9
HETATM    9  C   UNL     1      -9.438   7.521  67.948  1.00  0.00    -0.153 A  
HETATM   10  C   UNL     1      -8.368   6.856  68.577  1.00  0.00    -0.121 A  
HETATM   11  C   UNL     1     -10.731   7.313  68.466  1.00  0.00    -0.165 A  
HETATM   12  C   UNL     1      -9.870   5.803  70.143  1.00  0.00    -0.184 A  
HETATM   13  C   UNL     1      -8.581   6.004  69.664  1.00  0.00    -0.126 A  
HETATM   14 CL   UNL     1     -10.136   4.734  71.466  1.00  0.00    -0.261 Cl 
HETATM   15  C   UNL     1     -10.946   6.459  69.554  1.00  0.00    -0.421 A  
ENDBRANCH   2   9
BRANCH   8  16
HETATM   16  C   UNL     1      -8.597  12.039  66.890  1.00  0.00    -0.189 C  
BRANCH  16  17
HETATM   17  C   UNL     1      -9.421  13.324  66.772  1.00  0.00    -0.257 C  
BRANCH  17  18
HETATM   18  C   UNL     1      -9.676  13.984  68.127  1.00  0.00    -0.220 C  
BRANCH  18  19
HETATM   19  C   UNL     1     -11.159  14.113  68.410  1.00  0.00    -0.252 C  
HETATM   20  O   UNL     1     -11.885  14.907  67.816  1.00  0.00    -0.345 OA 
BRANCH  19  21
HETATM   21  C   UNL     1     -11.743  13.272  69.486  1.00  0.00    -0.384 A  
HETATM   22  C   UNL     1     -11.595  11.879  69.395  1.00  0.00    -0.388 A  
HETATM   23  C   UNL     1     -12.146  11.047  70.369  1.00  0.00    -0.463 A  
HETATM   24  C   UNL     1     -12.830  11.610  71.440  1.00  0.00    -0.356 A  
HETATM   25  F   UNL     1     -13.358  10.812  72.375  1.00  0.00    -0.527 F  
HETATM   26  C   UNL     1     -12.974  12.987  71.555  1.00  0.00    -0.398 A  
HETATM   27  C   UNL     1     -12.433  13.826  70.578  1.00  0.00    -0.409 A  
ENDBRANCH  19  21
ENDBRANCH  18  19
ENDBRANCH  17  18
ENDBRANCH  16  17
ENDBRANCH   8  16
TORSDOF 6
ENDMDL
MODEL       94
REMARK 921   NORMALIZED FREE ENERGY PREDICTED BY IDOCK:   -5.30 KCAL/MOL
REMARK 922        TOTAL FREE ENERGY PREDICTED BY IDOCK:   -8.47 KCAL/MOL
REMARK 923 INTER-LIGAND FREE ENERGY PREDICTED BY IDOCK:   -7.76 KCAL/MOL
REMARK 924 INTRA-LIGAND FREE ENERGY PREDICTED BY IDOCK:   -0.71 KCAL/MOL
REMARK 927      BINDING AFFINITY PREDICTED BY RF-SCORE:    0.00 PKD
ROOT
HETATM    1  O   UNL     1     -12.161  10.946  67.922  1.00  0.00    -0.736 OA 
HETATM    2  C   UNL     1     -11.069  11.617  67.268  1.00  0.00    -0.290 C  
HETATM    3  H   UNL     1     -11.792  10.358  68.572  1.00  0.00     0.000 HD 
HETATM    4  C   UNL     1     -11.668  12.569  66.215  1.00  0.00    -0.462 C  
HETATM    5  C   UNL     1     -10.273  12.384  68.344  1.00  0.00    -0.227 C  
HETATM    6  C   UNL     1     -12.363  13.768  66.863  1.00  0.00    -0.285 C  
HETATM    7  C   UNL     1     -11.030  13.606  68.868  1.00  0.00    -0.249 C  
HETATM    8  N   UNL     1     -11.510  14.504  67.807  1.00  0.00    -0.324 NA 
ENDROOT
BRANCH   2   9
HETATM    9  C   UNL     1     -10.182  10.552  66.608  1.00  0.00    -0.289 A  
HETATM   10  C   UNL     1      -9.276  10.888  65.586  1.00  0.00    -0.227 A  
HETATM   11  C   UNL     1     -10.267   9.198  66.987  1.00  0.00    -0.333 A  
HETATM   12  C   UNL     1      -8.616   8.582  65.336  1.00  0.00    -0.176 A  
HETATM   13  C   UNL     1      -8.500   9.913  64.953  1.00  0.00    -0.168 A  
HETATM   14 CL   UNL     1      -7.679   7.378  64.540  1.00  0.00    -0.120 Cl 
HETATM   15  C   UNL     1      -9.491   8.220  66.355  1.00  0.00    -0.287 A  
ENDBRANCH   2   9
BRANCH   8  16
HETATM   16  C   UNL     1     -10.396  15.230  67.168  1.00  0.00    -0.265 C  
BRANCH  16  17
HETATM   17  C   UNL     1      -9.322  15.722  68.143  1.00  0.00    -0.194 C  
BRANCH  17  18
HETATM   18  C   UNL     1      -9.804  16.886  69.008  1.00  0.00    -0.247 C  
BRANCH  18  19
HETATM   19  C   UNL     1      -9.854  18.179  68.220  1.00  0.00    -0.351 C  
HETATM   20  O   UNL     1     -10.878  18.592  67.680  1.00  0.00    -0.418 OA 
BRANCH  19  21
HETATM   21  C   UNL     1      -8.595  18.950  68.058  1.00  0.00    -0.330 A  
HETATM   22  C   UNL     1      -8.563  19.973  67.097  1.00  0.00    -0.400 A  
HETATM   23  C   UNL     1      -7.396  20.710  66.892  1.00  0.00    -0.339 A  
HETATM   24  C   UNL     1      -6.270  20.433  67.658  1.00  0.00    -0.235 A  
HETATM   25  F   UNL     1      -5.151  21.140  67.463  1.00  0.00    -0.200 F  
HETATM   26  C   UNL     1      -6.288  19.435  68.625  1.00  0.00    -0.284 A  
HETATM   27  C   UNL     1      -7.451  18.687  68.829  1.00  0.00    -0.322 A  
ENDBRANCH  19  21
ENDBRANCH  18  19
ENDBRANCH  17  18
ENDBRANCH  16  17
ENDBRANCH   8  16
TORSDOF 6
ENDMDL
MODEL       95
REMARK 921   NORMALIZED FREE ENERGY PREDICTED BY IDOCK:   -5.27 KCAL/MOL
REMARK 922        TOTAL FREE ENERGY PREDICTED BY IDOCK:   -8.44 KCAL/MOL
REMARK 923 INTER-LIGAND FREE ENERGY PREDICTED BY IDOCK:   -7.63 KCAL/MOL
REMARK 924 INTRA-LIGAND FREE ENERGY PREDICTED BY IDOCK:   -0.80 KCAL/MOL
REMARK 927      BINDING AFFINITY PREDICTED BY RF-SCORE:    0.00 PKD
ROOT
HETATM    1  O   UNL     1     -12.334  10.642  68.620  1.00  0.00    -0.820 OA 
HETATM    2  C   UNL     1     -11.009  11.019  68.203  1.00  0.00    -0.247 C  
HETATM    3  H   UNL     1     -12.327  10.553  69.566  1.00  0.00     0.000 HD 
HETATM    4  C   UNL     1     -11.022  11.164  66.670  1.00  0.00    -0.289 C  
HETATM    5  C   UNL     1     -10.657  12.351  68.900  1.00  0.00    -0.160 C  
HETATM    6  C   UNL     1     -11.802  12.402  66.222  1.00  0.00    -0.364 C  
HETATM    7  C   UNL     1     -11.439  13.533  68.323  1.00  0.00    -0.310 C  
HETATM    8  N   UNL     1     -11.346  13.646  66.859  1.00  0.00    -0.315 NA 
ENDROOT
BRANCH   2   9
HETATM    9  C   UNL     1     -10.039   9.916  68.647  1.00  0.00    -0.191 A  
HETATM   10  C   UNL     1      -9.395   9.090  67.706  1.00  0.00    -0.156 A  
HETATM   11  C   UNL     1      -9.782   9.677  70.011  1.00  0.00    -0.280 A  
HETATM   12  C   UNL     1      -8.324   7.831  69.463  1.00  0.00    -0.129 A  
HETATM   13  C   UNL     1      -8.546   8.055  68.109  1.00  0.00    -0.126 A  
HETATM   14 CL   UNL     1      -7.299   6.541  69.960  1.00  0.00    -0.087 Cl 
HETATM   15  C   UNL     1      -8.933   8.641  70.416  1.00  0.00    -0.173 A  
ENDBRANCH   2   9
BRANCH   8  16
HETATM   16  C   UNL     1     -10.003  14.081  66.434  1.00  0.00    -0.294 C  
BRANCH  16  17
HETATM   17  C   UNL     1      -9.974  15.437  65.724  1.00  0.00    -0.393 C  
BRANCH  17  18
HETATM   18  C   UNL     1     -10.781  16.504  66.463  1.00  0.00    -0.144 C  
BRANCH  18  19
HETATM   19  C   UNL     1     -10.407  17.899  66.003  1.00  0.00    -0.318 C  
HETATM   20  O   UNL     1     -10.928  18.442  65.031  1.00  0.00    -0.644 OA 
BRANCH  19  21
HETATM   21  C   UNL     1      -9.332  18.614  66.736  1.00  0.00    -0.312 A  
HETATM   22  C   UNL     1      -9.275  18.475  68.132  1.00  0.00    -0.329 A  
HETATM   23  C   UNL     1      -8.297  19.145  68.867  1.00  0.00    -0.325 A  
HETATM   24  C   UNL     1      -7.370  19.941  68.204  1.00  0.00    -0.303 A  
HETATM   25  F   UNL     1      -6.431  20.584  68.908  1.00  0.00    -0.339 F  
HETATM   26  C   UNL     1      -7.402  20.078  66.821  1.00  0.00    -0.278 A  
HETATM   27  C   UNL     1      -8.384  19.417  66.080  1.00  0.00    -0.310 A  
ENDBRANCH  19  21
ENDBRANCH  18  19
ENDBRANCH  17  18
ENDBRANCH  16  17
ENDBRANCH   8  16
TORSDOF 6
ENDMDL
MODEL       96
REMARK 921   NORMALIZED FREE ENERGY PREDICTED BY IDOCK:   -5.27 KCAL/MOL
REMARK 922        TOTAL FREE ENERGY PREDICTED BY IDOCK:   -8.43 KCAL/MOL
REMARK 923 INTER-LIGAND FREE ENERGY PREDICTED BY IDOCK:   -6.89 KCAL/MOL
REMARK 924 INTRA-LIGAND FREE ENERGY PREDICTED BY IDOCK:   -1.54 KCAL/MOL
REMARK 927      BINDING AFFINITY PREDICTED BY RF-SCORE:    0.00 PKD
ROOT
HETATM    1  O   UNL     1      -8.883  12.133  68.952  1.00  0.00    -0.379 OA 
HETATM    2  C   UNL     1      -8.983  10.958  68.127  1.00  0.00    -0.144 C  
HETATM    3  H   UNL     1      -9.762  12.376  69.220  1.00  0.00     0.000 HD 
HETATM    4  C   UNL     1      -7.559  10.567  67.692  1.00  0.00    -0.093 C  
HETATM    5  C   UNL     1      -9.650   9.849  68.967  1.00  0.00    -0.188 C  
HETATM    6  C   UNL     1      -6.744  10.002  68.858  1.00  0.00    -0.053 C  
HETATM    7  C   UNL     1      -8.721   9.304  70.053  1.00  0.00    -0.195 C  
HETATM    8  N   UNL     1      -7.403   8.885  69.550  1.00  0.00    -0.069 NA 
ENDROOT
BRANCH   2   9
HETATM    9  C   UNL     1      -9.857  11.303  66.913  1.00  0.00    -0.220 A  
HETATM   10  C   UNL     1     -10.973  12.151  67.034  1.00  0.00    -0.319 A  
HETATM   11  C   UNL     1      -9.584  10.759  65.643  1.00  0.00    -0.263 A  
HETATM   12  C   UNL     1     -11.513  11.866  64.701  1.00  0.00    -0.279 A  
HETATM   13  C   UNL     1     -11.796  12.430  65.940  1.00  0.00    -0.467 A  
HETATM   14 CL   UNL     1     -12.540  12.189  63.358  1.00  0.00    -0.661 Cl 
HETATM   15  C   UNL     1     -10.407  11.036  64.545  1.00  0.00    -0.420 A  
ENDBRANCH   2   9
BRANCH   8  16
HETATM   16  C   UNL     1      -7.499   7.653  68.746  1.00  0.00    -0.100 C  
BRANCH  16  17
HETATM   17  C   UNL     1      -7.716   6.379  69.566  1.00  0.00    -0.100 C  
BRANCH  17  18
HETATM   18  C   UNL     1      -8.961   5.606  69.131  1.00  0.00    -0.120 C  
BRANCH  18  19
HETATM   19  C   UNL     1      -9.793   5.178  70.323  1.00  0.00    -0.225 C  
HETATM   20  O   UNL     1      -9.877   4.009  70.693  1.00  0.00    -0.198 OA 
BRANCH  19  21
HETATM   21  C   UNL     1     -10.575   6.217  71.041  1.00  0.00    -0.301 A  
HETATM   22  C   UNL     1     -11.751   6.694  70.441  1.00  0.00    -0.446 A  
HETATM   23  C   UNL     1     -12.508   7.685  71.066  1.00  0.00    -0.205 A  
HETATM   24  C   UNL     1     -12.094   8.187  72.295  1.00  0.00    -0.364 A  
HETATM   25  F   UNL     1     -12.820   9.137  72.895  1.00  0.00    -0.418 F  
HETATM   26  C   UNL     1     -10.941   7.716  72.911  1.00  0.00    -0.456 A  
HETATM   27  C   UNL     1     -10.174   6.729  72.286  1.00  0.00    -0.210 A  
ENDBRANCH  19  21
ENDBRANCH  18  19
ENDBRANCH  17  18
ENDBRANCH  16  17
ENDBRANCH   8  16
TORSDOF 6
ENDMDL
MODEL       97
REMARK 921   NORMALIZED FREE ENERGY PREDICTED BY IDOCK:   -5.26 KCAL/MOL
REMARK 922        TOTAL FREE ENERGY PREDICTED BY IDOCK:   -8.42 KCAL/MOL
REMARK 923 INTER-LIGAND FREE ENERGY PREDICTED BY IDOCK:   -7.46 KCAL/MOL
REMARK 924 INTRA-LIGAND FREE ENERGY PREDICTED BY IDOCK:   -0.96 KCAL/MOL
REMARK 927      BINDING AFFINITY PREDICTED BY RF-SCORE:    0.00 PKD
ROOT
HETATM    1  O   UNL     1     -12.356  12.356  65.948  1.00  0.00    -0.638 OA 
HETATM    2  C   UNL     1     -11.340  12.654  66.922  1.00  0.00    -0.320 C  
HETATM    3  H   UNL     1     -12.016  12.588  65.092  1.00  0.00     0.000 HD 
HETATM    4  C   UNL     1     -11.893  12.277  68.309  1.00  0.00    -0.367 C  
HETATM    5  C   UNL     1     -10.086  11.830  66.563  1.00  0.00    -0.232 C  
HETATM    6  C   UNL     1     -11.992  10.761  68.488  1.00  0.00     0.016 C  
HETATM    7  C   UNL     1     -10.269  10.338  66.853  1.00  0.00    -0.230 C  
HETATM    8  N   UNL     1     -10.732  10.053  68.219  1.00  0.00    -0.227 NA 
ENDROOT
BRANCH   2   9
HETATM    9  C   UNL     1     -11.029  14.155  66.841  1.00  0.00    -0.302 A  
HETATM   10  C   UNL     1     -10.558  14.740  65.650  1.00  0.00    -0.353 A  
HETATM   11  C   UNL     1     -11.180  14.992  67.964  1.00  0.00    -0.324 A  
HETATM   12  C   UNL     1     -10.375  16.896  66.715  1.00  0.00    -0.298 A  
HETATM   13  C   UNL     1     -10.232  16.097  65.586  1.00  0.00    -0.390 A  
HETATM   14 CL   UNL     1      -9.949  18.562  66.644  1.00  0.00    -0.364 Cl 
HETATM   15  C   UNL     1     -10.853  16.351  67.902  1.00  0.00    -0.328 A  
ENDBRANCH   2   9
BRANCH   8  16
HETATM   16  C   UNL     1      -9.675  10.311  69.214  1.00  0.00    -0.225 C  
BRANCH  16  17
HETATM   17  C   UNL     1      -9.884   9.605  70.556  1.00  0.00    -0.294 C  
BRANCH  17  18
HETATM   18  C   UNL     1      -9.506   8.125  70.505  1.00  0.00    -0.168 C  
BRANCH  18  19
HETATM   19  C   UNL     1     -10.669   7.272  70.040  1.00  0.00    -0.245 C  
HETATM   20  O   UNL     1     -11.779   7.313  70.566  1.00  0.00    -0.285 OA 
BRANCH  19  21
HETATM   21  C   UNL     1     -10.435   6.313  68.930  1.00  0.00    -0.280 A  
HETATM   22  C   UNL     1      -9.715   5.140  69.207  1.00  0.00    -0.242 A  
HETATM   23  C   UNL     1      -9.450   4.220  68.193  1.00  0.00    -0.213 A  
HETATM   24  C   UNL     1      -9.919   4.467  66.908  1.00  0.00    -0.198 A  
HETATM   25  F   UNL     1      -9.666   3.585  65.934  1.00  0.00    -0.175 F  
HETATM   26  C   UNL     1     -10.646   5.616  66.618  1.00  0.00    -0.361 A  
HETATM   27  C   UNL     1     -10.907   6.545  67.628  1.00  0.00    -0.419 A  
ENDBRANCH  19  21
ENDBRANCH  18  19
ENDBRANCH  17  18
ENDBRANCH  16  17
ENDBRANCH   8  16
TORSDOF 6
ENDMDL
MODEL       98
REMARK 921   NORMALIZED FREE ENERGY PREDICTED BY IDOCK:   -5.24 KCAL/MOL
REMARK 922        TOTAL FREE ENERGY PREDICTED BY IDOCK:   -8.38 KCAL/MOL
REMARK 923 INTER-LIGAND FREE ENERGY PREDICTED BY IDOCK:   -7.22 KCAL/MOL
REMARK 924 INTRA-LIGAND FREE ENERGY PREDICTED BY IDOCK:   -1.16 KCAL/MOL
REMARK 927      BINDING AFFINITY PREDICTED BY RF-SCORE:    0.00 PKD
ROOT
HETATM    1  O   UNL     1     -11.966  16.939  71.922  1.00  0.00    -0.441 OA 
HETATM    2  C   UNL     1     -12.119  15.751  71.125  1.00  0.00    -0.427 C  
HETATM    3  H   UNL     1     -12.323  17.668  71.428  1.00  0.00     0.000 HD 
HETATM    4  C   UNL     1     -11.540  14.570  71.927  1.00  0.00     0.123 C  
HETATM    5  C   UNL     1     -13.624  15.565  70.840  1.00  0.00    -0.270 C  
HETATM    6  C   UNL     1     -12.426  14.204  73.119  1.00  0.00     0.047 C  
HETATM    7  C   UNL     1     -14.401  15.125  72.082  1.00  0.00    -0.552 C  
HETATM    8  N   UNL     1     -13.827  13.949  72.754  1.00  0.00    -0.688 NA 
ENDROOT
BRANCH   2   9
HETATM    9  C   UNL     1     -11.351  15.957  69.812  1.00  0.00    -0.347 A  
HETATM   10  C   UNL     1     -11.832  15.438  68.596  1.00  0.00    -0.317 A  
HETATM   11  C   UNL     1     -10.125  16.651  69.787  1.00  0.00     0.042 A  
HETATM   12  C   UNL     1      -9.897  16.259  67.414  1.00  0.00    -0.242 A  
HETATM   13  C   UNL     1     -11.113  15.585  67.408  1.00  0.00    -0.285 A  
HETATM   14 CL   UNL     1      -8.998  16.419  65.956  1.00  0.00    -0.353 Cl 
HETATM   15  C   UNL     1      -9.402  16.799  68.598  1.00  0.00    -0.252 A  
ENDBRANCH   2   9
BRANCH   8  16
HETATM   16  C   UNL     1     -14.027  12.723  71.960  1.00  0.00     0.041 C  
BRANCH  16  17
HETATM   17  C   UNL     1     -12.936  11.665  72.147  1.00  0.00    -0.211 C  
BRANCH  17  18
HETATM   18  C   UNL     1     -13.120  10.462  71.221  1.00  0.00    -0.494 C  
BRANCH  18  19
HETATM   19  C   UNL     1     -11.790   9.827  70.868  1.00  0.00    -0.336 C  
HETATM   20  O   UNL     1     -11.122   9.186  71.676  1.00  0.00    -0.332 OA 
BRANCH  19  21
HETATM   21  C   UNL     1     -11.257  10.032  69.497  1.00  0.00    -0.254 A  
HETATM   22  C   UNL     1     -11.513  11.258  68.862  1.00  0.00    -0.363 A  
HETATM   23  C   UNL     1     -11.053  11.489  67.566  1.00  0.00    -0.329 A  
HETATM   24  C   UNL     1     -10.326  10.500  66.913  1.00  0.00    -0.239 A  
HETATM   25  F   UNL     1      -9.884  10.721  65.670  1.00  0.00    -0.237 F  
HETATM   26  C   UNL     1     -10.050   9.286  67.532  1.00  0.00    -0.273 A  
HETATM   27  C   UNL     1     -10.516   9.045  68.826  1.00  0.00    -0.230 A  
ENDBRANCH  19  21
ENDBRANCH  18  19
ENDBRANCH  17  18
ENDBRANCH  16  17
ENDBRANCH   8  16
TORSDOF 6
ENDMDL
MODEL       99
REMARK 921   NORMALIZED FREE ENERGY PREDICTED BY IDOCK:   -5.20 KCAL/MOL
REMARK 922        TOTAL FREE ENERGY PREDICTED BY IDOCK:   -8.34 KCAL/MOL
REMARK 923 INTER-LIGAND FREE ENERGY PREDICTED BY IDOCK:   -7.31 KCAL/MOL
REMARK 924 INTRA-LIGAND FREE ENERGY PREDICTED BY IDOCK:   -1.03 KCAL/MOL
REMARK 927      BINDING AFFINITY PREDICTED BY RF-SCORE:    0.00 PKD
ROOT
HETATM    1  O   UNL     1     -10.390  10.926  66.957  1.00  0.00    -0.211 OA 
HETATM    2  C   UNL     1      -9.874  11.407  68.211  1.00  0.00    -0.200 C  
HETATM    3  H   UNL     1     -11.284  11.238  66.873  1.00  0.00     0.000 HD 
HETATM    4  C   UNL     1      -8.425  10.901  68.347  1.00  0.00    -0.141 C  
HETATM    5  C   UNL     1      -9.941  12.948  68.190  1.00  0.00    -0.234 C  
HETATM    6  C   UNL     1      -7.480  11.618  67.381  1.00  0.00    -0.135 C  
HETATM    7  C   UNL     1      -8.903  13.562  67.249  1.00  0.00    -0.224 C  
HETATM    8  N   UNL     1      -7.532  13.083  67.485  1.00  0.00    -0.153 NA 
ENDROOT
BRANCH   2   9
HETATM    9  C   UNL     1     -10.760  10.852  69.335  1.00  0.00    -0.265 A  
HETATM   10  C   UNL     1     -10.506   9.593  69.911  1.00  0.00    -0.285 A  
HETATM   11  C   UNL     1     -11.874  11.574  69.807  1.00  0.00    -0.429 A  
HETATM   12  C   UNL     1     -12.440   9.793  71.338  1.00  0.00    -0.387 A  
HETATM   13  C   UNL     1     -11.338   9.067  70.902  1.00  0.00    -0.351 A  
HETATM   14 CL   UNL     1     -13.480   9.134  72.541  1.00  0.00    -0.520 Cl 
HETATM   15  C   UNL     1     -12.709  11.048  70.800  1.00  0.00    -0.414 A  
ENDBRANCH   2   9
BRANCH   8  16
HETATM   16  C   UNL     1      -6.984  13.615  68.746  1.00  0.00    -0.106 C  
BRANCH  16  17
HETATM   17  C   UNL     1      -6.136  14.879  68.582  1.00  0.00    -0.087 C  
BRANCH  17  18
HETATM   18  C   UNL     1      -6.528  15.980  69.569  1.00  0.00    -0.187 C  
BRANCH  18  19
HETATM   19  C   UNL     1      -6.487  17.348  68.918  1.00  0.00    -0.208 C  
HETATM   20  O   UNL     1      -5.446  17.985  68.769  1.00  0.00    -0.176 OA 
BRANCH  19  21
HETATM   21  C   UNL     1      -7.770  17.958  68.486  1.00  0.00    -0.299 A  
HETATM   22  C   UNL     1      -8.906  17.136  68.421  1.00  0.00    -0.255 A  
HETATM   23  C   UNL     1     -10.129  17.657  67.999  1.00  0.00    -0.343 A  
HETATM   24  C   UNL     1     -10.216  19.002  67.658  1.00  0.00    -0.400 A  
HETATM   25  F   UNL     1     -11.389  19.503  67.253  1.00  0.00    -0.543 F  
HETATM   26  C   UNL     1      -9.106  19.834  67.730  1.00  0.00    -0.412 A  
HETATM   27  C   UNL     1      -7.876  19.316  68.143  1.00  0.00    -0.343 A  
ENDBRANCH  19  21
ENDBRANCH  18  19
ENDBRANCH  17  18
ENDBRANCH  16  17
ENDBRANCH   8  16
TORSDOF 6
ENDMDL
MODEL      100
REMARK 921   NORMALIZED FREE ENERGY PREDICTED BY IDOCK:   -5.20 KCAL/MOL
REMARK 922        TOTAL FREE ENERGY PREDICTED BY IDOCK:   -8.33 KCAL/MOL
REMARK 923 INTER-LIGAND FREE ENERGY PREDICTED BY IDOCK:   -6.73 KCAL/MOL
REMARK 924 INTRA-LIGAND FREE ENERGY PREDICTED BY IDOCK:   -1.60 KCAL/MOL
REMARK 927      BINDING AFFINITY PREDICTED BY RF-SCORE:    0.00 PKD
ROOT
HETATM    1  O   UNL     1     -10.473  11.301  69.861  1.00  0.00    -0.414 OA 
HETATM    2  C   UNL     1     -10.191  11.579  68.478  1.00  0.00    -0.213 C  
HETATM    3  H   UNL     1     -11.363  11.583  70.038  1.00  0.00     0.000 HD 
HETATM    4  C   UNL     1      -8.748  11.123  68.191  1.00  0.00    -0.144 C  
HETATM    5  C   UNL     1     -11.216  10.805  67.622  1.00  0.00    -0.370 C  
HETATM    6  C   UNL     1      -8.626   9.597  68.184  1.00  0.00    -0.119 C  
HETATM    7  C   UNL     1     -10.955   9.297  67.625  1.00  0.00    -0.001 C  
HETATM    8  N   UNL     1      -9.573   8.936  67.274  1.00  0.00    -0.156 NA 
ENDROOT
BRANCH   2   9
HETATM    9  C   UNL     1     -10.347  13.090  68.255  1.00  0.00    -0.256 A  
HETATM   10  C   UNL     1      -9.236  13.902  67.959  1.00  0.00    -0.193 A  
HETATM   11  C   UNL     1     -11.603  13.717  68.366  1.00  0.00    -0.377 A  
HETATM   12  C   UNL     1     -10.618  15.879  67.932  1.00  0.00    -0.300 A  
HETATM   13  C   UNL     1      -9.369  15.284  67.800  1.00  0.00    -0.196 A  
HETATM   14 CL   UNL     1     -10.778  17.584  67.761  1.00  0.00    -0.372 Cl 
HETATM   15  C   UNL     1     -11.738  15.100  68.208  1.00  0.00    -0.336 A  
ENDBRANCH   2   9
BRANCH   8  16
HETATM   16  C   UNL     1      -9.298   9.174  65.845  1.00  0.00    -0.243 C  
BRANCH  16  17
HETATM   17  C   UNL     1      -8.243  10.251  65.576  1.00  0.00    -0.158 C  
BRANCH  17  18
HETATM   18  C   UNL     1      -8.054  10.527  64.084  1.00  0.00    -0.027 C  
BRANCH  18  19
HETATM   19  C   UNL     1      -9.384  10.617  63.364  1.00  0.00    -0.297 C  
HETATM   20  O   UNL     1      -9.682   9.888  62.420  1.00  0.00    -0.150 OA 
BRANCH  19  21
HETATM   21  C   UNL     1     -10.345  11.665  63.794  1.00  0.00    -0.445 A  
HETATM   22  C   UNL     1      -9.831  12.887  64.256  1.00  0.00     0.010 A  
HETATM   23  C   UNL     1     -10.692  13.893  64.692  1.00  0.00    -0.422 A  
HETATM   24  C   UNL     1     -12.066  13.681  64.651  1.00  0.00    -0.412 A  
HETATM   25  F   UNL     1     -12.893  14.646  65.069  1.00  0.00    -0.390 F  
HETATM   26  C   UNL     1     -12.593  12.483  64.183  1.00  0.00    -0.474 A  
HETATM   27  C   UNL     1     -11.735  11.468  63.753  1.00  0.00    -0.276 A  
ENDBRANCH  19  21
ENDBRANCH  18  19
ENDBRANCH  17  18
ENDBRANCH  16  17
ENDBRANCH   8  16
TORSDOF 6
ENDMDL
MODEL      101
REMARK 921   NORMALIZED FREE ENERGY PREDICTED BY IDOCK:   -5.20 KCAL/MOL
REMARK 922        TOTAL FREE ENERGY PREDICTED BY IDOCK:   -8.33 KCAL/MOL
REMARK 923 INTER-LIGAND FREE ENERGY PREDICTED BY IDOCK:   -6.40 KCAL/MOL
REMARK 924 INTRA-LIGAND FREE ENERGY PREDICTED BY IDOCK:   -1.93 KCAL/MOL
REMARK 927      BINDING AFFINITY PREDICTED BY RF-SCORE:    0.00 PKD
ROOT
HETATM    1  O   UNL     1     -10.272  12.784  66.599  1.00  0.00    -0.233 OA 
HETATM    2  C   UNL     1     -10.090  11.628  67.437  1.00  0.00    -0.198 C  
HETATM    3  H   UNL     1      -9.978  13.545  67.086  1.00  0.00     0.000 HD 
HETATM    4  C   UNL     1     -10.567  10.395  66.647  1.00  0.00    -0.245 C  
HETATM    5  C   UNL     1      -8.591  11.534  67.792  1.00  0.00    -0.138 C  
HETATM    6  C   UNL     1      -9.610  10.047  65.505  1.00  0.00    -0.266 C  
HETATM    7  C   UNL     1      -7.736  11.105  66.597  1.00  0.00    -0.155 C  
HETATM    8  N   UNL     1      -8.215   9.881  65.937  1.00  0.00    -0.121 NA 
ENDROOT
BRANCH   2   9
HETATM    9  C   UNL     1     -10.925  11.826  68.709  1.00  0.00    -0.281 A  
HETATM   10  C   UNL     1     -11.615  10.753  69.304  1.00  0.00    -0.376 A  
HETATM   11  C   UNL     1     -11.050  13.095  69.308  1.00  0.00    -0.201 A  
HETATM   12  C   UNL     1     -12.531  12.206  70.996  1.00  0.00    -0.269 A  
HETATM   13  C   UNL     1     -12.412  10.940  70.436  1.00  0.00    -0.411 A  
HETATM   14 CL   UNL     1     -13.533  12.442  72.376  1.00  0.00    -0.491 Cl 
HETATM   15  C   UNL     1     -11.848  13.285  70.441  1.00  0.00    -0.270 A  
ENDBRANCH   2   9
BRANCH   8  16
HETATM   16  C   UNL     1      -7.983   8.690  66.774  1.00  0.00    -0.094 C  
BRANCH  16  17
HETATM   17  C   UNL     1      -8.492   7.381  66.163  1.00  0.00    -0.147 C  
BRANCH  17  18
HETATM   18  C   UNL     1      -9.091   6.440  67.209  1.00  0.00    -0.117 C  
BRANCH  18  19
HETATM   19  C   UNL     1     -10.461   6.908  67.656  1.00  0.00    -0.228 C  
HETATM   20  O   UNL     1     -11.405   7.045  66.880  1.00  0.00    -0.199 OA 
BRANCH  19  21
HETATM   21  C   UNL     1     -10.650   7.260  69.086  1.00  0.00    -0.219 A  
HETATM   22  C   UNL     1     -11.776   6.748  69.752  1.00  0.00    -0.222 A  
HETATM   23  C   UNL     1     -12.009   7.069  71.089  1.00  0.00    -0.398 A  
HETATM   24  C   UNL     1     -11.109   7.887  71.762  1.00  0.00    -0.253 A  
HETATM   25  F   UNL     1     -11.332   8.194  73.045  1.00  0.00    -0.445 F  
HETATM   26  C   UNL     1      -9.981   8.390  71.124  1.00  0.00    -0.245 A  
HETATM   27  C   UNL     1      -9.747   8.080  69.782  1.00  0.00    -0.176 A  
ENDBRANCH  19  21
ENDBRANCH  18  19
ENDBRANCH  17  18
ENDBRANCH  16  17
ENDBRANCH   8  16
TORSDOF 6
ENDMDL
MODEL      102
REMARK 921   NORMALIZED FREE ENERGY PREDICTED BY IDOCK:   -5.18 KCAL/MOL
REMARK 922        TOTAL FREE ENERGY PREDICTED BY IDOCK:   -8.30 KCAL/MOL
REMARK 923 INTER-LIGAND FREE ENERGY PREDICTED BY IDOCK:   -6.55 KCAL/MOL
REMARK 924 INTRA-LIGAND FREE ENERGY PREDICTED BY IDOCK:   -1.75 KCAL/MOL
REMARK 927      BINDING AFFINITY PREDICTED BY RF-SCORE:    0.00 PKD
ROOT
HETATM    1  O   UNL     1     -10.913  11.709  69.999  1.00  0.00    -0.457 OA 
HETATM    2  C   UNL     1     -10.433  11.354  68.690  1.00  0.00    -0.201 C  
HETATM    3  H   UNL     1     -11.828  11.950  69.916  1.00  0.00     0.000 HD 
HETATM    4  C   UNL     1      -8.949  10.963  68.824  1.00  0.00    -0.166 C  
HETATM    5  C   UNL     1     -11.289  10.177  68.176  1.00  0.00    -0.171 C  
HETATM    6  C   UNL     1      -8.777   9.622  69.541  1.00  0.00    -0.185 C  
HETATM    7  C   UNL     1     -10.982   8.870  68.911  1.00  0.00     0.080 C  
HETATM    8  N   UNL     1      -9.551   8.529  68.937  1.00  0.00    -0.158 NA 
ENDROOT
BRANCH   2   9
HETATM    9  C   UNL     1     -10.602  12.573  67.773  1.00  0.00    -0.235 A  
HETATM   10  C   UNL     1     -11.867  12.947  67.283  1.00  0.00    -0.416 A  
HETATM   11  C   UNL     1      -9.493  13.342  67.371  1.00  0.00    -0.218 A  
HETATM   12  C   UNL     1     -10.903  14.761  66.019  1.00  0.00    -0.318 A  
HETATM   13  C   UNL     1     -12.018  14.030  66.412  1.00  0.00    -0.462 A  
HETATM   14 CL   UNL     1     -11.085  16.079  64.927  1.00  0.00    -0.428 Cl 
HETATM   15  C   UNL     1      -9.641  14.426  66.499  1.00  0.00    -0.310 A  
ENDBRANCH   2   9
BRANCH   8  16
HETATM   16  C   UNL     1      -9.070   8.116  67.606  1.00  0.00    -0.134 C  
BRANCH  16  17
HETATM   17  C   UNL     1      -7.546   8.031  67.484  1.00  0.00    -0.101 C  
BRANCH  17  18
HETATM   18  C   UNL     1      -7.015   8.749  66.243  1.00  0.00    -0.081 C  
BRANCH  18  19
HETATM   19  C   UNL     1      -7.889   8.483  65.034  1.00  0.00    -0.112 C  
HETATM   20  O   UNL     1      -7.950   7.386  64.483  1.00  0.00    -0.134 OA 
BRANCH  19  21
HETATM   21  C   UNL     1      -8.666   9.616  64.468  1.00  0.00    -0.227 A  
HETATM   22  C   UNL     1      -9.835  10.017  65.135  1.00  0.00    -0.388 A  
HETATM   23  C   UNL     1     -10.611  11.060  64.630  1.00  0.00    -0.369 A  
HETATM   24  C   UNL     1     -10.208  11.709  63.468  1.00  0.00    -0.436 A  
HETATM   25  F   UNL     1     -10.952  12.710  62.983  1.00  0.00    -0.434 F  
HETATM   26  C   UNL     1      -9.047  11.336  62.802  1.00  0.00    -0.327 A  
HETATM   27  C   UNL     1      -8.270  10.286  63.299  1.00  0.00    -0.164 A  
ENDBRANCH  19  21
ENDBRANCH  18  19
ENDBRANCH  17  18
ENDBRANCH  16  17
ENDBRANCH   8  16
TORSDOF 6
ENDMDL
MODEL      103
REMARK 921   NORMALIZED FREE ENERGY PREDICTED BY IDOCK:   -5.16 KCAL/MOL
REMARK 922        TOTAL FREE ENERGY PREDICTED BY IDOCK:   -8.28 KCAL/MOL
REMARK 923 INTER-LIGAND FREE ENERGY PREDICTED BY IDOCK:   -6.39 KCAL/MOL
REMARK 924 INTRA-LIGAND FREE ENERGY PREDICTED BY IDOCK:   -1.89 KCAL/MOL
REMARK 927      BINDING AFFINITY PREDICTED BY RF-SCORE:    0.00 PKD
ROOT
HETATM    1  O   UNL     1     -11.060  12.426  70.042  1.00  0.00    -0.446 OA 
HETATM    2  C   UNL     1     -11.353  11.215  69.322  1.00  0.00    -0.281 C  
HETATM    3  H   UNL     1     -11.722  13.067  69.813  1.00  0.00     0.000 HD 
HETATM    4  C   UNL     1     -10.280  10.175  69.695  1.00  0.00    -0.272 C  
HETATM    5  C   UNL     1     -12.766  10.751  69.734  1.00  0.00    -0.004 C  
HETATM    6  C   UNL     1     -10.449   9.675  71.131  1.00  0.00    -0.211 C  
HETATM    7  C   UNL     1     -12.804  10.200  71.161  1.00  0.00    -0.399 C  
HETATM    8  N   UNL     1     -11.795   9.161  71.421  1.00  0.00    -0.320 NA 
ENDROOT
BRANCH   2   9
HETATM    9  C   UNL     1     -11.316  11.533  67.821  1.00  0.00    -0.364 A  
HETATM   10  C   UNL     1     -11.999  12.645  67.294  1.00  0.00    -0.321 A  
HETATM   11  C   UNL     1     -10.618  10.707  66.919  1.00  0.00    -0.311 A  
HETATM   12  C   UNL     1     -11.320  12.069  65.052  1.00  0.00    -0.310 A  
HETATM   13  C   UNL     1     -12.003  12.911  65.922  1.00  0.00    -0.504 A  
HETATM   14 CL   UNL     1     -11.346  12.382  63.360  1.00  0.00    -0.522 Cl 
HETATM   15  C   UNL     1     -10.622  10.971  65.545  1.00  0.00    -0.267 A  
ENDBRANCH   2   9
BRANCH   8  16
HETATM   16  C   UNL     1     -12.121   7.904  70.723  1.00  0.00    -0.084 C  
BRANCH  16  17
HETATM   17  C   UNL     1     -11.058   6.811  70.862  1.00  0.00    -0.322 C  
BRANCH  17  18
HETATM   18  C   UNL     1     -11.048   5.848  69.674  1.00  0.00    -0.414 C  
BRANCH  18  19
HETATM   19  C   UNL     1      -9.634   5.523  69.237  1.00  0.00    -0.136 C  
HETATM   20  O   UNL     1      -9.051   4.494  69.576  1.00  0.00    -0.095 OA 
BRANCH  19  21
HETATM   21  C   UNL     1      -8.911   6.516  68.403  1.00  0.00    -0.125 A  
HETATM   22  C   UNL     1      -7.856   7.233  68.990  1.00  0.00    -0.118 A  
HETATM   23  C   UNL     1      -7.162   8.193  68.253  1.00  0.00    -0.093 A  
HETATM   24  C   UNL     1      -7.514   8.423  66.928  1.00  0.00    -0.087 A  
HETATM   25  F   UNL     1      -6.849   9.343  66.221  1.00  0.00    -0.079 F  
HETATM   26  C   UNL     1      -8.546   7.712  66.326  1.00  0.00    -0.153 A  
HETATM   27  C   UNL     1      -9.251   6.755  67.061  1.00  0.00    -0.152 A  
ENDBRANCH  19  21
ENDBRANCH  18  19
ENDBRANCH  17  18
ENDBRANCH  16  17
ENDBRANCH   8  16
TORSDOF 6
ENDMDL
MODEL      104
REMARK 921   NORMALIZED FREE ENERGY PREDICTED BY IDOCK:   -5.14 KCAL/MOL
REMARK 922        TOTAL FREE ENERGY PREDICTED BY IDOCK:   -8.25 KCAL/MOL
REMARK 923 INTER-LIGAND FREE ENERGY PREDICTED BY IDOCK:   -7.30 KCAL/MOL
REMARK 924 INTRA-LIGAND FREE ENERGY PREDICTED BY IDOCK:   -0.95 KCAL/MOL
REMARK 927      BINDING AFFINITY PREDICTED BY RF-SCORE:    0.00 PKD
ROOT
HETATM    1  O   UNL     1     -12.747  14.332  65.373  1.00  0.00    -0.507 OA 
HETATM    2  C   UNL     1     -11.424  14.209  65.927  1.00  0.00    -0.338 C  
HETATM    3  H   UNL     1     -12.716  14.995  64.693  1.00  0.00     0.000 HD 
HETATM    4  C   UNL     1     -11.474  13.134  67.029  1.00  0.00    -0.379 C  
HETATM    5  C   UNL     1     -10.469  13.809  64.782  1.00  0.00    -0.448 C  
HETATM    6  C   UNL     1     -11.648  11.730  66.446  1.00  0.00    -0.162 C  
HETATM    7  C   UNL     1     -10.678  12.363  64.329  1.00  0.00    -0.357 C  
HETATM    8  N   UNL     1     -10.644  11.387  65.429  1.00  0.00    -0.278 NA 
ENDROOT
BRANCH   2   9
HETATM    9  C   UNL     1     -11.021  15.573  66.503  1.00  0.00    -0.243 A  
HETATM   10  C   UNL     1     -10.954  15.787  67.893  1.00  0.00    -0.324 A  
HETATM   11  C   UNL     1     -10.730  16.663  65.660  1.00  0.00    -0.222 A  
HETATM   12  C   UNL     1     -10.365  18.102  67.564  1.00  0.00    -0.392 A  
HETATM   13  C   UNL     1     -10.631  17.040  68.420  1.00  0.00    -0.375 A  
HETATM   14 CL   UNL     1      -9.992  19.652  68.213  1.00  0.00    -0.513 Cl 
HETATM   15  C   UNL     1     -10.407  17.919  66.185  1.00  0.00    -0.352 A  
ENDBRANCH   2   9
BRANCH   8  16
HETATM   16  C   UNL     1      -9.280  11.223  65.964  1.00  0.00    -0.208 C  
BRANCH  16  17
HETATM   17  C   UNL     1      -9.124  10.065  66.953  1.00  0.00    -0.157 C  
BRANCH  17  18
HETATM   18  C   UNL     1      -8.937  10.544  68.393  1.00  0.00    -0.141 C  
BRANCH  18  19
HETATM   19  C   UNL     1      -9.989   9.958  69.313  1.00  0.00    -0.207 C  
HETATM   20  O   UNL     1     -10.794  10.650  69.932  1.00  0.00    -0.267 OA 
BRANCH  19  21
HETATM   21  C   UNL     1     -10.011   8.486  69.505  1.00  0.00    -0.193 A  
HETATM   22  C   UNL     1      -8.791   7.792  69.448  1.00  0.00    -0.139 A  
HETATM   23  C   UNL     1      -8.763   6.405  69.600  1.00  0.00    -0.138 A  
HETATM   24  C   UNL     1      -9.951   5.718  69.823  1.00  0.00    -0.190 A  
HETATM   25  F   UNL     1      -9.924   4.389  69.970  1.00  0.00    -0.264 F  
HETATM   26  C   UNL     1     -11.165   6.390  69.897  1.00  0.00    -0.485 A  
HETATM   27  C   UNL     1     -11.201   7.778  69.737  1.00  0.00    -0.017 A  
ENDBRANCH  19  21
ENDBRANCH  18  19
ENDBRANCH  17  18
ENDBRANCH  16  17
ENDBRANCH   8  16
TORSDOF 6
ENDMDL
MODEL      105
REMARK 921   NORMALIZED FREE ENERGY PREDICTED BY IDOCK:   -5.12 KCAL/MOL
REMARK 922        TOTAL FREE ENERGY PREDICTED BY IDOCK:   -8.23 KCAL/MOL
REMARK 923 INTER-LIGAND FREE ENERGY PREDICTED BY IDOCK:   -6.12 KCAL/MOL
REMARK 924 INTRA-LIGAND FREE ENERGY PREDICTED BY IDOCK:   -2.11 KCAL/MOL
REMARK 927      BINDING AFFINITY PREDICTED BY RF-SCORE:    0.00 PKD
ROOT
HETATM    1  O   UNL     1     -10.461  18.238  65.778  1.00  0.00    -0.589 OA 
HETATM    2  C   UNL     1      -9.914  17.159  66.557  1.00  0.00    -0.302 C  
HETATM    3  H   UNL     1     -11.396  18.271  65.946  1.00  0.00     0.000 HD 
HETATM    4  C   UNL     1      -8.399  17.104  66.284  1.00  0.00    -0.298 C  
HETATM    5  C   UNL     1     -10.217  17.447  68.042  1.00  0.00    -0.345 C  
HETATM    6  C   UNL     1      -7.665  18.287  66.920  1.00  0.00    -0.224 C  
HETATM    7  C   UNL     1      -9.374  18.597  68.595  1.00  0.00    -0.341 C  
HETATM    8  N   UNL     1      -7.931  18.440  68.358  1.00  0.00    -0.300 NA 
ENDROOT
BRANCH   2   9
HETATM    9  C   UNL     1     -10.601  15.858  66.117  1.00  0.00    -0.310 A  
HETATM   10  C   UNL     1     -11.512  15.193  66.959  1.00  0.00    -0.230 A  
HETATM   11  C   UNL     1     -10.321  15.274  64.866  1.00  0.00    -0.273 A  
HETATM   12  C   UNL     1     -11.797  13.423  65.346  1.00  0.00    -0.353 A  
HETATM   13  C   UNL     1     -12.104  13.986  66.579  1.00  0.00    -0.488 A  
HETATM   14 CL   UNL     1     -12.506  11.924  64.888  1.00  0.00    -0.013 Cl 
HETATM   15  C   UNL     1     -10.912  14.065  64.484  1.00  0.00    -0.361 A  
ENDBRANCH   2   9
BRANCH   8  16
HETATM   16  C   UNL     1      -7.359  17.368  69.192  1.00  0.00    -0.144 C  
BRANCH  16  17
HETATM   17  C   UNL     1      -5.842  17.204  69.058  1.00  0.00    -0.165 C  
BRANCH  17  18
HETATM   18  C   UNL     1      -5.449  15.868  68.429  1.00  0.00    -0.106 C  
BRANCH  18  19
HETATM   19  C   UNL     1      -6.115  14.705  69.136  1.00  0.00    -0.102 C  
HETATM   20  O   UNL     1      -6.086  14.561  70.356  1.00  0.00    -0.156 OA 
BRANCH  19  21
HETATM   21  C   UNL     1      -6.791  13.674  68.307  1.00  0.00    -0.108 A  
HETATM   22  C   UNL     1      -8.188  13.736  68.182  1.00  0.00    -0.160 A  
HETATM   23  C   UNL     1      -8.870  12.777  67.433  1.00  0.00    -0.190 A  
HETATM   24  C   UNL     1      -8.153  11.768  66.800  1.00  0.00    -0.133 A  
HETATM   25  F   UNL     1      -8.807  10.848  66.081  1.00  0.00    -0.160 F  
HETATM   26  C   UNL     1      -6.768  11.700  66.900  1.00  0.00    -0.124 A  
HETATM   27  C   UNL     1      -6.081  12.653  67.656  1.00  0.00    -0.147 A  
ENDBRANCH  19  21
ENDBRANCH  18  19
ENDBRANCH  17  18
ENDBRANCH  16  17
ENDBRANCH   8  16
TORSDOF 6
ENDMDL
MODEL      106
REMARK 921   NORMALIZED FREE ENERGY PREDICTED BY IDOCK:   -5.11 KCAL/MOL
REMARK 922        TOTAL FREE ENERGY PREDICTED BY IDOCK:   -8.22 KCAL/MOL
REMARK 923 INTER-LIGAND FREE ENERGY PREDICTED BY IDOCK:   -7.04 KCAL/MOL
REMARK 924 INTRA-LIGAND FREE ENERGY PREDICTED BY IDOCK:   -1.18 KCAL/MOL
REMARK 927      BINDING AFFINITY PREDICTED BY RF-SCORE:    0.00 PKD
ROOT
HETATM    1  O   UNL     1      -9.108  12.242  68.721  1.00  0.00    -0.378 OA 
HETATM    2  C   UNL     1      -9.843  11.596  67.666  1.00  0.00    -0.186 C  
HETATM    3  H   UNL     1      -9.721  12.765  69.224  1.00  0.00     0.000 HD 
HETATM    4  C   UNL     1      -8.848  10.748  66.852  1.00  0.00    -0.144 C  
HETATM    5  C   UNL     1     -10.937  10.725  68.317  1.00  0.00    -0.307 C  
HETATM    6  C   UNL     1      -8.376   9.520  67.633  1.00  0.00    -0.125 C  
HETATM    7  C   UNL     1     -10.361   9.486  69.005  1.00  0.00    -0.206 C  
HETATM    8  N   UNL     1      -9.476   8.688  68.142  1.00  0.00    -0.140 NA 
ENDROOT
BRANCH   2   9
HETATM    9  C   UNL     1     -10.481  12.687  66.795  1.00  0.00    -0.254 A  
HETATM   10  C   UNL     1     -11.862  12.688  66.522  1.00  0.00    -0.463 A  
HETATM   11  C   UNL     1      -9.700  13.708  66.219  1.00  0.00    -0.295 A  
HETATM   12  C   UNL     1     -11.641  14.640  65.123  1.00  0.00    -0.371 A  
HETATM   13  C   UNL     1     -12.437  13.654  65.692  1.00  0.00    -0.540 A  
HETATM   14 CL   UNL     1     -12.345  15.815  64.081  1.00  0.00    -0.031 Cl 
HETATM   15  C   UNL     1     -10.275  14.676  65.387  1.00  0.00    -0.415 A  
ENDBRANCH   2   9
BRANCH   8  16
HETATM   16  C   UNL     1     -10.234   7.987  67.090  1.00  0.00    -0.292 C  
BRANCH  16  17
HETATM   17  C   UNL     1      -9.704   6.591  66.753  1.00  0.00    -0.208 C  
BRANCH  17  18
HETATM   18  C   UNL     1     -10.613   5.477  67.271  1.00  0.00    -0.294 C  
BRANCH  18  19
HETATM   19  C   UNL     1     -10.099   4.903  68.576  1.00  0.00    -0.078 C  
HETATM   20  O   UNL     1      -9.465   3.852  68.639  1.00  0.00    -0.156 OA 
BRANCH  19  21
HETATM   21  C   UNL     1     -10.420   5.625  69.834  1.00  0.00    -0.378 A  
HETATM   22  C   UNL     1      -9.466   5.620  70.864  1.00  0.00    -0.202 A  
HETATM   23  C   UNL     1      -9.731   6.264  72.072  1.00  0.00    -0.164 A  
HETATM   24  C   UNL     1     -10.943   6.924  72.243  1.00  0.00    -0.242 A  
HETATM   25  F   UNL     1     -11.197   7.543  73.402  1.00  0.00    -0.408 F  
HETATM   26  C   UNL     1     -11.893   6.952  71.229  1.00  0.00    -0.385 A  
HETATM   27  C   UNL     1     -11.637   6.301  70.020  1.00  0.00    -0.378 A  
ENDBRANCH  19  21
ENDBRANCH  18  19
ENDBRANCH  17  18
ENDBRANCH  16  17
ENDBRANCH   8  16
TORSDOF 6
ENDMDL
MODEL      107
REMARK 921   NORMALIZED FREE ENERGY PREDICTED BY IDOCK:   -5.11 KCAL/MOL
REMARK 922        TOTAL FREE ENERGY PREDICTED BY IDOCK:   -8.22 KCAL/MOL
REMARK 923 INTER-LIGAND FREE ENERGY PREDICTED BY IDOCK:   -5.27 KCAL/MOL
REMARK 924 INTRA-LIGAND FREE ENERGY PREDICTED BY IDOCK:   -2.95 KCAL/MOL
REMARK 927      BINDING AFFINITY PREDICTED BY RF-SCORE:    0.00 PKD
ROOT
HETATM    1  O   UNL     1     -12.141  10.621  68.257  1.00  0.00    -0.817 OA 
HETATM    2  C   UNL     1     -10.829  10.037  68.340  1.00  0.00    -0.235 C  
HETATM    3  H   UNL     1     -12.330  11.030  69.094  1.00  0.00     0.000 HD 
HETATM    4  C   UNL     1     -10.524   9.374  66.984  1.00  0.00    -0.302 C  
HETATM    5  C   UNL     1      -9.829  11.167  68.662  1.00  0.00    -0.207 C  
HETATM    6  C   UNL     1     -10.281  10.412  65.886  1.00  0.00    -0.234 C  
HETATM    7  C   UNL     1      -9.603  12.101  67.471  1.00  0.00    -0.179 C  
HETATM    8  N   UNL     1      -9.247  11.399  66.228  1.00  0.00    -0.202 NA 
ENDROOT
BRANCH   2   9
HETATM    9  C   UNL     1     -10.841   9.000  69.472  1.00  0.00    -0.177 A  
HETATM   10  C   UNL     1     -11.035   7.632  69.206  1.00  0.00    -0.030 A  
HETATM   11  C   UNL     1     -10.684   9.388  70.817  1.00  0.00    -0.373 A  
HETATM   12  C   UNL     1     -10.950   7.105  71.557  1.00  0.00    -0.235 A  
HETATM   13  C   UNL     1     -11.091   6.692  70.238  1.00  0.00    -0.379 A  
HETATM   14 CL   UNL     1     -11.044   5.951  72.831  1.00  0.00    -0.303 Cl 
HETATM   15  C   UNL     1     -10.741   8.449  71.852  1.00  0.00    -0.373 A  
ENDBRANCH   2   9
BRANCH   8  16
HETATM   16  C   UNL     1      -7.884  10.842  66.293  1.00  0.00    -0.158 C  
BRANCH  16  17
HETATM   17  C   UNL     1      -7.563   9.828  65.192  1.00  0.00    -0.125 C  
BRANCH  17  18
HETATM   18  C   UNL     1      -6.744   8.644  65.706  1.00  0.00    -0.064 C  
BRANCH  18  19
HETATM   19  C   UNL     1      -7.638   7.533  66.219  1.00  0.00    -0.088 C  
HETATM   20  O   UNL     1      -8.426   6.925  65.497  1.00  0.00    -0.144 OA 
BRANCH  19  21
HETATM   21  C   UNL     1      -7.586   7.202  67.666  1.00  0.00    -0.110 A  
HETATM   22  C   UNL     1      -7.757   5.861  68.045  1.00  0.00    -0.100 A  
HETATM   23  C   UNL     1      -7.740   5.504  69.394  1.00  0.00    -0.086 A  
HETATM   24  C   UNL     1      -7.537   6.485  70.357  1.00  0.00    -0.096 A  
HETATM   25  F   UNL     1      -7.520   6.143  71.651  1.00  0.00    -0.086 F  
HETATM   26  C   UNL     1      -7.351   7.815  69.999  1.00  0.00    -0.075 A  
HETATM   27  C   UNL     1      -7.376   8.180  68.651  1.00  0.00    -0.089 A  
ENDBRANCH  19  21
ENDBRANCH  18  19
ENDBRANCH  17  18
ENDBRANCH  16  17
ENDBRANCH   8  16
TORSDOF 6
ENDMDL
MODEL      108
REMARK 921   NORMALIZED FREE ENERGY PREDICTED BY IDOCK:   -5.11 KCAL/MOL
REMARK 922        TOTAL FREE ENERGY PREDICTED BY IDOCK:   -8.21 KCAL/MOL
REMARK 923 INTER-LIGAND FREE ENERGY PREDICTED BY IDOCK:   -7.45 KCAL/MOL
REMARK 924 INTRA-LIGAND FREE ENERGY PREDICTED BY IDOCK:   -0.76 KCAL/MOL
REMARK 927      BINDING AFFINITY PREDICTED BY RF-SCORE:    0.00 PKD
ROOT
HETATM    1  O   UNL     1     -11.989  16.682  70.890  1.00  0.00    -0.351 OA 
HETATM    2  C   UNL     1     -12.312  15.337  70.494  1.00  0.00    -0.387 C  
HETATM    3  H   UNL     1     -12.405  17.274  70.273  1.00  0.00     0.000 HD 
HETATM    4  C   UNL     1     -11.637  14.379  71.493  1.00  0.00     0.089 C  
HETATM    5  C   UNL     1     -13.848  15.195  70.515  1.00  0.00     0.192 C  
HETATM    6  C   UNL     1     -12.314  14.420  72.865  1.00  0.00    -0.091 C  
HETATM    7  C   UNL     1     -14.411  15.171  71.937  1.00  0.00    -0.596 C  
HETATM    8  N   UNL     1     -13.763  14.183  72.813  1.00  0.00    -0.666 NA 
ENDROOT
BRANCH   2   9
HETATM    9  C   UNL     1     -11.777  15.118  69.072  1.00  0.00    -0.358 A  
HETATM   10  C   UNL     1     -11.130  16.151  68.369  1.00  0.00    -0.359 A  
HETATM   11  C   UNL     1     -11.942  13.884  68.414  1.00  0.00    -0.391 A  
HETATM   12  C   UNL     1     -10.873  14.745  66.427  1.00  0.00    -0.322 A  
HETATM   13  C   UNL     1     -10.682  15.968  67.058  1.00  0.00    -0.277 A  
HETATM   14 CL   UNL     1     -10.345  14.526  64.803  1.00  0.00    -0.404 Cl 
HETATM   15  C   UNL     1     -11.496  13.698  67.101  1.00  0.00    -0.367 A  
ENDBRANCH   2   9
BRANCH   8  16
HETATM   16  C   UNL     1     -14.133  12.805  72.439  1.00  0.00     0.004 C  
BRANCH  16  17
HETATM   17  C   UNL     1     -12.941  11.882  72.171  1.00  0.00    -0.237 C  
BRANCH  17  18
HETATM   18  C   UNL     1     -13.060  11.141  70.839  1.00  0.00    -0.148 C  
BRANCH  18  19
HETATM   19  C   UNL     1     -11.802  10.357  70.527  1.00  0.00    -0.337 C  
HETATM   20  O   UNL     1     -10.982  10.719  69.686  1.00  0.00    -0.243 OA 
BRANCH  19  21
HETATM   21  C   UNL     1     -11.582   9.072  71.238  1.00  0.00    -0.387 A  
HETATM   22  C   UNL     1     -12.658   8.175  71.335  1.00  0.00    -0.301 A  
HETATM   23  C   UNL     1     -12.507   6.965  72.013  1.00  0.00    -0.285 A  
HETATM   24  C   UNL     1     -11.277   6.649  72.579  1.00  0.00    -0.266 A  
HETATM   25  F   UNL     1     -11.131   5.488  73.229  1.00  0.00    -0.271 F  
HETATM   26  C   UNL     1     -10.197   7.518  72.480  1.00  0.00    -0.283 A  
HETATM   27  C   UNL     1     -10.345   8.735  71.810  1.00  0.00    -0.413 A  
ENDBRANCH  19  21
ENDBRANCH  18  19
ENDBRANCH  17  18
ENDBRANCH  16  17
ENDBRANCH   8  16
TORSDOF 6
ENDMDL
MODEL      109
REMARK 921   NORMALIZED FREE ENERGY PREDICTED BY IDOCK:   -5.10 KCAL/MOL
REMARK 922        TOTAL FREE ENERGY PREDICTED BY IDOCK:   -8.20 KCAL/MOL
REMARK 923 INTER-LIGAND FREE ENERGY PREDICTED BY IDOCK:   -7.11 KCAL/MOL
REMARK 924 INTRA-LIGAND FREE ENERGY PREDICTED BY IDOCK:   -1.09 KCAL/MOL
REMARK 927      BINDING AFFINITY PREDICTED BY RF-SCORE:    0.00 PKD
ROOT
HETATM    1  O   UNL     1     -11.252   7.708  68.932  1.00  0.00    -0.415 OA 
HETATM    2  C   UNL     1     -10.059   8.512  68.889  1.00  0.00    -0.203 C  
HETATM    3  H   UNL     1     -11.266   7.254  69.766  1.00  0.00     0.000 HD 
HETATM    4  C   UNL     1     -10.037   9.249  67.537  1.00  0.00    -0.273 C  
HETATM    5  C   UNL     1     -10.111   9.497  70.076  1.00  0.00    -0.279 C  
HETATM    6  C   UNL     1     -11.098  10.349  67.472  1.00  0.00    -0.267 C  
HETATM    7  C   UNL     1     -11.153  10.599  69.871  1.00  0.00    -0.298 C  
HETATM    8  N   UNL     1     -11.024  11.304  68.587  1.00  0.00    -0.200 NA 
ENDROOT
BRANCH   2   9
HETATM    9  C   UNL     1      -8.851   7.576  69.028  1.00  0.00    -0.132 A  
HETATM   10  C   UNL     1      -8.421   7.122  70.289  1.00  0.00    -0.138 A  
HETATM   11  C   UNL     1      -8.116   7.163  67.900  1.00  0.00    -0.119 A  
HETATM   12  C   UNL     1      -6.577   5.928  69.293  1.00  0.00    -0.051 A  
HETATM   13  C   UNL     1      -7.294   6.307  70.422  1.00  0.00    -0.089 A  
HETATM   14 CL   UNL     1      -5.175   4.945  69.458  1.00  0.00     0.000 Cl 
HETATM   15  C   UNL     1      -6.987   6.347  68.031  1.00  0.00    -0.076 A  
ENDBRANCH   2   9
BRANCH   8  16
HETATM   16  C   UNL     1      -9.829  12.166  68.561  1.00  0.00    -0.162 C  
BRANCH  16  17
HETATM   17  C   UNL     1     -10.063  13.552  67.955  1.00  0.00    -0.248 C  
BRANCH  17  18
HETATM   18  C   UNL     1     -11.535  13.963  67.980  1.00  0.00    -0.339 C  
BRANCH  18  19
HETATM   19  C   UNL     1     -11.746  15.220  68.799  1.00  0.00    -0.353 C  
HETATM   20  O   UNL     1     -11.624  16.350  68.331  1.00  0.00    -0.286 OA 
BRANCH  19  21
HETATM   21  C   UNL     1     -12.068  15.072  70.242  1.00  0.00    -0.378 A  
HETATM   22  C   UNL     1     -11.735  16.125  71.107  1.00  0.00    -0.454 A  
HETATM   23  C   UNL     1     -11.996  16.024  72.474  1.00  0.00    -0.649 A  
HETATM   24  C   UNL     1     -12.604  14.876  72.969  1.00  0.00    -0.426 A  
HETATM   25  F   UNL     1     -12.856  14.778  74.279  1.00  0.00    -0.459 F  
HETATM   26  C   UNL     1     -12.955  13.829  72.125  1.00  0.00    -0.437 A  
HETATM   27  C   UNL     1     -12.687  13.921  70.757  1.00  0.00    -0.383 A  
ENDBRANCH  19  21
ENDBRANCH  18  19
ENDBRANCH  17  18
ENDBRANCH  16  17
ENDBRANCH   8  16
TORSDOF 6
ENDMDL
MODEL      110
REMARK 921   NORMALIZED FREE ENERGY PREDICTED BY IDOCK:   -5.10 KCAL/MOL
REMARK 922        TOTAL FREE ENERGY PREDICTED BY IDOCK:   -8.20 KCAL/MOL
REMARK 923 INTER-LIGAND FREE ENERGY PREDICTED BY IDOCK:   -7.40 KCAL/MOL
REMARK 924 INTRA-LIGAND FREE ENERGY PREDICTED BY IDOCK:   -0.80 KCAL/MOL
REMARK 927      BINDING AFFINITY PREDICTED BY RF-SCORE:    0.00 PKD
ROOT
HETATM    1  O   UNL     1     -10.283  14.523  69.954  1.00  0.00    -0.429 OA 
HETATM    2  C   UNL     1     -10.342  14.333  68.529  1.00  0.00    -0.244 C  
HETATM    3  H   UNL     1     -11.070  14.985  70.218  1.00  0.00     0.000 HD 
HETATM    4  C   UNL     1      -9.066  13.583  68.101  1.00  0.00    -0.199 C  
HETATM    5  C   UNL     1     -11.615  13.521  68.213  1.00  0.00    -0.381 C  
HETATM    6  C   UNL     1      -9.084  12.124  68.562  1.00  0.00    -0.090 C  
HETATM    7  C   UNL     1     -11.495  12.058  68.648  1.00  0.00    -0.297 C  
HETATM    8  N   UNL     1     -10.286  11.389  68.143  1.00  0.00    -0.182 NA 
ENDROOT
BRANCH   2   9
HETATM    9  C   UNL     1     -10.418  15.716  67.868  1.00  0.00    -0.267 A  
HETATM   10  C   UNL     1     -10.460  15.855  66.468  1.00  0.00    -0.305 A  
HETATM   11  C   UNL     1     -10.419  16.894  68.641  1.00  0.00    -0.352 A  
HETATM   12  C   UNL     1     -10.467  18.259  66.649  1.00  0.00    -0.360 A  
HETATM   13  C   UNL     1     -10.484  17.114  65.863  1.00  0.00    -0.265 A  
HETATM   14 CL   UNL     1     -10.470  19.811  65.904  1.00  0.00    -0.617 Cl 
HETATM   15  C   UNL     1     -10.441  18.156  68.037  1.00  0.00    -0.387 A  
ENDBRANCH   2   9
BRANCH   8  16
HETATM   16  C   UNL     1     -10.367  11.150  66.691  1.00  0.00    -0.241 C  
BRANCH  16  17
HETATM   17  C   UNL     1     -10.197   9.684  66.282  1.00  0.00    -0.286 C  
BRANCH  17  18
HETATM   18  C   UNL     1      -9.172   8.949  67.146  1.00  0.00    -0.169 C  
BRANCH  18  19
HETATM   19  C   UNL     1      -9.733   7.650  67.687  1.00  0.00    -0.152 C  
HETATM   20  O   UNL     1      -9.665   6.587  67.072  1.00  0.00    -0.139 OA 
BRANCH  19  21
HETATM   21  C   UNL     1     -10.435   7.680  68.995  1.00  0.00    -0.214 A  
HETATM   22  C   UNL     1     -11.232   6.578  69.345  1.00  0.00    -0.418 A  
HETATM   23  C   UNL     1     -11.930   6.569  70.553  1.00  0.00    -0.322 A  
HETATM   24  C   UNL     1     -11.817   7.655  71.414  1.00  0.00    -0.293 A  
HETATM   25  F   UNL     1     -12.485   7.647  72.573  1.00  0.00    -0.249 F  
HETATM   26  C   UNL     1     -11.020   8.747  71.091  1.00  0.00    -0.334 A  
HETATM   27  C   UNL     1     -10.327   8.766  69.879  1.00  0.00    -0.212 A  
ENDBRANCH  19  21
ENDBRANCH  18  19
ENDBRANCH  17  18
ENDBRANCH  16  17
ENDBRANCH   8  16
TORSDOF 6
ENDMDL
MODEL      111
REMARK 921   NORMALIZED FREE ENERGY PREDICTED BY IDOCK:   -5.09 KCAL/MOL
REMARK 922        TOTAL FREE ENERGY PREDICTED BY IDOCK:   -8.18 KCAL/MOL
REMARK 923 INTER-LIGAND FREE ENERGY PREDICTED BY IDOCK:   -7.59 KCAL/MOL
REMARK 924 INTRA-LIGAND FREE ENERGY PREDICTED BY IDOCK:   -0.59 KCAL/MOL
REMARK 927      BINDING AFFINITY PREDICTED BY RF-SCORE:    0.00 PKD
ROOT
HETATM    1  O   UNL     1     -10.438   6.031  71.839  1.00  0.00    -0.207 OA 
HETATM    2  C   UNL     1     -10.937   6.750  70.697  1.00  0.00    -0.267 C  
HETATM    3  H   UNL     1      -9.498   5.940  71.737  1.00  0.00     0.000 HD 
HETATM    4  C   UNL     1     -12.461   6.896  70.863  1.00  0.00    -0.314 C  
HETATM    5  C   UNL     1     -10.232   8.122  70.659  1.00  0.00    -0.211 C  
HETATM    6  C   UNL     1     -12.819   7.885  71.974  1.00  0.00    -0.263 C  
HETATM    7  C   UNL     1     -10.720   9.058  71.767  1.00  0.00    -0.367 C  
HETATM    8  N   UNL     1     -12.183   9.201  71.818  1.00  0.00    -0.348 NA 
ENDROOT
BRANCH   2   9
HETATM    9  C   UNL     1     -10.593   5.941  69.438  1.00  0.00    -0.379 A  
HETATM   10  C   UNL     1      -9.812   4.773  69.512  1.00  0.00    -0.292 A  
HETATM   11  C   UNL     1     -11.027   6.357  68.165  1.00  0.00    -0.393 A  
HETATM   12  C   UNL     1      -9.888   4.503  67.117  1.00  0.00    -0.189 A  
HETATM   13  C   UNL     1      -9.460   4.061  68.363  1.00  0.00    -0.211 A  
HETATM   14 CL   UNL     1      -9.435   3.640  65.699  1.00  0.00    -0.162 Cl 
HETATM   15  C   UNL     1     -10.676   5.646  67.012  1.00  0.00    -0.332 A  
ENDBRANCH   2   9
BRANCH   8  16
HETATM   16  C   UNL     1     -12.690   9.981  70.674  1.00  0.00    -0.206 C  
BRANCH  16  17
HETATM   17  C   UNL     1     -12.023  11.347  70.496  1.00  0.00    -0.451 C  
BRANCH  17  18
HETATM   18  C   UNL     1     -11.068  11.383  69.303  1.00  0.00    -0.313 C  
BRANCH  18  19
HETATM   19  C   UNL     1     -11.576  12.306  68.214  1.00  0.00    -0.331 C  
HETATM   20  O   UNL     1     -12.144  11.897  67.203  1.00  0.00    -0.590 OA 
BRANCH  19  21
HETATM   21  C   UNL     1     -11.331  13.764  68.360  1.00  0.00    -0.326 A  
HETATM   22  C   UNL     1     -10.731  14.220  69.544  1.00  0.00    -0.095 A  
HETATM   23  C   UNL     1     -10.502  15.583  69.737  1.00  0.00    -0.308 A  
HETATM   24  C   UNL     1     -10.859  16.483  68.740  1.00  0.00    -0.342 A  
HETATM   25  F   UNL     1     -10.639  17.790  68.924  1.00  0.00    -0.337 F  
HETATM   26  C   UNL     1     -11.440  16.048  67.554  1.00  0.00     0.051 A  
HETATM   27  C   UNL     1     -11.681  14.686  67.359  1.00  0.00    -0.413 A  
ENDBRANCH  19  21
ENDBRANCH  18  19
ENDBRANCH  17  18
ENDBRANCH  16  17
ENDBRANCH   8  16
TORSDOF 6
ENDMDL
MODEL      112
REMARK 921   NORMALIZED FREE ENERGY PREDICTED BY IDOCK:   -5.07 KCAL/MOL
REMARK 922        TOTAL FREE ENERGY PREDICTED BY IDOCK:   -8.16 KCAL/MOL
REMARK 923 INTER-LIGAND FREE ENERGY PREDICTED BY IDOCK:   -7.16 KCAL/MOL
REMARK 924 INTRA-LIGAND FREE ENERGY PREDICTED BY IDOCK:   -1.00 KCAL/MOL
REMARK 927      BINDING AFFINITY PREDICTED BY RF-SCORE:    0.00 PKD
ROOT
HETATM    1  O   UNL     1      -8.907   9.936  69.428  1.00  0.00    -0.160 OA 
HETATM    2  C   UNL     1      -9.327   9.127  68.315  1.00  0.00    -0.135 C  
HETATM    3  H   UNL     1      -8.073   9.598  69.734  1.00  0.00     0.000 HD 
HETATM    4  C   UNL     1     -10.678   9.676  67.819  1.00  0.00    -0.316 C  
HETATM    5  C   UNL     1      -8.237   9.222  67.226  1.00  0.00    -0.121 C  
HETATM    6  C   UNL     1     -10.520  11.027  67.118  1.00  0.00    -0.232 C  
HETATM    7  C   UNL     1      -8.219  10.589  66.539  1.00  0.00    -0.133 C  
HETATM    8  N   UNL     1      -9.532  11.014  66.030  1.00  0.00    -0.199 NA 
ENDROOT
BRANCH   2   9
HETATM    9  C   UNL     1      -9.464   7.679  68.804  1.00  0.00    -0.152 A  
HETATM   10  C   UNL     1      -8.338   6.848  68.952  1.00  0.00    -0.121 A  
HETATM   11  C   UNL     1     -10.727   7.126  69.094  1.00  0.00    -0.216 A  
HETATM   12  C   UNL     1      -9.724   4.991  69.618  1.00  0.00    -0.196 A  
HETATM   13  C   UNL     1      -8.465   5.516  69.354  1.00  0.00    -0.105 A  
HETATM   14 CL   UNL     1      -9.884   3.344  70.088  1.00  0.00    -0.109 Cl 
HETATM   15  C   UNL     1     -10.857   5.791  69.496  1.00  0.00    -0.410 A  
ENDBRANCH   2   9
BRANCH   8  16
HETATM   16  C   UNL     1      -9.940  10.218  64.858  1.00  0.00    -0.323 C  
BRANCH  16  17
HETATM   17  C   UNL     1     -10.662  11.020  63.771  1.00  0.00    -0.294 C  
BRANCH  17  18
HETATM   18  C   UNL     1     -10.300  12.505  63.801  1.00  0.00    -0.418 C  
BRANCH  18  19
HETATM   19  C   UNL     1     -11.479  13.353  64.234  1.00  0.00    -0.393 C  
HETATM   20  O   UNL     1     -12.533  13.402  63.604  1.00  0.00    -0.711 OA 
BRANCH  19  21
HETATM   21  C   UNL     1     -11.328  14.195  65.448  1.00  0.00    -0.322 A  
HETATM   22  C   UNL     1     -10.383  15.233  65.422  1.00  0.00    -0.421 A  
HETATM   23  C   UNL     1     -10.189  16.037  66.546  1.00  0.00    -0.301 A  
HETATM   24  C   UNL     1     -10.950  15.810  67.687  1.00  0.00    -0.302 A  
HETATM   25  F   UNL     1     -10.765  16.580  68.765  1.00  0.00    -0.261 F  
HETATM   26  C   UNL     1     -11.901  14.796  67.726  1.00  0.00    -0.322 A  
HETATM   27  C   UNL     1     -12.093  13.983  66.607  1.00  0.00    -0.487 A  
ENDBRANCH  19  21
ENDBRANCH  18  19
ENDBRANCH  17  18
ENDBRANCH  16  17
ENDBRANCH   8  16
TORSDOF 6
ENDMDL
MODEL      113
REMARK 921   NORMALIZED FREE ENERGY PREDICTED BY IDOCK:   -5.04 KCAL/MOL
REMARK 922        TOTAL FREE ENERGY PREDICTED BY IDOCK:   -8.12 KCAL/MOL
REMARK 923 INTER-LIGAND FREE ENERGY PREDICTED BY IDOCK:   -8.10 KCAL/MOL
REMARK 924 INTRA-LIGAND FREE ENERGY PREDICTED BY IDOCK:   -0.02 KCAL/MOL
REMARK 927      BINDING AFFINITY PREDICTED BY RF-SCORE:    0.00 PKD
ROOT
HETATM    1  O   UNL     1      -7.747   9.591  71.188  1.00  0.00    -0.325 OA 
HETATM    2  C   UNL     1      -8.719   9.146  70.224  1.00  0.00    -0.200 C  
HETATM    3  H   UNL     1      -7.758   8.980  71.915  1.00  0.00     0.000 HD 
HETATM    4  C   UNL     1      -8.700  10.137  69.046  1.00  0.00    -0.161 C  
HETATM    5  C   UNL     1      -8.325   7.722  69.780  1.00  0.00    -0.131 C  
HETATM    6  C   UNL     1      -7.424  10.005  68.213  1.00  0.00    -0.079 C  
HETATM    7  C   UNL     1      -7.080   7.714  68.890  1.00  0.00    -0.079 C  
HETATM    8  N   UNL     1      -7.165   8.635  67.746  1.00  0.00    -0.086 NA 
ENDROOT
BRANCH   2   9
HETATM    9  C   UNL     1     -10.093   9.127  70.909  1.00  0.00    -0.356 A  
HETATM   10  C   UNL     1     -10.409   8.162  71.883  1.00  0.00    -0.300 A  
HETATM   11  C   UNL     1     -11.091  10.059  70.564  1.00  0.00    -0.400 A  
HETATM   12  C   UNL     1     -12.646   9.037  72.103  1.00  0.00    -0.391 A  
HETATM   13  C   UNL     1     -11.674   8.115  72.475  1.00  0.00    -0.457 A  
HETATM   14 CL   UNL     1     -14.212   8.964  72.813  1.00  0.00    -0.308 Cl 
HETATM   15  C   UNL     1     -12.359  10.013  71.154  1.00  0.00    -0.477 A  
ENDBRANCH   2   9
BRANCH   8  16
HETATM   16  C   UNL     1      -8.124   8.155  66.735  1.00  0.00    -0.103 C  
BRANCH  16  17
HETATM   17  C   UNL     1      -9.058   9.237  66.186  1.00  0.00    -0.224 C  
BRANCH  17  18
HETATM   18  C   UNL     1      -8.463   9.971  64.984  1.00  0.00    -0.167 C  
BRANCH  18  19
HETATM   19  C   UNL     1      -9.541  10.410  64.014  1.00  0.00    -0.317 C  
HETATM   20  O   UNL     1      -9.602  10.001  62.856  1.00  0.00    -0.267 OA 
BRANCH  19  21
HETATM   21  C   UNL     1     -10.534  11.414  64.475  1.00  0.00    -0.381 A  
HETATM   22  C   UNL     1     -11.190  12.190  63.506  1.00  0.00    -0.536 A  
HETATM   23  C   UNL     1     -12.114  13.162  63.891  1.00  0.00    -0.536 A  
HETATM   24  C   UNL     1     -12.390  13.344  65.241  1.00  0.00    -0.469 A  
HETATM   25  F   UNL     1     -13.277  14.275  65.611  1.00  0.00    -0.551 F  
HETATM   26  C   UNL     1     -11.762  12.574  66.213  1.00  0.00    -0.462 A  
HETATM   27  C   UNL     1     -10.829  11.606  65.834  1.00  0.00    -0.339 A  
ENDBRANCH  19  21
ENDBRANCH  18  19
ENDBRANCH  17  18
ENDBRANCH  16  17
ENDBRANCH   8  16
TORSDOF 6
ENDMDL
MODEL      114
REMARK 921   NORMALIZED FREE ENERGY PREDICTED BY IDOCK:   -5.04 KCAL/MOL
REMARK 922        TOTAL FREE ENERGY PREDICTED BY IDOCK:   -8.11 KCAL/MOL
REMARK 923 INTER-LIGAND FREE ENERGY PREDICTED BY IDOCK:   -6.43 KCAL/MOL
REMARK 924 INTRA-LIGAND FREE ENERGY PREDICTED BY IDOCK:   -1.69 KCAL/MOL
REMARK 927      BINDING AFFINITY PREDICTED BY RF-SCORE:    0.00 PKD
ROOT
HETATM    1  O   UNL     1      -7.375   5.157  68.284  1.00  0.00    -0.069 OA 
HETATM    2  C   UNL     1      -8.603   5.846  68.581  1.00  0.00    -0.110 C  
HETATM    3  H   UNL     1      -7.580   4.236  68.166  1.00  0.00     0.000 HD 
HETATM    4  C   UNL     1      -8.270   7.338  68.772  1.00  0.00    -0.129 C  
HETATM    5  C   UNL     1      -9.568   5.623  67.398  1.00  0.00    -0.123 C  
HETATM    6  C   UNL     1      -7.903   8.011  67.448  1.00  0.00    -0.117 C  
HETATM    7  C   UNL     1      -9.147   6.403  66.150  1.00  0.00    -0.131 C  
HETATM    8  N   UNL     1      -8.915   7.834  66.397  1.00  0.00    -0.156 NA 
ENDROOT
BRANCH   2   9
HETATM    9  C   UNL     1      -9.189   5.242  69.865  1.00  0.00    -0.178 A  
HETATM   10  C   UNL     1      -9.564   6.057  70.949  1.00  0.00    -0.196 A  
HETATM   11  C   UNL     1      -9.345   3.850  70.009  1.00  0.00    -0.247 A  
HETATM   12  C   UNL     1     -10.183   4.127  72.257  1.00  0.00    -0.164 A  
HETATM   13  C   UNL     1     -10.056   5.506  72.135  1.00  0.00    -0.231 A  
HETATM   14 CL   UNL     1     -10.765   3.447  73.727  1.00  0.00    -0.277 Cl 
HETATM   15  C   UNL     1      -9.836   3.296  71.196  1.00  0.00    -0.144 A  
ENDBRANCH   2   9
BRANCH   8  16
HETATM   16  C   UNL     1     -10.177   8.551  66.653  1.00  0.00    -0.275 C  
BRANCH  16  17
HETATM   17  C   UNL     1     -10.071  10.075  66.549  1.00  0.00    -0.296 C  
BRANCH  17  18
HETATM   18  C   UNL     1     -10.959  10.795  67.563  1.00  0.00    -0.372 C  
BRANCH  18  19
HETATM   19  C   UNL     1     -10.426  10.643  68.973  1.00  0.00    -0.214 C  
HETATM   20  O   UNL     1      -9.240  10.794  69.258  1.00  0.00    -0.153 OA 
BRANCH  19  21
HETATM   21  C   UNL     1     -11.377  10.246  70.043  1.00  0.00    -0.370 A  
HETATM   22  C   UNL     1     -12.162  11.247  70.637  1.00  0.00    -0.489 A  
HETATM   23  C   UNL     1     -13.053  10.928  71.662  1.00  0.00    -0.538 A  
HETATM   24  C   UNL     1     -13.167   9.607  72.080  1.00  0.00    -0.453 A  
HETATM   25  F   UNL     1     -14.022   9.300  73.062  1.00  0.00    -0.394 F  
HETATM   26  C   UNL     1     -12.409   8.601  71.494  1.00  0.00    -0.370 A  
HETATM   27  C   UNL     1     -11.508   8.916  70.473  1.00  0.00    -0.231 A  
ENDBRANCH  19  21
ENDBRANCH  18  19
ENDBRANCH  17  18
ENDBRANCH  16  17
ENDBRANCH   8  16
TORSDOF 6
ENDMDL
MODEL      115
REMARK 921   NORMALIZED FREE ENERGY PREDICTED BY IDOCK:   -5.04 KCAL/MOL
REMARK 922        TOTAL FREE ENERGY PREDICTED BY IDOCK:   -8.11 KCAL/MOL
REMARK 923 INTER-LIGAND FREE ENERGY PREDICTED BY IDOCK:   -7.00 KCAL/MOL
REMARK 924 INTRA-LIGAND FREE ENERGY PREDICTED BY IDOCK:   -1.11 KCAL/MOL
REMARK 927      BINDING AFFINITY PREDICTED BY RF-SCORE:    0.00 PKD
ROOT
HETATM    1  O   UNL     1      -9.736  11.941  69.185  1.00  0.00    -0.407 OA 
HETATM    2  C   UNL     1     -10.394  10.880  68.471  1.00  0.00    -0.187 C  
HETATM    3  H   UNL     1     -10.373  12.629  69.336  1.00  0.00     0.000 HD 
HETATM    4  C   UNL     1      -9.360   9.764  68.228  1.00  0.00    -0.134 C  
HETATM    5  C   UNL     1     -11.572  10.387  69.337  1.00  0.00    -0.272 C  
HETATM    6  C   UNL     1      -9.003   9.029  69.521  1.00  0.00    -0.147 C  
HETATM    7  C   UNL     1     -11.104   9.600  70.563  1.00  0.00    -0.308 C  
HETATM    8  N   UNL     1     -10.172   8.507  70.243  1.00  0.00    -0.189 NA 
ENDROOT
BRANCH   2   9
HETATM    9  C   UNL     1     -10.913  11.450  67.144  1.00  0.00    -0.340 A  
HETATM   10  C   UNL     1     -10.457  10.955  65.908  1.00  0.00    -0.285 A  
HETATM   11  C   UNL     1     -11.843  12.508  67.120  1.00  0.00    -0.386 A  
HETATM   12  C   UNL     1     -11.799  12.557  64.706  1.00  0.00    -0.383 A  
HETATM   13  C   UNL     1     -10.894  11.503  64.699  1.00  0.00    -0.372 A  
HETATM   14 CL   UNL     1     -12.319  13.250  63.218  1.00  0.00    -0.477 Cl 
HETATM   15  C   UNL     1     -12.282  13.059  65.911  1.00  0.00    -0.493 A  
ENDBRANCH   2   9
BRANCH   8  16
HETATM   16  C   UNL     1     -10.856   7.398  69.554  1.00  0.00    -0.189 C  
BRANCH  16  17
HETATM   17  C   UNL     1     -10.870   6.081  70.337  1.00  0.00    -0.386 C  
BRANCH  17  18
HETATM   18  C   UNL     1     -11.766   6.143  71.574  1.00  0.00    -0.264 C  
BRANCH  18  19
HETATM   19  C   UNL     1     -11.072   5.565  72.790  1.00  0.00    -0.291 C  
HETATM   20  O   UNL     1     -11.575   4.689  73.491  1.00  0.00    -0.285 OA 
BRANCH  19  21
HETATM   21  C   UNL     1      -9.748   6.118  73.172  1.00  0.00    -0.160 A  
HETATM   22  C   UNL     1      -9.692   7.443  73.633  1.00  0.00    -0.349 A  
HETATM   23  C   UNL     1      -8.468   8.016  73.982  1.00  0.00    -0.312 A  
HETATM   24  C   UNL     1      -7.307   7.257  73.884  1.00  0.00    -0.097 A  
HETATM   25  F   UNL     1      -6.134   7.806  74.219  1.00  0.00    -0.081 F  
HETATM   26  C   UNL     1      -7.346   5.939  73.444  1.00  0.00    -0.086 A  
HETATM   27  C   UNL     1      -8.567   5.364  73.084  1.00  0.00    -0.117 A  
ENDBRANCH  19  21
ENDBRANCH  18  19
ENDBRANCH  17  18
ENDBRANCH  16  17
ENDBRANCH   8  16
TORSDOF 6
ENDMDL
MODEL      116
REMARK 921   NORMALIZED FREE ENERGY PREDICTED BY IDOCK:   -5.03 KCAL/MOL
REMARK 922        TOTAL FREE ENERGY PREDICTED BY IDOCK:   -8.10 KCAL/MOL
REMARK 923 INTER-LIGAND FREE ENERGY PREDICTED BY IDOCK:   -5.74 KCAL/MOL
REMARK 924 INTRA-LIGAND FREE ENERGY PREDICTED BY IDOCK:   -2.36 KCAL/MOL
REMARK 927      BINDING AFFINITY PREDICTED BY RF-SCORE:    0.00 PKD
ROOT
HETATM    1  O   UNL     1      -7.253   8.903  72.973  1.00  0.00    -0.343 OA 
HETATM    2  C   UNL     1      -8.235   7.958  72.513  1.00  0.00    -0.139 C  
HETATM    3  H   UNL     1      -7.709   9.581  73.459  1.00  0.00     0.000 HD 
HETATM    4  C   UNL     1      -7.497   6.859  71.726  1.00  0.00    -0.089 C  
HETATM    5  C   UNL     1      -8.958   7.387  73.751  1.00  0.00    -0.275 C  
HETATM    6  C   UNL     1      -6.674   5.956  72.647  1.00  0.00    -0.069 C  
HETATM    7  C   UNL     1      -8.068   6.438  74.557  1.00  0.00    -0.119 C  
HETATM    8  N   UNL     1      -7.453   5.374  73.750  1.00  0.00    -0.090 NA 
ENDROOT
BRANCH   2   9
HETATM    9  C   UNL     1      -9.231   8.705  71.615  1.00  0.00    -0.326 A  
HETATM   10  C   UNL     1      -8.814   9.332  70.426  1.00  0.00    -0.271 A  
HETATM   11  C   UNL     1     -10.591   8.812  71.967  1.00  0.00    -0.414 A  
HETATM   12  C   UNL     1     -11.043  10.154  70.011  1.00  0.00    -0.308 A  
HETATM   13  C   UNL     1      -9.710  10.051  69.631  1.00  0.00    -0.255 A  
HETATM   14 CL   UNL     1     -12.141  11.060  69.045  1.00  0.00    -0.367 Cl 
HETATM   15  C   UNL     1     -11.490   9.532  71.173  1.00  0.00    -0.430 A  
ENDBRANCH   2   9
BRANCH   8  16
HETATM   16  C   UNL     1      -8.450   4.378  73.319  1.00  0.00    -0.098 C  
BRANCH  16  17
HETATM   17  C   UNL     1      -7.853   3.131  72.660  1.00  0.00    -0.063 C  
BRANCH  17  18
HETATM   18  C   UNL     1      -7.796   3.243  71.136  1.00  0.00    -0.051 C  
BRANCH  18  19
HETATM   19  C   UNL     1      -9.181   3.185  70.524  1.00  0.00    -0.140 C  
HETATM   20  O   UNL     1      -9.897   2.188  70.587  1.00  0.00    -0.059 OA 
BRANCH  19  21
HETATM   21  C   UNL     1      -9.668   4.373  69.778  1.00  0.00    -0.291 A  
HETATM   22  C   UNL     1      -9.112   4.637  68.516  1.00  0.00    -0.157 A  
HETATM   23  C   UNL     1      -9.520   5.754  67.787  1.00  0.00    -0.116 A  
HETATM   24  C   UNL     1     -10.494   6.595  68.314  1.00  0.00    -0.209 A  
HETATM   25  F   UNL     1     -10.887   7.666  67.614  1.00  0.00    -0.297 F  
HETATM   26  C   UNL     1     -11.067   6.340  69.554  1.00  0.00    -0.476 A  
HETATM   27  C   UNL     1     -10.655   5.229  70.293  1.00  0.00    -0.288 A  
ENDBRANCH  19  21
ENDBRANCH  18  19
ENDBRANCH  17  18
ENDBRANCH  16  17
ENDBRANCH   8  16
TORSDOF 6
ENDMDL
MODEL      117
REMARK 921   NORMALIZED FREE ENERGY PREDICTED BY IDOCK:   -4.99 KCAL/MOL
REMARK 922        TOTAL FREE ENERGY PREDICTED BY IDOCK:   -8.05 KCAL/MOL
REMARK 923 INTER-LIGAND FREE ENERGY PREDICTED BY IDOCK:   -6.19 KCAL/MOL
REMARK 924 INTRA-LIGAND FREE ENERGY PREDICTED BY IDOCK:   -1.86 KCAL/MOL
REMARK 927      BINDING AFFINITY PREDICTED BY RF-SCORE:    0.00 PKD
ROOT
HETATM    1  O   UNL     1     -11.990  13.350  69.209  1.00  0.00    -0.314 OA 
HETATM    2  C   UNL     1     -11.071  12.745  68.281  1.00  0.00    -0.257 C  
HETATM    3  H   UNL     1     -11.486  13.672  69.948  1.00  0.00     0.000 HD 
HETATM    4  C   UNL     1     -11.888  12.222  67.084  1.00  0.00    -0.328 C  
HETATM    5  C   UNL     1     -10.055  13.823  67.852  1.00  0.00    -0.246 C  
HETATM    6  C   UNL     1     -12.422  13.366  66.219  1.00  0.00    -0.276 C  
HETATM    7  C   UNL     1     -10.676  14.873  66.928  1.00  0.00    -0.308 C  
HETATM    8  N   UNL     1     -11.380  14.300  65.771  1.00  0.00    -0.320 NA 
ENDROOT
BRANCH   2   9
HETATM    9  C   UNL     1     -10.354  11.596  69.003  1.00  0.00    -0.119 A  
HETATM   10  C   UNL     1      -8.993  11.323  68.768  1.00  0.00    -0.116 A  
HETATM   11  C   UNL     1     -11.041  10.761  69.905  1.00  0.00    -0.339 A  
HETATM   12  C   UNL     1      -9.056   9.431  70.263  1.00  0.00    -0.245 A  
HETATM   13  C   UNL     1      -8.349  10.250  69.390  1.00  0.00    -0.169 A  
HETATM   14 CL   UNL     1      -8.270   8.095  71.010  1.00  0.00    -0.103 Cl 
HETATM   15  C   UNL     1     -10.398   9.685  70.529  1.00  0.00    -0.359 A  
ENDBRANCH   2   9
BRANCH   8  16
HETATM   16  C   UNL     1     -10.436  13.724  64.796  1.00  0.00    -0.428 C  
BRANCH  16  17
HETATM   17  C   UNL     1     -10.527  12.202  64.653  1.00  0.00    -0.336 C  
BRANCH  17  18
HETATM   18  C   UNL     1      -9.253  11.492  65.111  1.00  0.00    -0.065 C  
BRANCH  18  19
HETATM   19  C   UNL     1      -9.220  10.053  64.640  1.00  0.00    -0.258 C  
HETATM   20  O   UNL     1      -9.241   9.740  63.451  1.00  0.00    -0.258 OA 
BRANCH  19  21
HETATM   21  C   UNL     1      -9.211   8.979  65.665  1.00  0.00    -0.288 A  
HETATM   22  C   UNL     1     -10.350   8.821  66.471  1.00  0.00    -0.254 A  
HETATM   23  C   UNL     1     -10.380   7.841  67.463  1.00  0.00    -0.333 A  
HETATM   24  C   UNL     1      -9.277   7.012  67.638  1.00  0.00    -0.120 A  
HETATM   25  F   UNL     1      -9.306   6.072  68.589  1.00  0.00    -0.119 F  
HETATM   26  C   UNL     1      -8.147   7.144  66.840  1.00  0.00    -0.116 A  
HETATM   27  C   UNL     1      -8.108   8.129  65.850  1.00  0.00    -0.115 A  
ENDBRANCH  19  21
ENDBRANCH  18  19
ENDBRANCH  17  18
ENDBRANCH  16  17
ENDBRANCH   8  16
TORSDOF 6
ENDMDL
MODEL      118
REMARK 921   NORMALIZED FREE ENERGY PREDICTED BY IDOCK:   -4.96 KCAL/MOL
REMARK 922        TOTAL FREE ENERGY PREDICTED BY IDOCK:   -8.01 KCAL/MOL
REMARK 923 INTER-LIGAND FREE ENERGY PREDICTED BY IDOCK:   -7.12 KCAL/MOL
REMARK 924 INTRA-LIGAND FREE ENERGY PREDICTED BY IDOCK:   -0.90 KCAL/MOL
REMARK 927      BINDING AFFINITY PREDICTED BY RF-SCORE:    0.00 PKD
ROOT
HETATM    1  O   UNL     1      -9.028   4.914  68.070  1.00  0.00    -0.106 OA 
HETATM    2  C   UNL     1      -9.640   5.889  68.932  1.00  0.00    -0.132 C  
HETATM    3  H   UNL     1      -9.642   4.197  67.961  1.00  0.00     0.000 HD 
HETATM    4  C   UNL     1      -8.644   7.051  69.108  1.00  0.00    -0.133 C  
HETATM    5  C   UNL     1     -10.950   6.356  68.263  1.00  0.00    -0.396 C  
HETATM    6  C   UNL     1      -8.506   7.879  67.829  1.00  0.00    -0.125 C  
HETATM    7  C   UNL     1     -10.695   7.239  67.039  1.00  0.00    -0.336 C  
HETATM    8  N   UNL     1      -9.789   8.368  67.303  1.00  0.00    -0.184 NA 
ENDROOT
BRANCH   2   9
HETATM    9  C   UNL     1      -9.943   5.213  70.277  1.00  0.00    -0.320 A  
HETATM   10  C   UNL     1     -10.590   5.909  71.315  1.00  0.00    -0.311 A  
HETATM   11  C   UNL     1      -9.558   3.881  70.525  1.00  0.00    -0.263 A  
HETATM   12  C   UNL     1     -10.421   4.000  72.777  1.00  0.00    -0.159 A  
HETATM   13  C   UNL     1     -10.827   5.310  72.554  1.00  0.00    -0.301 A  
HETATM   14 CL   UNL     1     -10.689   3.269  74.312  1.00  0.00    -0.247 Cl 
HETATM   15  C   UNL     1      -9.793   3.279  71.766  1.00  0.00    -0.229 A  
ENDBRANCH   2   9
BRANCH   8  16
HETATM   16  C   UNL     1     -10.433   9.392  68.146  1.00  0.00    -0.220 C  
BRANCH  16  17
HETATM   17  C   UNL     1      -9.524  10.568  68.515  1.00  0.00    -0.164 C  
BRANCH  17  18
HETATM   18  C   UNL     1      -9.717  11.770  67.590  1.00  0.00    -0.186 C  
BRANCH  18  19
HETATM   19  C   UNL     1     -11.145  12.276  67.629  1.00  0.00    -0.268 C  
HETATM   20  O   UNL     1     -11.950  12.073  66.722  1.00  0.00    -0.616 OA 
BRANCH  19  21
HETATM   21  C   UNL     1     -11.568  13.092  68.796  1.00  0.00    -0.350 A  
HETATM   22  C   UNL     1     -11.380  14.482  68.736  1.00  0.00    -0.298 A  
HETATM   23  C   UNL     1     -11.740  15.288  69.816  1.00  0.00    -0.347 A  
HETATM   24  C   UNL     1     -12.302  14.705  70.946  1.00  0.00    -0.336 A  
HETATM   25  F   UNL     1     -12.649  15.478  71.982  1.00  0.00    -0.346 F  
HETATM   26  C   UNL     1     -12.511  13.332  71.016  1.00  0.00    -0.422 A  
HETATM   27  C   UNL     1     -12.143  12.519  69.942  1.00  0.00    -0.322 A  
ENDBRANCH  19  21
ENDBRANCH  18  19
ENDBRANCH  17  18
ENDBRANCH  16  17
ENDBRANCH   8  16
TORSDOF 6
ENDMDL
MODEL      119
REMARK 921   NORMALIZED FREE ENERGY PREDICTED BY IDOCK:   -4.94 KCAL/MOL
REMARK 922        TOTAL FREE ENERGY PREDICTED BY IDOCK:   -7.99 KCAL/MOL
REMARK 923 INTER-LIGAND FREE ENERGY PREDICTED BY IDOCK:   -7.24 KCAL/MOL
REMARK 924 INTRA-LIGAND FREE ENERGY PREDICTED BY IDOCK:   -0.74 KCAL/MOL
REMARK 927      BINDING AFFINITY PREDICTED BY RF-SCORE:    0.00 PKD
ROOT
HETATM    1  O   UNL     1      -9.113   6.155  69.502  1.00  0.00    -0.137 OA 
HETATM    2  C   UNL     1      -9.501   7.497  69.157  1.00  0.00    -0.150 C  
HETATM    3  H   UNL     1      -9.874   5.596  69.392  1.00  0.00     0.000 HD 
HETATM    4  C   UNL     1      -8.267   8.402  69.336  1.00  0.00    -0.116 C  
HETATM    5  C   UNL     1      -9.994   7.485  67.695  1.00  0.00    -0.219 C  
HETATM    6  C   UNL     1      -7.214   8.146  68.256  1.00  0.00    -0.093 C  
HETATM    7  C   UNL     1      -8.849   7.299  66.697  1.00  0.00    -0.139 C  
HETATM    8  N   UNL     1      -7.738   8.245  66.887  1.00  0.00    -0.094 NA 
ENDROOT
BRANCH   2   9
HETATM    9  C   UNL     1     -10.637   7.920  70.097  1.00  0.00    -0.237 A  
HETATM   10  C   UNL     1     -11.537   6.976  70.626  1.00  0.00    -0.379 A  
HETATM   11  C   UNL     1     -10.833   9.273  70.440  1.00  0.00    -0.302 A  
HETATM   12  C   UNL     1     -12.780   8.708  71.754  1.00  0.00    -0.359 A  
HETATM   13  C   UNL     1     -12.600   7.365  71.445  1.00  0.00    -0.405 A  
HETATM   14 CL   UNL     1     -14.103   9.191  72.743  1.00  0.00    -0.340 Cl 
HETATM   15  C   UNL     1     -11.897   9.664  71.260  1.00  0.00    -0.460 A  
ENDBRANCH   2   9
BRANCH   8  16
HETATM   16  C   UNL     1      -8.119   9.612  66.487  1.00  0.00    -0.119 C  
BRANCH  16  17
HETATM   17  C   UNL     1      -9.314   9.681  65.532  1.00  0.00    -0.309 C  
BRANCH  17  18
HETATM   18  C   UNL     1      -9.134  10.738  64.442  1.00  0.00    -0.217 C  
BRANCH  18  19
HETATM   19  C   UNL     1     -10.402  11.542  64.236  1.00  0.00    -0.323 C  
HETATM   20  O   UNL     1     -11.099  11.441  63.228  1.00  0.00    -0.319 OA 
BRANCH  19  21
HETATM   21  C   UNL     1     -10.786  12.526  65.280  1.00  0.00    -0.318 A  
HETATM   22  C   UNL     1     -12.113  12.983  65.304  1.00  0.00    -0.484 A  
HETATM   23  C   UNL     1     -12.517  13.925  66.251  1.00  0.00    -0.454 A  
HETATM   24  C   UNL     1     -11.596  14.396  67.180  1.00  0.00    -0.386 A  
HETATM   25  F   UNL     1     -11.982  15.299  68.089  1.00  0.00    -0.347 F  
HETATM   26  C   UNL     1     -10.282  13.944  67.180  1.00  0.00    -0.258 A  
HETATM   27  C   UNL     1      -9.870  13.008  66.229  1.00  0.00    -0.278 A  
ENDBRANCH  19  21
ENDBRANCH  18  19
ENDBRANCH  17  18
ENDBRANCH  16  17
ENDBRANCH   8  16
TORSDOF 6
ENDMDL
MODEL      120
REMARK 921   NORMALIZED FREE ENERGY PREDICTED BY IDOCK:   -4.94 KCAL/MOL
REMARK 922        TOTAL FREE ENERGY PREDICTED BY IDOCK:   -7.98 KCAL/MOL
REMARK 923 INTER-LIGAND FREE ENERGY PREDICTED BY IDOCK:   -6.32 KCAL/MOL
REMARK 924 INTRA-LIGAND FREE ENERGY PREDICTED BY IDOCK:   -1.66 KCAL/MOL
REMARK 927      BINDING AFFINITY PREDICTED BY RF-SCORE:    0.00 PKD
ROOT
HETATM    1  O   UNL     1     -10.532   5.631  66.383  1.00  0.00    -0.345 OA 
HETATM    2  C   UNL     1     -10.002   6.716  67.166  1.00  0.00    -0.160 C  
HETATM    3  H   UNL     1      -9.852   5.347  65.784  1.00  0.00     0.000 HD 
HETATM    4  C   UNL     1     -11.105   7.177  68.137  1.00  0.00    -0.027 C  
HETATM    5  C   UNL     1      -8.760   6.193  67.918  1.00  0.00    -0.113 C  
HETATM    6  C   UNL     1     -11.353   6.150  69.244  1.00  0.00    -0.291 C  
HETATM    7  C   UNL     1      -9.129   5.233  69.051  1.00  0.00    -0.115 C  
HETATM    8  N   UNL     1     -10.137   5.771  69.978  1.00  0.00    -0.199 NA 
ENDROOT
BRANCH   2   9
HETATM    9  C   UNL     1      -9.605   7.846  66.206  1.00  0.00    -0.200 A  
HETATM   10  C   UNL     1     -10.212   9.113  66.278  1.00  0.00    -0.257 A  
HETATM   11  C   UNL     1      -8.637   7.642  65.202  1.00  0.00     0.000 A  
HETATM   12  C   UNL     1      -8.938   9.894  64.386  1.00  0.00    -0.239 A  
HETATM   13  C   UNL     1      -9.884  10.129  65.376  1.00  0.00    -0.375 A  
HETATM   14 CL   UNL     1      -8.552  11.137  63.259  1.00  0.00     0.006 Cl 
HETATM   15  C   UNL     1      -8.308   8.657  64.298  1.00  0.00    -0.138 A  
ENDBRANCH   2   9
BRANCH   8  16
HETATM   16  C   UNL     1      -9.580   6.850  70.815  1.00  0.00    -0.165 C  
BRANCH  16  17
HETATM   17  C   UNL     1     -10.289   7.034  72.160  1.00  0.00    -0.214 C  
BRANCH  17  18
HETATM   18  C   UNL     1     -10.669   8.491  72.428  1.00  0.00    -0.376 C  
BRANCH  18  19
HETATM   19  C   UNL     1     -11.912   8.890  71.660  1.00  0.00    -0.345 C  
HETATM   20  O   UNL     1     -12.911   8.177  71.591  1.00  0.00    -0.324 OA 
BRANCH  19  21
HETATM   21  C   UNL     1     -11.897  10.178  70.922  1.00  0.00    -0.468 A  
HETATM   22  C   UNL     1     -12.564  11.275  71.490  1.00  0.00    -0.418 A  
HETATM   23  C   UNL     1     -12.598  12.501  70.824  1.00  0.00    -0.299 A  
HETATM   24  C   UNL     1     -11.952  12.630  69.599  1.00  0.00    -0.286 A  
HETATM   25  F   UNL     1     -11.984  13.805  68.960  1.00  0.00    -0.327 F  
HETATM   26  C   UNL     1     -11.274  11.559  69.029  1.00  0.00    -0.324 A  
HETATM   27  C   UNL     1     -11.245  10.327  69.687  1.00  0.00    -0.322 A  
ENDBRANCH  19  21
ENDBRANCH  18  19
ENDBRANCH  17  18
ENDBRANCH  16  17
ENDBRANCH   8  16
TORSDOF 6
ENDMDL
MODEL      121
REMARK 921   NORMALIZED FREE ENERGY PREDICTED BY IDOCK:   -4.94 KCAL/MOL
REMARK 922        TOTAL FREE ENERGY PREDICTED BY IDOCK:   -7.98 KCAL/MOL
REMARK 923 INTER-LIGAND FREE ENERGY PREDICTED BY IDOCK:   -7.04 KCAL/MOL
REMARK 924 INTRA-LIGAND FREE ENERGY PREDICTED BY IDOCK:   -0.94 KCAL/MOL
REMARK 927      BINDING AFFINITY PREDICTED BY RF-SCORE:    0.00 PKD
ROOT
HETATM    1  O   UNL     1      -9.547   7.963  69.901  1.00  0.00    -0.168 OA 
HETATM    2  C   UNL     1      -9.586   8.438  68.543  1.00  0.00    -0.149 C  
HETATM    3  H   UNL     1      -8.742   7.470  70.013  1.00  0.00     0.000 HD 
HETATM    4  C   UNL     1     -10.891   9.237  68.362  1.00  0.00    -0.125 C  
HETATM    5  C   UNL     1      -8.340   9.319  68.316  1.00  0.00    -0.120 C  
HETATM    6  C   UNL     1     -10.847  10.572  69.107  1.00  0.00    -0.237 C  
HETATM    7  C   UNL     1      -8.436  10.661  69.045  1.00  0.00    -0.145 C  
HETATM    8  N   UNL     1      -9.679  11.398  68.767  1.00  0.00    -0.180 NA 
ENDROOT
BRANCH   2   9
HETATM    9  C   UNL     1      -9.551   7.218  67.612  1.00  0.00    -0.160 A  
HETATM   10  C   UNL     1     -10.672   6.379  67.466  1.00  0.00    -0.396 A  
HETATM   11  C   UNL     1      -8.387   6.885  66.893  1.00  0.00    -0.114 A  
HETATM   12  C   UNL     1      -9.460   4.928  65.968  1.00  0.00    -0.163 A  
HETATM   13  C   UNL     1     -10.628   5.244  66.653  1.00  0.00    -0.334 A  
HETATM   14 CL   UNL     1      -9.397   3.516  64.987  1.00  0.00    -0.149 Cl 
HETATM   15  C   UNL     1      -8.340   5.747  66.079  1.00  0.00    -0.126 A  
ENDBRANCH   2   9
BRANCH   8  16
HETATM   16  C   UNL     1      -9.698  11.927  67.392  1.00  0.00    -0.184 C  
BRANCH  16  17
HETATM   17  C   UNL     1      -9.722  13.456  67.304  1.00  0.00    -0.232 C  
BRANCH  17  18
HETATM   18  C   UNL     1      -9.922  14.119  68.667  1.00  0.00    -0.222 C  
BRANCH  18  19
HETATM   19  C   UNL     1     -11.377  14.463  68.907  1.00  0.00    -0.274 C  
HETATM   20  O   UNL     1     -12.207  14.522  68.002  1.00  0.00    -0.247 OA 
BRANCH  19  21
HETATM   21  C   UNL     1     -11.802  14.788  70.293  1.00  0.00    -0.357 A  
HETATM   22  C   UNL     1     -12.638  13.879  70.961  1.00  0.00    -0.444 A  
HETATM   23  C   UNL     1     -13.081  14.151  72.255  1.00  0.00    -0.514 A  
HETATM   24  C   UNL     1     -12.677  15.324  72.883  1.00  0.00    -0.421 A  
HETATM   25  F   UNL     1     -13.102  15.585  74.125  1.00  0.00    -0.555 F  
HETATM   26  C   UNL     1     -11.838  16.228  72.243  1.00  0.00    -0.601 A  
HETATM   27  C   UNL     1     -11.397  15.965  70.943  1.00  0.00    -0.428 A  
ENDBRANCH  19  21
ENDBRANCH  18  19
ENDBRANCH  17  18
ENDBRANCH  16  17
ENDBRANCH   8  16
TORSDOF 6
ENDMDL
MODEL      122
REMARK 921   NORMALIZED FREE ENERGY PREDICTED BY IDOCK:   -4.93 KCAL/MOL
REMARK 922        TOTAL FREE ENERGY PREDICTED BY IDOCK:   -7.97 KCAL/MOL
REMARK 923 INTER-LIGAND FREE ENERGY PREDICTED BY IDOCK:   -6.74 KCAL/MOL
REMARK 924 INTRA-LIGAND FREE ENERGY PREDICTED BY IDOCK:   -1.23 KCAL/MOL
REMARK 927      BINDING AFFINITY PREDICTED BY RF-SCORE:    0.00 PKD
ROOT
HETATM    1  O   UNL     1     -11.601  11.536  66.022  1.00  0.00    -0.311 OA 
HETATM    2  C   UNL     1     -10.517  11.886  66.900  1.00  0.00    -0.222 C  
HETATM    3  H   UNL     1     -11.469  11.994  65.200  1.00  0.00     0.000 HD 
HETATM    4  C   UNL     1     -10.733  11.142  68.232  1.00  0.00    -0.234 C  
HETATM    5  C   UNL     1      -9.200  11.464  66.217  1.00  0.00    -0.220 C  
HETATM    6  C   UNL     1     -10.482   9.640  68.090  1.00  0.00    -0.222 C  
HETATM    7  C   UNL     1      -9.016   9.945  66.198  1.00  0.00    -0.150 C  
HETATM    8  N   UNL     1      -9.167   9.314  67.518  1.00  0.00    -0.124 NA 
ENDROOT
BRANCH   2   9
HETATM    9  C   UNL     1     -10.545  13.407  67.107  1.00  0.00    -0.259 A  
HETATM   10  C   UNL     1      -9.745  14.263  66.327  1.00  0.00    -0.321 A  
HETATM   11  C   UNL     1     -11.352  13.992  68.101  1.00  0.00    -0.320 A  
HETATM   12  C   UNL     1     -10.528  16.193  67.543  1.00  0.00    -0.302 A  
HETATM   13  C   UNL     1      -9.734  15.644  66.543  1.00  0.00    -0.286 A  
HETATM   14 CL   UNL     1     -10.497  17.890  67.827  1.00  0.00    -0.393 Cl 
HETATM   15  C   UNL     1     -11.343  15.374  68.320  1.00  0.00    -0.354 A  
ENDBRANCH   2   9
BRANCH   8  16
HETATM   16  C   UNL     1      -8.032   9.632  68.403  1.00  0.00    -0.096 C  
BRANCH  16  17
HETATM   17  C   UNL     1      -7.765   8.586  69.489  1.00  0.00    -0.091 C  
BRANCH  17  18
HETATM   18  C   UNL     1      -7.960   9.141  70.900  1.00  0.00    -0.192 C  
BRANCH  18  19
HETATM   19  C   UNL     1      -8.569   8.106  71.824  1.00  0.00    -0.146 C  
HETATM   20  O   UNL     1      -7.901   7.444  72.616  1.00  0.00    -0.091 OA 
BRANCH  19  21
HETATM   21  C   UNL     1     -10.029   7.854  71.729  1.00  0.00    -0.228 A  
HETATM   22  C   UNL     1     -10.877   8.947  71.485  1.00  0.00    -0.396 A  
HETATM   23  C   UNL     1     -12.258   8.764  71.411  1.00  0.00    -0.359 A  
HETATM   24  C   UNL     1     -12.786   7.487  71.564  1.00  0.00    -0.360 A  
HETATM   25  F   UNL     1     -14.111   7.311  71.492  1.00  0.00    -0.452 F  
HETATM   26  C   UNL     1     -11.962   6.392  71.790  1.00  0.00    -0.370 A  
HETATM   27  C   UNL     1     -10.579   6.570  71.875  1.00  0.00    -0.239 A  
ENDBRANCH  19  21
ENDBRANCH  18  19
ENDBRANCH  17  18
ENDBRANCH  16  17
ENDBRANCH   8  16
TORSDOF 6
ENDMDL
MODEL      123
REMARK 921   NORMALIZED FREE ENERGY PREDICTED BY IDOCK:   -4.92 KCAL/MOL
REMARK 922        TOTAL FREE ENERGY PREDICTED BY IDOCK:   -7.96 KCAL/MOL
REMARK 923 INTER-LIGAND FREE ENERGY PREDICTED BY IDOCK:   -6.98 KCAL/MOL
REMARK 924 INTRA-LIGAND FREE ENERGY PREDICTED BY IDOCK:   -0.98 KCAL/MOL
REMARK 927      BINDING AFFINITY PREDICTED BY RF-SCORE:    0.00 PKD
ROOT
HETATM    1  O   UNL     1      -7.491  14.965  66.463  1.00  0.00    -0.166 OA 
HETATM    2  C   UNL     1      -8.113  14.855  67.756  1.00  0.00    -0.152 C  
HETATM    3  H   UNL     1      -7.831  14.265  65.917  1.00  0.00     0.000 HD 
HETATM    4  C   UNL     1      -7.562  15.991  68.640  1.00  0.00    -0.173 C  
HETATM    5  C   UNL     1      -9.638  14.974  67.558  1.00  0.00    -0.203 C  
HETATM    6  C   UNL     1      -8.096  17.357  68.206  1.00  0.00    -0.249 C  
HETATM    7  C   UNL     1     -10.070  16.398  67.202  1.00  0.00    -0.271 C  
HETATM    8  N   UNL     1      -9.563  17.420  68.132  1.00  0.00    -0.276 NA 
ENDROOT
BRANCH   2   9
HETATM    9  C   UNL     1      -7.758  13.480  68.338  1.00  0.00    -0.135 A  
HETATM   10  C   UNL     1      -8.577  12.358  68.112  1.00  0.00    -0.185 A  
HETATM   11  C   UNL     1      -6.615  13.303  69.142  1.00  0.00    -0.105 A  
HETATM   12  C   UNL     1      -7.155  10.973  69.481  1.00  0.00    -0.113 A  
HETATM   13  C   UNL     1      -8.280  11.116  68.678  1.00  0.00    -0.152 A  
HETATM   14 CL   UNL     1      -6.803   9.450  70.199  1.00  0.00    -0.061 Cl 
HETATM   15  C   UNL     1      -6.316  12.060  69.711  1.00  0.00    -0.110 A  
ENDBRANCH   2   9
BRANCH   8  16
HETATM   16  C   UNL     1     -10.234  17.339  69.442  1.00  0.00    -0.139 C  
BRANCH  16  17
HETATM   17  C   UNL     1     -11.392  16.338  69.497  1.00  0.00    -0.276 C  
BRANCH  17  18
HETATM   18  C   UNL     1     -11.745  15.930  70.928  1.00  0.00    -0.456 C  
BRANCH  18  19
HETATM   19  C   UNL     1     -12.962  15.028  70.961  1.00  0.00    -0.404 C  
HETATM   20  O   UNL     1     -14.108  15.457  71.082  1.00  0.00    -0.489 OA 
BRANCH  19  21
HETATM   21  C   UNL     1     -12.749  13.559  70.892  1.00  0.00    -0.366 A  
HETATM   22  C   UNL     1     -13.273  12.764  71.923  1.00  0.00    -0.511 A  
HETATM   23  C   UNL     1     -13.079  11.383  71.915  1.00  0.00    -0.505 A  
HETATM   24  C   UNL     1     -12.376  10.799  70.867  1.00  0.00    -0.396 A  
HETATM   25  F   UNL     1     -12.190   9.473  70.858  1.00  0.00    -0.320 F  
HETATM   26  C   UNL     1     -11.864  11.568  69.829  1.00  0.00    -0.429 A  
HETATM   27  C   UNL     1     -12.047  12.953  69.837  1.00  0.00    -0.335 A  
ENDBRANCH  19  21
ENDBRANCH  18  19
ENDBRANCH  17  18
ENDBRANCH  16  17
ENDBRANCH   8  16
TORSDOF 6
ENDMDL
MODEL      124
REMARK 921   NORMALIZED FREE ENERGY PREDICTED BY IDOCK:   -4.92 KCAL/MOL
REMARK 922        TOTAL FREE ENERGY PREDICTED BY IDOCK:   -7.96 KCAL/MOL
REMARK 923 INTER-LIGAND FREE ENERGY PREDICTED BY IDOCK:   -7.19 KCAL/MOL
REMARK 924 INTRA-LIGAND FREE ENERGY PREDICTED BY IDOCK:   -0.77 KCAL/MOL
REMARK 927      BINDING AFFINITY PREDICTED BY RF-SCORE:    0.00 PKD
ROOT
HETATM    1  O   UNL     1      -8.577   6.720  67.789  1.00  0.00    -0.121 OA 
HETATM    2  C   UNL     1      -8.788   7.980  68.451  1.00  0.00    -0.134 C  
HETATM    3  H   UNL     1      -9.321   6.162  67.983  1.00  0.00     0.000 HD 
HETATM    4  C   UNL     1      -7.581   8.885  68.135  1.00  0.00    -0.093 C  
HETATM    5  C   UNL     1     -10.106   8.579  67.918  1.00  0.00    -0.258 C  
HETATM    6  C   UNL     1      -7.587   9.349  66.677  1.00  0.00    -0.094 C  
HETATM    7  C   UNL     1      -9.977   9.081  66.478  1.00  0.00    -0.285 C  
HETATM    8  N   UNL     1      -8.843   9.995  66.270  1.00  0.00    -0.142 NA 
ENDROOT
BRANCH   2   9
HETATM    9  C   UNL     1      -8.898   7.712  69.959  1.00  0.00    -0.143 A  
HETATM   10  C   UNL     1      -9.426   8.679  70.835  1.00  0.00    -0.242 A  
HETATM   11  C   UNL     1      -8.448   6.500  70.517  1.00  0.00    -0.138 A  
HETATM   12  C   UNL     1      -9.019   7.256  72.739  1.00  0.00    -0.135 A  
HETATM   13  C   UNL     1      -9.485   8.455  72.213  1.00  0.00    -0.367 A  
HETATM   14 CL   UNL     1      -9.068   6.990  74.439  1.00  0.00    -0.244 Cl 
HETATM   15  C   UNL     1      -8.505   6.274  71.897  1.00  0.00    -0.124 A  
ENDBRANCH   2   9
BRANCH   8  16
HETATM   16  C   UNL     1      -9.079  11.303  66.907  1.00  0.00    -0.167 C  
BRANCH  16  17
HETATM   17  C   UNL     1     -10.549  11.593  67.227  1.00  0.00    -0.265 C  
BRANCH  17  18
HETATM   18  C   UNL     1     -10.713  12.633  68.336  1.00  0.00    -0.260 C  
BRANCH  18  19
HETATM   19  C   UNL     1     -11.776  12.217  69.332  1.00  0.00    -0.329 C  
HETATM   20  O   UNL     1     -12.220  11.072  69.396  1.00  0.00    -0.350 OA 
BRANCH  19  21
HETATM   21  C   UNL     1     -12.335  13.254  70.236  1.00  0.00    -0.334 A  
HETATM   22  C   UNL     1     -13.006  12.833  71.395  1.00  0.00    -0.359 A  
HETATM   23  C   UNL     1     -13.568  13.769  72.263  1.00  0.00    -0.656 A  
HETATM   24  C   UNL     1     -13.445  15.124  71.978  1.00  0.00    -0.421 A  
HETATM   25  F   UNL     1     -13.983  16.023  72.810  1.00  0.00    -0.624 F  
HETATM   26  C   UNL     1     -12.771  15.560  70.843  1.00  0.00    -0.525 A  
HETATM   27  C   UNL     1     -12.214  14.627  69.965  1.00  0.00    -0.385 A  
ENDBRANCH  19  21
ENDBRANCH  18  19
ENDBRANCH  17  18
ENDBRANCH  16  17
ENDBRANCH   8  16
TORSDOF 6
ENDMDL
MODEL      125
REMARK 921   NORMALIZED FREE ENERGY PREDICTED BY IDOCK:   -4.92 KCAL/MOL
REMARK 922        TOTAL FREE ENERGY PREDICTED BY IDOCK:   -7.96 KCAL/MOL
REMARK 923 INTER-LIGAND FREE ENERGY PREDICTED BY IDOCK:   -6.35 KCAL/MOL
REMARK 924 INTRA-LIGAND FREE ENERGY PREDICTED BY IDOCK:   -1.61 KCAL/MOL
REMARK 927      BINDING AFFINITY PREDICTED BY RF-SCORE:    0.00 PKD
ROOT
HETATM    1  O   UNL     1     -11.184  12.519  70.304  1.00  0.00    -0.368 OA 
HETATM    2  C   UNL     1     -11.326  11.473  69.326  1.00  0.00    -0.288 C  
HETATM    3  H   UNL     1     -11.994  13.017  70.316  1.00  0.00     0.000 HD 
HETATM    4  C   UNL     1     -10.013  10.668  69.307  1.00  0.00    -0.215 C  
HETATM    5  C   UNL     1     -12.527  10.599  69.741  1.00  0.00    -0.187 C  
HETATM    6  C   UNL     1      -9.846   9.824  70.572  1.00  0.00    -0.163 C  
HETATM    7  C   UNL     1     -12.224   9.741  70.972  1.00  0.00    -0.347 C  
HETATM    8  N   UNL     1     -10.992   8.947  70.851  1.00  0.00    -0.250 NA 
ENDROOT
BRANCH   2   9
HETATM    9  C   UNL     1     -11.592  12.129  67.964  1.00  0.00    -0.411 A  
HETATM   10  C   UNL     1     -11.394  11.422  66.763  1.00  0.00    -0.252 A  
HETATM   11  C   UNL     1     -12.018  13.468  67.871  1.00  0.00    -0.372 A  
HETATM   12  C   UNL     1     -11.996  13.359  65.458  1.00  0.00    -0.398 A  
HETATM   13  C   UNL     1     -11.592  12.030  65.521  1.00  0.00    -0.352 A  
HETATM   14 CL   UNL     1     -12.216  14.116  63.929  1.00  0.00    -0.408 Cl 
HETATM   15  C   UNL     1     -12.216  14.079  66.628  1.00  0.00    -0.463 A  
ENDBRANCH   2   9
BRANCH   8  16
HETATM   16  C   UNL     1     -11.152   7.844  69.885  1.00  0.00    -0.120 C  
BRANCH  16  17
HETATM   17  C   UNL     1     -10.328   6.595  70.211  1.00  0.00    -0.235 C  
BRANCH  17  18
HETATM   18  C   UNL     1      -9.197   6.360  69.210  1.00  0.00    -0.135 C  
BRANCH  18  19
HETATM   19  C   UNL     1      -9.736   6.048  67.828  1.00  0.00    -0.115 C  
HETATM   20  O   UNL     1     -10.529   5.134  67.613  1.00  0.00    -0.151 OA 
BRANCH  19  21
HETATM   21  C   UNL     1      -9.243   6.856  66.684  1.00  0.00    -0.185 A  
HETATM   22  C   UNL     1      -8.638   6.185  65.610  1.00  0.00    -0.148 A  
HETATM   23  C   UNL     1      -8.139   6.903  64.523  1.00  0.00    -0.069 A  
HETATM   24  C   UNL     1      -8.260   8.287  64.505  1.00  0.00    -0.135 A  
HETATM   25  F   UNL     1      -7.782   8.976  63.462  1.00  0.00    -0.106 F  
HETATM   26  C   UNL     1      -8.870   8.968  65.553  1.00  0.00    -0.233 A  
HETATM   27  C   UNL     1      -9.363   8.255  66.648  1.00  0.00    -0.246 A  
ENDBRANCH  19  21
ENDBRANCH  18  19
ENDBRANCH  17  18
ENDBRANCH  16  17
ENDBRANCH   8  16
TORSDOF 6
ENDMDL
MODEL      126
REMARK 921   NORMALIZED FREE ENERGY PREDICTED BY IDOCK:   -4.91 KCAL/MOL
REMARK 922        TOTAL FREE ENERGY PREDICTED BY IDOCK:   -7.95 KCAL/MOL
REMARK 923 INTER-LIGAND FREE ENERGY PREDICTED BY IDOCK:   -7.20 KCAL/MOL
REMARK 924 INTRA-LIGAND FREE ENERGY PREDICTED BY IDOCK:   -0.75 KCAL/MOL
REMARK 927      BINDING AFFINITY PREDICTED BY RF-SCORE:    0.00 PKD
ROOT
HETATM    1  O   UNL     1     -12.506  10.421  69.116  1.00  0.00    -0.705 OA 
HETATM    2  C   UNL     1     -11.102  10.724  69.024  1.00  0.00    -0.253 C  
HETATM    3  H   UNL     1     -12.795  10.650  69.992  1.00  0.00     0.000 HD 
HETATM    4  C   UNL     1     -10.634  10.353  67.604  1.00  0.00    -0.304 C  
HETATM    5  C   UNL     1     -10.925  12.230  69.308  1.00  0.00    -0.155 C  
HETATM    6  C   UNL     1     -11.182  11.322  66.554  1.00  0.00    -0.152 C  
HETATM    7  C   UNL     1     -11.437  13.104  68.161  1.00  0.00    -0.314 C  
HETATM    8  N   UNL     1     -10.892  12.733  66.846  1.00  0.00    -0.250 NA 
ENDROOT
BRANCH   2   9
HETATM    9  C   UNL     1     -10.365   9.893  70.083  1.00  0.00    -0.336 A  
HETATM   10  C   UNL     1     -10.998   9.512  71.281  1.00  0.00    -0.440 A  
HETATM   11  C   UNL     1      -9.023   9.508  69.902  1.00  0.00    -0.231 A  
HETATM   12  C   UNL     1      -8.986   8.442  72.069  1.00  0.00    -0.223 A  
HETATM   13  C   UNL     1     -10.315   8.794  72.267  1.00  0.00    -0.320 A  
HETATM   14 CL   UNL     1      -8.137   7.579  73.292  1.00  0.00    -0.137 Cl 
HETATM   15  C   UNL     1      -8.337   8.790  70.888  1.00  0.00    -0.196 A  
ENDBRANCH   2   9
BRANCH   8  16
HETATM   16  C   UNL     1      -9.466  13.088  66.733  1.00  0.00    -0.250 C  
BRANCH  16  17
HETATM   17  C   UNL     1      -9.144  14.537  67.107  1.00  0.00    -0.237 C  
BRANCH  17  18
HETATM   18  C   UNL     1      -7.650  14.768  67.331  1.00  0.00    -0.228 C  
BRANCH  18  19
HETATM   19  C   UNL     1      -7.405  15.822  68.392  1.00  0.00    -0.117 C  
HETATM   20  O   UNL     1      -6.806  15.587  69.440  1.00  0.00    -0.150 OA 
BRANCH  19  21
HETATM   21  C   UNL     1      -7.957  17.182  68.170  1.00  0.00    -0.216 A  
HETATM   22  C   UNL     1      -7.133  18.141  67.559  1.00  0.00    -0.205 A  
HETATM   23  C   UNL     1      -7.599  19.439  67.349  1.00  0.00    -0.269 A  
HETATM   24  C   UNL     1      -8.892  19.771  67.737  1.00  0.00    -0.325 A  
HETATM   25  F   UNL     1      -9.339  21.016  67.536  1.00  0.00    -0.505 F  
HETATM   26  C   UNL     1      -9.727  18.831  68.330  1.00  0.00    -0.406 A  
HETATM   27  C   UNL     1      -9.263  17.532  68.550  1.00  0.00    -0.278 A  
ENDBRANCH  19  21
ENDBRANCH  18  19
ENDBRANCH  17  18
ENDBRANCH  16  17
ENDBRANCH   8  16
TORSDOF 6
ENDMDL
MODEL      127
REMARK 921   NORMALIZED FREE ENERGY PREDICTED BY IDOCK:   -4.91 KCAL/MOL
REMARK 922        TOTAL FREE ENERGY PREDICTED BY IDOCK:   -7.95 KCAL/MOL
REMARK 923 INTER-LIGAND FREE ENERGY PREDICTED BY IDOCK:   -5.91 KCAL/MOL
REMARK 924 INTRA-LIGAND FREE ENERGY PREDICTED BY IDOCK:   -2.04 KCAL/MOL
REMARK 927      BINDING AFFINITY PREDICTED BY RF-SCORE:    0.00 PKD
ROOT
HETATM    1  O   UNL     1     -10.099   5.947  71.509  1.00  0.00    -0.183 OA 
HETATM    2  C   UNL     1     -10.603   6.782  70.452  1.00  0.00    -0.227 C  
HETATM    3  H   UNL     1      -9.150   5.942  71.448  1.00  0.00     0.000 HD 
HETATM    4  C   UNL     1     -12.140   6.790  70.552  1.00  0.00    -0.332 C  
HETATM    5  C   UNL     1     -10.010   8.194  70.642  1.00  0.00    -0.204 C  
HETATM    6  C   UNL     1     -12.625   7.583  71.767  1.00  0.00    -0.334 C  
HETATM    7  C   UNL     1     -10.621   8.925  71.840  1.00  0.00    -0.349 C  
HETATM    8  N   UNL     1     -12.092   8.951  71.829  1.00  0.00    -0.337 NA 
ENDROOT
BRANCH   2   9
HETATM    9  C   UNL     1     -10.140   6.188  69.114  1.00  0.00    -0.212 A  
HETATM   10  C   UNL     1      -8.807   5.780  68.920  1.00  0.00    -0.110 A  
HETATM   11  C   UNL     1     -11.029   6.056  68.030  1.00  0.00    -0.340 A  
HETATM   12  C   UNL     1      -9.267   5.177  66.630  1.00  0.00    -0.129 A  
HETATM   13  C   UNL     1      -8.373   5.280  67.689  1.00  0.00    -0.106 A  
HETATM   14 CL   UNL     1      -8.727   4.585  65.107  1.00  0.00    -0.130 Cl 
HETATM   15  C   UNL     1     -10.596   5.556  66.796  1.00  0.00    -0.360 A  
ENDBRANCH   2   9
BRANCH   8  16
HETATM   16  C   UNL     1     -12.609   9.845  70.778  1.00  0.00    -0.241 C  
BRANCH  16  17
HETATM   17  C   UNL     1     -11.588  10.858  70.252  1.00  0.00    -0.426 C  
BRANCH  17  18
HETATM   18  C   UNL     1     -12.110  11.648  69.051  1.00  0.00    -0.288 C  
BRANCH  18  19
HETATM   19  C   UNL     1     -10.989  12.019  68.102  1.00  0.00    -0.230 C  
HETATM   20  O   UNL     1     -10.943  13.097  67.512  1.00  0.00    -0.253 OA 
BRANCH  19  21
HETATM   21  C   UNL     1      -9.928  11.013  67.843  1.00  0.00    -0.192 A  
HETATM   22  C   UNL     1     -10.184  10.007  66.897  1.00  0.00    -0.299 A  
HETATM   23  C   UNL     1      -9.227   9.026  66.635  1.00  0.00    -0.211 A  
HETATM   24  C   UNL     1      -8.012   9.062  67.309  1.00  0.00    -0.099 A  
HETATM   25  F   UNL     1      -7.093   8.122  67.058  1.00  0.00    -0.072 F  
HETATM   26  C   UNL     1      -7.734  10.059  68.237  1.00  0.00    -0.084 A  
HETATM   27  C   UNL     1      -8.692  11.038  68.510  1.00  0.00    -0.159 A  
ENDBRANCH  19  21
ENDBRANCH  18  19
ENDBRANCH  17  18
ENDBRANCH  16  17
ENDBRANCH   8  16
TORSDOF 6
ENDMDL
MODEL      128
REMARK 921   NORMALIZED FREE ENERGY PREDICTED BY IDOCK:   -4.89 KCAL/MOL
REMARK 922        TOTAL FREE ENERGY PREDICTED BY IDOCK:   -7.92 KCAL/MOL
REMARK 923 INTER-LIGAND FREE ENERGY PREDICTED BY IDOCK:   -7.18 KCAL/MOL
REMARK 924 INTRA-LIGAND FREE ENERGY PREDICTED BY IDOCK:   -0.74 KCAL/MOL
REMARK 927      BINDING AFFINITY PREDICTED BY RF-SCORE:    0.00 PKD
ROOT
HETATM    1  O   UNL     1      -9.811   4.262  67.787  1.00  0.00    -0.151 OA 
HETATM    2  C   UNL     1      -9.732   5.394  68.672  1.00  0.00    -0.138 C  
HETATM    3  H   UNL     1     -10.665   3.863  67.903  1.00  0.00     0.000 HD 
HETATM    4  C   UNL     1      -8.347   6.041  68.484  1.00  0.00    -0.113 C  
HETATM    5  C   UNL     1     -10.872   6.365  68.298  1.00  0.00    -0.384 C  
HETATM    6  C   UNL     1      -8.230   6.753  67.135  1.00  0.00    -0.121 C  
HETATM    7  C   UNL     1     -10.616   7.078  66.969  1.00  0.00    -0.341 C  
HETATM    8  N   UNL     1      -9.300   7.731  66.891  1.00  0.00    -0.159 NA 
ENDROOT
BRANCH   2   9
HETATM    9  C   UNL     1      -9.915   4.888  70.109  1.00  0.00    -0.325 A  
HETATM   10  C   UNL     1      -9.570   3.572  70.470  1.00  0.00    -0.246 A  
HETATM   11  C   UNL     1     -10.461   5.717  71.109  1.00  0.00    -0.301 A  
HETATM   12  C   UNL     1     -10.334   3.930  72.729  1.00  0.00    -0.164 A  
HETATM   13  C   UNL     1      -9.778   3.096  71.766  1.00  0.00    -0.234 A  
HETATM   14 CL   UNL     1     -10.613   3.336  74.320  1.00  0.00    -0.251 Cl 
HETATM   15  C   UNL     1     -10.671   5.242  72.408  1.00  0.00    -0.286 A  
ENDBRANCH   2   9
BRANCH   8  16
HETATM   16  C   UNL     1      -9.235   8.920  67.760  1.00  0.00    -0.141 C  
BRANCH  16  17
HETATM   17  C   UNL     1      -9.914  10.164  67.180  1.00  0.00    -0.243 C  
BRANCH  17  18
HETATM   18  C   UNL     1      -9.844  11.365  68.123  1.00  0.00    -0.195 C  
BRANCH  18  19
HETATM   19  C   UNL     1     -11.217  11.955  68.373  1.00  0.00    -0.258 C  
HETATM   20  O   UNL     1     -12.237  11.518  67.844  1.00  0.00    -0.586 OA 
BRANCH  19  21
HETATM   21  C   UNL     1     -11.320  13.142  69.260  1.00  0.00    -0.312 A  
HETATM   22  C   UNL     1     -12.150  13.056  70.389  1.00  0.00    -0.391 A  
HETATM   23  C   UNL     1     -12.297  14.151  71.240  1.00  0.00    -0.447 A  
HETATM   24  C   UNL     1     -11.603  15.325  70.967  1.00  0.00    -0.356 A  
HETATM   25  F   UNL     1     -11.744  16.376  71.783  1.00  0.00    -0.481 F  
HETATM   26  C   UNL     1     -10.766  15.424  69.862  1.00  0.00    -0.315 A  
HETATM   27  C   UNL     1     -10.622  14.333  69.002  1.00  0.00    -0.243 A  
ENDBRANCH  19  21
ENDBRANCH  18  19
ENDBRANCH  17  18
ENDBRANCH  16  17
ENDBRANCH   8  16
TORSDOF 6
ENDMDL
MODEL      129
REMARK 921   NORMALIZED FREE ENERGY PREDICTED BY IDOCK:   -4.87 KCAL/MOL
REMARK 922        TOTAL FREE ENERGY PREDICTED BY IDOCK:   -7.89 KCAL/MOL
REMARK 923 INTER-LIGAND FREE ENERGY PREDICTED BY IDOCK:   -7.01 KCAL/MOL
REMARK 924 INTRA-LIGAND FREE ENERGY PREDICTED BY IDOCK:   -0.88 KCAL/MOL
REMARK 927      BINDING AFFINITY PREDICTED BY RF-SCORE:    0.00 PKD
ROOT
HETATM    1  O   UNL     1     -11.605   7.004  69.471  1.00  0.00    -0.540 OA 
HETATM    2  C   UNL     1     -10.410   7.803  69.533  1.00  0.00    -0.219 C  
HETATM    3  H   UNL     1     -12.128   7.204  70.239  1.00  0.00     0.000 HD 
HETATM    4  C   UNL     1      -9.564   7.479  68.287  1.00  0.00    -0.157 C  
HETATM    5  C   UNL     1     -10.835   9.286  69.564  1.00  0.00    -0.211 C  
HETATM    6  C   UNL     1     -10.192   8.042  67.011  1.00  0.00    -0.303 C  
HETATM    7  C   UNL     1     -11.378   9.765  68.216  1.00  0.00     0.102 C  
HETATM    8  N   UNL     1     -10.482   9.481  67.084  1.00  0.00    -0.260 NA 
ENDROOT
BRANCH   2   9
HETATM    9  C   UNL     1      -9.660   7.438  70.821  1.00  0.00    -0.170 A  
HETATM   10  C   UNL     1      -9.465   8.384  71.845  1.00  0.00    -0.323 A  
HETATM   11  C   UNL     1      -9.118   6.152  71.009  1.00  0.00    -0.151 A  
HETATM   12  C   UNL     1      -8.206   6.795  73.150  1.00  0.00    -0.111 A  
HETATM   13  C   UNL     1      -8.744   8.068  72.999  1.00  0.00    -0.281 A  
HETATM   14 CL   UNL     1      -7.295   6.412  74.560  1.00  0.00    -0.099 Cl 
HETATM   15  C   UNL     1      -8.395   5.833  72.163  1.00  0.00    -0.115 A  
ENDBRANCH   2   9
BRANCH   8  16
HETATM   16  C   UNL     1      -9.280  10.335  67.119  1.00  0.00    -0.145 C  
BRANCH  16  17
HETATM   17  C   UNL     1      -9.542  11.807  66.791  1.00  0.00    -0.212 C  
BRANCH  17  18
HETATM   18  C   UNL     1     -10.451  11.985  65.575  1.00  0.00    -0.307 C  
BRANCH  18  19
HETATM   19  C   UNL     1     -11.703  12.762  65.928  1.00  0.00    -0.414 C  
HETATM   20  O   UNL     1     -12.747  12.672  65.285  1.00  0.00    -0.652 OA 
BRANCH  19  21
HETATM   21  C   UNL     1     -11.644  13.706  67.072  1.00  0.00    -0.389 A  
HETATM   22  C   UNL     1     -11.995  13.229  68.345  1.00  0.00    -0.336 A  
HETATM   23  C   UNL     1     -11.977  14.083  69.447  1.00  0.00    -0.390 A  
HETATM   24  C   UNL     1     -11.593  15.409  69.277  1.00  0.00    -0.339 A  
HETATM   25  F   UNL     1     -11.575  16.229  70.334  1.00  0.00    -0.342 F  
HETATM   26  C   UNL     1     -11.227  15.895  68.028  1.00  0.00    -0.319 A  
HETATM   27  C   UNL     1     -11.252  15.046  66.918  1.00  0.00    -0.323 A  
ENDBRANCH  19  21
ENDBRANCH  18  19
ENDBRANCH  17  18
ENDBRANCH  16  17
ENDBRANCH   8  16
TORSDOF 6
ENDMDL
MODEL      130
REMARK 921   NORMALIZED FREE ENERGY PREDICTED BY IDOCK:   -4.86 KCAL/MOL
REMARK 922        TOTAL FREE ENERGY PREDICTED BY IDOCK:   -7.88 KCAL/MOL
REMARK 923 INTER-LIGAND FREE ENERGY PREDICTED BY IDOCK:   -7.28 KCAL/MOL
REMARK 924 INTRA-LIGAND FREE ENERGY PREDICTED BY IDOCK:   -0.59 KCAL/MOL
REMARK 927      BINDING AFFINITY PREDICTED BY RF-SCORE:    0.00 PKD
ROOT
HETATM    1  O   UNL     1     -11.988   6.090  72.943  1.00  0.00    -0.510 OA 
HETATM    2  C   UNL     1     -11.710   6.875  71.769  1.00  0.00    -0.302 C  
HETATM    3  H   UNL     1     -11.214   6.109  73.494  1.00  0.00     0.000 HD 
HETATM    4  C   UNL     1     -12.965   6.843  70.876  1.00  0.00    -0.068 C  
HETATM    5  C   UNL     1     -11.371   8.308  72.229  1.00  0.00    -0.446 C  
HETATM    6  C   UNL     1     -14.109   7.663  71.476  1.00  0.00    -0.421 C  
HETATM    7  C   UNL     1     -12.602   9.062  72.738  1.00  0.00    -0.003 C  
HETATM    8  N   UNL     1     -13.735   9.047  71.801  1.00  0.00    -0.409 NA 
ENDROOT
BRANCH   2   9
HETATM    9  C   UNL     1     -10.506   6.248  71.052  1.00  0.00    -0.274 A  
HETATM   10  C   UNL     1      -9.192   6.462  71.509  1.00  0.00    -0.145 A  
HETATM   11  C   UNL     1     -10.676   5.460  69.897  1.00  0.00    -0.292 A  
HETATM   12  C   UNL     1      -8.287   5.170  69.685  1.00  0.00    -0.093 A  
HETATM   13  C   UNL     1      -8.092   5.930  70.832  1.00  0.00    -0.120 A  
HETATM   14 CL   UNL     1      -6.931   4.535  68.836  1.00  0.00    -0.051 Cl 
HETATM   15  C   UNL     1      -9.575   4.927  69.217  1.00  0.00    -0.241 A  
ENDBRANCH   2   9
BRANCH   8  16
HETATM   16  C   UNL     1     -13.471   9.890  70.621  1.00  0.00     0.070 C  
BRANCH  16  17
HETATM   17  C   UNL     1     -12.466  11.019  70.864  1.00  0.00    -0.509 C  
BRANCH  17  18
HETATM   18  C   UNL     1     -11.890  11.582  69.564  1.00  0.00    -0.419 C  
BRANCH  18  19
HETATM   19  C   UNL     1     -12.122  13.076  69.456  1.00  0.00    -0.230 C  
HETATM   20  O   UNL     1     -12.639  13.737  70.355  1.00  0.00    -0.314 OA 
BRANCH  19  21
HETATM   21  C   UNL     1     -11.749  13.754  68.189  1.00  0.00    -0.392 A  
HETATM   22  C   UNL     1     -11.224  15.054  68.262  1.00  0.00    -0.309 A  
HETATM   23  C   UNL     1     -10.880  15.741  67.098  1.00  0.00    -0.289 A  
HETATM   24  C   UNL     1     -11.049  15.121  65.864  1.00  0.00    -0.319 A  
HETATM   25  F   UNL     1     -10.719  15.780  64.747  1.00  0.00    -0.413 F  
HETATM   26  C   UNL     1     -11.553  13.829  65.774  1.00  0.00    -0.342 A  
HETATM   27  C   UNL     1     -11.908  13.140  66.936  1.00  0.00    -0.444 A  
ENDBRANCH  19  21
ENDBRANCH  18  19
ENDBRANCH  17  18
ENDBRANCH  16  17
ENDBRANCH   8  16
TORSDOF 6
ENDMDL
MODEL      131
REMARK 921   NORMALIZED FREE ENERGY PREDICTED BY IDOCK:   -4.85 KCAL/MOL
REMARK 922        TOTAL FREE ENERGY PREDICTED BY IDOCK:   -7.86 KCAL/MOL
REMARK 923 INTER-LIGAND FREE ENERGY PREDICTED BY IDOCK:   -6.41 KCAL/MOL
REMARK 924 INTRA-LIGAND FREE ENERGY PREDICTED BY IDOCK:   -1.46 KCAL/MOL
REMARK 927      BINDING AFFINITY PREDICTED BY RF-SCORE:    0.00 PKD
ROOT
HETATM    1  O   UNL     1     -12.717  11.536  64.536  1.00  0.00     0.076 OA 
HETATM    2  C   UNL     1     -11.401  12.104  64.658  1.00  0.00    -0.326 C  
HETATM    3  H   UNL     1     -12.800  10.852  65.190  1.00  0.00     0.000 HD 
HETATM    4  C   UNL     1     -11.267  13.212  63.597  1.00  0.00    -0.239 C  
HETATM    5  C   UNL     1     -11.260  12.664  66.089  1.00  0.00    -0.350 C  
HETATM    6  C   UNL     1     -12.115  14.437  63.944  1.00  0.00    -0.154 C  
HETATM    7  C   UNL     1     -12.091  13.930  66.303  1.00  0.00    -0.451 C  
HETATM    8  N   UNL     1     -11.857  14.970  65.289  1.00  0.00    -0.215 NA 
ENDROOT
BRANCH   2   9
HETATM    9  C   UNL     1     -10.376  10.986  64.422  1.00  0.00    -0.424 A  
HETATM   10  C   UNL     1      -9.847  10.739  63.141  1.00  0.00    -0.378 A  
HETATM   11  C   UNL     1      -9.952  10.153  65.475  1.00  0.00    -0.363 A  
HETATM   12  C   UNL     1      -8.560   8.876  63.970  1.00  0.00    -0.100 A  
HETATM   13  C   UNL     1      -8.949   9.693  62.915  1.00  0.00    -0.260 A  
HETATM   14 CL   UNL     1      -7.473   7.572  63.688  1.00  0.00    -0.097 Cl 
HETATM   15  C   UNL     1      -9.053   9.104  65.251  1.00  0.00    -0.252 A  
ENDBRANCH   2   9
BRANCH   8  16
HETATM   16  C   UNL     1     -10.527  15.587  65.445  1.00  0.00    -0.405 C  
BRANCH  16  17
HETATM   17  C   UNL     1     -10.560  17.068  65.832  1.00  0.00    -0.221 C  
BRANCH  17  18
HETATM   18  C   UNL     1      -9.508  17.423  66.883  1.00  0.00    -0.275 C  
BRANCH  18  19
HETATM   19  C   UNL     1     -10.110  17.481  68.272  1.00  0.00    -0.346 C  
HETATM   20  O   UNL     1     -10.170  18.517  68.931  1.00  0.00    -0.374 OA 
BRANCH  19  21
HETATM   21  C   UNL     1     -10.604  16.217  68.876  1.00  0.00    -0.284 A  
HETATM   22  C   UNL     1     -11.918  16.187  69.370  1.00  0.00    -0.074 A  
HETATM   23  C   UNL     1     -12.420  15.030  69.966  1.00  0.00    -0.317 A  
HETATM   24  C   UNL     1     -11.612  13.902  70.054  1.00  0.00    -0.212 A  
HETATM   25  F   UNL     1     -12.093  12.792  70.625  1.00  0.00    -0.415 F  
HETATM   26  C   UNL     1     -10.314  13.909  69.557  1.00  0.00     0.287 A  
HETATM   27  C   UNL     1      -9.803  15.067  68.966  1.00  0.00    -0.236 A  
ENDBRANCH  19  21
ENDBRANCH  18  19
ENDBRANCH  17  18
ENDBRANCH  16  17
ENDBRANCH   8  16
TORSDOF 6
ENDMDL
MODEL      132
REMARK 921   NORMALIZED FREE ENERGY PREDICTED BY IDOCK:   -4.85 KCAL/MOL
REMARK 922        TOTAL FREE ENERGY PREDICTED BY IDOCK:   -7.86 KCAL/MOL
REMARK 923 INTER-LIGAND FREE ENERGY PREDICTED BY IDOCK:   -5.71 KCAL/MOL
REMARK 924 INTRA-LIGAND FREE ENERGY PREDICTED BY IDOCK:   -2.15 KCAL/MOL
REMARK 927      BINDING AFFINITY PREDICTED BY RF-SCORE:    0.00 PKD
ROOT
HETATM    1  O   UNL     1      -8.847   5.336  70.764  1.00  0.00    -0.130 OA 
HETATM    2  C   UNL     1      -9.421   6.271  69.833  1.00  0.00    -0.149 C  
HETATM    3  H   UNL     1      -9.531   4.730  71.027  1.00  0.00     0.000 HD 
HETATM    4  C   UNL     1      -8.312   7.252  69.408  1.00  0.00    -0.133 C  
HETATM    5  C   UNL     1      -9.965   5.468  68.633  1.00  0.00    -0.222 C  
HETATM    6  C   UNL     1      -7.277   6.581  68.504  1.00  0.00    -0.085 C  
HETATM    7  C   UNL     1      -8.845   4.907  67.754  1.00  0.00    -0.104 C  
HETATM    8  N   UNL     1      -7.863   5.917  67.330  1.00  0.00    -0.101 NA 
ENDROOT
BRANCH   2   9
HETATM    9  C   UNL     1     -10.567   7.006  70.542  1.00  0.00    -0.245 A  
HETATM   10  C   UNL     1     -10.323   8.136  71.344  1.00  0.00    -0.258 A  
HETATM   11  C   UNL     1     -11.897   6.555  70.436  1.00  0.00    -0.378 A  
HETATM   12  C   UNL     1     -12.660   8.304  71.917  1.00  0.00    -0.344 A  
HETATM   13  C   UNL     1     -11.359   8.780  72.026  1.00  0.00    -0.441 A  
HETATM   14 CL   UNL     1     -13.932   9.081  72.777  1.00  0.00    -0.383 Cl 
HETATM   15  C   UNL     1     -12.936   7.198  71.119  1.00  0.00    -0.316 A  
ENDBRANCH   2   9
BRANCH   8  16
HETATM   16  C   UNL     1      -8.435   6.845  66.339  1.00  0.00    -0.130 C  
BRANCH  16  17
HETATM   17  C   UNL     1      -7.416   7.790  65.696  1.00  0.00    -0.075 C  
BRANCH  17  18
HETATM   18  C   UNL     1      -7.624   9.247  66.110  1.00  0.00    -0.096 C  
BRANCH  18  19
HETATM   19  C   UNL     1      -9.019   9.727  65.767  1.00  0.00    -0.160 C  
HETATM   20  O   UNL     1      -9.472   9.700  64.624  1.00  0.00    -0.263 OA 
BRANCH  19  21
HETATM   21  C   UNL     1      -9.853  10.298  66.856  1.00  0.00    -0.244 A  
HETATM   22  C   UNL     1      -9.734  11.669  67.133  1.00  0.00    -0.195 A  
HETATM   23  C   UNL     1     -10.479  12.246  68.161  1.00  0.00    -0.228 A  
HETATM   24  C   UNL     1     -11.351  11.455  68.899  1.00  0.00    -0.270 A  
HETATM   25  F   UNL     1     -12.067  12.009  69.885  1.00  0.00    -0.340 F  
HETATM   26  C   UNL     1     -11.493  10.099  68.629  1.00  0.00    -0.105 A  
HETATM   27  C   UNL     1     -10.743   9.513  67.607  1.00  0.00    -0.314 A  
ENDBRANCH  19  21
ENDBRANCH  18  19
ENDBRANCH  17  18
ENDBRANCH  16  17
ENDBRANCH   8  16
TORSDOF 6
ENDMDL
MODEL      133
REMARK 921   NORMALIZED FREE ENERGY PREDICTED BY IDOCK:   -4.85 KCAL/MOL
REMARK 922        TOTAL FREE ENERGY PREDICTED BY IDOCK:   -7.86 KCAL/MOL
REMARK 923 INTER-LIGAND FREE ENERGY PREDICTED BY IDOCK:   -6.46 KCAL/MOL
REMARK 924 INTRA-LIGAND FREE ENERGY PREDICTED BY IDOCK:   -1.40 KCAL/MOL
REMARK 927      BINDING AFFINITY PREDICTED BY RF-SCORE:    0.00 PKD
ROOT
HETATM    1  O   UNL     1      -9.486   7.096  65.616  1.00  0.00    -0.370 OA 
HETATM    2  C   UNL     1      -9.064   7.875  66.750  1.00  0.00    -0.156 C  
HETATM    3  H   UNL     1      -9.239   7.570  64.830  1.00  0.00     0.000 HD 
HETATM    4  C   UNL     1      -9.465   7.106  68.023  1.00  0.00    -0.132 C  
HETATM    5  C   UNL     1      -7.536   8.062  66.652  1.00  0.00    -0.089 C  
HETATM    6  C   UNL     1      -8.604   5.858  68.226  1.00  0.00    -0.113 C  
HETATM    7  C   UNL     1      -6.772   6.770  66.948  1.00  0.00    -0.056 C  
HETATM    8  N   UNL     1      -7.160   6.130  68.215  1.00  0.00    -0.080 NA 
ENDROOT
BRANCH   2   9
HETATM    9  C   UNL     1      -9.771   9.236  66.681  1.00  0.00    -0.281 A  
HETATM   10  C   UNL     1      -9.487  10.155  65.654  1.00  0.00    -0.275 A  
HETATM   11  C   UNL     1     -10.708   9.620  67.660  1.00  0.00    -0.324 A  
HETATM   12  C   UNL     1     -11.004  11.771  66.603  1.00  0.00    -0.294 A  
HETATM   13  C   UNL     1     -10.096  11.412  65.614  1.00  0.00    -0.293 A  
HETATM   14 CL   UNL     1     -11.735  13.329  66.570  1.00  0.00    -0.397 Cl 
HETATM   15  C   UNL     1     -11.318  10.878  67.623  1.00  0.00    -0.345 A  
ENDBRANCH   2   9
BRANCH   8  16
HETATM   16  C   UNL     1      -6.685   6.902  69.377  1.00  0.00    -0.050 C  
BRANCH  16  17
HETATM   17  C   UNL     1      -7.660   6.929  70.558  1.00  0.00    -0.091 C  
BRANCH  17  18
HETATM   18  C   UNL     1      -7.953   8.349  71.045  1.00  0.00    -0.116 C  
BRANCH  18  19
HETATM   19  C   UNL     1      -8.884   8.343  72.240  1.00  0.00    -0.220 C  
HETATM   20  O   UNL     1      -8.480   8.409  73.400  1.00  0.00    -0.311 OA 
BRANCH  19  21
HETATM   21  C   UNL     1     -10.342   8.205  71.994  1.00  0.00    -0.320 A  
HETATM   22  C   UNL     1     -11.035   9.312  71.477  1.00  0.00    -0.446 A  
HETATM   23  C   UNL     1     -12.409   9.238  71.250  1.00  0.00    -0.403 A  
HETATM   24  C   UNL     1     -13.084   8.054  71.526  1.00  0.00    -0.296 A  
HETATM   25  F   UNL     1     -14.402   7.983  71.308  1.00  0.00    -0.428 F  
HETATM   26  C   UNL     1     -12.412   6.944  72.023  1.00  0.00    -0.285 A  
HETATM   27  C   UNL     1     -11.037   7.015  72.261  1.00  0.00    -0.287 A  
ENDBRANCH  19  21
ENDBRANCH  18  19
ENDBRANCH  17  18
ENDBRANCH  16  17
ENDBRANCH   8  16
TORSDOF 6
ENDMDL
MODEL      134
REMARK 921   NORMALIZED FREE ENERGY PREDICTED BY IDOCK:   -4.81 KCAL/MOL
REMARK 922        TOTAL FREE ENERGY PREDICTED BY IDOCK:   -7.80 KCAL/MOL
REMARK 923 INTER-LIGAND FREE ENERGY PREDICTED BY IDOCK:   -6.77 KCAL/MOL
REMARK 924 INTRA-LIGAND FREE ENERGY PREDICTED BY IDOCK:   -1.03 KCAL/MOL
REMARK 927      BINDING AFFINITY PREDICTED BY RF-SCORE:    0.00 PKD
ROOT
HETATM    1  O   UNL     1     -11.221   7.319  68.978  1.00  0.00    -0.450 OA 
HETATM    2  C   UNL     1     -10.190   7.861  68.134  1.00  0.00    -0.205 C  
HETATM    3  H   UNL     1     -10.853   6.578  69.446  1.00  0.00     0.000 HD 
HETATM    4  C   UNL     1     -10.786   9.062  67.376  1.00  0.00    -0.116 C  
HETATM    5  C   UNL     1      -9.012   8.282  69.037  1.00  0.00    -0.147 C  
HETATM    6  C   UNL     1     -11.023  10.257  68.303  1.00  0.00    -0.264 C  
HETATM    7  C   UNL     1      -9.331   9.531  69.862  1.00  0.00    -0.223 C  
HETATM    8  N   UNL     1      -9.829  10.659  69.061  1.00  0.00    -0.201 NA 
ENDROOT
BRANCH   2   9
HETATM    9  C   UNL     1      -9.745   6.760  67.161  1.00  0.00    -0.191 A  
HETATM   10  C   UNL     1      -8.718   6.985  66.225  1.00  0.00    -0.154 A  
HETATM   11  C   UNL     1     -10.369   5.497  67.155  1.00  0.00    -0.301 A  
HETATM   12  C   UNL     1      -8.987   4.768  65.314  1.00  0.00    -0.151 A  
HETATM   13  C   UNL     1      -8.342   5.999  65.308  1.00  0.00    -0.148 A  
HETATM   14 CL   UNL     1      -8.542   3.563  64.169  1.00  0.00    -0.090 Cl 
HETATM   15  C   UNL     1      -9.995   4.509  66.238  1.00  0.00    -0.268 A  
ENDBRANCH   2   9
BRANCH   8  16
HETATM   16  C   UNL     1      -8.761  11.246  68.231  1.00  0.00    -0.158 C  
BRANCH  16  17
HETATM   17  C   UNL     1      -8.842  12.768  68.083  1.00  0.00    -0.194 C  
BRANCH  17  18
HETATM   18  C   UNL     1      -9.617  13.196  66.837  1.00  0.00    -0.248 C  
BRANCH  18  19
HETATM   19  C   UNL     1     -11.021  13.647  67.185  1.00  0.00    -0.288 C  
HETATM   20  O   UNL     1     -11.985  13.455  66.447  1.00  0.00    -0.373 OA 
BRANCH  19  21
HETATM   21  C   UNL     1     -11.224  14.394  68.453  1.00  0.00    -0.294 A  
HETATM   22  C   UNL     1     -11.921  13.758  69.492  1.00  0.00    -0.399 A  
HETATM   23  C   UNL     1     -12.156  14.427  70.694  1.00  0.00    -0.404 A  
HETATM   24  C   UNL     1     -11.682  15.723  70.858  1.00  0.00    -0.406 A  
HETATM   25  F   UNL     1     -11.907  16.365  72.010  1.00  0.00    -0.501 F  
HETATM   26  C   UNL     1     -10.977  16.363  69.845  1.00  0.00    -0.339 A  
HETATM   27  C   UNL     1     -10.745  15.701  68.636  1.00  0.00    -0.256 A  
ENDBRANCH  19  21
ENDBRANCH  18  19
ENDBRANCH  17  18
ENDBRANCH  16  17
ENDBRANCH   8  16
TORSDOF 6
ENDMDL
MODEL      135
REMARK 921   NORMALIZED FREE ENERGY PREDICTED BY IDOCK:   -4.80 KCAL/MOL
REMARK 922        TOTAL FREE ENERGY PREDICTED BY IDOCK:   -7.79 KCAL/MOL
REMARK 923 INTER-LIGAND FREE ENERGY PREDICTED BY IDOCK:   -6.67 KCAL/MOL
REMARK 924 INTRA-LIGAND FREE ENERGY PREDICTED BY IDOCK:   -1.12 KCAL/MOL
REMARK 927      BINDING AFFINITY PREDICTED BY RF-SCORE:    0.00 PKD
ROOT
HETATM    1  O   UNL     1      -7.810  10.718  65.562  1.00  0.00    -0.271 OA 
HETATM    2  C   UNL     1      -8.846  11.080  66.493  1.00  0.00    -0.169 C  
HETATM    3  H   UNL     1      -7.298  11.498  65.381  1.00  0.00     0.000 HD 
HETATM    4  C   UNL     1      -9.676   9.816  66.787  1.00  0.00    -0.248 C  
HETATM    5  C   UNL     1      -8.167  11.627  67.766  1.00  0.00    -0.141 C  
HETATM    6  C   UNL     1      -8.897   8.811  67.638  1.00  0.00    -0.135 C  
HETATM    7  C   UNL     1      -7.484  10.525  68.580  1.00  0.00    -0.091 C  
HETATM    8  N   UNL     1      -8.360   9.383  68.881  1.00  0.00    -0.118 NA 
ENDROOT
BRANCH   2   9
HETATM    9  C   UNL     1      -9.710  12.170  65.843  1.00  0.00    -0.253 A  
HETATM   10  C   UNL     1      -9.874  13.430  66.448  1.00  0.00    -0.299 A  
HETATM   11  C   UNL     1     -10.390  11.934  64.632  1.00  0.00    -0.326 A  
HETATM   12  C   UNL     1     -11.368  14.141  64.694  1.00  0.00    -0.371 A  
HETATM   13  C   UNL     1     -10.696  14.407  65.881  1.00  0.00    -0.308 A  
HETATM   14 CL   UNL     1     -12.401  15.335  64.009  1.00  0.00    -0.193 Cl 
HETATM   15  C   UNL     1     -11.214  12.911  64.063  1.00  0.00    -0.458 A  
ENDBRANCH   2   9
BRANCH   8  16
HETATM   16  C   UNL     1      -9.392   9.739  69.872  1.00  0.00    -0.231 C  
BRANCH  16  17
HETATM   17  C   UNL     1      -9.738   8.617  70.854  1.00  0.00    -0.254 C  
BRANCH  17  18
HETATM   18  C   UNL     1     -11.246   8.402  70.991  1.00  0.00    -0.304 C  
BRANCH  18  19
HETATM   19  C   UNL     1     -11.596   6.928  71.008  1.00  0.00    -0.328 C  
HETATM   20  O   UNL     1     -12.352   6.431  71.840  1.00  0.00    -0.345 OA 
BRANCH  19  21
HETATM   21  C   UNL     1     -10.957   6.043  70.000  1.00  0.00    -0.450 A  
HETATM   22  C   UNL     1     -11.193   6.307  68.641  1.00  0.00    -0.328 A  
HETATM   23  C   UNL     1     -10.633   5.491  67.658  1.00  0.00    -0.239 A  
HETATM   24  C   UNL     1      -9.827   4.423  68.035  1.00  0.00    -0.072 A  
HETATM   25  F   UNL     1      -9.290   3.640  67.092  1.00  0.00    -0.160 F  
HETATM   26  C   UNL     1      -9.570   4.156  69.374  1.00  0.00    -0.265 A  
HETATM   27  C   UNL     1     -10.135   4.964  70.364  1.00  0.00    -0.316 A  
ENDBRANCH  19  21
ENDBRANCH  18  19
ENDBRANCH  17  18
ENDBRANCH  16  17
ENDBRANCH   8  16
TORSDOF 6
ENDMDL
MODEL      136
REMARK 921   NORMALIZED FREE ENERGY PREDICTED BY IDOCK:   -4.79 KCAL/MOL
REMARK 922        TOTAL FREE ENERGY PREDICTED BY IDOCK:   -7.78 KCAL/MOL
REMARK 923 INTER-LIGAND FREE ENERGY PREDICTED BY IDOCK:   -6.65 KCAL/MOL
REMARK 924 INTRA-LIGAND FREE ENERGY PREDICTED BY IDOCK:   -1.13 KCAL/MOL
REMARK 927      BINDING AFFINITY PREDICTED BY RF-SCORE:    0.00 PKD
ROOT
HETATM    1  O   UNL     1     -11.449   7.087  68.461  1.00  0.00    -0.467 OA 
HETATM    2  C   UNL     1     -10.302   7.558  69.191  1.00  0.00    -0.212 C  
HETATM    3  H   UNL     1     -12.209   7.176  69.026  1.00  0.00     0.000 HD 
HETATM    4  C   UNL     1      -9.072   7.414  68.276  1.00  0.00    -0.128 C  
HETATM    5  C   UNL     1     -10.559   9.030  69.575  1.00  0.00    -0.231 C  
HETATM    6  C   UNL     1      -9.092   8.430  67.133  1.00  0.00    -0.138 C  
HETATM    7  C   UNL     1     -10.481   9.968  68.369  1.00  0.00    -0.205 C  
HETATM    8  N   UNL     1      -9.245   9.820  67.584  1.00  0.00    -0.131 NA 
ENDROOT
BRANCH   2   9
HETATM    9  C   UNL     1     -10.156   6.698  70.454  1.00  0.00    -0.205 A  
HETATM   10  C   UNL     1      -9.907   7.282  71.710  1.00  0.00    -0.175 A  
HETATM   11  C   UNL     1     -10.240   5.293  70.392  1.00  0.00    -0.338 A  
HETATM   12  C   UNL     1      -9.799   5.114  72.760  1.00  0.00    -0.158 A  
HETATM   13  C   UNL     1      -9.729   6.498  72.853  1.00  0.00    -0.164 A  
HETATM   14 CL   UNL     1      -9.555   4.147  74.162  1.00  0.00    -0.121 Cl 
HETATM   15  C   UNL     1     -10.061   4.507  71.535  1.00  0.00    -0.239 A  
ENDBRANCH   2   9
BRANCH   8  16
HETATM   16  C   UNL     1      -8.077  10.348  68.311  1.00  0.00    -0.113 C  
BRANCH  16  17
HETATM   17  C   UNL     1      -8.188  11.825  68.699  1.00  0.00    -0.091 C  
BRANCH  17  18
HETATM   18  C   UNL     1      -8.109  12.757  67.490  1.00  0.00    -0.180 C  
BRANCH  18  19
HETATM   19  C   UNL     1      -9.431  13.455  67.241  1.00  0.00    -0.234 C  
HETATM   20  O   UNL     1      -9.855  14.356  67.961  1.00  0.00    -0.212 OA 
BRANCH  19  21
HETATM   21  C   UNL     1     -10.265  12.992  66.102  1.00  0.00    -0.288 A  
HETATM   22  C   UNL     1     -11.565  13.507  65.980  1.00  0.00    -0.363 A  
HETATM   23  C   UNL     1     -12.394  13.086  64.941  1.00  0.00    -0.512 A  
HETATM   24  C   UNL     1     -11.917  12.161  64.019  1.00  0.00    -0.440 A  
HETATM   25  F   UNL     1     -12.712  11.757  63.021  1.00  0.00    -0.673 F  
HETATM   26  C   UNL     1     -10.627  11.652  64.115  1.00  0.00    -0.411 A  
HETATM   27  C   UNL     1      -9.795  12.063  65.159  1.00  0.00    -0.223 A  
ENDBRANCH  19  21
ENDBRANCH  18  19
ENDBRANCH  17  18
ENDBRANCH  16  17
ENDBRANCH   8  16
TORSDOF 6
ENDMDL
MODEL      137
REMARK 921   NORMALIZED FREE ENERGY PREDICTED BY IDOCK:   -4.78 KCAL/MOL
REMARK 922        TOTAL FREE ENERGY PREDICTED BY IDOCK:   -7.77 KCAL/MOL
REMARK 923 INTER-LIGAND FREE ENERGY PREDICTED BY IDOCK:   -6.85 KCAL/MOL
REMARK 924 INTRA-LIGAND FREE ENERGY PREDICTED BY IDOCK:   -0.92 KCAL/MOL
REMARK 927      BINDING AFFINITY PREDICTED BY RF-SCORE:    0.00 PKD
ROOT
HETATM    1  O   UNL     1     -12.245   8.136  70.371  1.00  0.00    -0.462 OA 
HETATM    2  C   UNL     1     -10.886   8.605  70.412  1.00  0.00    -0.227 C  
HETATM    3  H   UNL     1     -12.616   8.244  71.239  1.00  0.00     0.000 HD 
HETATM    4  C   UNL     1     -10.285   8.429  69.004  1.00  0.00    -0.217 C  
HETATM    5  C   UNL     1     -10.910  10.087  70.842  1.00  0.00    -0.276 C  
HETATM    6  C   UNL     1     -10.878   9.425  68.006  1.00  0.00    -0.139 C  
HETATM    7  C   UNL     1     -11.449  11.002  69.741  1.00  0.00    -0.311 C  
HETATM    8  N   UNL     1     -10.779  10.825  68.443  1.00  0.00    -0.201 NA 
ENDROOT
BRANCH   2   9
HETATM    9  C   UNL     1     -10.124   7.765  71.446  1.00  0.00    -0.211 A  
HETATM   10  C   UNL     1      -9.356   6.650  71.059  1.00  0.00    -0.161 A  
HETATM   11  C   UNL     1     -10.190   8.067  72.821  1.00  0.00    -0.389 A  
HETATM   12  C   UNL     1      -8.795   6.168  73.354  1.00  0.00    -0.125 A  
HETATM   13  C   UNL     1      -8.699   5.858  72.003  1.00  0.00    -0.137 A  
HETATM   14 CL   UNL     1      -8.006   5.178  74.520  1.00  0.00    -0.098 Cl 
HETATM   15  C   UNL     1      -9.533   7.274  73.768  1.00  0.00    -0.313 A  
ENDBRANCH   2   9
BRANCH   8  16
HETATM   16  C   UNL     1      -9.402  11.351  68.470  1.00  0.00    -0.180 C  
BRANCH  16  17
HETATM   17  C   UNL     1      -9.206  12.648  67.681  1.00  0.00    -0.191 C  
BRANCH  17  18
HETATM   18  C   UNL     1      -9.413  13.895  68.541  1.00  0.00    -0.174 C  
BRANCH  18  19
HETATM   19  C   UNL     1     -10.620  14.689  68.085  1.00  0.00    -0.237 C  
HETATM   20  O   UNL     1     -11.733  14.188  67.941  1.00  0.00    -0.326 OA 
BRANCH  19  21
HETATM   21  C   UNL     1     -10.431  16.125  67.754  1.00  0.00    -0.295 A  
HETATM   22  C   UNL     1     -10.200  17.023  68.809  1.00  0.00    -0.317 A  
HETATM   23  C   UNL     1     -10.039  18.384  68.551  1.00  0.00    -0.413 A  
HETATM   24  C   UNL     1     -10.095  18.842  67.239  1.00  0.00    -0.357 A  
HETATM   25  F   UNL     1      -9.940  20.148  66.991  1.00  0.00    -0.473 F  
HETATM   26  C   UNL     1     -10.307  17.966  66.182  1.00  0.00    -0.352 A  
HETATM   27  C   UNL     1     -10.478  16.602  66.435  1.00  0.00    -0.266 A  
ENDBRANCH  19  21
ENDBRANCH  18  19
ENDBRANCH  17  18
ENDBRANCH  16  17
ENDBRANCH   8  16
TORSDOF 6
ENDMDL
MODEL      138
REMARK 921   NORMALIZED FREE ENERGY PREDICTED BY IDOCK:   -4.78 KCAL/MOL
REMARK 922        TOTAL FREE ENERGY PREDICTED BY IDOCK:   -7.76 KCAL/MOL
REMARK 923 INTER-LIGAND FREE ENERGY PREDICTED BY IDOCK:   -6.96 KCAL/MOL
REMARK 924 INTRA-LIGAND FREE ENERGY PREDICTED BY IDOCK:   -0.81 KCAL/MOL
REMARK 927      BINDING AFFINITY PREDICTED BY RF-SCORE:    0.00 PKD
ROOT
HETATM    1  O   UNL     1      -9.600   8.778  72.710  1.00  0.00    -0.198 OA 
HETATM    2  C   UNL     1     -10.015   8.076  71.525  1.00  0.00    -0.177 C  
HETATM    3  H   UNL     1      -8.754   8.433  72.971  1.00  0.00     0.000 HD 
HETATM    4  C   UNL     1     -11.387   8.638  71.103  1.00  0.00    -0.329 C  
HETATM    5  C   UNL     1      -8.945   8.308  70.439  1.00  0.00    -0.146 C  
HETATM    6  C   UNL     1     -11.271  10.056  70.542  1.00  0.00    -0.336 C  
HETATM    7  C   UNL     1      -8.969   9.739  69.894  1.00  0.00    -0.229 C  
HETATM    8  N   UNL     1     -10.299  10.179  69.447  1.00  0.00    -0.216 NA 
ENDROOT
BRANCH   2   9
HETATM    9  C   UNL     1     -10.111   6.583  71.866  1.00  0.00    -0.200 A  
HETATM   10  C   UNL     1      -9.572   5.603  71.011  1.00  0.00    -0.210 A  
HETATM   11  C   UNL     1     -10.765   6.143  73.033  1.00  0.00    -0.276 A  
HETATM   12  C   UNL     1     -10.363   3.835  72.446  1.00  0.00    -0.114 A  
HETATM   13  C   UNL     1      -9.698   4.241  71.296  1.00  0.00    -0.256 A  
HETATM   14 CL   UNL     1     -10.540   2.157  72.786  1.00  0.00    -0.234 Cl 
HETATM   15  C   UNL     1     -10.892   4.779  73.321  1.00  0.00    -0.351 A  
ENDBRANCH   2   9
BRANCH   8  16
HETATM   16  C   UNL     1     -10.705   9.496  68.205  1.00  0.00    -0.197 C  
BRANCH  16  17
HETATM   17  C   UNL     1     -10.530  10.336  66.937  1.00  0.00    -0.291 C  
BRANCH  17  18
HETATM   18  C   UNL     1     -11.176  11.717  67.054  1.00  0.00    -0.376 C  
BRANCH  18  19
HETATM   19  C   UNL     1     -10.685  12.652  65.968  1.00  0.00    -0.269 C  
HETATM   20  O   UNL     1     -10.314  12.257  64.864  1.00  0.00    -0.276 OA 
BRANCH  19  21
HETATM   21  C   UNL     1     -10.607  14.103  66.274  1.00  0.00    -0.284 A  
HETATM   22  C   UNL     1     -10.794  14.511  67.604  1.00  0.00    -0.275 A  
HETATM   23  C   UNL     1     -10.753  15.865  67.937  1.00  0.00    -0.312 A  
HETATM   24  C   UNL     1     -10.511  16.806  66.943  1.00  0.00    -0.269 A  
HETATM   25  F   UNL     1     -10.471  18.105  67.262  1.00  0.00    -0.342 F  
HETATM   26  C   UNL     1     -10.309  16.420  65.623  1.00  0.00    -0.371 A  
HETATM   27  C   UNL     1     -10.358  15.066  65.282  1.00  0.00    -0.424 A  
ENDBRANCH  19  21
ENDBRANCH  18  19
ENDBRANCH  17  18
ENDBRANCH  16  17
ENDBRANCH   8  16
TORSDOF 6
ENDMDL
MODEL      139
REMARK 921   NORMALIZED FREE ENERGY PREDICTED BY IDOCK:   -4.77 KCAL/MOL
REMARK 922        TOTAL FREE ENERGY PREDICTED BY IDOCK:   -7.75 KCAL/MOL
REMARK 923 INTER-LIGAND FREE ENERGY PREDICTED BY IDOCK:   -6.62 KCAL/MOL
REMARK 924 INTRA-LIGAND FREE ENERGY PREDICTED BY IDOCK:   -1.13 KCAL/MOL
REMARK 927      BINDING AFFINITY PREDICTED BY RF-SCORE:    0.00 PKD
ROOT
HETATM    1  O   UNL     1     -13.377  10.339  69.879  1.00  0.00    -0.483 OA 
HETATM    2  C   UNL     1     -12.290  10.914  70.626  1.00  0.00    -0.376 C  
HETATM    3  H   UNL     1     -13.908   9.834  70.483  1.00  0.00     0.000 HD 
HETATM    4  C   UNL     1     -11.428  11.734  69.646  1.00  0.00    -0.341 C  
HETATM    5  C   UNL     1     -12.896  11.801  71.734  1.00  0.00    -0.403 C  
HETATM    6  C   UNL     1     -12.141  13.009  69.194  1.00  0.00    -0.187 C  
HETATM    7  C   UNL     1     -13.514  13.086  71.177  1.00  0.00     0.258 C  
HETATM    8  N   UNL     1     -12.607  13.850  70.306  1.00  0.00    -0.304 NA 
ENDROOT
BRANCH   2   9
HETATM    9  C   UNL     1     -11.480   9.768  71.247  1.00  0.00    -0.457 A  
HETATM   10  C   UNL     1     -10.146   9.527  70.869  1.00  0.00    -0.330 A  
HETATM   11  C   UNL     1     -12.056   8.902  72.198  1.00  0.00    -0.430 A  
HETATM   12  C   UNL     1     -10.021   7.608  72.323  1.00  0.00    -0.190 A  
HETATM   13  C   UNL     1      -9.422   8.457  71.400  1.00  0.00    -0.251 A  
HETATM   14 CL   UNL     1      -9.138   6.274  72.959  1.00  0.00    -0.131 Cl 
HETATM   15  C   UNL     1     -11.333   7.829  72.730  1.00  0.00    -0.446 A  
ENDBRANCH   2   9
BRANCH   8  16
HETATM   16  C   UNL     1     -11.521  14.480  71.078  1.00  0.00    -0.086 C  
BRANCH  16  17
HETATM   17  C   UNL     1     -10.669  15.470  70.277  1.00  0.00    -0.352 C  
BRANCH  17  18
HETATM   18  C   UNL     1     -11.505  16.578  69.636  1.00  0.00     0.024 C  
BRANCH  18  19
HETATM   19  C   UNL     1     -10.857  17.099  68.370  1.00  0.00    -0.309 C  
HETATM   20  O   UNL     1     -10.597  18.287  68.193  1.00  0.00    -0.361 OA 
BRANCH  19  21
HETATM   21  C   UNL     1     -10.569  16.131  67.280  1.00  0.00    -0.305 A  
HETATM   22  C   UNL     1     -11.637  15.382  66.761  1.00  0.00     0.044 A  
HETATM   23  C   UNL     1     -11.414  14.444  65.752  1.00  0.00    -0.335 A  
HETATM   24  C   UNL     1     -10.127  14.269  65.255  1.00  0.00    -0.349 A  
HETATM   25  F   UNL     1      -9.912  13.370  64.288  1.00  0.00    -0.386 F  
HETATM   26  C   UNL     1      -9.061  15.013  65.747  1.00  0.00     0.127 A  
HETATM   27  C   UNL     1      -9.277  15.947  66.763  1.00  0.00    -0.264 A  
ENDBRANCH  19  21
ENDBRANCH  18  19
ENDBRANCH  17  18
ENDBRANCH  16  17
ENDBRANCH   8  16
TORSDOF 6
ENDMDL
MODEL      140
REMARK 921   NORMALIZED FREE ENERGY PREDICTED BY IDOCK:   -4.75 KCAL/MOL
REMARK 922        TOTAL FREE ENERGY PREDICTED BY IDOCK:   -7.73 KCAL/MOL
REMARK 923 INTER-LIGAND FREE ENERGY PREDICTED BY IDOCK:   -6.77 KCAL/MOL
REMARK 924 INTRA-LIGAND FREE ENERGY PREDICTED BY IDOCK:   -0.96 KCAL/MOL
REMARK 927      BINDING AFFINITY PREDICTED BY RF-SCORE:    0.00 PKD
ROOT
HETATM    1  O   UNL     1      -9.958   5.437  71.383  1.00  0.00    -0.170 OA 
HETATM    2  C   UNL     1      -9.980   6.047  70.080  1.00  0.00    -0.177 C  
HETATM    3  H   UNL     1      -9.110   5.024  71.496  1.00  0.00     0.000 HD 
HETATM    4  C   UNL     1     -11.356   6.715  69.897  1.00  0.00    -0.422 C  
HETATM    5  C   UNL     1      -8.832   7.076  70.021  1.00  0.00    -0.142 C  
HETATM    6  C   UNL     1     -11.503   7.961  70.773  1.00  0.00    -0.263 C  
HETATM    7  C   UNL     1      -9.118   8.315  70.873  1.00  0.00    -0.152 C  
HETATM    8  N   UNL     1     -10.420   8.939  70.592  1.00  0.00    -0.208 NA 
ENDROOT
BRANCH   2   9
HETATM    9  C   UNL     1      -9.759   4.944  69.035  1.00  0.00    -0.245 A  
HETATM   10  C   UNL     1      -9.300   3.667  69.408  1.00  0.00    -0.246 A  
HETATM   11  C   UNL     1      -9.981   5.184  67.665  1.00  0.00    -0.203 A  
HETATM   12  C   UNL     1      -9.267   2.945  67.108  1.00  0.00    -0.159 A  
HETATM   13  C   UNL     1      -9.055   2.676  68.455  1.00  0.00    -0.224 A  
HETATM   14 CL   UNL     1      -8.941   1.733  65.930  1.00  0.00    -0.120 Cl 
HETATM   15  C   UNL     1      -9.736   4.193  66.708  1.00  0.00    -0.234 A  
ENDBRANCH   2   9
BRANCH   8  16
HETATM   16  C   UNL     1     -10.427   9.606  69.278  1.00  0.00    -0.217 C  
BRANCH  16  17
HETATM   17  C   UNL     1      -9.190  10.465  68.999  1.00  0.00    -0.194 C  
BRANCH  17  18
HETATM   18  C   UNL     1      -8.733  10.379  67.542  1.00  0.00    -0.125 C  
BRANCH  18  19
HETATM   19  C   UNL     1      -8.909  11.703  66.827  1.00  0.00    -0.184 C  
HETATM   20  O   UNL     1      -8.252  12.704  67.107  1.00  0.00    -0.182 OA 
BRANCH  19  21
HETATM   21  C   UNL     1      -9.954  11.799  65.777  1.00  0.00    -0.269 A  
HETATM   22  C   UNL     1     -11.217  12.293  66.142  1.00  0.00    -0.372 A  
HETATM   23  C   UNL     1     -12.239  12.381  65.196  1.00  0.00    -0.449 A  
HETATM   24  C   UNL     1     -11.991  11.990  63.885  1.00  0.00    -0.443 A  
HETATM   25  F   UNL     1     -12.970  12.075  62.978  1.00  0.00    -0.618 F  
HETATM   26  C   UNL     1     -10.743  11.514  63.503  1.00  0.00    -0.483 A  
HETATM   27  C   UNL     1      -9.718  11.415  64.447  1.00  0.00    -0.266 A  
ENDBRANCH  19  21
ENDBRANCH  18  19
ENDBRANCH  17  18
ENDBRANCH  16  17
ENDBRANCH   8  16
TORSDOF 6
ENDMDL
MODEL      141
REMARK 921   NORMALIZED FREE ENERGY PREDICTED BY IDOCK:   -4.74 KCAL/MOL
REMARK 922        TOTAL FREE ENERGY PREDICTED BY IDOCK:   -7.72 KCAL/MOL
REMARK 923 INTER-LIGAND FREE ENERGY PREDICTED BY IDOCK:   -6.58 KCAL/MOL
REMARK 924 INTRA-LIGAND FREE ENERGY PREDICTED BY IDOCK:   -1.14 KCAL/MOL
REMARK 927      BINDING AFFINITY PREDICTED BY RF-SCORE:    0.00 PKD
ROOT
HETATM    1  O   UNL     1      -7.946   8.850  71.806  1.00  0.00    -0.303 OA 
HETATM    2  C   UNL     1      -8.622   8.748  70.540  1.00  0.00    -0.169 C  
HETATM    3  H   UNL     1      -8.017   8.008  72.241  1.00  0.00     0.000 HD 
HETATM    4  C   UNL     1      -8.507  10.113  69.835  1.00  0.00    -0.106 C  
HETATM    5  C   UNL     1      -7.940   7.627  69.729  1.00  0.00    -0.116 C  
HETATM    6  C   UNL     1      -7.081  10.383  69.351  1.00  0.00    -0.102 C  
HETATM    7  C   UNL     1      -6.552   8.032  69.231  1.00  0.00    -0.036 C  
HETATM    8  N   UNL     1      -6.533   9.312  68.506  1.00  0.00    -0.053 NA 
ENDROOT
BRANCH   2   9
HETATM    9  C   UNL     1     -10.090   8.390  70.812  1.00  0.00    -0.226 A  
HETATM   10  C   UNL     1     -10.907   9.213  71.609  1.00  0.00    -0.442 A  
HETATM   11  C   UNL     1     -10.659   7.210  70.295  1.00  0.00    -0.245 A  
HETATM   12  C   UNL     1     -12.760   7.687  71.385  1.00  0.00    -0.327 A  
HETATM   13  C   UNL     1     -12.230   8.866  71.895  1.00  0.00    -0.445 A  
HETATM   14 CL   UNL     1     -14.382   7.246  71.758  1.00  0.00    -0.573 Cl 
HETATM   15  C   UNL     1     -11.983   6.859  70.581  1.00  0.00    -0.400 A  
ENDBRANCH   2   9
BRANCH   8  16
HETATM   16  C   UNL     1      -7.182   9.196  67.188  1.00  0.00    -0.086 C  
BRANCH  16  17
HETATM   17  C   UNL     1      -7.773   7.814  66.894  1.00  0.00    -0.103 C  
BRANCH  17  18
HETATM   18  C   UNL     1      -9.211   7.888  66.381  1.00  0.00    -0.241 C  
BRANCH  18  19
HETATM   19  C   UNL     1      -9.483   9.204  65.681  1.00  0.00    -0.240 C  
HETATM   20  O   UNL     1      -9.132   9.430  64.525  1.00  0.00    -0.222 OA 
BRANCH  19  21
HETATM   21  C   UNL     1     -10.163  10.279  66.449  1.00  0.00    -0.290 A  
HETATM   22  C   UNL     1     -10.905   9.915  67.584  1.00  0.00    -0.318 A  
HETATM   23  C   UNL     1     -11.581  10.885  68.324  1.00  0.00    -0.335 A  
HETATM   24  C   UNL     1     -11.500  12.218  67.937  1.00  0.00    -0.330 A  
HETATM   25  F   UNL     1     -12.146  13.150  68.647  1.00  0.00    -0.350 F  
HETATM   26  C   UNL     1     -10.757  12.599  66.825  1.00  0.00    -0.261 A  
HETATM   27  C   UNL     1     -10.086  11.630  66.074  1.00  0.00    -0.259 A  
ENDBRANCH  19  21
ENDBRANCH  18  19
ENDBRANCH  17  18
ENDBRANCH  16  17
ENDBRANCH   8  16
TORSDOF 6
ENDMDL
MODEL      142
REMARK 921   NORMALIZED FREE ENERGY PREDICTED BY IDOCK:   -4.74 KCAL/MOL
REMARK 922        TOTAL FREE ENERGY PREDICTED BY IDOCK:   -7.71 KCAL/MOL
REMARK 923 INTER-LIGAND FREE ENERGY PREDICTED BY IDOCK:   -6.87 KCAL/MOL
REMARK 924 INTRA-LIGAND FREE ENERGY PREDICTED BY IDOCK:   -0.84 KCAL/MOL
REMARK 927      BINDING AFFINITY PREDICTED BY RF-SCORE:    0.00 PKD
ROOT
HETATM    1  O   UNL     1     -12.529  14.598  68.058  1.00  0.00    -0.595 OA 
HETATM    2  C   UNL     1     -11.394  14.657  67.175  1.00  0.00    -0.356 C  
HETATM    3  H   UNL     1     -13.136  15.279  67.795  1.00  0.00     0.000 HD 
HETATM    4  C   UNL     1     -10.409  13.552  67.601  1.00  0.00    -0.239 C  
HETATM    5  C   UNL     1     -11.905  14.442  65.735  1.00  0.00    -0.365 C  
HETATM    6  C   UNL     1     -10.938  12.157  67.259  1.00  0.00    -0.260 C  
HETATM    7  C   UNL     1     -12.336  12.996  65.480  1.00  0.00    -0.472 C  
HETATM    8  N   UNL     1     -11.316  12.002  65.847  1.00  0.00    -0.341 NA 
ENDROOT
BRANCH   2   9
HETATM    9  C   UNL     1     -10.757  16.047  67.311  1.00  0.00    -0.295 A  
HETATM   10  C   UNL     1     -10.800  16.753  68.527  1.00  0.00    -0.345 A  
HETATM   11  C   UNL     1     -10.132  16.671  66.214  1.00  0.00    -0.342 A  
HETATM   12  C   UNL     1      -9.665  18.637  67.538  1.00  0.00    -0.310 A  
HETATM   13  C   UNL     1     -10.261  18.037  68.641  1.00  0.00    -0.385 A  
HETATM   14 CL   UNL     1      -9.023  20.228  67.671  1.00  0.00    -0.413 Cl 
HETATM   15  C   UNL     1      -9.592  17.957  66.326  1.00  0.00    -0.252 A  
ENDBRANCH   2   9
BRANCH   8  16
HETATM   16  C   UNL     1     -10.176  12.027  64.914  1.00  0.00    -0.270 C  
BRANCH  16  17
HETATM   17  C   UNL     1     -10.157  10.874  63.907  1.00  0.00    -0.422 C  
BRANCH  17  18
HETATM   18  C   UNL     1      -8.777  10.659  63.286  1.00  0.00    -0.177 C  
BRANCH  18  19
HETATM   19  C   UNL     1      -8.293   9.237  63.488  1.00  0.00    -0.185 C  
HETATM   20  O   UNL     1      -8.268   8.406  62.583  1.00  0.00    -0.176 OA 
BRANCH  19  21
HETATM   21  C   UNL     1      -7.878   8.825  64.853  1.00  0.00    -0.120 A  
HETATM   22  C   UNL     1      -6.567   9.115  65.263  1.00  0.00    -0.069 A  
HETATM   23  C   UNL     1      -6.123   8.728  66.528  1.00  0.00    -0.057 A  
HETATM   24  C   UNL     1      -6.995   8.066  67.384  1.00  0.00    -0.075 A  
HETATM   25  F   UNL     1      -6.570   7.695  68.598  1.00  0.00    -0.046 F  
HETATM   26  C   UNL     1      -8.301   7.784  67.001  1.00  0.00    -0.117 A  
HETATM   27  C   UNL     1      -8.749   8.161  65.733  1.00  0.00    -0.183 A  
ENDBRANCH  19  21
ENDBRANCH  18  19
ENDBRANCH  17  18
ENDBRANCH  16  17
ENDBRANCH   8  16
TORSDOF 6
ENDMDL
MODEL      143
REMARK 921   NORMALIZED FREE ENERGY PREDICTED BY IDOCK:   -4.71 KCAL/MOL
REMARK 922        TOTAL FREE ENERGY PREDICTED BY IDOCK:   -7.67 KCAL/MOL
REMARK 923 INTER-LIGAND FREE ENERGY PREDICTED BY IDOCK:   -6.60 KCAL/MOL
REMARK 924 INTRA-LIGAND FREE ENERGY PREDICTED BY IDOCK:   -1.07 KCAL/MOL
REMARK 927      BINDING AFFINITY PREDICTED BY RF-SCORE:    0.00 PKD
ROOT
HETATM    1  O   UNL     1     -10.058  13.941  64.483  1.00  0.00    -0.637 OA 
HETATM    2  C   UNL     1      -9.915  13.459  65.832  1.00  0.00    -0.277 C  
HETATM    3  H   UNL     1     -10.507  13.271  63.981  1.00  0.00     0.000 HD 
HETATM    4  C   UNL     1      -9.187  14.547  66.645  1.00  0.00    -0.290 C  
HETATM    5  C   UNL     1     -11.328  13.181  66.385  1.00  0.00    -0.349 C  
HETATM    6  C   UNL     1     -10.081  15.764  66.893  1.00  0.00    -0.266 C  
HETATM    7  C   UNL     1     -12.105  14.469  66.669  1.00  0.00    -0.296 C  
HETATM    8  N   UNL     1     -11.373  15.429  67.509  1.00  0.00    -0.308 NA 
ENDROOT
BRANCH   2   9
HETATM    9  C   UNL     1      -9.097  12.161  65.789  1.00  0.00     0.060 A  
HETATM   10  C   UNL     1      -8.245  11.801  66.849  1.00  0.00    -0.166 A  
HETATM   11  C   UNL     1      -9.152  11.302  64.674  1.00  0.00    -0.015 A  
HETATM   12  C   UNL     1      -7.527   9.822  65.673  1.00  0.00    -0.110 A  
HETATM   13  C   UNL     1      -7.465  10.643  66.792  1.00  0.00    -0.120 A  
HETATM   14 CL   UNL     1      -6.548   8.408  65.592  1.00  0.00    -0.052 Cl 
HETATM   15  C   UNL     1      -8.372  10.142  64.615  1.00  0.00    -0.167 A  
ENDBRANCH   2   9
BRANCH   8  16
HETATM   16  C   UNL     1     -11.269  14.959  68.902  1.00  0.00    -0.269 C  
BRANCH  16  17
HETATM   17  C   UNL     1     -12.213  13.804  69.251  1.00  0.00    -0.307 C  
BRANCH  17  18
HETATM   18  C   UNL     1     -12.075  13.352  70.705  1.00  0.00    -0.374 C  
BRANCH  18  19
HETATM   19  C   UNL     1     -12.441  11.891  70.868  1.00  0.00    -0.300 C  
HETATM   20  O   UNL     1     -13.309  11.504  71.648  1.00  0.00    -0.342 OA 
BRANCH  19  21
HETATM   21  C   UNL     1     -11.683  10.885  70.081  1.00  0.00    -0.433 A  
HETATM   22  C   UNL     1     -10.923   9.933  70.780  1.00  0.00    -0.407 A  
HETATM   23  C   UNL     1     -10.175   8.982  70.085  1.00  0.00    -0.224 A  
HETATM   24  C   UNL     1     -10.201   8.976  68.695  1.00  0.00    -0.205 A  
HETATM   25  F   UNL     1      -9.484   8.064  68.029  1.00  0.00    -0.143 F  
HETATM   26  C   UNL     1     -10.959   9.901  67.987  1.00  0.00    -0.269 A  
HETATM   27  C   UNL     1     -11.703  10.861  68.677  1.00  0.00    -0.334 A  
ENDBRANCH  19  21
ENDBRANCH  18  19
ENDBRANCH  17  18
ENDBRANCH  16  17
ENDBRANCH   8  16
TORSDOF 6
ENDMDL
MODEL      144
REMARK 921   NORMALIZED FREE ENERGY PREDICTED BY IDOCK:   -4.71 KCAL/MOL
REMARK 922        TOTAL FREE ENERGY PREDICTED BY IDOCK:   -7.67 KCAL/MOL
REMARK 923 INTER-LIGAND FREE ENERGY PREDICTED BY IDOCK:   -6.69 KCAL/MOL
REMARK 924 INTRA-LIGAND FREE ENERGY PREDICTED BY IDOCK:   -0.98 KCAL/MOL
REMARK 927      BINDING AFFINITY PREDICTED BY RF-SCORE:    0.00 PKD
ROOT
HETATM    1  O   UNL     1      -8.884   8.435  65.163  1.00  0.00    -0.357 OA 
HETATM    2  C   UNL     1      -9.425   8.793  66.446  1.00  0.00    -0.228 C  
HETATM    3  H   UNL     1      -8.322   9.146  64.876  1.00  0.00     0.000 HD 
HETATM    4  C   UNL     1     -10.335   7.640  66.911  1.00  0.00    -0.388 C  
HETATM    5  C   UNL     1      -8.243   9.013  67.413  1.00  0.00    -0.108 C  
HETATM    6  C   UNL     1      -9.527   6.402  67.303  1.00  0.00    -0.123 C  
HETATM    7  C   UNL     1      -7.555   7.701  67.798  1.00  0.00    -0.117 C  
HETATM    8  N   UNL     1      -8.480   6.673  68.298  1.00  0.00    -0.120 NA 
ENDROOT
BRANCH   2   9
HETATM    9  C   UNL     1     -10.223  10.094  66.280  1.00  0.00    -0.288 A  
HETATM   10  C   UNL     1     -10.360  10.710  65.022  1.00  0.00    -0.341 A  
HETATM   11  C   UNL     1     -10.823  10.727  67.386  1.00  0.00    -0.345 A  
HETATM   12  C   UNL     1     -11.615  12.529  65.986  1.00  0.00    -0.406 A  
HETATM   13  C   UNL     1     -11.047  11.917  64.875  1.00  0.00    -0.363 A  
HETATM   14 CL   UNL     1     -12.440  14.029  65.810  1.00  0.00    -0.514 Cl 
HETATM   15  C   UNL     1     -11.511  11.937  67.241  1.00  0.00    -0.385 A  
ENDBRANCH   2   9
BRANCH   8  16
HETATM   16  C   UNL     1      -8.998   7.015  69.635  1.00  0.00    -0.141 C  
BRANCH  16  17
HETATM   17  C   UNL     1      -7.914   7.338  70.668  1.00  0.00    -0.099 C  
BRANCH  17  18
HETATM   18  C   UNL     1      -8.319   8.474  71.608  1.00  0.00    -0.218 C  
BRANCH  18  19
HETATM   19  C   UNL     1      -8.551   7.970  73.018  1.00  0.00    -0.204 C  
HETATM   20  O   UNL     1      -8.078   8.522  74.009  1.00  0.00    -0.366 OA 
BRANCH  19  21
HETATM   21  C   UNL     1      -9.347   6.730  73.197  1.00  0.00    -0.153 A  
HETATM   22  C   UNL     1      -8.720   5.618  73.782  1.00  0.00    -0.121 A  
HETATM   23  C   UNL     1      -9.419   4.423  73.951  1.00  0.00    -0.128 A  
HETATM   24  C   UNL     1     -10.748   4.347  73.548  1.00  0.00    -0.251 A  
HETATM   25  F   UNL     1     -11.420   3.201  73.710  1.00  0.00    -0.300 F  
HETATM   26  C   UNL     1     -11.390   5.442  72.981  1.00  0.00    -0.355 A  
HETATM   27  C   UNL     1     -10.692   6.638  72.802  1.00  0.00    -0.272 A  
ENDBRANCH  19  21
ENDBRANCH  18  19
ENDBRANCH  17  18
ENDBRANCH  16  17
ENDBRANCH   8  16
TORSDOF 6
ENDMDL
MODEL      145
REMARK 921   NORMALIZED FREE ENERGY PREDICTED BY IDOCK:   -4.70 KCAL/MOL
REMARK 922        TOTAL FREE ENERGY PREDICTED BY IDOCK:   -7.65 KCAL/MOL
REMARK 923 INTER-LIGAND FREE ENERGY PREDICTED BY IDOCK:   -5.31 KCAL/MOL
REMARK 924 INTRA-LIGAND FREE ENERGY PREDICTED BY IDOCK:   -2.34 KCAL/MOL
REMARK 927      BINDING AFFINITY PREDICTED BY RF-SCORE:    0.00 PKD
ROOT
HETATM    1  O   UNL     1      -6.854   9.615  71.535  1.00  0.00    -0.318 OA 
HETATM    2  C   UNL     1      -7.497   8.352  71.289  1.00  0.00    -0.089 C  
HETATM    3  H   UNL     1      -7.016   9.852  72.441  1.00  0.00     0.000 HD 
HETATM    4  C   UNL     1      -7.234   7.969  69.821  1.00  0.00    -0.065 C  
HETATM    5  C   UNL     1      -6.898   7.319  72.266  1.00  0.00    -0.059 C  
HETATM    6  C   UNL     1      -5.774   7.570  69.591  1.00  0.00    -0.023 C  
HETATM    7  C   UNL     1      -5.463   6.936  71.899  1.00  0.00    -0.036 C  
HETATM    8  N   UNL     1      -5.303   6.514  70.499  1.00  0.00    -0.018 NA 
ENDROOT
BRANCH   2   9
HETATM    9  C   UNL     1      -8.999   8.524  71.554  1.00  0.00    -0.276 A  
HETATM   10  C   UNL     1      -9.779   9.411  70.788  1.00  0.00    -0.332 A  
HETATM   11  C   UNL     1      -9.641   7.819  72.590  1.00  0.00    -0.261 A  
HETATM   12  C   UNL     1     -11.740   8.907  72.096  1.00  0.00    -0.341 A  
HETATM   13  C   UNL     1     -11.136   9.603  71.056  1.00  0.00    -0.438 A  
HETATM   14 CL   UNL     1     -13.407   9.161  72.443  1.00  0.00    -0.514 Cl 
HETATM   15  C   UNL     1     -11.001   8.010  72.861  1.00  0.00    -0.398 A  
ENDBRANCH   2   9
BRANCH   8  16
HETATM   16  C   UNL     1      -5.920   5.197  70.257  1.00  0.00    -0.018 C  
BRANCH  16  17
HETATM   17  C   UNL     1      -5.539   4.557  68.919  1.00  0.00    -0.013 C  
BRANCH  17  18
HETATM   18  C   UNL     1      -6.451   5.003  67.776  1.00  0.00    -0.045 C  
BRANCH  18  19
HETATM   19  C   UNL     1      -7.762   4.244  67.784  1.00  0.00    -0.080 C  
HETATM   20  O   UNL     1      -7.881   3.113  67.318  1.00  0.00    -0.076 OA 
BRANCH  19  21
HETATM   21  C   UNL     1      -8.962   4.923  68.339  1.00  0.00    -0.129 A  
HETATM   22  C   UNL     1      -9.395   4.557  69.623  1.00  0.00    -0.221 A  
HETATM   23  C   UNL     1     -10.530   5.150  70.178  1.00  0.00    -0.305 A  
HETATM   24  C   UNL     1     -11.219   6.115  69.454  1.00  0.00    -0.396 A  
HETATM   25  F   UNL     1     -12.307   6.684  69.986  1.00  0.00    -0.370 F  
HETATM   26  C   UNL     1     -10.796   6.500  68.187  1.00  0.00    -0.370 A  
HETATM   27  C   UNL     1      -9.665   5.904  67.622  1.00  0.00    -0.122 A  
ENDBRANCH  19  21
ENDBRANCH  18  19
ENDBRANCH  17  18
ENDBRANCH  16  17
ENDBRANCH   8  16
TORSDOF 6
ENDMDL
MODEL      146
REMARK 921   NORMALIZED FREE ENERGY PREDICTED BY IDOCK:   -4.68 KCAL/MOL
REMARK 922        TOTAL FREE ENERGY PREDICTED BY IDOCK:   -7.63 KCAL/MOL
REMARK 923 INTER-LIGAND FREE ENERGY PREDICTED BY IDOCK:   -6.71 KCAL/MOL
REMARK 924 INTRA-LIGAND FREE ENERGY PREDICTED BY IDOCK:   -0.92 KCAL/MOL
REMARK 927      BINDING AFFINITY PREDICTED BY RF-SCORE:    0.00 PKD
ROOT
HETATM    1  O   UNL     1     -11.254  17.056  67.160  1.00  0.00     0.065 OA 
HETATM    2  C   UNL     1     -10.387  15.908  67.124  1.00  0.00    -0.300 C  
HETATM    3  H   UNL     1     -10.809  17.770  66.720  1.00  0.00     0.000 HD 
HETATM    4  C   UNL     1     -11.110  14.750  67.837  1.00  0.00    -0.301 C  
HETATM    5  C   UNL     1     -10.101  15.579  65.644  1.00  0.00    -0.406 C  
HETATM    6  C   UNL     1     -12.284  14.219  67.011  1.00  0.00    -0.303 C  
HETATM    7  C   UNL     1     -11.320  14.984  64.935  1.00  0.00    -0.417 C  
HETATM    8  N   UNL     1     -11.914  13.838  65.640  1.00  0.00    -0.366 NA 
ENDROOT
BRANCH   2   9
HETATM    9  C   UNL     1      -9.084  16.274  67.847  1.00  0.00    -0.196 A  
HETATM   10  C   UNL     1      -8.570  15.466  68.879  1.00  0.00    -0.207 A  
HETATM   11  C   UNL     1      -8.374  17.446  67.520  1.00  0.00    -0.212 A  
HETATM   12  C   UNL     1      -6.737  16.992  69.237  1.00  0.00    -0.234 A  
HETATM   13  C   UNL     1      -7.408  15.821  69.570  1.00  0.00    -0.186 A  
HETATM   14 CL   UNL     1      -5.320  17.442  70.104  1.00  0.00    -0.212 Cl 
HETATM   15  C   UNL     1      -7.210  17.803  68.211  1.00  0.00    -0.237 A  
ENDBRANCH   2   9
BRANCH   8  16
HETATM   16  C   UNL     1     -11.048  12.647  65.562  1.00  0.00    -0.294 C  
BRANCH  16  17
HETATM   17  C   UNL     1     -11.495  11.482  66.450  1.00  0.00    -0.150 C  
BRANCH  17  18
HETATM   18  C   UNL     1     -10.460  11.127  67.517  1.00  0.00    -0.239 C  
BRANCH  18  19
HETATM   19  C   UNL     1     -10.563   9.672  67.927  1.00  0.00    -0.255 C  
HETATM   20  O   UNL     1     -10.740   8.763  67.119  1.00  0.00    -0.271 OA 
BRANCH  19  21
HETATM   21  C   UNL     1     -10.493   9.344  69.374  1.00  0.00    -0.231 A  
HETATM   22  C   UNL     1      -9.526   8.418  69.797  1.00  0.00    -0.162 A  
HETATM   23  C   UNL     1      -9.436   8.061  71.143  1.00  0.00    -0.181 A  
HETATM   24  C   UNL     1     -10.302   8.640  72.063  1.00  0.00    -0.346 A  
HETATM   25  F   UNL     1     -10.216   8.298  73.353  1.00  0.00    -0.332 F  
HETATM   26  C   UNL     1     -11.255   9.570  71.664  1.00  0.00    -0.378 A  
HETATM   27  C   UNL     1     -11.356   9.925  70.316  1.00  0.00    -0.357 A  
ENDBRANCH  19  21
ENDBRANCH  18  19
ENDBRANCH  17  18
ENDBRANCH  16  17
ENDBRANCH   8  16
TORSDOF 6
ENDMDL
MODEL      147
REMARK 921   NORMALIZED FREE ENERGY PREDICTED BY IDOCK:   -4.65 KCAL/MOL
REMARK 922        TOTAL FREE ENERGY PREDICTED BY IDOCK:   -7.59 KCAL/MOL
REMARK 923 INTER-LIGAND FREE ENERGY PREDICTED BY IDOCK:   -6.56 KCAL/MOL
REMARK 924 INTRA-LIGAND FREE ENERGY PREDICTED BY IDOCK:   -1.03 KCAL/MOL
REMARK 927      BINDING AFFINITY PREDICTED BY RF-SCORE:    0.00 PKD
ROOT
HETATM    1  O   UNL     1     -10.857   7.302  70.858  1.00  0.00    -0.236 OA 
HETATM    2  C   UNL     1      -9.970   7.318  69.725  1.00  0.00    -0.183 C  
HETATM    3  H   UNL     1     -10.440   6.797  71.546  1.00  0.00     0.000 HD 
HETATM    4  C   UNL     1     -10.646   8.136  68.610  1.00  0.00    -0.144 C  
HETATM    5  C   UNL     1      -8.640   7.956  70.176  1.00  0.00    -0.134 C  
HETATM    6  C   UNL     1     -10.677   9.630  68.941  1.00  0.00    -0.206 C  
HETATM    7  C   UNL     1      -8.767   9.464  70.405  1.00  0.00    -0.240 C  
HETATM    8  N   UNL     1      -9.358  10.187  69.269  1.00  0.00    -0.205 NA 
ENDROOT
BRANCH   2   9
HETATM    9  C   UNL     1      -9.738   5.866  69.282  1.00  0.00    -0.182 A  
HETATM   10  C   UNL     1      -9.687   5.519  67.920  1.00  0.00    -0.155 A  
HETATM   11  C   UNL     1      -9.597   4.831  70.227  1.00  0.00    -0.269 A  
HETATM   12  C   UNL     1      -9.401   3.187  68.468  1.00  0.00    -0.177 A  
HETATM   13  C   UNL     1      -9.522   4.192  67.514  1.00  0.00    -0.225 A  
HETATM   14 CL   UNL     1      -9.223   1.550  67.969  1.00  0.00    -0.188 Cl 
HETATM   15  C   UNL     1      -9.432   3.501  69.823  1.00  0.00    -0.241 A  
ENDBRANCH   2   9
BRANCH   8  16
HETATM   16  C   UNL     1      -8.430  10.247  68.125  1.00  0.00    -0.123 C  
BRANCH  16  17
HETATM   17  C   UNL     1      -8.488  11.555  67.331  1.00  0.00    -0.147 C  
BRANCH  17  18
HETATM   18  C   UNL     1      -8.778  12.766  68.218  1.00  0.00    -0.168 C  
BRANCH  18  19
HETATM   19  C   UNL     1     -10.221  13.212  68.092  1.00  0.00    -0.239 C  
HETATM   20  O   UNL     1     -10.943  13.418  69.066  1.00  0.00    -0.258 OA 
BRANCH  19  21
HETATM   21  C   UNL     1     -10.794  13.358  66.730  1.00  0.00    -0.286 A  
HETATM   22  C   UNL     1     -11.829  12.489  66.349  1.00  0.00    -0.445 A  
HETATM   23  C   UNL     1     -12.384  12.571  65.072  1.00  0.00    -0.522 A  
HETATM   24  C   UNL     1     -11.913  13.532  64.184  1.00  0.00    -0.448 A  
HETATM   25  F   UNL     1     -12.445  13.613  62.960  1.00  0.00    -0.530 F  
HETATM   26  C   UNL     1     -10.900  14.411  64.549  1.00  0.00    -0.271 A  
HETATM   27  C   UNL     1     -10.334  14.327  65.824  1.00  0.00    -0.341 A  
ENDBRANCH  19  21
ENDBRANCH  18  19
ENDBRANCH  17  18
ENDBRANCH  16  17
ENDBRANCH   8  16
TORSDOF 6
ENDMDL
MODEL      148
REMARK 921   NORMALIZED FREE ENERGY PREDICTED BY IDOCK:   -4.60 KCAL/MOL
REMARK 922        TOTAL FREE ENERGY PREDICTED BY IDOCK:   -7.52 KCAL/MOL
REMARK 923 INTER-LIGAND FREE ENERGY PREDICTED BY IDOCK:   -6.86 KCAL/MOL
REMARK 924 INTRA-LIGAND FREE ENERGY PREDICTED BY IDOCK:   -0.66 KCAL/MOL
REMARK 927      BINDING AFFINITY PREDICTED BY RF-SCORE:    0.00 PKD
ROOT
HETATM    1  O   UNL     1      -8.213   9.270  70.713  1.00  0.00    -0.172 OA 
HETATM    2  C   UNL     1      -9.289   9.263  69.757  1.00  0.00    -0.188 C  
HETATM    3  H   UNL     1      -8.211   8.428  71.153  1.00  0.00     0.000 HD 
HETATM    4  C   UNL     1      -9.292  10.629  69.043  1.00  0.00    -0.191 C  
HETATM    5  C   UNL     1      -9.036   8.104  68.770  1.00  0.00    -0.144 C  
HETATM    6  C   UNL     1      -8.099  10.777  68.097  1.00  0.00    -0.117 C  
HETATM    7  C   UNL     1      -7.870   8.391  67.822  1.00  0.00    -0.107 C  
HETATM    8  N   UNL     1      -7.979   9.681  67.124  1.00  0.00    -0.105 NA 
ENDROOT
BRANCH   2   9
HETATM    9  C   UNL     1     -10.601   9.036  70.519  1.00  0.00    -0.274 A  
HETATM   10  C   UNL     1     -11.554  10.063  70.655  1.00  0.00    -0.422 A  
HETATM   11  C   UNL     1     -10.883   7.798  71.130  1.00  0.00    -0.254 A  
HETATM   12  C   UNL     1     -12.973   8.646  71.994  1.00  0.00    -0.378 A  
HETATM   13  C   UNL     1     -12.729   9.872  71.387  1.00  0.00    -0.503 A  
HETATM   14 CL   UNL     1     -14.408   8.418  72.916  1.00  0.00    -0.006 Cl 
HETATM   15  C   UNL     1     -12.059   7.605  71.864  1.00  0.00    -0.333 A  
ENDBRANCH   2   9
BRANCH   8  16
HETATM   16  C   UNL     1      -9.048   9.659  66.110  1.00  0.00    -0.161 C  
BRANCH  16  17
HETATM   17  C   UNL     1     -10.274  10.504  66.467  1.00  0.00    -0.288 C  
BRANCH  17  18
HETATM   18  C   UNL     1     -10.729  11.396  65.312  1.00  0.00    -0.326 C  
BRANCH  18  19
HETATM   19  C   UNL     1     -11.907  12.262  65.710  1.00  0.00    -0.352 C  
HETATM   20  O   UNL     1     -12.930  12.349  65.034  1.00  0.00    -0.705 OA 
BRANCH  19  21
HETATM   21  C   UNL     1     -11.794  13.073  66.949  1.00  0.00    -0.442 A  
HETATM   22  C   UNL     1     -11.249  14.363  66.850  1.00  0.00    -0.340 A  
HETATM   23  C   UNL     1     -11.102  15.155  67.989  1.00  0.00    -0.310 A  
HETATM   24  C   UNL     1     -11.513  14.660  69.221  1.00  0.00    -0.291 A  
HETATM   25  F   UNL     1     -11.372  15.420  70.314  1.00  0.00    -0.233 F  
HETATM   26  C   UNL     1     -12.069  13.392  69.337  1.00  0.00    -0.321 A  
HETATM   27  C   UNL     1     -12.210  12.591  68.201  1.00  0.00     0.103 A  
ENDBRANCH  19  21
ENDBRANCH  18  19
ENDBRANCH  17  18
ENDBRANCH  16  17
ENDBRANCH   8  16
TORSDOF 6
ENDMDL
MODEL      149
REMARK 921   NORMALIZED FREE ENERGY PREDICTED BY IDOCK:   -4.59 KCAL/MOL
REMARK 922        TOTAL FREE ENERGY PREDICTED BY IDOCK:   -7.51 KCAL/MOL
REMARK 923 INTER-LIGAND FREE ENERGY PREDICTED BY IDOCK:   -5.98 KCAL/MOL
REMARK 924 INTRA-LIGAND FREE ENERGY PREDICTED BY IDOCK:   -1.53 KCAL/MOL
REMARK 927      BINDING AFFINITY PREDICTED BY RF-SCORE:    0.00 PKD
ROOT
HETATM    1  O   UNL     1      -6.684  13.054  67.281  1.00  0.00    -0.280 OA 
HETATM    2  C   UNL     1      -7.383  14.245  67.686  1.00  0.00    -0.176 C  
HETATM    3  H   UNL     1      -6.664  13.039  66.331  1.00  0.00     0.000 HD 
HETATM    4  C   UNL     1      -7.416  14.270  69.225  1.00  0.00    -0.022 C  
HETATM    5  C   UNL     1      -6.622  15.458  67.111  1.00  0.00     0.090 C  
HETATM    6  C   UNL     1      -6.036  14.560  69.818  1.00  0.00    -0.122 C  
HETATM    7  C   UNL     1      -5.292  15.702  67.826  1.00  0.00    -0.114 C  
HETATM    8  N   UNL     1      -5.414  15.783  69.290  1.00  0.00    -0.106 NA 
ENDROOT
BRANCH   2   9
HETATM    9  C   UNL     1      -8.802  14.185  67.104  1.00  0.00    -0.241 A  
HETATM   10  C   UNL     1      -9.597  15.341  66.997  1.00  0.00    -0.233 A  
HETATM   11  C   UNL     1      -9.365  12.964  66.683  1.00  0.00    -0.240 A  
HETATM   12  C   UNL     1     -11.441  14.061  66.117  1.00  0.00    -0.346 A  
HETATM   13  C   UNL     1     -10.905  15.281  66.510  1.00  0.00    -0.311 A  
HETATM   14 CL   UNL     1     -13.061  13.982  65.540  1.00  0.00    -0.389 Cl 
HETATM   15  C   UNL     1     -10.675  12.902  66.195  1.00  0.00    -0.290 A  
ENDBRANCH   2   9
BRANCH   8  16
HETATM   16  C   UNL     1      -6.086  17.027  69.708  1.00  0.00    -0.227 C  
BRANCH  16  17
HETATM   17  C   UNL     1      -5.132  18.169  70.069  1.00  0.00    -0.206 C  
BRANCH  17  18
HETATM   18  C   UNL     1      -5.523  19.491  69.408  1.00  0.00    -0.219 C  
BRANCH  18  19
HETATM   19  C   UNL     1      -6.984  19.817  69.641  1.00  0.00    -0.216 C  
HETATM   20  O   UNL     1      -7.427  20.150  70.738  1.00  0.00     0.416 OA 
BRANCH  19  21
HETATM   21  C   UNL     1      -7.924  19.679  68.499  1.00  0.00    -0.350 A  
HETATM   22  C   UNL     1      -9.287  19.495  68.781  1.00  0.00    -0.423 A  
HETATM   23  C   UNL     1     -10.206  19.338  67.743  1.00  0.00    -0.507 A  
HETATM   24  C   UNL     1      -9.762  19.380  66.427  1.00  0.00    -0.386 A  
HETATM   25  F   UNL     1     -10.643  19.230  65.431  1.00  0.00    -0.472 F  
HETATM   26  C   UNL     1      -8.419  19.576  66.128  1.00  0.00    -0.329 A  
HETATM   27  C   UNL     1      -7.493  19.725  67.164  1.00  0.00    -0.280 A  
ENDBRANCH  19  21
ENDBRANCH  18  19
ENDBRANCH  17  18
ENDBRANCH  16  17
ENDBRANCH   8  16
TORSDOF 6
ENDMDL
MODEL      150
REMARK 921   NORMALIZED FREE ENERGY PREDICTED BY IDOCK:   -4.58 KCAL/MOL
REMARK 922        TOTAL FREE ENERGY PREDICTED BY IDOCK:   -7.50 KCAL/MOL
REMARK 923 INTER-LIGAND FREE ENERGY PREDICTED BY IDOCK:   -6.09 KCAL/MOL
REMARK 924 INTRA-LIGAND FREE ENERGY PREDICTED BY IDOCK:   -1.41 KCAL/MOL
REMARK 927      BINDING AFFINITY PREDICTED BY RF-SCORE:    0.00 PKD
ROOT
HETATM    1  O   UNL     1     -10.973  18.560  65.023  1.00  0.00    -0.602 OA 
HETATM    2  C   UNL     1     -10.241  17.583  65.784  1.00  0.00    -0.173 C  
HETATM    3  H   UNL     1     -11.899  18.379  65.134  1.00  0.00     0.000 HD 
HETATM    4  C   UNL     1      -8.739  17.877  65.604  1.00  0.00     0.617 C  
HETATM    5  C   UNL     1     -10.675  17.710  67.259  1.00  0.00    -0.234 C  
HETATM    6  C   UNL     1      -8.318  19.151  66.338  1.00  0.00    -0.318 C  
HETATM    7  C   UNL     1     -10.136  18.982  67.916  1.00  0.00    -0.381 C  
HETATM    8  N   UNL     1      -8.684  19.159  67.762  1.00  0.00    -0.295 NA 
ENDROOT
BRANCH   2   9
HETATM    9  C   UNL     1     -10.600  16.192  65.243  1.00  0.00    -0.390 A  
HETATM   10  C   UNL     1     -11.831  15.953  64.603  1.00  0.00    -0.027 A  
HETATM   11  C   UNL     1      -9.720  15.103  65.393  1.00  0.00    -0.239 A  
HETATM   12  C   UNL     1     -11.298  13.618  64.327  1.00  0.00    -0.350 A  
HETATM   13  C   UNL     1     -12.179  14.678  64.150  1.00  0.00    -0.343 A  
HETATM   14 CL   UNL     1     -11.736  12.042  63.791  1.00  0.00    -0.538 Cl 
HETATM   15  C   UNL     1     -10.066  13.825  64.940  1.00  0.00    -0.297 A  
ENDBRANCH   2   9
BRANCH   8  16
HETATM   16  C   UNL     1      -7.932  18.189  68.579  1.00  0.00    -0.300 C  
BRANCH  16  17
HETATM   17  C   UNL     1      -6.646  17.675  67.926  1.00  0.00    -0.190 C  
BRANCH  17  18
HETATM   18  C   UNL     1      -6.621  16.152  67.798  1.00  0.00    -0.172 C  
BRANCH  18  19
HETATM   19  C   UNL     1      -7.131  15.482  69.058  1.00  0.00    -0.147 C  
HETATM   20  O   UNL     1      -6.474  15.424  70.096  1.00  0.00    -0.143 OA 
BRANCH  19  21
HETATM   21  C   UNL     1      -8.465  14.829  69.015  1.00  0.00    -0.140 A  
HETATM   22  C   UNL     1      -9.533  15.459  69.672  1.00  0.00    -0.220 A  
HETATM   23  C   UNL     1     -10.799  14.873  69.679  1.00  0.00    -0.269 A  
HETATM   24  C   UNL     1     -10.997  13.667  69.017  1.00  0.00    -0.234 A  
HETATM   25  F   UNL     1     -12.211  13.104  69.023  1.00  0.00    -0.335 F  
HETATM   26  C   UNL     1      -9.954  13.036  68.348  1.00  0.00    -0.216 A  
HETATM   27  C   UNL     1      -8.682  13.614  68.345  1.00  0.00    -0.153 A  
ENDBRANCH  19  21
ENDBRANCH  18  19
ENDBRANCH  17  18
ENDBRANCH  16  17
ENDBRANCH   8  16
TORSDOF 6
ENDMDL
MODEL      151
REMARK 921   NORMALIZED FREE ENERGY PREDICTED BY IDOCK:   -4.57 KCAL/MOL
REMARK 922        TOTAL FREE ENERGY PREDICTED BY IDOCK:   -7.49 KCAL/MOL
REMARK 923 INTER-LIGAND FREE ENERGY PREDICTED BY IDOCK:   -6.28 KCAL/MOL
REMARK 924 INTRA-LIGAND FREE ENERGY PREDICTED BY IDOCK:   -1.20 KCAL/MOL
REMARK 927      BINDING AFFINITY PREDICTED BY RF-SCORE:    0.00 PKD
ROOT
HETATM    1  O   UNL     1     -13.091  11.187  72.287  1.00  0.00    -0.535 OA 
HETATM    2  C   UNL     1     -12.612  10.494  71.120  1.00  0.00    -0.417 C  
HETATM    3  H   UNL     1     -13.866  11.677  72.035  1.00  0.00     0.000 HD 
HETATM    4  C   UNL     1     -11.357   9.700  71.528  1.00  0.00    -0.420 C  
HETATM    5  C   UNL     1     -13.740   9.565  70.626  1.00  0.00     0.277 C  
HETATM    6  C   UNL     1     -11.705   8.506  72.420  1.00  0.00    -0.358 C  
HETATM    7  C   UNL     1     -13.952   8.364  71.551  1.00  0.00    -0.349 C  
HETATM    8  N   UNL     1     -12.720   7.614  71.839  1.00  0.00    -0.310 NA 
ENDROOT
BRANCH   2   9
HETATM    9  C   UNL     1     -12.279  11.541  70.048  1.00  0.00    -0.354 A  
HETATM   10  C   UNL     1     -11.845  11.159  68.765  1.00  0.00    -0.388 A  
HETATM   11  C   UNL     1     -12.370  12.919  70.324  1.00  0.00    -0.294 A  
HETATM   12  C   UNL     1     -11.582  13.464  68.107  1.00  0.00    -0.341 A  
HETATM   13  C   UNL     1     -11.499  12.110  67.803  1.00  0.00    -0.398 A  
HETATM   14 CL   UNL     1     -11.131  14.636  66.930  1.00  0.00    -0.325 Cl 
HETATM   15  C   UNL     1     -12.023  13.874  69.362  1.00  0.00    -0.402 A  
ENDBRANCH   2   9
BRANCH   8  16
HETATM   16  C   UNL     1     -12.255   6.865  70.658  1.00  0.00    -0.258 C  
BRANCH  16  17
HETATM   17  C   UNL     1     -11.036   5.973  70.916  1.00  0.00    -0.352 C  
BRANCH  17  18
HETATM   18  C   UNL     1     -10.068   5.947  69.733  1.00  0.00    -0.258 C  
BRANCH  18  19
HETATM   19  C   UNL     1      -8.687   6.421  70.136  1.00  0.00    -0.139 C  
HETATM   20  O   UNL     1      -8.172   6.135  71.215  1.00  0.00    -0.120 OA 
BRANCH  19  21
HETATM   21  C   UNL     1      -7.949   7.309  69.202  1.00  0.00    -0.119 A  
HETATM   22  C   UNL     1      -8.142   7.126  67.823  1.00  0.00    -0.115 A  
HETATM   23  C   UNL     1      -7.454   7.920  66.905  1.00  0.00    -0.091 A  
HETATM   24  C   UNL     1      -6.587   8.904  67.368  1.00  0.00    -0.061 A  
HETATM   25  F   UNL     1      -5.928   9.666  66.488  1.00  0.00    -0.054 F  
HETATM   26  C   UNL     1      -6.396   9.109  68.729  1.00  0.00    -0.048 A  
HETATM   27  C   UNL     1      -7.075   8.311  69.653  1.00  0.00    -0.056 A  
ENDBRANCH  19  21
ENDBRANCH  18  19
ENDBRANCH  17  18
ENDBRANCH  16  17
ENDBRANCH   8  16
TORSDOF 6
ENDMDL
MODEL      152
REMARK 921   NORMALIZED FREE ENERGY PREDICTED BY IDOCK:   -4.57 KCAL/MOL
REMARK 922        TOTAL FREE ENERGY PREDICTED BY IDOCK:   -7.49 KCAL/MOL
REMARK 923 INTER-LIGAND FREE ENERGY PREDICTED BY IDOCK:   -6.74 KCAL/MOL
REMARK 924 INTRA-LIGAND FREE ENERGY PREDICTED BY IDOCK:   -0.75 KCAL/MOL
REMARK 927      BINDING AFFINITY PREDICTED BY RF-SCORE:    0.00 PKD
ROOT
HETATM    1  O   UNL     1     -10.898   8.538  67.311  1.00  0.00    -0.447 OA 
HETATM    2  C   UNL     1     -10.462   9.528  68.260  1.00  0.00    -0.223 C  
HETATM    3  H   UNL     1     -11.785   8.286  67.542  1.00  0.00     0.000 HD 
HETATM    4  C   UNL     1      -9.025   9.937  67.886  1.00  0.00    -0.129 C  
HETATM    5  C   UNL     1     -11.436  10.722  68.177  1.00  0.00    -0.346 C  
HETATM    6  C   UNL     1      -8.987  10.768  66.602  1.00  0.00    -0.153 C  
HETATM    7  C   UNL     1     -11.259  11.528  66.888  1.00  0.00    -0.298 C  
HETATM    8  N   UNL     1      -9.871  11.942  66.635  1.00  0.00    -0.198 NA 
ENDROOT
BRANCH   2   9
HETATM    9  C   UNL     1     -10.511   8.900  69.660  1.00  0.00    -0.218 A  
HETATM   10  C   UNL     1     -11.360   9.410  70.660  1.00  0.00    -0.352 A  
HETATM   11  C   UNL     1      -9.688   7.808  69.996  1.00  0.00    -0.176 A  
HETATM   12  C   UNL     1     -10.538   7.801  72.257  1.00  0.00    -0.259 A  
HETATM   13  C   UNL     1     -11.373   8.868  71.947  1.00  0.00    -0.446 A  
HETATM   14 CL   UNL     1     -10.535   7.149  73.850  1.00  0.00    -0.382 Cl 
HETATM   15  C   UNL     1      -9.699   7.264  71.286  1.00  0.00    -0.168 A  
ENDBRANCH   2   9
BRANCH   8  16
HETATM   16  C   UNL     1      -9.439  12.992  67.575  1.00  0.00    -0.198 C  
BRANCH  16  17
HETATM   17  C   UNL     1      -7.994  13.459  67.381  1.00  0.00    -0.170 C  
BRANCH  17  18
HETATM   18  C   UNL     1      -7.867  14.982  67.360  1.00  0.00    -0.226 C  
BRANCH  18  19
HETATM   19  C   UNL     1      -7.472  15.524  68.718  1.00  0.00    -0.141 C  
HETATM   20  O   UNL     1      -7.443  14.828  69.731  1.00  0.00    -0.140 OA 
BRANCH  19  21
HETATM   21  C   UNL     1      -7.153  16.970  68.831  1.00  0.00    -0.233 A  
HETATM   22  C   UNL     1      -5.880  17.334  69.299  1.00  0.00    -0.203 A  
HETATM   23  C   UNL     1      -5.541  18.679  69.444  1.00  0.00    -0.225 A  
HETATM   24  C   UNL     1      -6.469  19.657  69.106  1.00  0.00    -0.326 A  
HETATM   25  F   UNL     1      -6.144  20.948  69.244  1.00  0.00    -0.379 F  
HETATM   26  C   UNL     1      -7.729  19.316  68.626  1.00  0.00    -0.394 A  
HETATM   27  C   UNL     1      -8.077  17.970  68.488  1.00  0.00    -0.306 A  
ENDBRANCH  19  21
ENDBRANCH  18  19
ENDBRANCH  17  18
ENDBRANCH  16  17
ENDBRANCH   8  16
TORSDOF 6
ENDMDL
MODEL      153
REMARK 921   NORMALIZED FREE ENERGY PREDICTED BY IDOCK:   -4.54 KCAL/MOL
REMARK 922        TOTAL FREE ENERGY PREDICTED BY IDOCK:   -7.44 KCAL/MOL
REMARK 923 INTER-LIGAND FREE ENERGY PREDICTED BY IDOCK:   -6.46 KCAL/MOL
REMARK 924 INTRA-LIGAND FREE ENERGY PREDICTED BY IDOCK:   -0.98 KCAL/MOL
REMARK 927      BINDING AFFINITY PREDICTED BY RF-SCORE:    0.00 PKD
ROOT
HETATM    1  O   UNL     1     -12.737  14.338  66.891  1.00  0.00    -0.495 OA 
HETATM    2  C   UNL     1     -11.385  14.180  67.355  1.00  0.00    -0.327 C  
HETATM    3  H   UNL     1     -12.702  14.668  66.000  1.00  0.00     0.000 HD 
HETATM    4  C   UNL     1     -11.443  13.644  68.798  1.00  0.00    -0.346 C  
HETATM    5  C   UNL     1     -10.672  13.192  66.408  1.00  0.00    -0.293 C  
HETATM    6  C   UNL     1     -11.909  12.188  68.845  1.00  0.00    -0.304 C  
HETATM    7  C   UNL     1     -11.162  11.754  66.592  1.00  0.00    -0.323 C  
HETATM    8  N   UNL     1     -11.122  11.290  67.987  1.00  0.00    -0.243 NA 
ENDROOT
BRANCH   2   9
HETATM    9  C   UNL     1     -10.700  15.553  67.303  1.00  0.00    -0.308 A  
HETATM   10  C   UNL     1      -9.651  15.811  66.401  1.00  0.00    -0.311 A  
HETATM   11  C   UNL     1     -11.082  16.591  68.175  1.00  0.00    -0.303 A  
HETATM   12  C   UNL     1      -9.383  18.046  67.266  1.00  0.00    -0.256 A  
HETATM   13  C   UNL     1      -8.997  17.046  66.382  1.00  0.00    -0.308 A  
HETATM   14 CL   UNL     1      -8.561  19.558  67.261  1.00  0.00    -0.322 Cl 
HETATM   15  C   UNL     1     -10.428  17.827  68.159  1.00  0.00    -0.382 A  
ENDBRANCH   2   9
BRANCH   8  16
HETATM   16  C   UNL     1      -9.738  11.081  68.449  1.00  0.00    -0.180 C  
BRANCH  16  17
HETATM   17  C   UNL     1      -9.494   9.726  69.120  1.00  0.00    -0.191 C  
BRANCH  17  18
HETATM   18  C   UNL     1     -10.146   8.570  68.361  1.00  0.00    -0.221 C  
BRANCH  18  19
HETATM   19  C   UNL     1      -9.106   7.650  67.754  1.00  0.00    -0.130 C  
HETATM   20  O   UNL     1      -8.524   6.782  68.401  1.00  0.00    -0.121 OA 
BRANCH  19  21
HETATM   21  C   UNL     1      -8.746   7.844  66.326  1.00  0.00    -0.174 A  
HETATM   22  C   UNL     1      -7.970   6.857  65.698  1.00  0.00    -0.120 A  
HETATM   23  C   UNL     1      -7.587   7.005  64.365  1.00  0.00    -0.108 A  
HETATM   24  C   UNL     1      -7.994   8.131  63.659  1.00  0.00    -0.140 A  
HETATM   25  F   UNL     1      -7.628   8.274  62.380  1.00  0.00    -0.098 F  
HETATM   26  C   UNL     1      -8.776   9.111  64.260  1.00  0.00    -0.180 A  
HETATM   27  C   UNL     1      -9.154   8.973  65.597  1.00  0.00    -0.278 A  
ENDBRANCH  19  21
ENDBRANCH  18  19
ENDBRANCH  17  18
ENDBRANCH  16  17
ENDBRANCH   8  16
TORSDOF 6
ENDMDL
MODEL      154
REMARK 921   NORMALIZED FREE ENERGY PREDICTED BY IDOCK:   -4.52 KCAL/MOL
REMARK 922        TOTAL FREE ENERGY PREDICTED BY IDOCK:   -7.41 KCAL/MOL
REMARK 923 INTER-LIGAND FREE ENERGY PREDICTED BY IDOCK:   -6.50 KCAL/MOL
REMARK 924 INTRA-LIGAND FREE ENERGY PREDICTED BY IDOCK:   -0.91 KCAL/MOL
REMARK 927      BINDING AFFINITY PREDICTED BY RF-SCORE:    0.00 PKD
ROOT
HETATM    1  O   UNL     1      -7.793   8.897  72.739  1.00  0.00    -0.371 OA 
HETATM    2  C   UNL     1      -8.401   8.402  71.532  1.00  0.00    -0.154 C  
HETATM    3  H   UNL     1      -8.099   8.359  73.460  1.00  0.00     0.000 HD 
HETATM    4  C   UNL     1      -7.905   9.275  70.364  1.00  0.00    -0.158 C  
HETATM    5  C   UNL     1      -7.980   6.927  71.363  1.00  0.00    -0.108 C  
HETATM    6  C   UNL     1      -6.432   9.012  70.045  1.00  0.00    -0.042 C  
HETATM    7  C   UNL     1      -6.508   6.784  70.969  1.00  0.00    -0.049 C  
HETATM    8  N   UNL     1      -6.126   7.594  69.803  1.00  0.00    -0.027 NA 
ENDROOT
BRANCH   2   9
HETATM    9  C   UNL     1      -9.924   8.504  71.690  1.00  0.00    -0.329 A  
HETATM   10  C   UNL     1     -10.660   9.510  71.035  1.00  0.00    -0.392 A  
HETATM   11  C   UNL     1     -10.632   7.611  72.517  1.00  0.00    -0.336 A  
HETATM   12  C   UNL     1     -12.711   8.748  72.049  1.00  0.00    -0.387 A  
HETATM   13  C   UNL     1     -12.040   9.633  71.213  1.00  0.00    -0.457 A  
HETATM   14 CL   UNL     1     -14.407   8.914  72.288  1.00  0.00    -0.473 Cl 
HETATM   15  C   UNL     1     -12.015   7.733  72.697  1.00  0.00    -0.257 A  
ENDBRANCH   2   9
BRANCH   8  16
HETATM   16  C   UNL     1      -6.708   7.059  68.559  1.00  0.00    -0.064 C  
BRANCH  16  17
HETATM   17  C   UNL     1      -7.602   8.046  67.804  1.00  0.00    -0.102 C  
BRANCH  17  18
HETATM   18  C   UNL     1      -8.492   7.359  66.768  1.00  0.00    -0.124 C  
BRANCH  18  19
HETATM   19  C   UNL     1      -9.875   7.977  66.727  1.00  0.00    -0.257 C  
HETATM   20  O   UNL     1     -10.903   7.322  66.886  1.00  0.00    -0.355 OA 
BRANCH  19  21
HETATM   21  C   UNL     1      -9.986   9.429  66.436  1.00  0.00    -0.346 A  
HETATM   22  C   UNL     1      -9.491   9.899  65.209  1.00  0.00    -0.331 A  
HETATM   23  C   UNL     1      -9.551  11.258  64.899  1.00  0.00    -0.266 A  
HETATM   24  C   UNL     1     -10.120  12.141  65.810  1.00  0.00    -0.247 A  
HETATM   25  F   UNL     1     -10.179  13.444  65.513  1.00  0.00    -0.275 F  
HETATM   26  C   UNL     1     -10.628  11.692  67.023  1.00  0.00    -0.272 A  
HETATM   27  C   UNL     1     -10.562  10.333  67.343  1.00  0.00    -0.324 A  
ENDBRANCH  19  21
ENDBRANCH  18  19
ENDBRANCH  17  18
ENDBRANCH  16  17
ENDBRANCH   8  16
TORSDOF 6
ENDMDL
MODEL      155
REMARK 921   NORMALIZED FREE ENERGY PREDICTED BY IDOCK:   -4.51 KCAL/MOL
REMARK 922        TOTAL FREE ENERGY PREDICTED BY IDOCK:   -7.41 KCAL/MOL
REMARK 923 INTER-LIGAND FREE ENERGY PREDICTED BY IDOCK:   -6.60 KCAL/MOL
REMARK 924 INTRA-LIGAND FREE ENERGY PREDICTED BY IDOCK:   -0.81 KCAL/MOL
REMARK 927      BINDING AFFINITY PREDICTED BY RF-SCORE:    0.00 PKD
ROOT
HETATM    1  O   UNL     1     -10.041  12.597  69.306  1.00  0.00    -0.358 OA 
HETATM    2  C   UNL     1     -10.215  11.366  68.582  1.00  0.00    -0.208 C  
HETATM    3  H   UNL     1     -10.890  13.019  69.370  1.00  0.00     0.000 HD 
HETATM    4  C   UNL     1      -8.838  10.683  68.478  1.00  0.00    -0.148 C  
HETATM    5  C   UNL     1     -11.226  10.499  69.361  1.00  0.00    -0.327 C  
HETATM    6  C   UNL     1      -8.375  10.131  69.828  1.00  0.00    -0.137 C  
HETATM    7  C   UNL     1     -10.633   9.937  70.656  1.00  0.00    -0.271 C  
HETATM    8  N   UNL     1      -9.353   9.238  70.466  1.00  0.00    -0.246 NA 
ENDROOT
BRANCH   2   9
HETATM    9  C   UNL     1     -10.769  11.706  67.191  1.00  0.00    -0.288 A  
HETATM   10  C   UNL     1     -10.339  11.012  66.045  1.00  0.00    -0.311 A  
HETATM   11  C   UNL     1     -11.706  12.743  67.014  1.00  0.00    -0.440 A  
HETATM   12  C   UNL     1     -11.719  12.388  64.625  1.00  0.00    -0.365 A  
HETATM   13  C   UNL     1     -10.808  11.350  64.773  1.00  0.00    -0.339 A  
HETATM   14 CL   UNL     1     -12.278  12.822  63.056  1.00  0.00    -0.318 Cl 
HETATM   15  C   UNL     1     -12.176  13.083  65.741  1.00  0.00    -0.511 A  
ENDBRANCH   2   9
BRANCH   8  16
HETATM   16  C   UNL     1      -9.537   7.953  69.768  1.00  0.00    -0.167 C  
BRANCH  16  17
HETATM   17  C   UNL     1     -10.909   7.308  69.984  1.00  0.00    -0.271 C  
BRANCH  17  18
HETATM   18  C   UNL     1     -11.203   6.201  68.971  1.00  0.00    -0.375 C  
BRANCH  18  19
HETATM   19  C   UNL     1     -10.742   6.587  67.580  1.00  0.00    -0.307 C  
HETATM   20  O   UNL     1     -11.019   7.666  67.061  1.00  0.00    -0.277 OA 
BRANCH  19  21
HETATM   21  C   UNL     1      -9.962   5.593  66.799  1.00  0.00    -0.207 A  
HETATM   22  C   UNL     1      -8.560   5.647  66.869  1.00  0.00    -0.110 A  
HETATM   23  C   UNL     1      -7.784   4.750  66.136  1.00  0.00    -0.091 A  
HETATM   24  C   UNL     1      -8.410   3.792  65.347  1.00  0.00    -0.105 A  
HETATM   25  F   UNL     1      -7.665   2.930  64.644  1.00  0.00    -0.072 F  
HETATM   26  C   UNL     1      -9.796   3.713  65.277  1.00  0.00    -0.106 A  
HETATM   27  C   UNL     1     -10.579   4.615  66.002  1.00  0.00    -0.244 A  
ENDBRANCH  19  21
ENDBRANCH  18  19
ENDBRANCH  17  18
ENDBRANCH  16  17
ENDBRANCH   8  16
TORSDOF 6
ENDMDL
MODEL      156
REMARK 921   NORMALIZED FREE ENERGY PREDICTED BY IDOCK:   -4.50 KCAL/MOL
REMARK 922        TOTAL FREE ENERGY PREDICTED BY IDOCK:   -7.39 KCAL/MOL
REMARK 923 INTER-LIGAND FREE ENERGY PREDICTED BY IDOCK:   -4.54 KCAL/MOL
REMARK 924 INTRA-LIGAND FREE ENERGY PREDICTED BY IDOCK:   -2.85 KCAL/MOL
REMARK 927      BINDING AFFINITY PREDICTED BY RF-SCORE:    0.00 PKD
ROOT
HETATM    1  O   UNL     1     -12.202   6.234  71.225  1.00  0.00    -0.191 OA 
HETATM    2  C   UNL     1     -10.830   6.480  70.869  1.00  0.00    -0.253 C  
HETATM    3  H   UNL     1     -12.337   5.294  71.231  1.00  0.00     0.000 HD 
HETATM    4  C   UNL     1     -10.612   8.005  70.860  1.00  0.00    -0.233 C  
HETATM    5  C   UNL     1      -9.938   5.781  71.916  1.00  0.00    -0.214 C  
HETATM    6  C   UNL     1     -10.625   8.588  72.275  1.00  0.00    -0.338 C  
HETATM    7  C   UNL     1      -9.967   6.491  73.272  1.00  0.00    -0.185 C  
HETATM    8  N   UNL     1      -9.681   7.932  73.191  1.00  0.00    -0.280 NA 
ENDROOT
BRANCH   2   9
HETATM    9  C   UNL     1     -10.585   5.879  69.478  1.00  0.00    -0.378 A  
HETATM   10  C   UNL     1      -9.909   4.655  69.320  1.00  0.00    -0.260 A  
HETATM   11  C   UNL     1     -11.005   6.548  68.312  1.00  0.00    -0.362 A  
HETATM   12  C   UNL     1     -10.057   4.818  66.919  1.00  0.00    -0.210 A  
HETATM   13  C   UNL     1      -9.645   4.128  68.053  1.00  0.00    -0.200 A  
HETATM   14 CL   UNL     1      -9.710   4.183  65.357  1.00  0.00    -0.187 Cl 
HETATM   15  C   UNL     1     -10.742   6.023  67.042  1.00  0.00    -0.412 A  
ENDBRANCH   2   9
BRANCH   8  16
HETATM   16  C   UNL     1      -8.264   8.185  72.874  1.00  0.00    -0.175 C  
BRANCH  16  17
HETATM   17  C   UNL     1      -7.327   7.016  73.195  1.00  0.00    -0.074 C  
BRANCH  17  18
HETATM   18  C   UNL     1      -6.166   6.907  72.207  1.00  0.00    -0.045 C  
BRANCH  18  19
HETATM   19  C   UNL     1      -6.424   5.836  71.166  1.00  0.00    -0.040 C  
HETATM   20  O   UNL     1      -6.383   4.634  71.422  1.00  0.00    -0.018 OA 
BRANCH  19  21
HETATM   21  C   UNL     1      -6.689   6.265  69.769  1.00  0.00    -0.056 A  
HETATM   22  C   UNL     1      -6.266   5.426  68.726  1.00  0.00    -0.033 A  
HETATM   23  C   UNL     1      -6.473   5.796  67.397  1.00  0.00    -0.044 A  
HETATM   24  C   UNL     1      -7.114   6.996  67.115  1.00  0.00    -0.083 A  
HETATM   25  F   UNL     1      -7.313   7.352  65.840  1.00  0.00    -0.068 F  
HETATM   26  C   UNL     1      -7.553   7.833  68.134  1.00  0.00    -0.116 A  
HETATM   27  C   UNL     1      -7.341   7.472  69.467  1.00  0.00    -0.084 A  
ENDBRANCH  19  21
ENDBRANCH  18  19
ENDBRANCH  17  18
ENDBRANCH  16  17
ENDBRANCH   8  16
TORSDOF 6
ENDMDL
MODEL      157
REMARK 921   NORMALIZED FREE ENERGY PREDICTED BY IDOCK:   -4.49 KCAL/MOL
REMARK 922        TOTAL FREE ENERGY PREDICTED BY IDOCK:   -7.38 KCAL/MOL
REMARK 923 INTER-LIGAND FREE ENERGY PREDICTED BY IDOCK:   -5.91 KCAL/MOL
REMARK 924 INTRA-LIGAND FREE ENERGY PREDICTED BY IDOCK:   -1.46 KCAL/MOL
REMARK 927      BINDING AFFINITY PREDICTED BY RF-SCORE:    0.00 PKD
ROOT
HETATM    1  O   UNL     1      -7.598  13.040  68.713  1.00  0.00    -0.220 OA 
HETATM    2  C   UNL     1      -8.021  14.333  68.245  1.00  0.00    -0.140 C  
HETATM    3  H   UNL     1      -7.459  12.488  67.953  1.00  0.00     0.000 HD 
HETATM    4  C   UNL     1      -8.247  15.229  69.478  1.00  0.00    -0.188 C  
HETATM    5  C   UNL     1      -6.911  14.891  67.329  1.00  0.00    -0.052 C  
HETATM    6  C   UNL     1      -6.927  15.611  70.150  1.00  0.00     0.186 C  
HETATM    7  C   UNL     1      -5.667  15.312  68.114  1.00  0.00    -0.134 C  
HETATM    8  N   UNL     1      -5.954  16.223  69.233  1.00  0.00    -0.137 NA 
ENDROOT
BRANCH   2   9
HETATM    9  C   UNL     1      -9.322  14.149  67.451  1.00  0.00    -0.215 A  
HETATM   10  C   UNL     1     -10.441  13.514  68.021  1.00  0.00    -0.245 A  
HETATM   11  C   UNL     1      -9.428  14.586  66.116  1.00  0.00    -0.290 A  
HETATM   12  C   UNL     1     -11.682  13.732  65.965  1.00  0.00    -0.363 A  
HETATM   13  C   UNL     1     -11.611  13.305  67.285  1.00  0.00    -0.404 A  
HETATM   14 CL   UNL     1     -13.113  13.452  65.050  1.00  0.00    -0.216 Cl 
HETATM   15  C   UNL     1     -10.598  14.378  65.377  1.00  0.00    -0.380 A  
ENDBRANCH   2   9
BRANCH   8  16
HETATM   16  C   UNL     1      -6.340  17.562  68.755  1.00  0.00    -0.197 C  
BRANCH  16  17
HETATM   17  C   UNL     1      -5.167  18.430  68.292  1.00  0.00    -0.168 C  
BRANCH  17  18
HETATM   18  C   UNL     1      -5.486  19.221  67.023  1.00  0.00    -0.164 C  
BRANCH  18  19
HETATM   19  C   UNL     1      -6.560  18.539  66.201  1.00  0.00    -0.232 C  
HETATM   20  O   UNL     1      -6.305  17.759  65.285  1.00  0.00    -0.097 OA 
BRANCH  19  21
HETATM   21  C   UNL     1      -7.980  18.867  66.489  1.00  0.00    -0.289 A  
HETATM   22  C   UNL     1      -8.268  20.117  67.059  1.00  0.00    -0.374 A  
HETATM   23  C   UNL     1      -9.584  20.463  67.370  1.00  0.00    -0.584 A  
HETATM   24  C   UNL     1     -10.608  19.564  67.096  1.00  0.00    -0.487 A  
HETATM   25  F   UNL     1     -11.870  19.895  67.393  1.00  0.00     0.083 F  
HETATM   26  C   UNL     1     -10.343  18.328  66.518  1.00  0.00    -0.410 A  
HETATM   27  C   UNL     1      -9.027  17.973  66.213  1.00  0.00    -0.194 A  
ENDBRANCH  19  21
ENDBRANCH  18  19
ENDBRANCH  17  18
ENDBRANCH  16  17
ENDBRANCH   8  16
TORSDOF 6
ENDMDL
MODEL      158
REMARK 921   NORMALIZED FREE ENERGY PREDICTED BY IDOCK:   -4.49 KCAL/MOL
REMARK 922        TOTAL FREE ENERGY PREDICTED BY IDOCK:   -7.37 KCAL/MOL
REMARK 923 INTER-LIGAND FREE ENERGY PREDICTED BY IDOCK:   -5.76 KCAL/MOL
REMARK 924 INTRA-LIGAND FREE ENERGY PREDICTED BY IDOCK:   -1.61 KCAL/MOL
REMARK 927      BINDING AFFINITY PREDICTED BY RF-SCORE:    0.00 PKD
ROOT
HETATM    1  O   UNL     1     -12.615  11.470  64.448  1.00  0.00     0.010 OA 
HETATM    2  C   UNL     1     -11.328  11.995  64.820  1.00  0.00    -0.313 C  
HETATM    3  H   UNL     1     -12.870  10.832  65.105  1.00  0.00     0.000 HD 
HETATM    4  C   UNL     1     -10.916  13.028  63.755  1.00  0.00    -0.316 C  
HETATM    5  C   UNL     1     -11.466  12.637  66.216  1.00  0.00    -0.415 C  
HETATM    6  C   UNL     1     -11.757  14.303  63.845  1.00  0.00    -0.031 C  
HETATM    7  C   UNL     1     -12.260  13.945  66.178  1.00  0.00    -0.464 C  
HETATM    8  N   UNL     1     -11.763  14.910  65.184  1.00  0.00    -0.329 NA 
ENDROOT
BRANCH   2   9
HETATM    9  C   UNL     1     -10.334  10.826  64.870  1.00  0.00    -0.369 A  
HETATM   10  C   UNL     1      -9.538  10.497  63.757  1.00  0.00    -0.363 A  
HETATM   11  C   UNL     1     -10.206  10.028  66.023  1.00  0.00    -0.277 A  
HETATM   12  C   UNL     1      -8.572   8.625  64.930  1.00  0.00    -0.135 A  
HETATM   13  C   UNL     1      -8.666   9.406  63.784  1.00  0.00    -0.223 A  
HETATM   14 CL   UNL     1      -7.516   7.266  64.957  1.00  0.00    -0.083 Cl 
HETATM   15  C   UNL     1      -9.333   8.935  66.053  1.00  0.00    -0.306 A  
ENDBRANCH   2   9
BRANCH   8  16
HETATM   16  C   UNL     1     -10.468  15.485  65.589  1.00  0.00    -0.374 C  
BRANCH  16  17
HETATM   17  C   UNL     1     -10.562  16.532  66.703  1.00  0.00    -0.216 C  
BRANCH  17  18
HETATM   18  C   UNL     1      -9.229  16.748  67.419  1.00  0.00    -0.220 C  
BRANCH  18  19
HETATM   19  C   UNL     1      -9.017  15.725  68.516  1.00  0.00    -0.194 C  
HETATM   20  O   UNL     1      -9.581  15.789  69.606  1.00  0.00    -0.280 OA 
BRANCH  19  21
HETATM   21  C   UNL     1      -8.047  14.627  68.273  1.00  0.00    -0.143 A  
HETATM   22  C   UNL     1      -8.527  13.308  68.267  1.00  0.00    -0.160 A  
HETATM   23  C   UNL     1      -7.651  12.240  68.066  1.00  0.00    -0.126 A  
HETATM   24  C   UNL     1      -6.301  12.496  67.857  1.00  0.00    -0.103 A  
HETATM   25  F   UNL     1      -5.461  11.473  67.663  1.00  0.00    -0.043 F  
HETATM   26  C   UNL     1      -5.810  13.796  67.844  1.00  0.00    -0.135 A  
HETATM   27  C   UNL     1      -6.681  14.868  68.054  1.00  0.00    -0.152 A  
ENDBRANCH  19  21
ENDBRANCH  18  19
ENDBRANCH  17  18
ENDBRANCH  16  17
ENDBRANCH   8  16
TORSDOF 6
ENDMDL
MODEL      159
REMARK 921   NORMALIZED FREE ENERGY PREDICTED BY IDOCK:   -4.48 KCAL/MOL
REMARK 922        TOTAL FREE ENERGY PREDICTED BY IDOCK:   -7.36 KCAL/MOL
REMARK 923 INTER-LIGAND FREE ENERGY PREDICTED BY IDOCK:   -5.65 KCAL/MOL
REMARK 924 INTRA-LIGAND FREE ENERGY PREDICTED BY IDOCK:   -1.71 KCAL/MOL
REMARK 927      BINDING AFFINITY PREDICTED BY RF-SCORE:    0.00 PKD
ROOT
HETATM    1  O   UNL     1     -10.725   4.371  72.324  1.00  0.00    -0.124 OA 
HETATM    2  C   UNL     1     -10.062   5.500  71.727  1.00  0.00    -0.196 C  
HETATM    3  H   UNL     1     -10.275   3.585  72.037  1.00  0.00     0.000 HD 
HETATM    4  C   UNL     1     -10.792   6.774  72.193  1.00  0.00    -0.257 C  
HETATM    5  C   UNL     1      -8.591   5.483  72.190  1.00  0.00    -0.126 C  
HETATM    6  C   UNL     1     -10.533   7.068  73.672  1.00  0.00    -0.376 C  
HETATM    7  C   UNL     1      -8.441   5.865  73.664  1.00  0.00    -0.119 C  
HETATM    8  N   UNL     1      -9.105   7.129  74.018  1.00  0.00    -0.205 NA 
ENDROOT
BRANCH   2   9
HETATM    9  C   UNL     1     -10.141   5.346  70.202  1.00  0.00    -0.322 A  
HETATM   10  C   UNL     1     -10.921   6.218  69.419  1.00  0.00    -0.440 A  
HETATM   11  C   UNL     1      -9.455   4.309  69.539  1.00  0.00    -0.257 A  
HETATM   12  C   UNL     1     -10.356   5.010  67.410  1.00  0.00    -0.112 A  
HETATM   13  C   UNL     1     -11.029   6.051  68.036  1.00  0.00    -0.340 A  
HETATM   14 CL   UNL     1     -10.509   4.789  65.710  1.00  0.00    -0.296 Cl 
HETATM   15  C   UNL     1      -9.563   4.141  68.154  1.00  0.00    -0.195 A  
ENDBRANCH   2   9
BRANCH   8  16
HETATM   16  C   UNL     1      -8.398   8.290  73.448  1.00  0.00    -0.185 C  
BRANCH  16  17
HETATM   17  C   UNL     1      -7.262   7.927  72.488  1.00  0.00    -0.103 C  
BRANCH  17  18
HETATM   18  C   UNL     1      -7.115   8.934  71.346  1.00  0.00    -0.096 C  
BRANCH  18  19
HETATM   19  C   UNL     1      -7.750   8.421  70.070  1.00  0.00    -0.090 C  
HETATM   20  O   UNL     1      -7.324   7.443  69.460  1.00  0.00    -0.080 OA 
BRANCH  19  21
HETATM   21  C   UNL     1      -8.907   9.167  69.514  1.00  0.00    -0.149 A  
HETATM   22  C   UNL     1      -9.803   9.769  70.413  1.00  0.00    -0.269 A  
HETATM   23  C   UNL     1     -10.918  10.461  69.939  1.00  0.00    -0.364 A  
HETATM   24  C   UNL     1     -11.126  10.563  68.569  1.00  0.00    -0.275 A  
HETATM   25  F   UNL     1     -12.195  11.227  68.114  1.00  0.00    -0.297 F  
HETATM   26  C   UNL     1     -10.242   9.987  67.663  1.00  0.00    -0.249 A  
HETATM   27  C   UNL     1      -9.129   9.285  68.132  1.00  0.00    -0.130 A  
ENDBRANCH  19  21
ENDBRANCH  18  19
ENDBRANCH  17  18
ENDBRANCH  16  17
ENDBRANCH   8  16
TORSDOF 6
ENDMDL
MODEL      160
REMARK 921   NORMALIZED FREE ENERGY PREDICTED BY IDOCK:   -4.48 KCAL/MOL
REMARK 922        TOTAL FREE ENERGY PREDICTED BY IDOCK:   -7.36 KCAL/MOL
REMARK 923 INTER-LIGAND FREE ENERGY PREDICTED BY IDOCK:   -6.61 KCAL/MOL
REMARK 924 INTRA-LIGAND FREE ENERGY PREDICTED BY IDOCK:   -0.75 KCAL/MOL
REMARK 927      BINDING AFFINITY PREDICTED BY RF-SCORE:    0.00 PKD
ROOT
HETATM    1  O   UNL     1     -11.671   8.160  69.181  1.00  0.00     0.204 OA 
HETATM    2  C   UNL     1     -10.689   9.018  69.789  1.00  0.00    -0.225 C  
HETATM    3  H   UNL     1     -12.288   7.901  69.856  1.00  0.00     0.000 HD 
HETATM    4  C   UNL     1      -9.689   9.437  68.695  1.00  0.00    -0.160 C  
HETATM    5  C   UNL     1     -11.429  10.235  70.384  1.00  0.00    -0.415 C  
HETATM    6  C   UNL     1     -10.315  10.417  67.700  1.00  0.00    -0.219 C  
HETATM    7  C   UNL     1     -11.946  11.186  69.303  1.00  0.00    -0.351 C  
HETATM    8  N   UNL     1     -10.917  11.597  68.335  1.00  0.00    -0.205 NA 
ENDROOT
BRANCH   2   9
HETATM    9  C   UNL     1      -9.990   8.226  70.903  1.00  0.00    -0.223 A  
HETATM   10  C   UNL     1      -9.895   6.823  70.851  1.00  0.00    -0.197 A  
HETATM   11  C   UNL     1      -9.444   8.876  72.026  1.00  0.00    -0.249 A  
HETATM   12  C   UNL     1      -8.783   6.763  72.990  1.00  0.00    -0.119 A  
HETATM   13  C   UNL     1      -9.299   6.096  71.885  1.00  0.00    -0.157 A  
HETATM   14 CL   UNL     1      -8.071   5.867  74.275  1.00  0.00    -0.103 Cl 
HETATM   15  C   UNL     1      -8.847   8.151  73.063  1.00  0.00    -0.316 A  
ENDBRANCH   2   9
BRANCH   8  16
HETATM   16  C   UNL     1      -9.939  12.516  68.945  1.00  0.00     0.098 C  
BRANCH  16  17
HETATM   17  C   UNL     1      -9.152  13.359  67.938  1.00  0.00    -0.208 C  
BRANCH  17  18
HETATM   18  C   UNL     1      -9.410  14.858  68.099  1.00  0.00    -0.193 C  
BRANCH  18  19
HETATM   19  C   UNL     1     -10.424  15.357  67.091  1.00  0.00    -0.290 C  
HETATM   20  O   UNL     1     -10.864  16.505  67.099  1.00  0.00    -0.262 OA 
BRANCH  19  21
HETATM   21  C   UNL     1     -10.938  14.399  66.080  1.00  0.00    -0.316 A  
HETATM   22  C   UNL     1     -12.253  13.928  66.221  1.00  0.00    -0.498 A  
HETATM   23  C   UNL     1     -12.774  13.009  65.310  1.00  0.00    -0.432 A  
HETATM   24  C   UNL     1     -11.984  12.575  64.252  1.00  0.00    -0.408 A  
HETATM   25  F   UNL     1     -12.484  11.694  63.377  1.00  0.00    -0.613 F  
HETATM   26  C   UNL     1     -10.686  13.042  64.087  1.00  0.00    -0.429 A  
HETATM   27  C   UNL     1     -10.156  13.955  65.001  1.00  0.00    -0.319 A  
ENDBRANCH  19  21
ENDBRANCH  18  19
ENDBRANCH  17  18
ENDBRANCH  16  17
ENDBRANCH   8  16
TORSDOF 6
ENDMDL
MODEL      161
REMARK 921   NORMALIZED FREE ENERGY PREDICTED BY IDOCK:   -4.45 KCAL/MOL
REMARK 922        TOTAL FREE ENERGY PREDICTED BY IDOCK:   -7.32 KCAL/MOL
REMARK 923 INTER-LIGAND FREE ENERGY PREDICTED BY IDOCK:   -6.53 KCAL/MOL
REMARK 924 INTRA-LIGAND FREE ENERGY PREDICTED BY IDOCK:   -0.79 KCAL/MOL
REMARK 927      BINDING AFFINITY PREDICTED BY RF-SCORE:    0.00 PKD
ROOT
HETATM    1  O   UNL     1     -12.390  15.904  68.221  1.00  0.00    -0.227 OA 
HETATM    2  C   UNL     1     -11.160  15.297  67.784  1.00  0.00    -0.318 C  
HETATM    3  H   UNL     1     -12.628  16.567  67.584  1.00  0.00     0.000 HD 
HETATM    4  C   UNL     1     -10.774  14.221  68.817  1.00  0.00    -0.262 C  
HETATM    5  C   UNL     1     -11.405  14.687  66.388  1.00  0.00    -0.348 C  
HETATM    6  C   UNL     1     -11.705  13.009  68.749  1.00  0.00    -0.324 C  
HETATM    7  C   UNL     1     -12.285  13.437  66.446  1.00  0.00    -0.376 C  
HETATM    8  N   UNL     1     -11.813  12.425  67.404  1.00  0.00    -0.505 NA 
ENDROOT
BRANCH   2   9
HETATM    9  C   UNL     1     -10.091  16.395  67.704  1.00  0.00    -0.263 A  
HETATM   10  C   UNL     1     -10.435  17.731  67.425  1.00  0.00    -0.367 A  
HETATM   11  C   UNL     1      -8.726  16.096  67.881  1.00  0.00    -0.174 A  
HETATM   12  C   UNL     1      -8.118  18.397  67.469  1.00  0.00    -0.247 A  
HETATM   13  C   UNL     1      -9.459  18.723  67.306  1.00  0.00    -0.326 A  
HETATM   14 CL   UNL     1      -6.913  19.614  67.299  1.00  0.00    -0.228 Cl 
HETATM   15  C   UNL     1      -7.746  17.088  67.762  1.00  0.00    -0.181 A  
ENDBRANCH   2   9
BRANCH   8  16
HETATM   16  C   UNL     1     -10.580  11.768  66.934  1.00  0.00    -0.235 C  
BRANCH  16  17
HETATM   17  C   UNL     1     -10.043  10.686  67.874  1.00  0.00    -0.194 C  
BRANCH  17  18
HETATM   18  C   UNL     1     -10.980   9.483  67.980  1.00  0.00    -0.155 C  
BRANCH  18  19
HETATM   19  C   UNL     1     -10.300   8.308  68.654  1.00  0.00    -0.200 C  
HETATM   20  O   UNL     1     -10.054   8.281  69.858  1.00  0.00    -0.188 OA 
BRANCH  19  21
HETATM   21  C   UNL     1      -9.874   7.164  67.808  1.00  0.00    -0.175 A  
HETATM   22  C   UNL     1     -10.835   6.200  67.463  1.00  0.00    -0.422 A  
HETATM   23  C   UNL     1     -10.478   5.096  66.689  1.00  0.00    -0.328 A  
HETATM   24  C   UNL     1      -9.166   4.966  66.250  1.00  0.00    -0.142 A  
HETATM   25  F   UNL     1      -8.823   3.907  65.507  1.00  0.00    -0.114 F  
HETATM   26  C   UNL     1      -8.204   5.918  66.569  1.00  0.00    -0.110 A  
HETATM   27  C   UNL     1      -8.554   7.021  67.351  1.00  0.00    -0.121 A  
ENDBRANCH  19  21
ENDBRANCH  18  19
ENDBRANCH  17  18
ENDBRANCH  16  17
ENDBRANCH   8  16
TORSDOF 6
ENDMDL
MODEL      162
REMARK 921   NORMALIZED FREE ENERGY PREDICTED BY IDOCK:   -4.45 KCAL/MOL
REMARK 922        TOTAL FREE ENERGY PREDICTED BY IDOCK:   -7.32 KCAL/MOL
REMARK 923 INTER-LIGAND FREE ENERGY PREDICTED BY IDOCK:   -6.36 KCAL/MOL
REMARK 924 INTRA-LIGAND FREE ENERGY PREDICTED BY IDOCK:   -0.97 KCAL/MOL
REMARK 927      BINDING AFFINITY PREDICTED BY RF-SCORE:    0.00 PKD
ROOT
HETATM    1  O   UNL     1     -12.745  14.415  66.968  1.00  0.00    -0.455 OA 
HETATM    2  C   UNL     1     -11.376  14.227  67.367  1.00  0.00    -0.332 C  
HETATM    3  H   UNL     1     -12.748  14.674  66.053  1.00  0.00     0.000 HD 
HETATM    4  C   UNL     1     -11.373  13.808  68.850  1.00  0.00    -0.328 C  
HETATM    5  C   UNL     1     -10.766  13.135  66.463  1.00  0.00    -0.288 C  
HETATM    6  C   UNL     1     -11.901  12.384  69.038  1.00  0.00    -0.300 C  
HETATM    7  C   UNL     1     -11.308  11.741  66.789  1.00  0.00    -0.320 C  
HETATM    8  N   UNL     1     -11.207  11.385  68.212  1.00  0.00    -0.239 NA 
ENDROOT
BRANCH   2   9
HETATM    9  C   UNL     1     -10.635  15.556  67.168  1.00  0.00    -0.300 A  
HETATM   10  C   UNL     1      -9.582  15.673  66.242  1.00  0.00    -0.337 A  
HETATM   11  C   UNL     1     -10.968  16.696  67.925  1.00  0.00    -0.276 A  
HETATM   12  C   UNL     1      -9.215  17.974  66.863  1.00  0.00    -0.269 A  
HETATM   13  C   UNL     1      -8.876  16.869  66.091  1.00  0.00    -0.279 A  
HETATM   14 CL   UNL     1      -8.330  19.440  66.696  1.00  0.00    -0.307 Cl 
HETATM   15  C   UNL     1     -10.262  17.895  67.776  1.00  0.00    -0.372 A  
ENDBRANCH   2   9
BRANCH   8  16
HETATM   16  C   UNL     1      -9.809  11.143  68.611  1.00  0.00    -0.202 C  
BRANCH  16  17
HETATM   17  C   UNL     1      -9.615   9.937  69.535  1.00  0.00    -0.242 C  
BRANCH  17  18
HETATM   18  C   UNL     1     -10.681   8.862  69.327  1.00  0.00    -0.177 C  
BRANCH  18  19
HETATM   19  C   UNL     1     -10.307   7.921  68.199  1.00  0.00    -0.200 C  
HETATM   20  O   UNL     1     -10.499   8.189  67.015  1.00  0.00    -0.312 OA 
BRANCH  19  21
HETATM   21  C   UNL     1      -9.725   6.600  68.552  1.00  0.00    -0.131 A  
HETATM   22  C   UNL     1      -9.249   5.787  67.511  1.00  0.00    -0.108 A  
HETATM   23  C   UNL     1      -8.715   4.529  67.789  1.00  0.00    -0.112 A  
HETATM   24  C   UNL     1      -8.646   4.093  69.108  1.00  0.00    -0.082 A  
HETATM   25  F   UNL     1      -8.133   2.886  69.375  1.00  0.00    -0.049 F  
HETATM   26  C   UNL     1      -9.098   4.891  70.152  1.00  0.00    -0.157 A  
HETATM   27  C   UNL     1      -9.642   6.148  69.879  1.00  0.00    -0.183 A  
ENDBRANCH  19  21
ENDBRANCH  18  19
ENDBRANCH  17  18
ENDBRANCH  16  17
ENDBRANCH   8  16
TORSDOF 6
ENDMDL
MODEL      163
REMARK 921   NORMALIZED FREE ENERGY PREDICTED BY IDOCK:   -4.45 KCAL/MOL
REMARK 922        TOTAL FREE ENERGY PREDICTED BY IDOCK:   -7.32 KCAL/MOL
REMARK 923 INTER-LIGAND FREE ENERGY PREDICTED BY IDOCK:   -6.38 KCAL/MOL
REMARK 924 INTRA-LIGAND FREE ENERGY PREDICTED BY IDOCK:   -0.94 KCAL/MOL
REMARK 927      BINDING AFFINITY PREDICTED BY RF-SCORE:    0.00 PKD
ROOT
HETATM    1  O   UNL     1     -12.618  12.727  65.674  1.00  0.00    -0.596 OA 
HETATM    2  C   UNL     1     -11.207  12.910  65.889  1.00  0.00    -0.293 C  
HETATM    3  H   UNL     1     -12.888  13.331  64.992  1.00  0.00     0.000 HD 
HETATM    4  C   UNL     1     -10.770  11.931  66.994  1.00  0.00    -0.280 C  
HETATM    5  C   UNL     1     -10.486  12.625  64.555  1.00  0.00    -0.379 C  
HETATM    6  C   UNL     1     -10.776  10.481  66.504  1.00  0.00    -0.121 C  
HETATM    7  C   UNL     1     -10.486  11.137  64.200  1.00  0.00    -0.377 C  
HETATM    8  N   UNL     1      -9.989  10.271  65.280  1.00  0.00    -0.310 NA 
ENDROOT
BRANCH   2   9
HETATM    9  C   UNL     1     -10.976  14.366  66.317  1.00  0.00    -0.318 A  
HETATM   10  C   UNL     1     -11.196  14.779  67.645  1.00  0.00    -0.332 A  
HETATM   11  C   UNL     1     -10.562  15.341  65.389  1.00  0.00    -0.413 A  
HETATM   12  C   UNL     1     -10.637  17.058  67.086  1.00  0.00    -0.245 A  
HETATM   13  C   UNL     1     -11.030  16.113  68.027  1.00  0.00    -0.338 A  
HETATM   14 CL   UNL     1     -10.456  18.705  67.551  1.00  0.00    -0.445 Cl 
HETATM   15  C   UNL     1     -10.395  16.677  65.770  1.00  0.00    -0.338 A  
ENDBRANCH   2   9
BRANCH   8  16
HETATM   16  C   UNL     1      -8.535  10.421  65.468  1.00  0.00    -0.167 C  
BRANCH  16  17
HETATM   17  C   UNL     1      -7.684   9.682  64.431  1.00  0.00    -0.128 C  
BRANCH  17  18
HETATM   18  C   UNL     1      -8.119   8.228  64.245  1.00  0.00    -0.147 C  
BRANCH  18  19
HETATM   19  C   UNL     1      -7.255   7.283  65.056  1.00  0.00    -0.070 C  
HETATM   20  O   UNL     1      -6.033   7.397  65.133  1.00  0.00    -0.037 OA 
BRANCH  19  21
HETATM   21  C   UNL     1      -7.916   6.146  65.746  1.00  0.00    -0.115 A  
HETATM   22  C   UNL     1      -9.268   6.280  66.100  1.00  0.00    -0.143 A  
HETATM   23  C   UNL     1      -9.926   5.248  66.769  1.00  0.00    -0.224 A  
HETATM   24  C   UNL     1      -9.235   4.080  67.070  1.00  0.00    -0.168 A  
HETATM   25  F   UNL     1      -9.866   3.089  67.711  1.00  0.00    -0.230 F  
HETATM   26  C   UNL     1      -7.900   3.923  66.714  1.00  0.00    -0.089 A  
HETATM   27  C   UNL     1      -7.234   4.957  66.051  1.00  0.00    -0.076 A  
ENDBRANCH  19  21
ENDBRANCH  18  19
ENDBRANCH  17  18
ENDBRANCH  16  17
ENDBRANCH   8  16
TORSDOF 6
ENDMDL
MODEL      164
REMARK 921   NORMALIZED FREE ENERGY PREDICTED BY IDOCK:   -4.44 KCAL/MOL
REMARK 922        TOTAL FREE ENERGY PREDICTED BY IDOCK:   -7.31 KCAL/MOL
REMARK 923 INTER-LIGAND FREE ENERGY PREDICTED BY IDOCK:   -5.86 KCAL/MOL
REMARK 924 INTRA-LIGAND FREE ENERGY PREDICTED BY IDOCK:   -1.45 KCAL/MOL
REMARK 927      BINDING AFFINITY PREDICTED BY RF-SCORE:    0.00 PKD
ROOT
HETATM    1  O   UNL     1      -7.365  16.031  66.311  1.00  0.00    -0.092 OA 
HETATM    2  C   UNL     1      -7.938  15.597  67.558  1.00  0.00    -0.162 C  
HETATM    3  H   UNL     1      -7.503  15.342  65.672  1.00  0.00     0.000 HD 
HETATM    4  C   UNL     1      -7.713  16.715  68.593  1.00  0.00    -0.224 C  
HETATM    5  C   UNL     1      -9.439  15.331  67.320  1.00  0.00    -0.212 C  
HETATM    6  C   UNL     1      -8.591  17.935  68.310  1.00  0.00    -0.275 C  
HETATM    7  C   UNL     1     -10.234  16.624  67.125  1.00  0.00    -0.290 C  
HETATM    8  N   UNL     1     -10.021  17.616  68.190  1.00  0.00    -0.311 NA 
ENDROOT
BRANCH   2   9
HETATM    9  C   UNL     1      -7.230  14.302  67.981  1.00  0.00    -0.146 A  
HETATM   10  C   UNL     1      -7.938  13.093  68.113  1.00  0.00    -0.154 A  
HETATM   11  C   UNL     1      -5.853  14.288  68.277  1.00  0.00    -0.117 A  
HETATM   12  C   UNL     1      -5.948  11.942  68.843  1.00  0.00    -0.055 A  
HETATM   13  C   UNL     1      -7.305  11.923  68.541  1.00  0.00    -0.111 A  
HETATM   14 CL   UNL     1      -5.173  10.508  69.394  1.00  0.00    -0.038 Cl 
HETATM   15  C   UNL     1      -5.217  13.118  68.707  1.00  0.00    -0.069 A  
ENDBRANCH   2   9
BRANCH   8  16
HETATM   16  C   UNL     1     -10.650  17.194  69.455  1.00  0.00    -0.161 C  
BRANCH  16  17
HETATM   17  C   UNL     1     -11.524  15.942  69.339  1.00  0.00    -0.351 C  
BRANCH  17  18
HETATM   18  C   UNL     1     -11.127  14.855  70.338  1.00  0.00    -0.212 C  
BRANCH  18  19
HETATM   19  C   UNL     1     -12.027  13.641  70.222  1.00  0.00    -0.327 C  
HETATM   20  O   UNL     1     -13.007  13.466  70.944  1.00  0.00    -0.230 OA 
BRANCH  19  21
HETATM   21  C   UNL     1     -11.675  12.600  69.223  1.00  0.00    -0.379 A  
HETATM   22  C   UNL     1     -11.263  11.343  69.693  1.00  0.00    -0.301 A  
HETATM   23  C   UNL     1     -10.900  10.340  68.794  1.00  0.00    -0.265 A  
HETATM   24  C   UNL     1     -10.966  10.591  67.428  1.00  0.00    -0.288 A  
HETATM   25  F   UNL     1     -10.619   9.629  66.565  1.00  0.00    -0.296 F  
HETATM   26  C   UNL     1     -11.387  11.824  66.945  1.00  0.00    -0.386 A  
HETATM   27  C   UNL     1     -11.742  12.836  67.840  1.00  0.00    -0.408 A  
ENDBRANCH  19  21
ENDBRANCH  18  19
ENDBRANCH  17  18
ENDBRANCH  16  17
ENDBRANCH   8  16
TORSDOF 6
ENDMDL
MODEL      165
REMARK 921   NORMALIZED FREE ENERGY PREDICTED BY IDOCK:   -4.44 KCAL/MOL
REMARK 922        TOTAL FREE ENERGY PREDICTED BY IDOCK:   -7.31 KCAL/MOL
REMARK 923 INTER-LIGAND FREE ENERGY PREDICTED BY IDOCK:   -6.53 KCAL/MOL
REMARK 924 INTRA-LIGAND FREE ENERGY PREDICTED BY IDOCK:   -0.78 KCAL/MOL
REMARK 927      BINDING AFFINITY PREDICTED BY RF-SCORE:    0.00 PKD
ROOT
HETATM    1  O   UNL     1     -11.873  12.349  66.488  1.00  0.00    -0.491 OA 
HETATM    2  C   UNL     1     -10.787  12.381  67.431  1.00  0.00    -0.238 C  
HETATM    3  H   UNL     1     -12.502  11.704  66.792  1.00  0.00     0.000 HD 
HETATM    4  C   UNL     1      -9.768  13.426  66.938  1.00  0.00    -0.253 C  
HETATM    5  C   UNL     1     -11.370  12.758  68.809  1.00  0.00    -0.332 C  
HETATM    6  C   UNL     1     -10.296  14.853  67.095  1.00  0.00    -0.260 C  
HETATM    7  C   UNL     1     -11.795  14.226  68.879  1.00  0.00    -0.336 C  
HETATM    8  N   UNL     1     -10.746  15.167  68.459  1.00  0.00    -0.234 NA 
ENDROOT
BRANCH   2   9
HETATM    9  C   UNL     1     -10.161  10.981  67.484  1.00  0.00    -0.208 A  
HETATM   10  C   UNL     1      -8.764  10.806  67.492  1.00  0.00    -0.125 A  
HETATM   11  C   UNL     1     -10.964   9.824  67.499  1.00  0.00    -0.205 A  
HETATM   12  C   UNL     1      -9.009   8.407  67.492  1.00  0.00    -0.135 A  
HETATM   13  C   UNL     1      -8.192   9.531  67.495  1.00  0.00    -0.121 A  
HETATM   14 CL   UNL     1      -8.305   6.836  67.470  1.00  0.00    -0.122 Cl 
HETATM   15  C   UNL     1     -10.393   8.546  67.501  1.00  0.00    -0.334 A  
ENDBRANCH   2   9
BRANCH   8  16
HETATM   16  C   UNL     1      -9.656  15.238  69.449  1.00  0.00    -0.244 C  
BRANCH  16  17
HETATM   17  C   UNL     1      -8.251  15.264  68.840  1.00  0.00    -0.186 C  
BRANCH  17  18
HETATM   18  C   UNL     1      -7.330  16.270  69.532  1.00  0.00    -0.078 C  
BRANCH  18  19
HETATM   19  C   UNL     1      -7.055  17.469  68.647  1.00  0.00    -0.243 C  
HETATM   20  O   UNL     1      -5.919  17.864  68.393  1.00  0.00    -0.169 OA 
BRANCH  19  21
HETATM   21  C   UNL     1      -8.215  18.222  68.106  1.00  0.00    -0.295 A  
HETATM   22  C   UNL     1      -8.428  18.203  66.718  1.00  0.00    -0.273 A  
HETATM   23  C   UNL     1      -9.491  18.914  66.159  1.00  0.00    -0.235 A  
HETATM   24  C   UNL     1     -10.346  19.629  66.991  1.00  0.00    -0.460 A  
HETATM   25  F   UNL     1     -11.366  20.310  66.455  1.00  0.00    -0.116 F  
HETATM   26  C   UNL     1     -10.159  19.646  68.368  1.00  0.00    -0.557 A  
HETATM   27  C   UNL     1      -9.092  18.944  68.932  1.00  0.00    -0.278 A  
ENDBRANCH  19  21
ENDBRANCH  18  19
ENDBRANCH  17  18
ENDBRANCH  16  17
ENDBRANCH   8  16
TORSDOF 6
ENDMDL
MODEL      166
REMARK 921   NORMALIZED FREE ENERGY PREDICTED BY IDOCK:   -4.43 KCAL/MOL
REMARK 922        TOTAL FREE ENERGY PREDICTED BY IDOCK:   -7.30 KCAL/MOL
REMARK 923 INTER-LIGAND FREE ENERGY PREDICTED BY IDOCK:   -4.94 KCAL/MOL
REMARK 924 INTRA-LIGAND FREE ENERGY PREDICTED BY IDOCK:   -2.36 KCAL/MOL
REMARK 927      BINDING AFFINITY PREDICTED BY RF-SCORE:    0.00 PKD
ROOT
HETATM    1  O   UNL     1      -7.253  10.382  70.810  1.00  0.00    -0.421 OA 
HETATM    2  C   UNL     1      -8.131   9.413  70.211  1.00  0.00    -0.164 C  
HETATM    3  H   UNL     1      -7.790  11.005  71.287  1.00  0.00     0.000 HD 
HETATM    4  C   UNL     1      -7.260   8.404  69.438  1.00  0.00    -0.059 C  
HETATM    5  C   UNL     1      -8.925   8.731  71.344  1.00  0.00    -0.307 C  
HETATM    6  C   UNL     1      -6.470   7.496  70.383  1.00  0.00    -0.038 C  
HETATM    7  C   UNL     1      -8.056   7.788  72.178  1.00  0.00    -0.112 C  
HETATM    8  N   UNL     1      -7.308   6.808  71.375  1.00  0.00    -0.081 NA 
ENDROOT
BRANCH   2   9
HETATM    9  C   UNL     1      -9.085  10.156  69.265  1.00  0.00    -0.208 A  
HETATM   10  C   UNL     1      -8.602  11.075  68.316  1.00  0.00    -0.143 A  
HETATM   11  C   UNL     1     -10.478   9.961  69.337  1.00  0.00    -0.250 A  
HETATM   12  C   UNL     1     -10.844  11.587  67.588  1.00  0.00    -0.227 A  
HETATM   13  C   UNL     1      -9.473  11.786  67.485  1.00  0.00    -0.174 A  
HETATM   14 CL   UNL     1     -11.918  12.480  66.583  1.00  0.00    -0.425 Cl 
HETATM   15  C   UNL     1     -11.352  10.672  68.506  1.00  0.00    -0.348 A  
ENDBRANCH   2   9
BRANCH   8  16
HETATM   16  C   UNL     1      -8.201   5.786  70.801  1.00  0.00    -0.123 C  
BRANCH  16  17
HETATM   17  C   UNL     1      -7.509   4.464  70.457  1.00  0.00    -0.049 C  
BRANCH  17  18
HETATM   18  C   UNL     1      -7.529   4.163  68.959  1.00  0.00    -0.055 C  
BRANCH  18  19
HETATM   19  C   UNL     1      -8.921   4.318  68.381  1.00  0.00    -0.115 C  
HETATM   20  O   UNL     1      -9.771   3.433  68.442  1.00  0.00    -0.125 OA 
BRANCH  19  21
HETATM   21  C   UNL     1      -9.249   5.580  67.670  1.00  0.00    -0.112 A  
HETATM   22  C   UNL     1      -8.278   6.133  66.819  1.00  0.00    -0.109 A  
HETATM   23  C   UNL     1      -8.531   7.329  66.147  1.00  0.00    -0.144 A  
HETATM   24  C   UNL     1      -9.757   7.962  66.316  1.00  0.00    -0.100 A  
HETATM   25  F   UNL     1     -10.000   9.108  65.671  1.00  0.00    -0.360 F  
HETATM   26  C   UNL     1     -10.736   7.421  67.142  1.00  0.00    -0.400 A  
HETATM   27  C   UNL     1     -10.485   6.228  67.825  1.00  0.00    -0.289 A  
ENDBRANCH  19  21
ENDBRANCH  18  19
ENDBRANCH  17  18
ENDBRANCH  16  17
ENDBRANCH   8  16
TORSDOF 6
ENDMDL
MODEL      167
REMARK 921   NORMALIZED FREE ENERGY PREDICTED BY IDOCK:   -4.41 KCAL/MOL
REMARK 922        TOTAL FREE ENERGY PREDICTED BY IDOCK:   -7.26 KCAL/MOL
REMARK 923 INTER-LIGAND FREE ENERGY PREDICTED BY IDOCK:   -6.61 KCAL/MOL
REMARK 924 INTRA-LIGAND FREE ENERGY PREDICTED BY IDOCK:   -0.65 KCAL/MOL
REMARK 927      BINDING AFFINITY PREDICTED BY RF-SCORE:    0.00 PKD
ROOT
HETATM    1  O   UNL     1      -9.387   4.390  67.910  1.00  0.00    -0.131 OA 
HETATM    2  C   UNL     1      -9.530   5.581  68.705  1.00  0.00    -0.129 C  
HETATM    3  H   UNL     1     -10.108   3.809  68.125  1.00  0.00     0.000 HD 
HETATM    4  C   UNL     1      -8.361   6.521  68.356  1.00  0.00    -0.117 C  
HETATM    5  C   UNL     1     -10.895   6.215  68.364  1.00  0.00    -0.382 C  
HETATM    6  C   UNL     1      -8.512   7.119  66.955  1.00  0.00    -0.122 C  
HETATM    7  C   UNL     1     -10.910   6.849  66.971  1.00  0.00    -0.366 C  
HETATM    8  N   UNL     1      -9.802   7.788  66.737  1.00  0.00    -0.226 NA 
ENDROOT
BRANCH   2   9
HETATM    9  C   UNL     1      -9.488   5.173  70.184  1.00  0.00    -0.229 A  
HETATM   10  C   UNL     1      -9.043   6.068  71.175  1.00  0.00    -0.153 A  
HETATM   11  C   UNL     1      -9.869   3.881  70.594  1.00  0.00    -0.193 A  
HETATM   12  C   UNL     1      -9.328   4.397  72.891  1.00  0.00    -0.126 A  
HETATM   13  C   UNL     1      -8.962   5.685  72.516  1.00  0.00    -0.133 A  
HETATM   14 CL   UNL     1      -9.204   3.917  74.539  1.00  0.00    -0.111 Cl 
HETATM   15  C   UNL     1      -9.788   3.495  71.937  1.00  0.00    -0.237 A  
ENDBRANCH   2   9
BRANCH   8  16
HETATM   16  C   UNL     1      -9.973   9.030  67.513  1.00  0.00    -0.207 C  
BRANCH  16  17
HETATM   17  C   UNL     1     -10.317  10.260  66.669  1.00  0.00    -0.283 C  
BRANCH  17  18
HETATM   18  C   UNL     1     -10.547  11.510  67.519  1.00  0.00    -0.243 C  
BRANCH  18  19
HETATM   19  C   UNL     1     -11.374  12.540  66.777  1.00  0.00    -0.334 C  
HETATM   20  O   UNL     1     -12.197  12.240  65.915  1.00  0.00    -0.634 OA 
BRANCH  19  21
HETATM   21  C   UNL     1     -11.139  13.976  67.077  1.00  0.00    -0.312 A  
HETATM   22  C   UNL     1     -11.797  14.539  68.181  1.00  0.00    -0.348 A  
HETATM   23  C   UNL     1     -11.626  15.889  68.490  1.00  0.00    -0.351 A  
HETATM   24  C   UNL     1     -10.786  16.668  67.702  1.00  0.00    -0.306 A  
HETATM   25  F   UNL     1     -10.621  17.962  67.998  1.00  0.00    -0.352 F  
HETATM   26  C   UNL     1     -10.114  16.123  66.614  1.00  0.00    -0.283 A  
HETATM   27  C   UNL     1     -10.288  14.775  66.295  1.00  0.00    -0.305 A  
ENDBRANCH  19  21
ENDBRANCH  18  19
ENDBRANCH  17  18
ENDBRANCH  16  17
ENDBRANCH   8  16
TORSDOF 6
ENDMDL
MODEL      168
REMARK 921   NORMALIZED FREE ENERGY PREDICTED BY IDOCK:   -4.40 KCAL/MOL
REMARK 922        TOTAL FREE ENERGY PREDICTED BY IDOCK:   -7.26 KCAL/MOL
REMARK 923 INTER-LIGAND FREE ENERGY PREDICTED BY IDOCK:   -6.44 KCAL/MOL
REMARK 924 INTRA-LIGAND FREE ENERGY PREDICTED BY IDOCK:   -0.82 KCAL/MOL
REMARK 927      BINDING AFFINITY PREDICTED BY RF-SCORE:    0.00 PKD
ROOT
HETATM    1  O   UNL     1      -8.611   9.273  68.621  1.00  0.00    -0.125 OA 
HETATM    2  C   UNL     1      -9.242   8.882  67.389  1.00  0.00    -0.135 C  
HETATM    3  H   UNL     1      -7.699   9.010  68.577  1.00  0.00     0.000 HD 
HETATM    4  C   UNL     1     -10.720   9.309  67.462  1.00  0.00    -0.272 C  
HETATM    5  C   UNL     1      -8.500   9.586  66.234  1.00  0.00    -0.122 C  
HETATM    6  C   UNL     1     -10.877  10.828  67.368  1.00  0.00    -0.290 C  
HETATM    7  C   UNL     1      -8.788  11.088  66.188  1.00  0.00    -0.190 C  
HETATM    8  N   UNL     1     -10.223  11.416  66.190  1.00  0.00    -0.231 NA 
ENDROOT
BRANCH   2   9
HETATM    9  C   UNL     1      -9.114   7.359  67.252  1.00  0.00    -0.135 A  
HETATM   10  C   UNL     1     -10.044   6.612  66.504  1.00  0.00    -0.140 A  
HETATM   11  C   UNL     1      -8.076   6.655  67.892  1.00  0.00    -0.113 A  
HETATM   12  C   UNL     1      -8.930   4.550  67.071  1.00  0.00    -0.116 A  
HETATM   13  C   UNL     1      -9.955   5.221  66.415  1.00  0.00    -0.227 A  
HETATM   14 CL   UNL     1      -8.834   2.834  66.982  1.00  0.00    -0.144 Cl 
HETATM   15  C   UNL     1      -7.985   5.261  67.805  1.00  0.00    -0.099 A  
ENDBRANCH   2   9
BRANCH   8  16
HETATM   16  C   UNL     1     -10.860  11.061  64.909  1.00  0.00    -0.140 C  
BRANCH  16  17
HETATM   17  C   UNL     1     -11.343  12.261  64.090  1.00  0.00    -0.442 C  
BRANCH  17  18
HETATM   18  C   UNL     1     -10.521  13.522  64.356  1.00  0.00    -0.366 C  
BRANCH  18  19
HETATM   19  C   UNL     1     -11.411  14.730  64.566  1.00  0.00    -0.329 C  
HETATM   20  O   UNL     1     -12.420  14.940  63.895  1.00  0.00    -0.806 OA 
BRANCH  19  21
HETATM   21  C   UNL     1     -11.015  15.722  65.598  1.00  0.00    -0.248 A  
HETATM   22  C   UNL     1     -10.912  15.289  66.929  1.00  0.00    -0.315 A  
HETATM   23  C   UNL     1     -10.566  16.189  67.938  1.00  0.00    -0.309 A  
HETATM   24  C   UNL     1     -10.308  17.515  67.610  1.00  0.00    -0.360 A  
HETATM   25  F   UNL     1      -9.975  18.378  68.576  1.00  0.00    -0.312 F  
HETATM   26  C   UNL     1     -10.390  17.958  66.295  1.00  0.00    -0.364 A  
HETATM   27  C   UNL     1     -10.746  17.064  65.282  1.00  0.00    -0.108 A  
ENDBRANCH  19  21
ENDBRANCH  18  19
ENDBRANCH  17  18
ENDBRANCH  16  17
ENDBRANCH   8  16
TORSDOF 6
ENDMDL
MODEL      169
REMARK 921   NORMALIZED FREE ENERGY PREDICTED BY IDOCK:   -4.34 KCAL/MOL
REMARK 922        TOTAL FREE ENERGY PREDICTED BY IDOCK:   -7.18 KCAL/MOL
REMARK 923 INTER-LIGAND FREE ENERGY PREDICTED BY IDOCK:   -6.43 KCAL/MOL
REMARK 924 INTRA-LIGAND FREE ENERGY PREDICTED BY IDOCK:   -0.74 KCAL/MOL
REMARK 927      BINDING AFFINITY PREDICTED BY RF-SCORE:    0.00 PKD
ROOT
HETATM    1  O   UNL     1     -11.341   7.570  67.193  1.00  0.00    -0.390 OA 
HETATM    2  C   UNL     1     -10.117   8.168  67.656  1.00  0.00    -0.207 C  
HETATM    3  H   UNL     1     -11.825   7.271  67.955  1.00  0.00     0.000 HD 
HETATM    4  C   UNL     1      -9.335   8.652  66.420  1.00  0.00    -0.271 C  
HETATM    5  C   UNL     1     -10.487   9.337  68.592  1.00  0.00    -0.236 C  
HETATM    6  C   UNL     1      -9.995   9.870  65.772  1.00  0.00    -0.277 C  
HETATM    7  C   UNL     1     -11.067  10.531  67.830  1.00  0.00    -0.304 C  
HETATM    8  N   UNL     1     -10.230  10.980  66.707  1.00  0.00    -0.220 NA 
ENDROOT
BRANCH   2   9
HETATM    9  C   UNL     1      -9.328   7.100  68.426  1.00  0.00    -0.135 A  
HETATM   10  C   UNL     1      -9.963   5.959  68.950  1.00  0.00    -0.201 A  
HETATM   11  C   UNL     1      -7.946   7.242  68.658  1.00  0.00    -0.124 A  
HETATM   12  C   UNL     1      -7.896   5.182  69.917  1.00  0.00    -0.075 A  
HETATM   13  C   UNL     1      -9.255   5.008  69.690  1.00  0.00    -0.168 A  
HETATM   14 CL   UNL     1      -7.028   4.025  70.850  1.00  0.00    -0.032 Cl 
HETATM   15  C   UNL     1      -7.235   6.292  69.399  1.00  0.00    -0.082 A  
ENDBRANCH   2   9
BRANCH   8  16
HETATM   16  C   UNL     1      -8.998  11.637  67.181  1.00  0.00    -0.173 C  
BRANCH  16  17
HETATM   17  C   UNL     1      -9.235  12.812  68.134  1.00  0.00    -0.212 C  
BRANCH  17  18
HETATM   18  C   UNL     1      -9.435  14.135  67.395  1.00  0.00    -0.220 C  
BRANCH  18  19
HETATM   19  C   UNL     1      -9.912  15.226  68.332  1.00  0.00    -0.220 C  
HETATM   20  O   UNL     1     -10.236  15.010  69.498  1.00  0.00    -0.225 OA 
BRANCH  19  21
HETATM   21  C   UNL     1     -10.035  16.606  67.797  1.00  0.00    -0.262 A  
HETATM   22  C   UNL     1      -9.900  17.679  68.693  1.00  0.00    -0.347 A  
HETATM   23  C   UNL     1     -10.031  18.993  68.242  1.00  0.00    -0.459 A  
HETATM   24  C   UNL     1     -10.281  19.231  66.895  1.00  0.00    -0.400 A  
HETATM   25  F   UNL     1     -10.406  20.490  66.462  1.00  0.00    -0.507 F  
HETATM   26  C   UNL     1     -10.403  18.181  65.992  1.00  0.00    -0.360 A  
HETATM   27  C   UNL     1     -10.282  16.863  66.439  1.00  0.00    -0.326 A  
ENDBRANCH  19  21
ENDBRANCH  18  19
ENDBRANCH  17  18
ENDBRANCH  16  17
ENDBRANCH   8  16
TORSDOF 6
ENDMDL
MODEL      170
REMARK 921   NORMALIZED FREE ENERGY PREDICTED BY IDOCK:   -4.34 KCAL/MOL
REMARK 922        TOTAL FREE ENERGY PREDICTED BY IDOCK:   -7.17 KCAL/MOL
REMARK 923 INTER-LIGAND FREE ENERGY PREDICTED BY IDOCK:   -6.40 KCAL/MOL
REMARK 924 INTRA-LIGAND FREE ENERGY PREDICTED BY IDOCK:   -0.77 KCAL/MOL
REMARK 927      BINDING AFFINITY PREDICTED BY RF-SCORE:    0.00 PKD
ROOT
HETATM    1  O   UNL     1     -11.696  16.451  68.091  1.00  0.00    -0.136 OA 
HETATM    2  C   UNL     1     -10.617  15.586  67.693  1.00  0.00    -0.291 C  
HETATM    3  H   UNL     1     -11.816  17.098  67.405  1.00  0.00     0.000 HD 
HETATM    4  C   UNL     1     -10.423  14.537  68.804  1.00  0.00    -0.246 C  
HETATM    5  C   UNL     1     -11.008  14.931  66.351  1.00  0.00    -0.336 C  
HETATM    6  C   UNL     1     -11.572  13.527  68.839  1.00  0.00    -0.323 C  
HETATM    7  C   UNL     1     -12.111  13.884  66.514  1.00  0.00    -0.449 C  
HETATM    8  N   UNL     1     -11.822  12.875  67.545  1.00  0.00    -0.366 NA 
ENDROOT
BRANCH   2   9
HETATM    9  C   UNL     1      -9.358  16.445  67.518  1.00  0.00    -0.214 A  
HETATM   10  C   UNL     1      -8.517  16.289  66.400  1.00  0.00    -0.365 A  
HETATM   11  C   UNL     1      -8.987  17.400  68.485  1.00  0.00    -0.276 A  
HETATM   12  C   UNL     1      -6.996  17.961  67.239  1.00  0.00    -0.186 A  
HETATM   13  C   UNL     1      -7.346  17.038  66.261  1.00  0.00    -0.294 A  
HETATM   14 CL   UNL     1      -5.541  18.867  67.081  1.00  0.00    -0.146 Cl 
HETATM   15  C   UNL     1      -7.815  18.151  68.348  1.00  0.00    -0.306 A  
ENDBRANCH   2   9
BRANCH   8  16
HETATM   16  C   UNL     1     -10.751  11.957  67.118  1.00  0.00    -0.240 C  
BRANCH  16  17
HETATM   17  C   UNL     1     -10.420  10.858  68.132  1.00  0.00    -0.211 C  
BRANCH  17  18
HETATM   18  C   UNL     1     -11.671  10.239  68.755  1.00  0.00    -0.021 C  
BRANCH  18  19
HETATM   19  C   UNL     1     -11.437   9.855  70.202  1.00  0.00    -0.248 C  
HETATM   20  O   UNL     1     -11.958  10.451  71.143  1.00  0.00    -0.352 OA 
BRANCH  19  21
HETATM   21  C   UNL     1     -10.499   8.740  70.489  1.00  0.00    -0.246 A  
HETATM   22  C   UNL     1      -9.284   9.042  71.125  1.00  0.00    -0.326 A  
HETATM   23  C   UNL     1      -8.361   8.032  71.395  1.00  0.00    -0.131 A  
HETATM   24  C   UNL     1      -8.661   6.721  71.043  1.00  0.00    -0.136 A  
HETATM   25  F   UNL     1      -7.776   5.751  71.303  1.00  0.00    -0.097 F  
HETATM   26  C   UNL     1      -9.865   6.401  70.427  1.00  0.00    -0.193 A  
HETATM   27  C   UNL     1     -10.790   7.409  70.146  1.00  0.00    -0.270 A  
ENDBRANCH  19  21
ENDBRANCH  18  19
ENDBRANCH  17  18
ENDBRANCH  16  17
ENDBRANCH   8  16
TORSDOF 6
ENDMDL
MODEL      171
REMARK 921   NORMALIZED FREE ENERGY PREDICTED BY IDOCK:   -4.31 KCAL/MOL
REMARK 922        TOTAL FREE ENERGY PREDICTED BY IDOCK:   -7.13 KCAL/MOL
REMARK 923 INTER-LIGAND FREE ENERGY PREDICTED BY IDOCK:   -5.61 KCAL/MOL
REMARK 924 INTRA-LIGAND FREE ENERGY PREDICTED BY IDOCK:   -1.52 KCAL/MOL
REMARK 927      BINDING AFFINITY PREDICTED BY RF-SCORE:    0.00 PKD
ROOT
HETATM    1  O   UNL     1      -6.841  14.922  66.924  1.00  0.00    -0.294 OA 
HETATM    2  C   UNL     1      -7.828  14.161  67.643  1.00  0.00    -0.179 C  
HETATM    3  H   UNL     1      -6.779  14.561  66.047  1.00  0.00     0.000 HD 
HETATM    4  C   UNL     1      -7.928  14.745  69.065  1.00  0.00    -0.152 C  
HETATM    5  C   UNL     1      -9.164  14.282  66.881  1.00  0.00    -0.268 C  
HETATM    6  C   UNL     1      -8.600  16.119  69.068  1.00  0.00    -0.251 C  
HETATM    7  C   UNL     1      -9.786  15.673  67.015  1.00  0.00    -0.233 C  
HETATM    8  N   UNL     1      -9.912  16.134  68.406  1.00  0.00    -0.226 NA 
ENDROOT
BRANCH   2   9
HETATM    9  C   UNL     1      -7.368  12.697  67.678  1.00  0.00    -0.139 A  
HETATM   10  C   UNL     1      -7.294  11.984  68.890  1.00  0.00    -0.067 A  
HETATM   11  C   UNL     1      -6.978  12.028  66.502  1.00  0.00     0.294 A  
HETATM   12  C   UNL     1      -6.438  10.035  67.756  1.00  0.00    -0.066 A  
HETATM   13  C   UNL     1      -6.832  10.666  68.930  1.00  0.00    -0.066 A  
HETATM   14 CL   UNL     1      -5.846   8.420  67.808  1.00  0.00    -0.042 Cl 
HETATM   15  C   UNL     1      -6.515  10.708  66.540  1.00  0.00    -0.106 A  
ENDBRANCH   2   9
BRANCH   8  16
HETATM   16  C   UNL     1     -10.958  15.388  69.129  1.00  0.00    -0.252 C  
BRANCH  16  17
HETATM   17  C   UNL     1     -11.444  14.126  68.412  1.00  0.00    -0.334 C  
BRANCH  17  18
HETATM   18  C   UNL     1     -11.044  12.844  69.144  1.00  0.00    -0.245 C  
BRANCH  18  19
HETATM   19  C   UNL     1     -11.684  11.624  68.515  1.00  0.00    -0.315 C  
HETATM   20  O   UNL     1     -12.647  11.044  69.013  1.00  0.00    -0.378 OA 
BRANCH  19  21
HETATM   21  C   UNL     1     -11.088  11.083  67.266  1.00  0.00    -0.359 A  
HETATM   22  C   UNL     1     -10.357   9.887  67.345  1.00  0.00    -0.301 A  
HETATM   23  C   UNL     1      -9.759   9.352  66.204  1.00  0.00    -0.334 A  
HETATM   24  C   UNL     1      -9.905  10.005  64.985  1.00  0.00    -0.304 A  
HETATM   25  F   UNL     1      -9.332   9.492  63.891  1.00  0.00    -0.285 F  
HETATM   26  C   UNL     1     -10.638  11.183  64.886  1.00  0.00    -0.356 A  
HETATM   27  C   UNL     1     -11.232  11.728  66.027  1.00  0.00    -0.352 A  
ENDBRANCH  19  21
ENDBRANCH  18  19
ENDBRANCH  17  18
ENDBRANCH  16  17
ENDBRANCH   8  16
TORSDOF 6
ENDMDL
MODEL      172
REMARK 921   NORMALIZED FREE ENERGY PREDICTED BY IDOCK:   -4.31 KCAL/MOL
REMARK 922        TOTAL FREE ENERGY PREDICTED BY IDOCK:   -7.13 KCAL/MOL
REMARK 923 INTER-LIGAND FREE ENERGY PREDICTED BY IDOCK:   -5.66 KCAL/MOL
REMARK 924 INTRA-LIGAND FREE ENERGY PREDICTED BY IDOCK:   -1.47 KCAL/MOL
REMARK 927      BINDING AFFINITY PREDICTED BY RF-SCORE:    0.00 PKD
ROOT
HETATM    1  O   UNL     1      -9.661   2.735  67.312  1.00  0.00    -0.395 OA 
HETATM    2  C   UNL     1      -9.566   4.141  67.022  1.00  0.00    -0.201 C  
HETATM    3  H   UNL     1     -10.572   2.537  67.495  1.00  0.00     0.000 HD 
HETATM    4  C   UNL     1      -8.089   4.461  66.725  1.00  0.00    -0.102 C  
HETATM    5  C   UNL     1     -10.469   4.434  65.805  1.00  0.00    -0.211 C  
HETATM    6  C   UNL     1      -7.641   3.883  65.381  1.00  0.00    -0.082 C  
HETATM    7  C   UNL     1      -9.889   3.877  64.503  1.00  0.00    -0.191 C  
HETATM    8  N   UNL     1      -8.497   4.283  64.255  1.00  0.00    -0.105 NA 
ENDROOT
BRANCH   2   9
HETATM    9  C   UNL     1     -10.063   4.915  68.250  1.00  0.00    -0.143 A  
HETATM   10  C   UNL     1      -9.662   4.555  69.551  1.00  0.00    -0.282 A  
HETATM   11  C   UNL     1     -10.958   5.994  68.118  1.00  0.00    -0.340 A  
HETATM   12  C   UNL     1     -11.044   6.281  70.514  1.00  0.00    -0.335 A  
HETATM   13  C   UNL     1     -10.149   5.230  70.673  1.00  0.00    -0.310 A  
HETATM   14 CL   UNL     1     -11.663   7.096  71.898  1.00  0.00    -0.311 Cl 
HETATM   15  C   UNL     1     -11.447   6.671  69.241  1.00  0.00    -0.253 A  
ENDBRANCH   2   9
BRANCH   8  16
HETATM   16  C   UNL     1      -8.404   5.713  63.908  1.00  0.00    -0.058 C  
BRANCH  16  17
HETATM   17  C   UNL     1      -6.972   6.245  63.800  1.00  0.00    -0.043 C  
BRANCH  17  18
HETATM   18  C   UNL     1      -6.856   7.708  64.225  1.00  0.00    -0.056 C  
BRANCH  18  19
HETATM   19  C   UNL     1      -8.039   8.522  63.741  1.00  0.00    -0.154 C  
HETATM   20  O   UNL     1      -8.311   8.659  62.550  1.00  0.00    -0.186 OA 
BRANCH  19  21
HETATM   21  C   UNL     1      -8.873   9.219  64.753  1.00  0.00    -0.225 A  
HETATM   22  C   UNL     1      -9.074   8.592  65.993  1.00  0.00    -0.246 A  
HETATM   23  C   UNL     1      -9.868   9.196  66.967  1.00  0.00    -0.267 A  
HETATM   24  C   UNL     1     -10.446  10.433  66.705  1.00  0.00    -0.225 A  
HETATM   25  F   UNL     1     -11.207  11.014  67.640  1.00  0.00    -0.283 F  
HETATM   26  C   UNL     1     -10.246  11.076  65.490  1.00  0.00    -0.327 A  
HETATM   27  C   UNL     1      -9.459  10.471  64.506  1.00  0.00    -0.329 A  
ENDBRANCH  19  21
ENDBRANCH  18  19
ENDBRANCH  17  18
ENDBRANCH  16  17
ENDBRANCH   8  16
TORSDOF 6
ENDMDL
MODEL      173
REMARK 921   NORMALIZED FREE ENERGY PREDICTED BY IDOCK:   -4.28 KCAL/MOL
REMARK 922        TOTAL FREE ENERGY PREDICTED BY IDOCK:   -7.09 KCAL/MOL
REMARK 923 INTER-LIGAND FREE ENERGY PREDICTED BY IDOCK:   -5.98 KCAL/MOL
REMARK 924 INTRA-LIGAND FREE ENERGY PREDICTED BY IDOCK:   -1.11 KCAL/MOL
REMARK 927      BINDING AFFINITY PREDICTED BY RF-SCORE:    0.00 PKD
ROOT
HETATM    1  O   UNL     1      -6.653   8.113  69.461  1.00  0.00    -0.037 OA 
HETATM    2  C   UNL     1      -7.854   8.897  69.574  1.00  0.00    -0.094 C  
HETATM    3  H   UNL     1      -6.880   7.292  69.040  1.00  0.00     0.000 HD 
HETATM    4  C   UNL     1      -7.485  10.227  70.257  1.00  0.00     0.019 C  
HETATM    5  C   UNL     1      -8.408   9.119  68.151  1.00  0.00    -0.120 C  
HETATM    6  C   UNL     1      -6.667  11.131  69.334  1.00  0.00    -0.120 C  
HETATM    7  C   UNL     1      -7.555  10.099  67.342  1.00  0.00    -0.094 C  
HETATM    8  N   UNL     1      -7.304  11.374  68.032  1.00  0.00    -0.086 NA 
ENDROOT
BRANCH   2   9
HETATM    9  C   UNL     1      -8.862   8.103  70.418  1.00  0.00    -0.141 A  
HETATM   10  C   UNL     1      -8.921   8.253  71.816  1.00  0.00    -0.241 A  
HETATM   11  C   UNL     1      -9.742   7.179  69.822  1.00  0.00    -0.165 A  
HETATM   12  C   UNL     1     -10.652   6.582  71.978  1.00  0.00    -0.217 A  
HETATM   13  C   UNL     1      -9.806   7.499  72.591  1.00  0.00    -0.242 A  
HETATM   14 CL   UNL     1     -11.725   5.635  72.934  1.00  0.00    -0.258 Cl 
HETATM   15  C   UNL     1     -10.629   6.422  70.596  1.00  0.00    -0.288 A  
ENDBRANCH   2   9
BRANCH   8  16
HETATM   16  C   UNL     1      -8.523  12.199  68.104  1.00  0.00    -0.175 C  
BRANCH  16  17
HETATM   17  C   UNL     1      -9.755  11.564  67.452  1.00  0.00    -0.191 C  
BRANCH  17  18
HETATM   18  C   UNL     1     -10.987  12.465  67.525  1.00  0.00    -0.293 C  
BRANCH  18  19
HETATM   19  C   UNL     1     -11.205  12.995  68.927  1.00  0.00    -0.278 C  
HETATM   20  O   UNL     1     -10.832  14.111  69.284  1.00  0.00    -0.244 OA 
BRANCH  19  21
HETATM   21  C   UNL     1     -11.855  12.103  69.921  1.00  0.00    -0.392 A  
HETATM   22  C   UNL     1     -12.715  12.682  70.868  1.00  0.00    -0.274 A  
HETATM   23  C   UNL     1     -13.332  11.889  71.836  1.00  0.00    -0.405 A  
HETATM   24  C   UNL     1     -13.099  10.518  71.845  1.00  0.00    -0.462 A  
HETATM   25  F   UNL     1     -13.691   9.757  72.773  1.00  0.00    -0.366 F  
HETATM   26  C   UNL     1     -12.263   9.926  70.906  1.00  0.00    -0.420 A  
HETATM   27  C   UNL     1     -11.636  10.716  69.940  1.00  0.00    -0.396 A  
ENDBRANCH  19  21
ENDBRANCH  18  19
ENDBRANCH  17  18
ENDBRANCH  16  17
ENDBRANCH   8  16
TORSDOF 6
ENDMDL
MODEL      174
REMARK 921   NORMALIZED FREE ENERGY PREDICTED BY IDOCK:   -4.25 KCAL/MOL
REMARK 922        TOTAL FREE ENERGY PREDICTED BY IDOCK:   -7.05 KCAL/MOL
REMARK 923 INTER-LIGAND FREE ENERGY PREDICTED BY IDOCK:   -6.16 KCAL/MOL
REMARK 924 INTRA-LIGAND FREE ENERGY PREDICTED BY IDOCK:   -0.88 KCAL/MOL
REMARK 927      BINDING AFFINITY PREDICTED BY RF-SCORE:    0.00 PKD
ROOT
HETATM    1  O   UNL     1     -11.154   8.199  67.675  1.00  0.00    -0.492 OA 
HETATM    2  C   UNL     1      -9.983   8.817  67.110  1.00  0.00    -0.230 C  
HETATM    3  H   UNL     1     -10.868   7.623  68.375  1.00  0.00     0.000 HD 
HETATM    4  C   UNL     1     -10.446   9.751  65.975  1.00  0.00    -0.076 C  
HETATM    5  C   UNL     1      -9.270   9.595  68.235  1.00  0.00    -0.131 C  
HETATM    6  C   UNL     1     -11.163  10.990  66.517  1.00  0.00    -0.005 C  
HETATM    7  C   UNL     1     -10.035  10.855  68.646  1.00  0.00    -0.189 C  
HETATM    8  N   UNL     1     -10.382  11.732  67.516  1.00  0.00    -0.194 NA 
ENDROOT
BRANCH   2   9
HETATM    9  C   UNL     1      -9.071   7.706  66.573  1.00  0.00    -0.203 A  
HETATM   10  C   UNL     1      -9.565   6.410  66.330  1.00  0.00    -0.156 A  
HETATM   11  C   UNL     1      -7.704   7.940  66.330  1.00  0.00    -0.096 A  
HETATM   12  C   UNL     1      -7.377   5.640  65.669  1.00  0.00    -0.073 A  
HETATM   13  C   UNL     1      -8.726   5.385  65.884  1.00  0.00    -0.145 A  
HETATM   14 CL   UNL     1      -6.339   4.372  65.144  1.00  0.00    -0.034 Cl 
HETATM   15  C   UNL     1      -6.862   6.915  65.884  1.00  0.00    -0.056 A  
ENDBRANCH   2   9
BRANCH   8  16
HETATM   16  C   UNL     1      -9.189  12.403  66.968  1.00  0.00    -0.208 C  
BRANCH  16  17
HETATM   17  C   UNL     1      -9.451  13.812  66.427  1.00  0.00    -0.259 C  
BRANCH  17  18
HETATM   18  C   UNL     1     -10.853  14.319  66.764  1.00  0.00    -0.298 C  
BRANCH  18  19
HETATM   19  C   UNL     1     -10.807  15.436  67.787  1.00  0.00    -0.302 C  
HETATM   20  O   UNL     1     -10.316  16.537  67.551  1.00  0.00    -0.281 OA 
BRANCH  19  21
HETATM   21  C   UNL     1     -11.339  15.163  69.147  1.00  0.00    -0.311 A  
HETATM   22  C   UNL     1     -10.980  16.036  70.186  1.00  0.00    -0.369 A  
HETATM   23  C   UNL     1     -11.436  15.809  71.485  1.00  0.00    -0.504 A  
HETATM   24  C   UNL     1     -12.262  14.720  71.738  1.00  0.00    -0.347 A  
HETATM   25  F   UNL     1     -12.700  14.502  72.984  1.00  0.00    -0.442 F  
HETATM   26  C   UNL     1     -12.640  13.854  70.719  1.00  0.00    -0.424 A  
HETATM   27  C   UNL     1     -12.179  14.071  69.418  1.00  0.00    -0.336 A  
ENDBRANCH  19  21
ENDBRANCH  18  19
ENDBRANCH  17  18
ENDBRANCH  16  17
ENDBRANCH   8  16
TORSDOF 6
ENDMDL
MODEL      175
REMARK 921   NORMALIZED FREE ENERGY PREDICTED BY IDOCK:   -4.25 KCAL/MOL
REMARK 922        TOTAL FREE ENERGY PREDICTED BY IDOCK:   -7.04 KCAL/MOL
REMARK 923 INTER-LIGAND FREE ENERGY PREDICTED BY IDOCK:   -6.25 KCAL/MOL
REMARK 924 INTRA-LIGAND FREE ENERGY PREDICTED BY IDOCK:   -0.80 KCAL/MOL
REMARK 927      BINDING AFFINITY PREDICTED BY RF-SCORE:    0.00 PKD
ROOT
HETATM    1  O   UNL     1     -10.443  13.837  69.442  1.00  0.00    -0.435 OA 
HETATM    2  C   UNL     1      -9.823  14.470  68.308  1.00  0.00    -0.229 C  
HETATM    3  H   UNL     1     -10.310  12.900  69.360  1.00  0.00     0.000 HD 
HETATM    4  C   UNL     1     -10.039  15.989  68.442  1.00  0.00    -0.229 C  
HETATM    5  C   UNL     1      -8.325  14.102  68.323  1.00  0.00    -0.157 C  
HETATM    6  C   UNL     1      -9.195  16.586  69.570  1.00  0.00     0.141 C  
HETATM    7  C   UNL     1      -7.563  14.813  69.444  1.00  0.00    -0.127 C  
HETATM    8  N   UNL     1      -7.763  16.270  69.464  1.00  0.00    -0.095 NA 
ENDROOT
BRANCH   2   9
HETATM    9  C   UNL     1     -10.491  13.927  67.037  1.00  0.00    -0.278 A  
HETATM   10  C   UNL     1     -10.420  14.629  65.819  1.00  0.00    -0.338 A  
HETATM   11  C   UNL     1     -11.219  12.722  67.055  1.00  0.00    -0.336 A  
HETATM   12  C   UNL     1     -11.790  12.975  64.722  1.00  0.00    -0.363 A  
HETATM   13  C   UNL     1     -11.065  14.159  64.672  1.00  0.00    -0.378 A  
HETATM   14 CL   UNL     1     -12.605  12.409  63.316  1.00  0.00    -0.505 Cl 
HETATM   15  C   UNL     1     -11.866  12.250  65.907  1.00  0.00    -0.420 A  
ENDBRANCH   2   9
BRANCH   8  16
HETATM   16  C   UNL     1      -7.087  16.924  68.329  1.00  0.00    -0.179 C  
BRANCH  16  17
HETATM   17  C   UNL     1      -5.763  17.605  68.691  1.00  0.00    -0.164 C  
BRANCH  17  18
HETATM   18  C   UNL     1      -5.909  18.595  69.846  1.00  0.00    -0.252 C  
BRANCH  18  19
HETATM   19  C   UNL     1      -5.881  20.028  69.354  1.00  0.00    -0.291 C  
HETATM   20  O   UNL     1      -5.639  20.982  70.092  1.00  0.00    -0.543 OA 
BRANCH  19  21
HETATM   21  C   UNL     1      -6.206  20.287  67.929  1.00  0.00    -0.276 A  
HETATM   22  C   UNL     1      -7.557  20.420  67.571  1.00  0.00    -0.346 A  
HETATM   23  C   UNL     1      -7.914  20.641  66.240  1.00  0.00     0.081 A  
HETATM   24  C   UNL     1      -6.920  20.743  65.274  1.00  0.00     0.006 A  
HETATM   25  F   UNL     1      -7.262  20.956  63.998  1.00  0.00    -0.111 F  
HETATM   26  C   UNL     1      -5.576  20.630  65.613  1.00  0.00    -0.235 A  
HETATM   27  C   UNL     1      -5.213  20.399  66.942  1.00  0.00    -0.186 A  
ENDBRANCH  19  21
ENDBRANCH  18  19
ENDBRANCH  17  18
ENDBRANCH  16  17
ENDBRANCH   8  16
TORSDOF 6
ENDMDL
MODEL      176
REMARK 921   NORMALIZED FREE ENERGY PREDICTED BY IDOCK:   -4.24 KCAL/MOL
REMARK 922        TOTAL FREE ENERGY PREDICTED BY IDOCK:   -7.04 KCAL/MOL
REMARK 923 INTER-LIGAND FREE ENERGY PREDICTED BY IDOCK:   -5.33 KCAL/MOL
REMARK 924 INTRA-LIGAND FREE ENERGY PREDICTED BY IDOCK:   -1.70 KCAL/MOL
REMARK 927      BINDING AFFINITY PREDICTED BY RF-SCORE:    0.00 PKD
ROOT
HETATM    1  O   UNL     1      -7.164   4.601  68.257  1.00  0.00    -0.063 OA 
HETATM    2  C   UNL     1      -8.281   5.506  68.285  1.00  0.00    -0.095 C  
HETATM    3  H   UNL     1      -7.506   3.716  68.306  1.00  0.00     0.000 HD 
HETATM    4  C   UNL     1      -7.726   6.941  68.205  1.00  0.00    -0.113 C  
HETATM    5  C   UNL     1      -9.187   5.177  67.080  1.00  0.00    -0.119 C  
HETATM    6  C   UNL     1      -7.166   7.256  66.817  1.00  0.00    -0.083 C  
HETATM    7  C   UNL     1      -8.563   5.603  65.750  1.00  0.00    -0.148 C  
HETATM    8  N   UNL     1      -8.120   7.006  65.727  1.00  0.00    -0.116 NA 
ENDROOT
BRANCH   2   9
HETATM    9  C   UNL     1      -9.043   5.281  69.599  1.00  0.00    -0.149 A  
HETATM   10  C   UNL     1      -9.833   6.298  70.168  1.00  0.00    -0.201 A  
HETATM   11  C   UNL     1      -8.954   4.058  70.291  1.00  0.00    -0.158 A  
HETATM   12  C   UNL     1     -10.372   4.899  72.057  1.00  0.00    -0.197 A  
HETATM   13  C   UNL     1     -10.491   6.110  71.386  1.00  0.00    -0.273 A  
HETATM   14 CL   UNL     1     -11.161   4.676  73.570  1.00  0.00    -0.408 Cl 
HETATM   15  C   UNL     1      -9.612   3.868  71.512  1.00  0.00    -0.236 A  
ENDBRANCH   2   9
BRANCH   8  16
HETATM   16  C   UNL     1      -9.265   7.934  65.706  1.00  0.00     0.029 C  
BRANCH  16  17
HETATM   17  C   UNL     1      -8.956   9.303  65.093  1.00  0.00    -0.257 C  
BRANCH  17  18
HETATM   18  C   UNL     1     -10.100  10.301  65.280  1.00  0.00    -0.359 C  
BRANCH  18  19
HETATM   19  C   UNL     1      -9.805  11.278  66.400  1.00  0.00    -0.211 C  
HETATM   20  O   UNL     1      -9.356  12.405  66.200  1.00  0.00    -0.225 OA 
BRANCH  19  21
HETATM   21  C   UNL     1     -10.027  10.831  67.799  1.00  0.00    -0.195 A  
HETATM   22  C   UNL     1      -8.919  10.379  68.533  1.00  0.00    -0.139 A  
HETATM   23  C   UNL     1      -9.080   9.927  69.843  1.00  0.00    -0.241 A  
HETATM   24  C   UNL     1     -10.345   9.942  70.420  1.00  0.00    -0.260 A  
HETATM   25  F   UNL     1     -10.501   9.509  71.676  1.00  0.00    -0.397 F  
HETATM   26  C   UNL     1     -11.451  10.400  69.712  1.00  0.00    -0.348 A  
HETATM   27  C   UNL     1     -11.297  10.846  68.397  1.00  0.00    -0.370 A  
ENDBRANCH  19  21
ENDBRANCH  18  19
ENDBRANCH  17  18
ENDBRANCH  16  17
ENDBRANCH   8  16
TORSDOF 6
ENDMDL
MODEL      177
REMARK 921   NORMALIZED FREE ENERGY PREDICTED BY IDOCK:   -4.20 KCAL/MOL
REMARK 922        TOTAL FREE ENERGY PREDICTED BY IDOCK:   -6.98 KCAL/MOL
REMARK 923 INTER-LIGAND FREE ENERGY PREDICTED BY IDOCK:   -6.32 KCAL/MOL
REMARK 924 INTRA-LIGAND FREE ENERGY PREDICTED BY IDOCK:   -0.66 KCAL/MOL
REMARK 927      BINDING AFFINITY PREDICTED BY RF-SCORE:    0.00 PKD
ROOT
HETATM    1  O   UNL     1     -12.023  16.623  71.073  1.00  0.00    -0.398 OA 
HETATM    2  C   UNL     1     -12.368  15.324  70.560  1.00  0.00    -0.387 C  
HETATM    3  H   UNL     1     -12.466  17.273  70.540  1.00  0.00     0.000 HD 
HETATM    4  C   UNL     1     -11.650  14.271  71.425  1.00  0.00     0.151 C  
HETATM    5  C   UNL     1     -13.902  15.178  70.637  1.00  0.00    -0.006 C  
HETATM    6  C   UNL     1     -12.262  14.172  72.823  1.00  0.00     0.197 C  
HETATM    7  C   UNL     1     -14.398  15.010  72.075  1.00  0.00    -0.573 C  
HETATM    8  N   UNL     1     -13.713  13.939  72.816  1.00  0.00    -0.702 NA 
ENDROOT
BRANCH   2   9
HETATM    9  C   UNL     1     -11.901  15.251  69.099  1.00  0.00    -0.345 A  
HETATM   10  C   UNL     1     -12.135  14.106  68.315  1.00  0.00    -0.297 A  
HETATM   11  C   UNL     1     -11.199  16.318  68.505  1.00  0.00    -0.359 A  
HETATM   12  C   UNL     1     -10.966  15.081  66.444  1.00  0.00    -0.336 A  
HETATM   13  C   UNL     1     -11.672  14.020  66.999  1.00  0.00    -0.425 A  
HETATM   14 CL   UNL     1     -10.373  14.965  64.832  1.00  0.00    -0.406 Cl 
HETATM   15  C   UNL     1     -10.733  16.233  67.188  1.00  0.00    -0.247 A  
ENDBRANCH   2   9
BRANCH   8  16
HETATM   16  C   UNL     1     -14.104  12.606  72.322  1.00  0.00     0.086 C  
BRANCH  16  17
HETATM   17  C   UNL     1     -12.929  11.656  72.072  1.00  0.00    -0.365 C  
BRANCH  17  18
HETATM   18  C   UNL     1     -13.324  10.444  71.228  1.00  0.00    -0.334 C  
BRANCH  18  19
HETATM   19  C   UNL     1     -12.443  10.310  70.003  1.00  0.00    -0.046 C  
HETATM   20  O   UNL     1     -12.650  10.929  68.961  1.00  0.00    -0.350 OA 
BRANCH  19  21
HETATM   21  C   UNL     1     -11.309   9.352  70.056  1.00  0.00    -0.172 A  
HETATM   22  C   UNL     1     -11.579   8.025  70.423  1.00  0.00    -0.075 A  
HETATM   23  C   UNL     1     -10.544   7.093  70.509  1.00  0.00    -0.243 A  
HETATM   24  C   UNL     1      -9.244   7.488  70.213  1.00  0.00    -0.157 A  
HETATM   25  F   UNL     1      -8.251   6.596  70.295  1.00  0.00    -0.116 F  
HETATM   26  C   UNL     1      -8.960   8.795  69.833  1.00  0.00    -0.152 A  
HETATM   27  C   UNL     1      -9.991   9.734  69.754  1.00  0.00    -0.265 A  
ENDBRANCH  19  21
ENDBRANCH  18  19
ENDBRANCH  17  18
ENDBRANCH  16  17
ENDBRANCH   8  16
TORSDOF 6
ENDMDL
MODEL      178
REMARK 921   NORMALIZED FREE ENERGY PREDICTED BY IDOCK:   -4.17 KCAL/MOL
REMARK 922        TOTAL FREE ENERGY PREDICTED BY IDOCK:   -6.95 KCAL/MOL
REMARK 923 INTER-LIGAND FREE ENERGY PREDICTED BY IDOCK:   -6.35 KCAL/MOL
REMARK 924 INTRA-LIGAND FREE ENERGY PREDICTED BY IDOCK:   -0.60 KCAL/MOL
REMARK 927      BINDING AFFINITY PREDICTED BY RF-SCORE:    0.00 PKD
ROOT
HETATM    1  O   UNL     1     -11.382  13.059  68.823  1.00  0.00    -0.252 OA 
HETATM    2  C   UNL     1     -10.693  11.832  68.522  1.00  0.00    -0.220 C  
HETATM    3  H   UNL     1     -10.996  13.422  69.611  1.00  0.00     0.000 HD 
HETATM    4  C   UNL     1     -11.319  11.243  67.243  1.00  0.00    -0.329 C  
HETATM    5  C   UNL     1      -9.199  12.164  68.326  1.00  0.00    -0.192 C  
HETATM    6  C   UNL     1     -10.952  12.062  66.003  1.00  0.00    -0.304 C  
HETATM    7  C   UNL     1      -8.937  12.916  67.019  1.00  0.00    -0.225 C  
HETATM    8  N   UNL     1      -9.505  12.257  65.833  1.00  0.00    -0.200 NA 
ENDROOT
BRANCH   2   9
HETATM    9  C   UNL     1     -10.874  10.881  69.713  1.00  0.00    -0.247 A  
HETATM   10  C   UNL     1      -9.868   9.965  70.075  1.00  0.00    -0.291 A  
HETATM   11  C   UNL     1     -12.064  10.875  70.466  1.00  0.00    -0.464 A  
HETATM   12  C   UNL     1     -11.239   9.072  71.846  1.00  0.00    -0.368 A  
HETATM   13  C   UNL     1     -10.048   9.068  71.130  1.00  0.00    -0.365 A  
HETATM   14 CL   UNL     1     -11.472   7.951  73.131  1.00  0.00    -0.249 Cl 
HETATM   15  C   UNL     1     -12.247   9.977  71.524  1.00  0.00    -0.496 A  
ENDBRANCH   2   9
BRANCH   8  16
HETATM   16  C   UNL     1      -8.769  11.025  65.495  1.00  0.00    -0.138 C  
BRANCH  16  17
HETATM   17  C   UNL     1      -9.612   9.748  65.557  1.00  0.00    -0.348 C  
BRANCH  17  18
HETATM   18  C   UNL     1      -8.927   8.631  66.344  1.00  0.00    -0.197 C  
BRANCH  18  19
HETATM   19  C   UNL     1      -9.872   7.474  66.599  1.00  0.00    -0.204 C  
HETATM   20  O   UNL     1     -11.017   7.628  67.017  1.00  0.00    -0.277 OA 
BRANCH  19  21
HETATM   21  C   UNL     1      -9.368   6.094  66.376  1.00  0.00    -0.173 A  
HETATM   22  C   UNL     1      -8.139   5.936  65.715  1.00  0.00    -0.121 A  
HETATM   23  C   UNL     1      -7.635   4.660  65.462  1.00  0.00    -0.082 A  
HETATM   24  C   UNL     1      -8.353   3.547  65.884  1.00  0.00    -0.106 A  
HETATM   25  F   UNL     1      -7.870   2.323  65.642  1.00  0.00    -0.072 F  
HETATM   26  C   UNL     1      -9.563   3.685  66.554  1.00  0.00    -0.159 A  
HETATM   27  C   UNL     1     -10.077   4.960  66.802  1.00  0.00    -0.269 A  
ENDBRANCH  19  21
ENDBRANCH  18  19
ENDBRANCH  17  18
ENDBRANCH  16  17
ENDBRANCH   8  16
TORSDOF 6
ENDMDL
MODEL      179
REMARK 921   NORMALIZED FREE ENERGY PREDICTED BY IDOCK:   -4.17 KCAL/MOL
REMARK 922        TOTAL FREE ENERGY PREDICTED BY IDOCK:   -6.94 KCAL/MOL
REMARK 923 INTER-LIGAND FREE ENERGY PREDICTED BY IDOCK:   -6.15 KCAL/MOL
REMARK 924 INTRA-LIGAND FREE ENERGY PREDICTED BY IDOCK:   -0.80 KCAL/MOL
REMARK 927      BINDING AFFINITY PREDICTED BY RF-SCORE:    0.00 PKD
ROOT
HETATM    1  O   UNL     1     -11.635  10.511  67.402  1.00  0.00    -0.498 OA 
HETATM    2  C   UNL     1     -10.700  11.031  66.440  1.00  0.00    -0.227 C  
HETATM    3  H   UNL     1     -11.143  10.240  68.168  1.00  0.00     0.000 HD 
HETATM    4  C   UNL     1     -11.499  11.470  65.198  1.00  0.00    -0.090 C  
HETATM    5  C   UNL     1      -9.961  12.217  67.093  1.00  0.00    -0.210 C  
HETATM    6  C   UNL     1     -12.324  12.730  65.471  1.00  0.00    -0.434 C  
HETATM    7  C   UNL     1     -10.858  13.447  67.248  1.00  0.00    -0.269 C  
HETATM    8  N   UNL     1     -11.532  13.848  66.004  1.00  0.00    -0.331 NA 
ENDROOT
BRANCH   2   9
HETATM    9  C   UNL     1      -9.707   9.914  66.090  1.00  0.00    -0.297 A  
HETATM   10  C   UNL     1      -9.936   8.583  66.487  1.00  0.00    -0.350 A  
HETATM   11  C   UNL     1      -8.521  10.189  65.383  1.00  0.00    -0.162 A  
HETATM   12  C   UNL     1      -7.841   7.876  65.525  1.00  0.00    -0.112 A  
HETATM   13  C   UNL     1      -9.012   7.573  66.209  1.00  0.00    -0.199 A  
HETATM   14 CL   UNL     1      -6.691   6.637  65.204  1.00  0.00    -0.049 Cl 
HETATM   15  C   UNL     1      -7.593   9.179  65.104  1.00  0.00    -0.098 A  
ENDBRANCH   2   9
BRANCH   8  16
HETATM   16  C   UNL     1     -10.583  14.426  65.036  1.00  0.00    -0.432 C  
BRANCH  16  17
HETATM   17  C   UNL     1      -9.574  15.402  65.648  1.00  0.00    -0.323 C  
BRANCH  17  18
HETATM   18  C   UNL     1     -10.230  16.692  66.140  1.00  0.00    -0.360 C  
BRANCH  18  19
HETATM   19  C   UNL     1      -9.806  17.024  67.556  1.00  0.00    -0.258 C  
HETATM   20  O   UNL     1      -8.897  17.811  67.814  1.00  0.00    -0.242 OA 
BRANCH  19  21
HETATM   21  C   UNL     1     -10.492  16.328  68.675  1.00  0.00    -0.282 A  
HETATM   22  C   UNL     1      -9.701  15.768  69.691  1.00  0.00    -0.248 A  
HETATM   23  C   UNL     1     -10.298  15.085  70.751  1.00  0.00     0.344 A  
HETATM   24  C   UNL     1     -11.683  14.976  70.800  1.00  0.00    -0.320 A  
HETATM   25  F   UNL     1     -12.256  14.321  71.816  1.00  0.00    -0.379 F  
HETATM   26  C   UNL     1     -12.482  15.537  69.810  1.00  0.00    -0.188 A  
HETATM   27  C   UNL     1     -11.890  16.215  68.742  1.00  0.00    -0.130 A  
ENDBRANCH  19  21
ENDBRANCH  18  19
ENDBRANCH  17  18
ENDBRANCH  16  17
ENDBRANCH   8  16
TORSDOF 6
ENDMDL
MODEL      180
REMARK 921   NORMALIZED FREE ENERGY PREDICTED BY IDOCK:   -4.15 KCAL/MOL
REMARK 922        TOTAL FREE ENERGY PREDICTED BY IDOCK:   -6.91 KCAL/MOL
REMARK 923 INTER-LIGAND FREE ENERGY PREDICTED BY IDOCK:   -5.98 KCAL/MOL
REMARK 924 INTRA-LIGAND FREE ENERGY PREDICTED BY IDOCK:   -0.93 KCAL/MOL
REMARK 927      BINDING AFFINITY PREDICTED BY RF-SCORE:    0.00 PKD
ROOT
HETATM    1  O   UNL     1     -12.252  14.465  67.982  1.00  0.00    -0.584 OA 
HETATM    2  C   UNL     1     -11.112  13.973  68.710  1.00  0.00    -0.264 C  
HETATM    3  H   UNL     1     -11.959  14.696  67.108  1.00  0.00     0.000 HD 
HETATM    4  C   UNL     1     -11.587  13.599  70.127  1.00  0.00    -0.208 C  
HETATM    5  C   UNL     1     -10.558  12.750  67.951  1.00  0.00    -0.232 C  
HETATM    6  C   UNL     1     -12.458  12.341  70.120  1.00  0.00    -0.023 C  
HETATM    7  C   UNL     1     -11.471  11.527  68.074  1.00  0.00    -0.311 C  
HETATM    8  N   UNL     1     -11.824  11.190  69.462  1.00  0.00    -0.323 NA 
ENDROOT
BRANCH   2   9
HETATM    9  C   UNL     1     -10.060  15.090  68.758  1.00  0.00    -0.231 A  
HETATM   10  C   UNL     1     -10.398  16.424  68.462  1.00  0.00    -0.270 A  
HETATM   11  C   UNL     1      -8.716  14.811  69.072  1.00  0.00    -0.139 A  
HETATM   12  C   UNL     1      -8.110  17.127  68.758  1.00  0.00    -0.252 A  
HETATM   13  C   UNL     1      -9.432  17.434  68.460  1.00  0.00    -0.297 A  
HETATM   14 CL   UNL     1      -6.916  18.367  68.731  1.00  0.00    -0.281 Cl 
HETATM   15  C   UNL     1      -7.747  15.821  69.071  1.00  0.00    -0.202 A  
ENDBRANCH   2   9
BRANCH   8  16
HETATM   16  C   UNL     1     -10.669  10.640  70.195  1.00  0.00    -0.087 C  
BRANCH  16  17
HETATM   17  C   UNL     1     -11.039   9.652  71.305  1.00  0.00    -0.426 C  
BRANCH  17  18
HETATM   18  C   UNL     1     -11.401   8.269  70.764  1.00  0.00    -0.285 C  
BRANCH  18  19
HETATM   19  C   UNL     1     -10.162   7.462  70.433  1.00  0.00    -0.198 C  
HETATM   20  O   UNL     1      -9.412   7.008  71.295  1.00  0.00    -0.164 OA 
BRANCH  19  21
HETATM   21  C   UNL     1      -9.821   7.255  69.002  1.00  0.00    -0.165 A  
HETATM   22  C   UNL     1      -8.926   6.225  68.677  1.00  0.00    -0.127 A  
HETATM   23  C   UNL     1      -8.557   6.006  67.349  1.00  0.00    -0.102 A  
HETATM   24  C   UNL     1      -9.096   6.808  66.350  1.00  0.00    -0.152 A  
HETATM   25  F   UNL     1      -8.743   6.598  65.076  1.00  0.00    -0.102 F  
HETATM   26  C   UNL     1      -9.996   7.823  66.652  1.00  0.00    -0.299 A  
HETATM   27  C   UNL     1     -10.362   8.053  67.981  1.00  0.00    -0.262 A  
ENDBRANCH  19  21
ENDBRANCH  18  19
ENDBRANCH  17  18
ENDBRANCH  16  17
ENDBRANCH   8  16
TORSDOF 6
ENDMDL
MODEL      181
REMARK 921   NORMALIZED FREE ENERGY PREDICTED BY IDOCK:   -4.13 KCAL/MOL
REMARK 922        TOTAL FREE ENERGY PREDICTED BY IDOCK:   -6.89 KCAL/MOL
REMARK 923 INTER-LIGAND FREE ENERGY PREDICTED BY IDOCK:   -6.06 KCAL/MOL
REMARK 924 INTRA-LIGAND FREE ENERGY PREDICTED BY IDOCK:   -0.82 KCAL/MOL
REMARK 927      BINDING AFFINITY PREDICTED BY RF-SCORE:    0.00 PKD
ROOT
HETATM    1  O   UNL     1     -11.130   8.177  67.968  1.00  0.00    -0.451 OA 
HETATM    2  C   UNL     1      -9.913   8.644  67.359  1.00  0.00    -0.210 C  
HETATM    3  H   UNL     1     -10.895   7.548  68.640  1.00  0.00     0.000 HD 
HETATM    4  C   UNL     1     -10.294   9.665  66.270  1.00  0.00    -0.230 C  
HETATM    5  C   UNL     1      -9.047   9.285  68.464  1.00  0.00    -0.132 C  
HETATM    6  C   UNL     1     -10.806  10.974  66.873  1.00  0.00    -0.269 C  
HETATM    7  C   UNL     1      -9.610  10.626  68.940  1.00  0.00    -0.196 C  
HETATM    8  N   UNL     1      -9.884  11.573  67.848  1.00  0.00    -0.180 NA 
ENDROOT
BRANCH   2   9
HETATM    9  C   UNL     1      -9.190   7.434  66.753  1.00  0.00    -0.190 A  
HETATM   10  C   UNL     1      -9.871   6.228  66.499  1.00  0.00    -0.176 A  
HETATM   11  C   UNL     1      -7.814   7.481  66.456  1.00  0.00    -0.102 A  
HETATM   12  C   UNL     1      -7.843   5.180  65.722  1.00  0.00    -0.095 A  
HETATM   13  C   UNL     1      -9.205   5.111  65.990  1.00  0.00    -0.159 A  
HETATM   14 CL   UNL     1      -7.017   3.797  65.118  1.00  0.00    -0.059 Cl 
HETATM   15  C   UNL     1      -7.144   6.363  65.947  1.00  0.00    -0.066 A  
ENDBRANCH   2   9
BRANCH   8  16
HETATM   16  C   UNL     1      -8.636  12.090  67.256  1.00  0.00    -0.177 C  
BRANCH  16  17
HETATM   17  C   UNL     1      -8.674  13.580  66.905  1.00  0.00    -0.158 C  
BRANCH  17  18
HETATM   18  C   UNL     1      -9.801  14.323  67.622  1.00  0.00    -0.224 C  
BRANCH  18  19
HETATM   19  C   UNL     1      -9.263  15.447  68.484  1.00  0.00    -0.198 C  
HETATM   20  O   UNL     1      -8.730  15.254  69.575  1.00  0.00    -0.241 OA 
BRANCH  19  21
HETATM   21  C   UNL     1      -9.434  16.842  68.005  1.00  0.00    -0.243 A  
HETATM   22  C   UNL     1      -8.755  17.865  68.686  1.00  0.00    -0.270 A  
HETATM   23  C   UNL     1      -8.902  19.194  68.288  1.00  0.00    -0.377 A  
HETATM   24  C   UNL     1      -9.714  19.495  67.200  1.00  0.00    -0.342 A  
HETATM   25  F   UNL     1      -9.854  20.769  66.817  1.00  0.00    -0.555 F  
HETATM   26  C   UNL     1     -10.381  18.494  66.504  1.00  0.00    -0.447 A  
HETATM   27  C   UNL     1     -10.246  17.162  66.904  1.00  0.00    -0.315 A  
ENDBRANCH  19  21
ENDBRANCH  18  19
ENDBRANCH  17  18
ENDBRANCH  16  17
ENDBRANCH   8  16
TORSDOF 6
ENDMDL
MODEL      182
REMARK 921   NORMALIZED FREE ENERGY PREDICTED BY IDOCK:   -4.09 KCAL/MOL
REMARK 922        TOTAL FREE ENERGY PREDICTED BY IDOCK:   -6.84 KCAL/MOL
REMARK 923 INTER-LIGAND FREE ENERGY PREDICTED BY IDOCK:   -6.35 KCAL/MOL
REMARK 924 INTRA-LIGAND FREE ENERGY PREDICTED BY IDOCK:   -0.49 KCAL/MOL
REMARK 927      BINDING AFFINITY PREDICTED BY RF-SCORE:    0.00 PKD
ROOT
HETATM    1  O   UNL     1     -12.673  11.371  71.841  1.00  0.00    -0.323 OA 
HETATM    2  C   UNL     1     -12.333  10.479  70.765  1.00  0.00    -0.378 C  
HETATM    3  H   UNL     1     -13.409  11.901  71.557  1.00  0.00     0.000 HD 
HETATM    4  C   UNL     1     -11.139   9.621  71.225  1.00  0.00    -0.426 C  
HETATM    5  C   UNL     1     -13.573   9.615  70.458  1.00  0.00     0.320 C  
HETATM    6  C   UNL     1     -11.550   8.603  72.291  1.00  0.00    -0.354 C  
HETATM    7  C   UNL     1     -13.847   8.581  71.552  1.00  0.00    -0.328 C  
HETATM    8  N   UNL     1     -12.679   7.752  71.888  1.00  0.00    -0.314 NA 
ENDROOT
BRANCH   2   9
HETATM    9  C   UNL     1     -11.962  11.329  69.541  1.00  0.00    -0.421 A  
HETATM   10  C   UNL     1     -12.103  12.730  69.556  1.00  0.00    -0.265 A  
HETATM   11  C   UNL     1     -11.495  10.732  68.355  1.00  0.00    -0.358 A  
HETATM   12  C   UNL     1     -11.365  12.884  67.266  1.00  0.00    -0.310 A  
HETATM   13  C   UNL     1     -11.809  13.501  68.429  1.00  0.00    -0.408 A  
HETATM   14 CL   UNL     1     -11.027  13.832  65.869  1.00  0.00    -0.282 Cl 
HETATM   15  C   UNL     1     -11.200  11.503  67.224  1.00  0.00    -0.365 A  
ENDBRANCH   2   9
BRANCH   8  16
HETATM   16  C   UNL     1     -12.360   6.804  70.806  1.00  0.00    -0.232 C  
BRANCH  16  17
HETATM   17  C   UNL     1     -10.910   6.309  70.807  1.00  0.00    -0.339 C  
BRANCH  17  18
HETATM   18  C   UNL     1     -10.647   5.261  69.725  1.00  0.00    -0.283 C  
BRANCH  18  19
HETATM   19  C   UNL     1     -10.546   5.895  68.353  1.00  0.00    -0.250 C  
HETATM   20  O   UNL     1     -11.201   6.882  68.023  1.00  0.00    -0.133 OA 
BRANCH  19  21
HETATM   21  C   UNL     1      -9.648   5.263  67.353  1.00  0.00    -0.146 A  
HETATM   22  C   UNL     1      -8.285   5.143  67.668  1.00  0.00    -0.099 A  
HETATM   23  C   UNL     1      -7.398   4.577  66.752  1.00  0.00    -0.081 A  
HETATM   24  C   UNL     1      -7.878   4.120  65.530  1.00  0.00    -0.090 A  
HETATM   25  F   UNL     1      -7.028   3.576  64.651  1.00  0.00    -0.047 F  
HETATM   26  C   UNL     1      -9.226   4.217  65.207  1.00  0.00    -0.153 A  
HETATM   27  C   UNL     1     -10.118   4.791  66.117  1.00  0.00    -0.288 A  
ENDBRANCH  19  21
ENDBRANCH  18  19
ENDBRANCH  17  18
ENDBRANCH  16  17
ENDBRANCH   8  16
TORSDOF 6
ENDMDL
MODEL      183
REMARK 921   NORMALIZED FREE ENERGY PREDICTED BY IDOCK:   -4.08 KCAL/MOL
REMARK 922        TOTAL FREE ENERGY PREDICTED BY IDOCK:   -6.82 KCAL/MOL
REMARK 923 INTER-LIGAND FREE ENERGY PREDICTED BY IDOCK:   -6.25 KCAL/MOL
REMARK 924 INTRA-LIGAND FREE ENERGY PREDICTED BY IDOCK:   -0.57 KCAL/MOL
REMARK 927      BINDING AFFINITY PREDICTED BY RF-SCORE:    0.00 PKD
ROOT
HETATM    1  O   UNL     1     -11.465  10.168  67.829  1.00  0.00    -0.596 OA 
HETATM    2  C   UNL     1     -10.351  10.961  67.380  1.00  0.00    -0.211 C  
HETATM    3  H   UNL     1     -11.305   9.930  68.734  1.00  0.00     0.000 HD 
HETATM    4  C   UNL     1     -10.610  11.347  65.911  1.00  0.00    -0.317 C  
HETATM    5  C   UNL     1     -10.258  12.203  68.290  1.00  0.00    -0.209 C  
HETATM    6  C   UNL     1     -11.734  12.378  65.786  1.00  0.00    -0.414 C  
HETATM    7  C   UNL     1     -11.387  13.202  68.027  1.00  0.00    -0.292 C  
HETATM    8  N   UNL     1     -11.528  13.576  66.612  1.00  0.00    -0.326 NA 
ENDROOT
BRANCH   2   9
HETATM    9  C   UNL     1      -9.079  10.111  67.511  1.00  0.00    -0.143 A  
HETATM   10  C   UNL     1      -7.809  10.708  67.616  1.00  0.00    -0.105 A  
HETATM   11  C   UNL     1      -9.140   8.703  67.502  1.00  0.00    -0.146 A  
HETATM   12  C   UNL     1      -6.735   8.550  67.662  1.00  0.00    -0.066 A  
HETATM   13  C   UNL     1      -6.647   9.936  67.690  1.00  0.00    -0.068 A  
HETATM   14 CL   UNL     1      -5.302   7.598  67.728  1.00  0.00    -0.029 Cl 
HETATM   15  C   UNL     1      -7.977   7.928  67.575  1.00  0.00    -0.123 A  
ENDBRANCH   2   9
BRANCH   8  16
HETATM   16  C   UNL     1     -10.412  14.429  66.164  1.00  0.00    -0.291 C  
BRANCH  16  17
HETATM   17  C   UNL     1      -9.877  15.383  67.236  1.00  0.00    -0.217 C  
BRANCH  17  18
HETATM   18  C   UNL     1     -10.958  16.314  67.786  1.00  0.00    -0.281 C  
BRANCH  18  19
HETATM   19  C   UNL     1     -10.714  16.647  69.243  1.00  0.00    -0.337 C  
HETATM   20  O   UNL     1      -9.810  17.393  69.615  1.00  0.00     0.087 OA 
BRANCH  19  21
HETATM   21  C   UNL     1     -11.580  16.004  70.264  1.00  0.00    -0.335 A  
HETATM   22  C   UNL     1     -11.071  15.852  71.564  1.00  0.00    -0.099 A  
HETATM   23  C   UNL     1     -11.838  15.234  72.552  1.00  0.00    -0.532 A  
HETATM   24  C   UNL     1     -13.115  14.781  72.242  1.00  0.00    -0.356 A  
HETATM   25  F   UNL     1     -13.851  14.189  73.189  1.00  0.00    -0.399 F  
HETATM   26  C   UNL     1     -13.640  14.936  70.964  1.00  0.00    -0.402 A  
HETATM   27  C   UNL     1     -12.874  15.547  69.969  1.00  0.00    -0.047 A  
ENDBRANCH  19  21
ENDBRANCH  18  19
ENDBRANCH  17  18
ENDBRANCH  16  17
ENDBRANCH   8  16
TORSDOF 6
ENDMDL
MODEL      184
REMARK 921   NORMALIZED FREE ENERGY PREDICTED BY IDOCK:   -4.06 KCAL/MOL
REMARK 922        TOTAL FREE ENERGY PREDICTED BY IDOCK:   -6.79 KCAL/MOL
REMARK 923 INTER-LIGAND FREE ENERGY PREDICTED BY IDOCK:   -5.19 KCAL/MOL
REMARK 924 INTRA-LIGAND FREE ENERGY PREDICTED BY IDOCK:   -1.60 KCAL/MOL
REMARK 927      BINDING AFFINITY PREDICTED BY RF-SCORE:    0.00 PKD
ROOT
HETATM    1  O   UNL     1      -8.998  11.442  69.315  1.00  0.00    -0.382 OA 
HETATM    2  C   UNL     1      -8.367  10.246  68.824  1.00  0.00    -0.125 C  
HETATM    3  H   UNL     1      -9.929  11.373  69.138  1.00  0.00     0.000 HD 
HETATM    4  C   UNL     1      -6.857  10.359  69.110  1.00  0.00    -0.066 C  
HETATM    5  C   UNL     1      -8.999   9.044  69.556  1.00  0.00    -0.147 C  
HETATM    6  C   UNL     1      -6.551  10.225  70.603  1.00  0.00    -0.036 C  
HETATM    7  C   UNL     1      -8.565   8.963  71.022  1.00  0.00    -0.206 C  
HETATM    8  N   UNL     1      -7.107   9.007  71.210  1.00  0.00    -0.176 NA 
ENDROOT
BRANCH   2   9
HETATM    9  C   UNL     1      -8.637  10.150  67.316  1.00  0.00    -0.125 A  
HETATM   10  C   UNL     1      -7.970   9.206  66.513  1.00  0.00    -0.100 A  
HETATM   11  C   UNL     1      -9.543  11.023  66.682  1.00  0.00    -0.216 A  
HETATM   12  C   UNL     1      -9.068  10.032  64.531  1.00  0.00    -0.243 A  
HETATM   13  C   UNL     1      -8.181   9.148  65.133  1.00  0.00    -0.147 A  
HETATM   14 CL   UNL     1      -9.309   9.977  62.828  1.00  0.00    -0.307 Cl 
HETATM   15  C   UNL     1      -9.755  10.966  65.300  1.00  0.00    -0.296 A  
ENDBRANCH   2   9
BRANCH   8  16
HETATM   16  C   UNL     1      -6.464   7.761  70.753  1.00  0.00    -0.038 C  
BRANCH  16  17
HETATM   17  C   UNL     1      -6.798   6.530  71.600  1.00  0.00    -0.067 C  
BRANCH  17  18
HETATM   18  C   UNL     1      -7.332   5.368  70.763  1.00  0.00    -0.078 C  
BRANCH  18  19
HETATM   19  C   UNL     1      -8.529   4.714  71.422  1.00  0.00    -0.107 C  
HETATM   20  O   UNL     1      -8.473   3.612  71.963  1.00  0.00    -0.084 OA 
BRANCH  19  21
HETATM   21  C   UNL     1      -9.834   5.421  71.366  1.00  0.00    -0.221 A  
HETATM   22  C   UNL     1     -10.392   5.684  70.105  1.00  0.00    -0.341 A  
HETATM   23  C   UNL     1     -11.604   6.366  70.000  1.00  0.00    -0.446 A  
HETATM   24  C   UNL     1     -12.263   6.769  71.156  1.00  0.00    -0.360 A  
HETATM   25  F   UNL     1     -13.426   7.422  71.055  1.00  0.00    -0.366 F  
HETATM   26  C   UNL     1     -11.733   6.504  72.413  1.00  0.00    -0.271 A  
HETATM   27  C   UNL     1     -10.515   5.830  72.524  1.00  0.00    -0.246 A  
ENDBRANCH  19  21
ENDBRANCH  18  19
ENDBRANCH  17  18
ENDBRANCH  16  17
ENDBRANCH   8  16
TORSDOF 6
ENDMDL
MODEL      185
REMARK 921   NORMALIZED FREE ENERGY PREDICTED BY IDOCK:   -4.02 KCAL/MOL
REMARK 922        TOTAL FREE ENERGY PREDICTED BY IDOCK:   -6.73 KCAL/MOL
REMARK 923 INTER-LIGAND FREE ENERGY PREDICTED BY IDOCK:   -5.96 KCAL/MOL
REMARK 924 INTRA-LIGAND FREE ENERGY PREDICTED BY IDOCK:   -0.78 KCAL/MOL
REMARK 927      BINDING AFFINITY PREDICTED BY RF-SCORE:    0.00 PKD
ROOT
HETATM    1  O   UNL     1      -7.526   7.370  67.749  1.00  0.00    -0.096 OA 
HETATM    2  C   UNL     1      -8.281   8.560  67.458  1.00  0.00    -0.117 C  
HETATM    3  H   UNL     1      -8.142   6.655  67.858  1.00  0.00     0.000 HD 
HETATM    4  C   UNL     1      -7.282   9.719  67.281  1.00  0.00    -0.086 C  
HETATM    5  C   UNL     1      -9.090   8.302  66.169  1.00  0.00    -0.238 C  
HETATM    6  C   UNL     1      -6.484   9.588  65.982  1.00  0.00    -0.073 C  
HETATM    7  C   UNL     1      -8.203   8.266  64.923  1.00  0.00    -0.151 C  
HETATM    8  N   UNL     1      -7.327   9.440  64.787  1.00  0.00    -0.103 NA 
ENDROOT
BRANCH   2   9
HETATM    9  C   UNL     1      -9.229   8.822  68.636  1.00  0.00    -0.141 A  
HETATM   10  C   UNL     1      -9.423   7.860  69.645  1.00  0.00    -0.160 A  
HETATM   11  C   UNL     1      -9.957  10.024  68.732  1.00  0.00    -0.181 A  
HETATM   12  C   UNL     1     -11.037   9.267  70.755  1.00  0.00    -0.285 A  
HETATM   13  C   UNL     1     -10.319   8.078  70.694  1.00  0.00    -0.211 A  
HETATM   14 CL   UNL     1     -12.159   9.526  72.033  1.00  0.00    -0.397 Cl 
HETATM   15  C   UNL     1     -10.855  10.245  69.781  1.00  0.00    -0.332 A  
ENDBRANCH   2   9
BRANCH   8  16
HETATM   16  C   UNL     1      -8.094  10.650  64.440  1.00  0.00     0.044 C  
BRANCH  16  17
HETATM   17  C   UNL     1      -9.614  10.477  64.515  1.00  0.00    -0.359 C  
BRANCH  17  18
HETATM   18  C   UNL     1     -10.368  11.768  64.195  1.00  0.00    -0.376 C  
BRANCH  18  19
HETATM   19  C   UNL     1     -10.977  12.377  65.442  1.00  0.00    -0.299 C  
HETATM   20  O   UNL     1     -12.037  11.986  65.925  1.00  0.00    -0.546 OA 
BRANCH  19  21
HETATM   21  C   UNL     1     -10.280  13.527  66.074  1.00  0.00    -0.308 A  
HETATM   22  C   UNL     1      -9.584  13.303  67.272  1.00  0.00    -0.234 A  
HETATM   23  C   UNL     1      -8.933  14.355  67.916  1.00  0.00    -0.186 A  
HETATM   24  C   UNL     1      -8.967  15.626  67.351  1.00  0.00    -0.194 A  
HETATM   25  F   UNL     1      -8.342  16.636  67.967  1.00  0.00    -0.173 F  
HETATM   26  C   UNL     1      -9.638  15.863  66.157  1.00  0.00    -0.365 A  
HETATM   27  C   UNL     1     -10.299  14.814  65.513  1.00  0.00    -0.387 A  
ENDBRANCH  19  21
ENDBRANCH  18  19
ENDBRANCH  17  18
ENDBRANCH  16  17
ENDBRANCH   8  16
TORSDOF 6
ENDMDL
MODEL      186
REMARK 921   NORMALIZED FREE ENERGY PREDICTED BY IDOCK:   -3.95 KCAL/MOL
REMARK 922        TOTAL FREE ENERGY PREDICTED BY IDOCK:   -6.65 KCAL/MOL
REMARK 923 INTER-LIGAND FREE ENERGY PREDICTED BY IDOCK:   -6.04 KCAL/MOL
REMARK 924 INTRA-LIGAND FREE ENERGY PREDICTED BY IDOCK:   -0.61 KCAL/MOL
REMARK 927      BINDING AFFINITY PREDICTED BY RF-SCORE:    0.00 PKD
ROOT
HETATM    1  O   UNL     1     -11.577   7.211  69.133  1.00  0.00    -0.446 OA 
HETATM    2  C   UNL     1     -10.264   7.712  68.826  1.00  0.00    -0.199 C  
HETATM    3  H   UNL     1     -11.511   6.692  69.927  1.00  0.00     0.000 HD 
HETATM    4  C   UNL     1     -10.372   8.553  67.540  1.00  0.00    -0.334 C  
HETATM    5  C   UNL     1      -9.789   8.559  70.024  1.00  0.00    -0.181 C  
HETATM    6  C   UNL     1     -11.107   9.872  67.784  1.00  0.00    -0.129 C  
HETATM    7  C   UNL     1     -10.538   9.890  70.129  1.00  0.00    -0.297 C  
HETATM    8  N   UNL     1     -10.538  10.668  68.881  1.00  0.00    -0.198 NA 
ENDROOT
BRANCH   2   9
HETATM    9  C   UNL     1      -9.331   6.510  68.623  1.00  0.00    -0.125 A  
HETATM   10  C   UNL     1      -7.950   6.606  68.877  1.00  0.00    -0.112 A  
HETATM   11  C   UNL     1      -9.824   5.278  68.150  1.00  0.00    -0.198 A  
HETATM   12  C   UNL     1      -7.604   4.328  68.167  1.00  0.00    -0.068 A  
HETATM   13  C   UNL     1      -7.093   5.527  68.650  1.00  0.00    -0.065 A  
HETATM   14 CL   UNL     1      -6.544   3.006  67.863  1.00  0.00    -0.036 Cl 
HETATM   15  C   UNL     1      -8.967   4.195  67.921  1.00  0.00    -0.146 A  
ENDBRANCH   2   9
BRANCH   8  16
HETATM   16  C   UNL     1      -9.204  11.224  68.591  1.00  0.00    -0.161 C  
BRANCH  16  17
HETATM   17  C   UNL     1      -9.224  12.626  67.975  1.00  0.00    -0.208 C  
BRANCH  17  18
HETATM   18  C   UNL     1      -9.173  12.596  66.447  1.00  0.00    -0.162 C  
BRANCH  18  19
HETATM   19  C   UNL     1     -10.091  13.639  65.842  1.00  0.00    -0.310 C  
HETATM   20  O   UNL     1     -10.681  13.472  64.777  1.00  0.00    -0.353 OA 
BRANCH  19  21
HETATM   21  C   UNL     1     -10.241  14.936  66.550  1.00  0.00    -0.281 A  
HETATM   22  C   UNL     1      -9.422  16.006  66.154  1.00  0.00    -0.371 A  
HETATM   23  C   UNL     1      -9.510  17.237  66.804  1.00  0.00    -0.274 A  
HETATM   24  C   UNL     1     -10.426  17.400  67.837  1.00  0.00    -0.383 A  
HETATM   25  F   UNL     1     -10.512  18.581  68.460  1.00  0.00    -0.369 F  
HETATM   26  C   UNL     1     -11.255  16.357  68.232  1.00  0.00    -0.300 A  
HETATM   27  C   UNL     1     -11.165  15.119  67.591  1.00  0.00    -0.329 A  
ENDBRANCH  19  21
ENDBRANCH  18  19
ENDBRANCH  17  18
ENDBRANCH  16  17
ENDBRANCH   8  16
TORSDOF 6
ENDMDL
MODEL      187
REMARK 921   NORMALIZED FREE ENERGY PREDICTED BY IDOCK:   -3.95 KCAL/MOL
REMARK 922        TOTAL FREE ENERGY PREDICTED BY IDOCK:   -6.65 KCAL/MOL
REMARK 923 INTER-LIGAND FREE ENERGY PREDICTED BY IDOCK:   -5.18 KCAL/MOL
REMARK 924 INTRA-LIGAND FREE ENERGY PREDICTED BY IDOCK:   -1.47 KCAL/MOL
REMARK 927      BINDING AFFINITY PREDICTED BY RF-SCORE:    0.00 PKD
ROOT
HETATM    1  O   UNL     1     -12.406  10.696  68.338  1.00  0.00    -0.776 OA 
HETATM    2  C   UNL     1     -11.094  11.093  67.900  1.00  0.00    -0.273 C  
HETATM    3  H   UNL     1     -12.364  10.537  69.274  1.00  0.00     0.000 HD 
HETATM    4  C   UNL     1     -11.163  11.350  66.383  1.00  0.00    -0.250 C  
HETATM    5  C   UNL     1     -10.702  12.366  68.679  1.00  0.00    -0.260 C  
HETATM    6  C   UNL     1     -11.946  12.624  66.058  1.00  0.00    -0.417 C  
HETATM    7  C   UNL     1     -11.492  13.594  68.221  1.00  0.00    -0.313 C  
HETATM    8  N   UNL     1     -11.454  13.814  66.767  1.00  0.00    -0.333 NA 
ENDROOT
BRANCH   2   9
HETATM    9  C   UNL     1     -10.120   9.952  68.223  1.00  0.00    -0.185 A  
HETATM   10  C   UNL     1      -9.062  10.131  69.134  1.00  0.00    -0.189 A  
HETATM   11  C   UNL     1     -10.237   8.695  67.597  1.00  0.00    -0.300 A  
HETATM   12  C   UNL     1      -8.276   7.884  68.751  1.00  0.00    -0.127 A  
HETATM   13  C   UNL     1      -8.147   9.108  69.395  1.00  0.00    -0.102 A  
HETATM   14 CL   UNL     1      -7.135   6.632  69.053  1.00  0.00    -0.086 Cl 
HETATM   15  C   UNL     1      -9.321   7.670  67.857  1.00  0.00    -0.146 A  
ENDBRANCH   2   9
BRANCH   8  16
HETATM   16  C   UNL     1     -10.123  14.269  66.325  1.00  0.00    -0.298 C  
BRANCH  16  17
HETATM   17  C   UNL     1      -9.344  15.062  67.378  1.00  0.00    -0.204 C  
BRANCH  17  18
HETATM   18  C   UNL     1      -7.836  15.049  67.126  1.00  0.00    -0.224 C  
BRANCH  18  19
HETATM   19  C   UNL     1      -7.212  13.741  67.569  1.00  0.00    -0.158 C  
HETATM   20  O   UNL     1      -7.166  12.747  66.848  1.00  0.00     0.033 OA 
BRANCH  19  21
HETATM   21  C   UNL     1      -6.679  13.651  68.952  1.00  0.00    -0.108 A  
HETATM   22  C   UNL     1      -6.133  12.429  69.374  1.00  0.00    -0.108 A  
HETATM   23  C   UNL     1      -5.639  12.288  70.672  1.00  0.00    -0.161 A  
HETATM   24  C   UNL     1      -5.680  13.375  71.538  1.00  0.00     0.002 A  
HETATM   25  F   UNL     1      -5.206  13.241  72.783  1.00  0.00    -0.145 F  
HETATM   26  C   UNL     1      -6.203  14.597  71.133  1.00  0.00     0.122 A  
HETATM   27  C   UNL     1      -6.706  14.741  69.838  1.00  0.00    -0.172 A  
ENDBRANCH  19  21
ENDBRANCH  18  19
ENDBRANCH  17  18
ENDBRANCH  16  17
ENDBRANCH   8  16
TORSDOF 6
ENDMDL
MODEL      188
REMARK 921   NORMALIZED FREE ENERGY PREDICTED BY IDOCK:   -3.94 KCAL/MOL
REMARK 922        TOTAL FREE ENERGY PREDICTED BY IDOCK:   -6.63 KCAL/MOL
REMARK 923 INTER-LIGAND FREE ENERGY PREDICTED BY IDOCK:   -5.74 KCAL/MOL
REMARK 924 INTRA-LIGAND FREE ENERGY PREDICTED BY IDOCK:   -0.89 KCAL/MOL
REMARK 927      BINDING AFFINITY PREDICTED BY RF-SCORE:    0.00 PKD
ROOT
HETATM    1  O   UNL     1     -10.191   8.564  66.354  1.00  0.00    -0.371 OA 
HETATM    2  C   UNL     1     -10.167   8.203  67.747  1.00  0.00    -0.228 C  
HETATM    3  H   UNL     1      -9.669   9.351  66.250  1.00  0.00     0.000 HD 
HETATM    4  C   UNL     1     -11.014   6.927  67.915  1.00  0.00    -0.260 C  
HETATM    5  C   UNL     1      -8.696   7.969  68.148  1.00  0.00    -0.126 C  
HETATM    6  C   UNL     1     -10.322   5.703  67.313  1.00  0.00    -0.241 C  
HETATM    7  C   UNL     1      -8.128   6.679  67.553  1.00  0.00    -0.118 C  
HETATM    8  N   UNL     1      -8.957   5.492  67.815  1.00  0.00    -0.109 NA 
ENDROOT
BRANCH   2   9
HETATM    9  C   UNL     1     -10.759   9.369  68.551  1.00  0.00    -0.203 A  
HETATM   10  C   UNL     1     -11.245  10.524  67.911  1.00  0.00    -0.358 A  
HETATM   11  C   UNL     1     -10.808   9.331  69.958  1.00  0.00    -0.264 A  
HETATM   12  C   UNL     1     -11.764  11.548  70.032  1.00  0.00    -0.332 A  
HETATM   13  C   UNL     1     -11.743  11.605  68.643  1.00  0.00    -0.386 A  
HETATM   14 CL   UNL     1     -12.353  12.889  70.935  1.00  0.00    -0.436 Cl 
HETATM   15  C   UNL     1     -11.305  10.413  70.694  1.00  0.00    -0.411 A  
ENDBRANCH   2   9
BRANCH   8  16
HETATM   16  C   UNL     1      -8.894   5.091  69.232  1.00  0.00    -0.091 C  
BRANCH  16  17
HETATM   17  C   UNL     1      -7.523   5.292  69.885  1.00  0.00    -0.065 C  
BRANCH  17  18
HETATM   18  C   UNL     1      -7.538   6.382  70.957  1.00  0.00    -0.090 C  
BRANCH  18  19
HETATM   19  C   UNL     1      -7.595   5.788  72.350  1.00  0.00    -0.101 C  
HETATM   20  O   UNL     1      -6.689   5.920  73.169  1.00  0.00    -0.071 OA 
BRANCH  19  21
HETATM   21  C   UNL     1      -8.782   4.974  72.717  1.00  0.00    -0.119 A  
HETATM   22  C   UNL     1      -8.600   3.599  72.935  1.00  0.00    -0.095 A  
HETATM   23  C   UNL     1      -9.688   2.788  73.259  1.00  0.00    -0.149 A  
HETATM   24  C   UNL     1     -10.951   3.356  73.379  1.00  0.00    -0.206 A  
HETATM   25  F   UNL     1     -11.995   2.578  73.690  1.00  0.00    -0.321 F  
HETATM   26  C   UNL     1     -11.147   4.717  73.181  1.00  0.00    -0.388 A  
HETATM   27  C   UNL     1     -10.064   5.533  72.847  1.00  0.00    -0.202 A  
ENDBRANCH  19  21
ENDBRANCH  18  19
ENDBRANCH  17  18
ENDBRANCH  16  17
ENDBRANCH   8  16
TORSDOF 6
ENDMDL
MODEL      189
REMARK 921   NORMALIZED FREE ENERGY PREDICTED BY IDOCK:   -3.94 KCAL/MOL
REMARK 922        TOTAL FREE ENERGY PREDICTED BY IDOCK:   -6.63 KCAL/MOL
REMARK 923 INTER-LIGAND FREE ENERGY PREDICTED BY IDOCK:   -5.88 KCAL/MOL
REMARK 924 INTRA-LIGAND FREE ENERGY PREDICTED BY IDOCK:   -0.76 KCAL/MOL
REMARK 927      BINDING AFFINITY PREDICTED BY RF-SCORE:    0.00 PKD
ROOT
HETATM    1  O   UNL     1     -11.531   6.846  68.339  1.00  0.00    -0.529 OA 
HETATM    2  C   UNL     1     -10.294   7.452  68.755  1.00  0.00    -0.199 C  
HETATM    3  H   UNL     1     -12.072   6.731  69.112  1.00  0.00     0.000 HD 
HETATM    4  C   UNL     1      -9.418   7.639  67.502  1.00  0.00    -0.168 C  
HETATM    5  C   UNL     1     -10.631   8.801  69.423  1.00  0.00    -0.218 C  
HETATM    6  C   UNL     1      -9.959   8.743  66.591  1.00  0.00    -0.285 C  
HETATM    7  C   UNL     1     -11.088   9.854  68.411  1.00  0.00    -0.139 C  
HETATM    8  N   UNL     1     -10.165  10.026  67.278  1.00  0.00    -0.208 NA 
ENDROOT
BRANCH   2   9
HETATM    9  C   UNL     1      -9.620   6.513  69.765  1.00  0.00    -0.161 A  
HETATM   10  C   UNL     1      -8.407   6.860  70.387  1.00  0.00    -0.130 A  
HETATM   11  C   UNL     1     -10.181   5.260  70.081  1.00  0.00    -0.350 A  
HETATM   12  C   UNL     1      -8.336   4.751  71.553  1.00  0.00    -0.109 A  
HETATM   13  C   UNL     1      -7.768   5.988  71.272  1.00  0.00    -0.110 A  
HETATM   14 CL   UNL     1      -7.537   3.665  72.624  1.00  0.00    -0.059 Cl 
HETATM   15  C   UNL     1      -9.543   4.385  70.966  1.00  0.00    -0.249 A  
ENDBRANCH   2   9
BRANCH   8  16
HETATM   16  C   UNL     1      -8.918  10.691  67.694  1.00  0.00    -0.139 C  
BRANCH  16  17
HETATM   17  C   UNL     1      -9.126  11.996  68.468  1.00  0.00    -0.107 C  
BRANCH  17  18
HETATM   18  C   UNL     1      -9.686  13.116  67.590  1.00  0.00    -0.213 C  
BRANCH  18  19
HETATM   19  C   UNL     1      -8.721  14.280  67.494  1.00  0.00    -0.199 C  
HETATM   20  O   UNL     1      -7.532  14.187  67.790  1.00  0.00    -0.131 OA 
BRANCH  19  21
HETATM   21  C   UNL     1      -9.254  15.599  67.066  1.00  0.00    -0.239 A  
HETATM   22  C   UNL     1     -10.073  15.645  65.927  1.00  0.00    -0.378 A  
HETATM   23  C   UNL     1     -10.579  16.864  65.473  1.00  0.00    -0.215 A  
HETATM   24  C   UNL     1     -10.277  18.030  66.168  1.00  0.00    -0.363 A  
HETATM   25  F   UNL     1     -10.762  19.198  65.733  1.00  0.00    -0.506 F  
HETATM   26  C   UNL     1      -9.480  18.001  67.306  1.00  0.00    -0.260 A  
HETATM   27  C   UNL     1      -8.963  16.785  67.760  1.00  0.00    -0.216 A  
ENDBRANCH  19  21
ENDBRANCH  18  19
ENDBRANCH  17  18
ENDBRANCH  16  17
ENDBRANCH   8  16
TORSDOF 6
ENDMDL
MODEL      190
REMARK 921   NORMALIZED FREE ENERGY PREDICTED BY IDOCK:   -3.91 KCAL/MOL
REMARK 922        TOTAL FREE ENERGY PREDICTED BY IDOCK:   -6.59 KCAL/MOL
REMARK 923 INTER-LIGAND FREE ENERGY PREDICTED BY IDOCK:   -5.68 KCAL/MOL
REMARK 924 INTRA-LIGAND FREE ENERGY PREDICTED BY IDOCK:   -0.91 KCAL/MOL
REMARK 927      BINDING AFFINITY PREDICTED BY RF-SCORE:    0.00 PKD
ROOT
HETATM    1  O   UNL     1      -6.077  11.024  68.012  1.00  0.00    -0.049 OA 
HETATM    2  C   UNL     1      -6.960  11.524  69.033  1.00  0.00    -0.112 C  
HETATM    3  H   UNL     1      -6.493  10.269  67.613  1.00  0.00     0.000 HD 
HETATM    4  C   UNL     1      -6.285  12.748  69.679  1.00  0.00    -0.120 C  
HETATM    5  C   UNL     1      -8.297  11.897  68.359  1.00  0.00    -0.157 C  
HETATM    6  C   UNL     1      -6.267  13.951  68.734  1.00  0.00    -0.088 C  
HETATM    7  C   UNL     1      -8.182  13.158  67.499  1.00  0.00    -0.183 C  
HETATM    8  N   UNL     1      -7.593  14.305  68.207  1.00  0.00    -0.119 NA 
ENDROOT
BRANCH   2   9
HETATM    9  C   UNL     1      -7.178  10.406  70.062  1.00  0.00    -0.143 A  
HETATM   10  C   UNL     1      -8.406   9.724  70.149  1.00  0.00    -0.201 A  
HETATM   11  C   UNL     1      -6.164  10.045  70.971  1.00  0.00    -0.005 A  
HETATM   12  C   UNL     1      -7.609   8.413  72.010  1.00  0.00    -0.117 A  
HETATM   13  C   UNL     1      -8.622   8.737  71.115  1.00  0.00    -0.244 A  
HETATM   14 CL   UNL     1      -7.883   7.215  73.215  1.00  0.00    -0.107 Cl 
HETATM   15  C   UNL     1      -6.378   9.058  71.939  1.00  0.00    -0.029 A  
ENDBRANCH   2   9
BRANCH   8  16
HETATM   16  C   UNL     1      -8.516  14.848  69.219  1.00  0.00    -0.116 C  
BRANCH  16  17
HETATM   17  C   UNL     1      -9.999  14.672  68.880  1.00  0.00    -0.228 C  
BRANCH  17  18
HETATM   18  C   UNL     1     -10.649  15.969  68.398  1.00  0.00    -0.270 C  
BRANCH  18  19
HETATM   19  C   UNL     1     -10.635  16.068  66.886  1.00  0.00    -0.300 C  
HETATM   20  O   UNL     1     -10.344  17.101  66.288  1.00  0.00    -0.327 OA 
BRANCH  19  21
HETATM   21  C   UNL     1     -11.038  14.873  66.102  1.00  0.00    -0.335 A  
HETATM   22  C   UNL     1     -10.267  14.523  64.982  1.00  0.00    -0.398 A  
HETATM   23  C   UNL     1     -10.618  13.423  64.201  1.00  0.00    -0.257 A  
HETATM   24  C   UNL     1     -11.731  12.666  64.549  1.00  0.00    -0.359 A  
HETATM   25  F   UNL     1     -12.069  11.610  63.800  1.00  0.00    -0.492 F  
HETATM   26  C   UNL     1     -12.498  12.988  65.662  1.00  0.00    -0.452 A  
HETATM   27  C   UNL     1     -12.156  14.094  66.444  1.00  0.00    -0.475 A  
ENDBRANCH  19  21
ENDBRANCH  18  19
ENDBRANCH  17  18
ENDBRANCH  16  17
ENDBRANCH   8  16
TORSDOF 6
ENDMDL
MODEL      191
REMARK 921   NORMALIZED FREE ENERGY PREDICTED BY IDOCK:   -3.87 KCAL/MOL
REMARK 922        TOTAL FREE ENERGY PREDICTED BY IDOCK:   -6.54 KCAL/MOL
REMARK 923 INTER-LIGAND FREE ENERGY PREDICTED BY IDOCK:   -5.46 KCAL/MOL
REMARK 924 INTRA-LIGAND FREE ENERGY PREDICTED BY IDOCK:   -1.08 KCAL/MOL
REMARK 927      BINDING AFFINITY PREDICTED BY RF-SCORE:    0.00 PKD
ROOT
HETATM    1  O   UNL     1      -8.800  13.197  68.828  1.00  0.00    -0.375 OA 
HETATM    2  C   UNL     1      -8.553  12.257  67.767  1.00  0.00    -0.170 C  
HETATM    3  H   UNL     1      -9.712  13.115  69.083  1.00  0.00     0.000 HD 
HETATM    4  C   UNL     1      -7.075  12.391  67.355  1.00  0.00    -0.152 C  
HETATM    5  C   UNL     1      -8.871  10.846  68.303  1.00  0.00    -0.140 C  
HETATM    6  C   UNL     1      -6.135  11.833  68.426  1.00  0.00    -0.049 C  
HETATM    7  C   UNL     1      -7.826  10.356  69.309  1.00  0.00    -0.147 C  
HETATM    8  N   UNL     1      -6.443  10.450  68.817  1.00  0.00    -0.051 NA 
ENDROOT
BRANCH   2   9
HETATM    9  C   UNL     1      -9.486  12.604  66.598  1.00  0.00    -0.244 A  
HETATM   10  C   UNL     1      -9.954  13.917  66.403  1.00  0.00    -0.303 A  
HETATM   11  C   UNL     1      -9.925  11.613  65.699  1.00  0.00    -0.274 A  
HETATM   12  C   UNL     1     -11.269  13.225  64.504  1.00  0.00    -0.362 A  
HETATM   13  C   UNL     1     -10.839  14.225  65.366  1.00  0.00    -0.348 A  
HETATM   14 CL   UNL     1     -12.379  13.599  63.242  1.00  0.00    -0.277 Cl 
HETATM   15  C   UNL     1     -10.812  11.920  64.661  1.00  0.00    -0.363 A  
ENDBRANCH   2   9
BRANCH   8  16
HETATM   16  C   UNL     1      -6.175   9.454  67.764  1.00  0.00    -0.054 C  
BRANCH  16  17
HETATM   17  C   UNL     1      -6.468   8.008  68.173  1.00  0.00    -0.055 C  
BRANCH  17  18
HETATM   18  C   UNL     1      -7.599   7.385  67.354  1.00  0.00    -0.112 C  
BRANCH  18  19
HETATM   19  C   UNL     1      -8.160   6.152  68.033  1.00  0.00    -0.114 C  
HETATM   20  O   UNL     1      -7.888   5.009  67.672  1.00  0.00    -0.093 OA 
BRANCH  19  21
HETATM   21  C   UNL     1      -9.117   6.343  69.153  1.00  0.00    -0.131 A  
HETATM   22  C   UNL     1     -10.487   6.180  68.890  1.00  0.00    -0.293 A  
HETATM   23  C   UNL     1     -11.426   6.372  69.903  1.00  0.00    -0.483 A  
HETATM   24  C   UNL     1     -10.993   6.710  71.180  1.00  0.00    -0.257 A  
HETATM   25  F   UNL     1     -11.894   6.893  72.153  1.00  0.00    -0.295 F  
HETATM   26  C   UNL     1      -9.641   6.860  71.463  1.00  0.00    -0.162 A  
HETATM   27  C   UNL     1      -8.696   6.679  70.450  1.00  0.00    -0.151 A  
ENDBRANCH  19  21
ENDBRANCH  18  19
ENDBRANCH  17  18
ENDBRANCH  16  17
ENDBRANCH   8  16
TORSDOF 6
ENDMDL
MODEL      192
REMARK 921   NORMALIZED FREE ENERGY PREDICTED BY IDOCK:   -3.85 KCAL/MOL
REMARK 922        TOTAL FREE ENERGY PREDICTED BY IDOCK:   -6.51 KCAL/MOL
REMARK 923 INTER-LIGAND FREE ENERGY PREDICTED BY IDOCK:   -6.40 KCAL/MOL
REMARK 924 INTRA-LIGAND FREE ENERGY PREDICTED BY IDOCK:   -0.11 KCAL/MOL
REMARK 927      BINDING AFFINITY PREDICTED BY RF-SCORE:    0.00 PKD
ROOT
HETATM    1  O   UNL     1      -9.286   5.649  70.924  1.00  0.00    -0.155 OA 
HETATM    2  C   UNL     1      -9.494   7.020  70.541  1.00  0.00    -0.166 C  
HETATM    3  H   UNL     1      -8.384   5.561  71.209  1.00  0.00     0.000 HD 
HETATM    4  C   UNL     1     -10.957   7.162  70.078  1.00  0.00    -0.287 C  
HETATM    5  C   UNL     1      -9.195   7.904  71.769  1.00  0.00    -0.194 C  
HETATM    6  C   UNL     1     -11.935   7.065  71.250  1.00  0.00    -0.346 C  
HETATM    7  C   UNL     1     -10.275   7.787  72.847  1.00  0.00    -0.315 C  
HETATM    8  N   UNL     1     -11.640   8.004  72.342  1.00  0.00    -0.366 NA 
ENDROOT
BRANCH   2   9
HETATM    9  C   UNL     1      -8.520   7.348  69.401  1.00  0.00    -0.133 A  
HETATM   10  C   UNL     1      -8.986   7.673  68.113  1.00  0.00    -0.126 A  
HETATM   11  C   UNL     1      -7.126   7.308  69.600  1.00  0.00    -0.073 A  
HETATM   12  C   UNL     1      -6.730   7.865  67.283  1.00  0.00    -0.069 A  
HETATM   13  C   UNL     1      -8.101   7.928  67.063  1.00  0.00    -0.116 A  
HETATM   14 CL   UNL     1      -5.639   8.154  65.984  1.00  0.00    -0.035 Cl 
HETATM   15  C   UNL     1      -6.238   7.563  68.549  1.00  0.00    -0.032 A  
ENDBRANCH   2   9
BRANCH   8  16
HETATM   16  C   UNL     1     -11.870   9.418  71.996  1.00  0.00    -0.240 C  
BRANCH  16  17
HETATM   17  C   UNL     1     -11.957   9.693  70.492  1.00  0.00    -0.241 C  
BRANCH  17  18
HETATM   18  C   UNL     1     -12.182  11.173  70.178  1.00  0.00    -0.417 C  
BRANCH  18  19
HETATM   19  C   UNL     1     -11.900  11.479  68.721  1.00  0.00    -0.330 C  
HETATM   20  O   UNL     1     -11.808  10.606  67.861  1.00  0.00    -0.485 OA 
BRANCH  19  21
HETATM   21  C   UNL     1     -11.679  12.896  68.333  1.00  0.00    -0.382 A  
HETATM   22  C   UNL     1     -11.873  13.253  66.989  1.00  0.00    -0.442 A  
HETATM   23  C   UNL     1     -11.656  14.566  66.571  1.00  0.00    -0.379 A  
HETATM   24  C   UNL     1     -11.260  15.521  67.500  1.00  0.00    -0.272 A  
HETATM   25  F   UNL     1     -11.052  16.781  67.099  1.00  0.00    -0.219 F  
HETATM   26  C   UNL     1     -11.077  15.189  68.837  1.00  0.00    -0.276 A  
HETATM   27  C   UNL     1     -11.284  13.874  69.260  1.00  0.00    -0.296 A  
ENDBRANCH  19  21
ENDBRANCH  18  19
ENDBRANCH  17  18
ENDBRANCH  16  17
ENDBRANCH   8  16
TORSDOF 6
ENDMDL
MODEL      193
REMARK 921   NORMALIZED FREE ENERGY PREDICTED BY IDOCK:   -3.80 KCAL/MOL
REMARK 922        TOTAL FREE ENERGY PREDICTED BY IDOCK:   -6.44 KCAL/MOL
REMARK 923 INTER-LIGAND FREE ENERGY PREDICTED BY IDOCK:   -5.43 KCAL/MOL
REMARK 924 INTRA-LIGAND FREE ENERGY PREDICTED BY IDOCK:   -1.01 KCAL/MOL
REMARK 927      BINDING AFFINITY PREDICTED BY RF-SCORE:    0.00 PKD
ROOT
HETATM    1  O   UNL     1      -6.883  13.342  67.311  1.00  0.00    -0.321 OA 
HETATM    2  C   UNL     1      -7.598  14.517  67.735  1.00  0.00    -0.159 C  
HETATM    3  H   UNL     1      -6.880  13.331  66.361  1.00  0.00     0.000 HD 
HETATM    4  C   UNL     1      -7.601  14.534  69.275  1.00  0.00    -0.073 C  
HETATM    5  C   UNL     1      -6.873  15.747  67.151  1.00  0.00    -0.170 C  
HETATM    6  C   UNL     1      -6.216  14.850  69.843  1.00  0.00    -0.149 C  
HETATM    7  C   UNL     1      -5.534  16.016  67.843  1.00  0.00    -0.132 C  
HETATM    8  N   UNL     1      -5.630  16.088  69.309  1.00  0.00    -0.113 NA 
ENDROOT
BRANCH   2   9
HETATM    9  C   UNL     1      -9.026  14.430  67.180  1.00  0.00    -0.245 A  
HETATM   10  C   UNL     1      -9.277  13.942  65.884  1.00  0.00     0.145 A  
HETATM   11  C   UNL     1     -10.130  14.861  67.941  1.00  0.00    -0.227 A  
HETATM   12  C   UNL     1     -11.641  14.352  66.127  1.00  0.00    -0.369 A  
HETATM   13  C   UNL     1     -10.572  13.904  65.360  1.00  0.00    -0.344 A  
HETATM   14 CL   UNL     1     -13.233  14.329  65.474  1.00  0.00    -0.173 Cl 
HETATM   15  C   UNL     1     -11.428  14.824  67.418  1.00  0.00    -0.376 A  
ENDBRANCH   2   9
BRANCH   8  16
HETATM   16  C   UNL     1      -6.319  17.315  69.746  1.00  0.00    -0.141 C  
BRANCH  16  17
HETATM   17  C   UNL     1      -5.395  18.378  70.347  1.00  0.00    -0.250 C  
BRANCH  17  18
HETATM   18  C   UNL     1      -5.736  19.790  69.870  1.00  0.00    -0.304 C  
BRANCH  18  19
HETATM   19  C   UNL     1      -6.922  19.784  68.926  1.00  0.00    -0.332 C  
HETATM   20  O   UNL     1      -8.084  19.689  69.316  1.00  0.00    -0.244 OA 
BRANCH  19  21
HETATM   21  C   UNL     1      -6.657  19.849  67.466  1.00  0.00    -0.248 A  
HETATM   22  C   UNL     1      -7.724  20.170  66.613  1.00  0.00    -0.331 A  
HETATM   23  C   UNL     1      -7.531  20.220  65.232  1.00  0.00     0.030 A  
HETATM   24  C   UNL     1      -6.268  19.965  64.710  1.00  0.00    -0.278 A  
HETATM   25  F   UNL     1      -6.081  20.014  63.386  1.00  0.00    -0.281 F  
HETATM   26  C   UNL     1      -5.196  19.660  65.541  1.00  0.00    -0.179 A  
HETATM   27  C   UNL     1      -5.386  19.599  66.924  1.00  0.00    -0.163 A  
ENDBRANCH  19  21
ENDBRANCH  18  19
ENDBRANCH  17  18
ENDBRANCH  16  17
ENDBRANCH   8  16
TORSDOF 6
ENDMDL
MODEL      194
REMARK 921   NORMALIZED FREE ENERGY PREDICTED BY IDOCK:   -3.80 KCAL/MOL
REMARK 922        TOTAL FREE ENERGY PREDICTED BY IDOCK:   -6.44 KCAL/MOL
REMARK 923 INTER-LIGAND FREE ENERGY PREDICTED BY IDOCK:   -5.72 KCAL/MOL
REMARK 924 INTRA-LIGAND FREE ENERGY PREDICTED BY IDOCK:   -0.72 KCAL/MOL
REMARK 927      BINDING AFFINITY PREDICTED BY RF-SCORE:    0.00 PKD
ROOT
HETATM    1  O   UNL     1      -8.036   9.138  65.658  1.00  0.00    -0.103 OA 
HETATM    2  C   UNL     1      -8.749   9.977  66.584  1.00  0.00    -0.129 C  
HETATM    3  H   UNL     1      -7.555   9.704  65.065  1.00  0.00     0.000 HD 
HETATM    4  C   UNL     1      -9.529   9.059  67.545  1.00  0.00    -0.168 C  
HETATM    5  C   UNL     1      -7.712  10.840  67.333  1.00  0.00    -0.107 C  
HETATM    6  C   UNL     1      -8.597   8.329  68.514  1.00  0.00    -0.133 C  
HETATM    7  C   UNL     1      -6.888  10.023  68.331  1.00  0.00    -0.062 C  
HETATM    8  N   UNL     1      -7.704   9.227  69.261  1.00  0.00    -0.079 NA 
ENDROOT
BRANCH   2   9
HETATM    9  C   UNL     1      -9.702  10.871  65.779  1.00  0.00    -0.270 A  
HETATM   10  C   UNL     1     -10.103  10.523  64.476  1.00  0.00    -0.402 A  
HETATM   11  C   UNL     1     -10.184  12.084  66.309  1.00  0.00    -0.251 A  
HETATM   12  C   UNL     1     -11.382  12.557  64.266  1.00  0.00    -0.361 A  
HETATM   13  C   UNL     1     -10.934  11.358  63.724  1.00  0.00    -0.448 A  
HETATM   14 CL   UNL     1     -12.385  13.598  63.332  1.00  0.00    -0.359 Cl 
HETATM   15  C   UNL     1     -11.016  12.922  65.558  1.00  0.00    -0.301 A  
ENDBRANCH   2   9
BRANCH   8  16
HETATM   16  C   UNL     1      -8.396  10.082  70.241  1.00  0.00     0.081 C  
BRANCH  16  17
HETATM   17  C   UNL     1      -9.376   9.335  71.151  1.00  0.00    -0.259 C  
BRANCH  17  18
HETATM   18  C   UNL     1     -10.770   9.963  71.153  1.00  0.00    -0.150 C  
BRANCH  18  19
HETATM   19  C   UNL     1     -11.853   8.905  71.202  1.00  0.00    -0.298 C  
HETATM   20  O   UNL     1     -13.052   9.178  71.219  1.00  0.00    -0.311 OA 
BRANCH  19  21
HETATM   21  C   UNL     1     -11.440   7.480  71.280  1.00  0.00    -0.298 A  
HETATM   22  C   UNL     1     -10.977   6.859  70.109  1.00  0.00    -0.322 A  
HETATM   23  C   UNL     1     -10.599   5.517  70.127  1.00  0.00    -0.367 A  
HETATM   24  C   UNL     1     -10.671   4.803  71.317  1.00  0.00     0.136 A  
HETATM   25  F   UNL     1     -10.308   3.515  71.335  1.00  0.00    -0.179 F  
HETATM   26  C   UNL     1     -11.113   5.405  72.490  1.00  0.00    -0.310 A  
HETATM   27  C   UNL     1     -11.501   6.747  72.476  1.00  0.00    -0.270 A  
ENDBRANCH  19  21
ENDBRANCH  18  19
ENDBRANCH  17  18
ENDBRANCH  16  17
ENDBRANCH   8  16
TORSDOF 6
ENDMDL
MODEL      195
REMARK 921   NORMALIZED FREE ENERGY PREDICTED BY IDOCK:   -3.78 KCAL/MOL
REMARK 922        TOTAL FREE ENERGY PREDICTED BY IDOCK:   -6.41 KCAL/MOL
REMARK 923 INTER-LIGAND FREE ENERGY PREDICTED BY IDOCK:   -4.50 KCAL/MOL
REMARK 924 INTRA-LIGAND FREE ENERGY PREDICTED BY IDOCK:   -1.91 KCAL/MOL
REMARK 927      BINDING AFFINITY PREDICTED BY RF-SCORE:    0.00 PKD
ROOT
HETATM    1  O   UNL     1      -7.747  13.129  69.261  1.00  0.00    -0.311 OA 
HETATM    2  C   UNL     1      -8.077  12.184  68.227  1.00  0.00    -0.166 C  
HETATM    3  H   UNL     1      -8.470  13.149  69.877  1.00  0.00     0.000 HD 
HETATM    4  C   UNL     1      -6.904  12.151  67.229  1.00  0.00    -0.149 C  
HETATM    5  C   UNL     1      -8.297  10.811  68.895  1.00  0.00    -0.147 C  
HETATM    6  C   UNL     1      -5.671  11.470  67.824  1.00  0.00    -0.049 C  
HETATM    7  C   UNL     1      -6.989  10.186  69.385  1.00  0.00    -0.076 C  
HETATM    8  N   UNL     1      -5.940  10.126  68.356  1.00  0.00    -0.042 NA 
ENDROOT
BRANCH   2   9
HETATM    9  C   UNL     1      -9.369  12.656  67.547  1.00  0.00    -0.188 A  
HETATM   10  C   UNL     1      -9.347  13.644  66.544  1.00  0.00    -0.242 A  
HETATM   11  C   UNL     1     -10.622  12.135  67.923  1.00  0.00    -0.230 A  
HETATM   12  C   UNL     1     -11.750  13.588  66.357  1.00  0.00    -0.369 A  
HETATM   13  C   UNL     1     -10.526  14.108  65.955  1.00  0.00    -0.313 A  
HETATM   14 CL   UNL     1     -13.205  14.177  65.650  1.00  0.00    -0.210 Cl 
HETATM   15  C   UNL     1     -11.805  12.599  67.334  1.00  0.00    -0.393 A  
ENDBRANCH   2   9
BRANCH   8  16
HETATM   16  C   UNL     1      -6.253   9.123  67.322  1.00  0.00    -0.058 C  
BRANCH  16  17
HETATM   17  C   UNL     1      -7.143   7.975  67.806  1.00  0.00    -0.086 C  
BRANCH  17  18
HETATM   18  C   UNL     1      -7.484   6.986  66.691  1.00  0.00    -0.081 C  
BRANCH  18  19
HETATM   19  C   UNL     1      -8.863   7.248  66.121  1.00  0.00    -0.158 C  
HETATM   20  O   UNL     1      -9.785   6.439  66.207  1.00  0.00    -0.133 OA 
BRANCH  19  21
HETATM   21  C   UNL     1      -9.090   8.519  65.387  1.00  0.00    -0.103 A  
HETATM   22  C   UNL     1      -8.118   8.933  64.463  1.00  0.00    -0.150 A  
HETATM   23  C   UNL     1      -8.275  10.131  63.766  1.00  0.00    -0.163 A  
HETATM   24  C   UNL     1      -9.409  10.905  63.984  1.00  0.00    -0.237 A  
HETATM   25  F   UNL     1      -9.560  12.054  63.316  1.00  0.00    -0.357 F  
HETATM   26  C   UNL     1     -10.389  10.503  64.885  1.00  0.00    -0.307 A  
HETATM   27  C   UNL     1     -10.233   9.309  65.592  1.00  0.00     0.217 A  
ENDBRANCH  19  21
ENDBRANCH  18  19
ENDBRANCH  17  18
ENDBRANCH  16  17
ENDBRANCH   8  16
TORSDOF 6
ENDMDL
MODEL      196
REMARK 921   NORMALIZED FREE ENERGY PREDICTED BY IDOCK:   -3.77 KCAL/MOL
REMARK 922        TOTAL FREE ENERGY PREDICTED BY IDOCK:   -6.41 KCAL/MOL
REMARK 923 INTER-LIGAND FREE ENERGY PREDICTED BY IDOCK:   -4.60 KCAL/MOL
REMARK 924 INTRA-LIGAND FREE ENERGY PREDICTED BY IDOCK:   -1.81 KCAL/MOL
REMARK 927      BINDING AFFINITY PREDICTED BY RF-SCORE:    0.00 PKD
ROOT
HETATM    1  O   UNL     1     -10.809  10.997  70.310  1.00  0.00    -0.447 OA 
HETATM    2  C   UNL     1      -9.981  10.472  69.257  1.00  0.00    -0.213 C  
HETATM    3  H   UNL     1     -11.688  11.099  69.964  1.00  0.00     0.000 HD 
HETATM    4  C   UNL     1      -8.556  10.307  69.818  1.00  0.00    -0.078 C  
HETATM    5  C   UNL     1     -10.580   9.121  68.815  1.00  0.00    -0.208 C  
HETATM    6  C   UNL     1      -8.470   9.155  70.821  1.00  0.00    -0.212 C  
HETATM    7  C   UNL     1     -10.371   8.022  69.859  1.00  0.00    -0.221 C  
HETATM    8  N   UNL     1      -8.973   7.878  70.294  1.00  0.00    -0.150 NA 
ENDROOT
BRANCH   2   9
HETATM    9  C   UNL     1     -10.003  11.470  68.091  1.00  0.00    -0.197 A  
HETATM   10  C   UNL     1      -9.141  12.581  68.065  1.00  0.00    -0.200 A  
HETATM   11  C   UNL     1     -10.908  11.320  67.022  1.00  0.00    -0.332 A  
HETATM   12  C   UNL     1     -10.105  13.352  65.994  1.00  0.00    -0.304 A  
HETATM   13  C   UNL     1      -9.191  13.516  67.027  1.00  0.00    -0.248 A  
HETATM   14 CL   UNL     1     -10.184  14.516  64.728  1.00  0.00    -0.358 Cl 
HETATM   15  C   UNL     1     -10.960  12.255  65.982  1.00  0.00    -0.327 A  
ENDBRANCH   2   9
BRANCH   8  16
HETATM   16  C   UNL     1      -8.134   7.294  69.233  1.00  0.00    -0.124 C  
BRANCH  16  17
HETATM   17  C   UNL     1      -6.684   7.785  69.232  1.00  0.00    -0.044 C  
BRANCH  17  18
HETATM   18  C   UNL     1      -5.867   7.204  68.078  1.00  0.00    -0.026 C  
BRANCH  18  19
HETATM   19  C   UNL     1      -6.725   6.984  66.848  1.00  0.00    -0.056 C  
HETATM   20  O   UNL     1      -6.966   5.868  66.393  1.00  0.00    -0.057 OA 
BRANCH  19  21
HETATM   21  C   UNL     1      -7.255   8.178  66.140  1.00  0.00    -0.066 A  
HETATM   22  C   UNL     1      -8.383   8.015  65.320  1.00  0.00    -0.151 A  
HETATM   23  C   UNL     1      -8.904   9.102  64.617  1.00  0.00    -0.183 A  
HETATM   24  C   UNL     1      -8.305  10.350  64.747  1.00  0.00    -0.157 A  
HETATM   25  F   UNL     1      -8.805  11.392  64.073  1.00  0.00    -0.058 F  
HETATM   26  C   UNL     1      -7.197  10.532  65.566  1.00  0.00    -0.103 A  
HETATM   27  C   UNL     1      -6.665   9.446  66.266  1.00  0.00    -0.075 A  
ENDBRANCH  19  21
ENDBRANCH  18  19
ENDBRANCH  17  18
ENDBRANCH  16  17
ENDBRANCH   8  16
TORSDOF 6
ENDMDL
MODEL      197
REMARK 921   NORMALIZED FREE ENERGY PREDICTED BY IDOCK:   -3.72 KCAL/MOL
REMARK 922        TOTAL FREE ENERGY PREDICTED BY IDOCK:   -6.34 KCAL/MOL
REMARK 923 INTER-LIGAND FREE ENERGY PREDICTED BY IDOCK:   -4.58 KCAL/MOL
REMARK 924 INTRA-LIGAND FREE ENERGY PREDICTED BY IDOCK:   -1.76 KCAL/MOL
REMARK 927      BINDING AFFINITY PREDICTED BY RF-SCORE:    0.00 PKD
ROOT
HETATM    1  O   UNL     1     -13.196  14.069  69.225  1.00  0.00     0.485 OA 
HETATM    2  C   UNL     1     -11.969  13.485  69.700  1.00  0.00    -0.337 C  
HETATM    3  H   UNL     1     -13.123  14.171  68.283  1.00  0.00     0.000 HD 
HETATM    4  C   UNL     1     -12.088  13.320  71.227  1.00  0.00     0.075 C  
HETATM    5  C   UNL     1     -11.786  12.127  68.990  1.00  0.00    -0.361 C  
HETATM    6  C   UNL     1     -13.070  12.209  71.603  1.00  0.00    -0.310 C  
HETATM    7  C   UNL     1     -12.770  11.070  69.497  1.00  0.00     0.241 C  
HETATM    8  N   UNL     1     -12.776  10.920  70.960  1.00  0.00    -0.390 NA 
ENDROOT
BRANCH   2   9
HETATM    9  C   UNL     1     -10.819  14.434  69.335  1.00  0.00    -0.227 A  
HETATM   10  C   UNL     1     -10.869  15.802  69.662  1.00  0.00    -0.300 A  
HETATM   11  C   UNL     1      -9.687  13.971  68.636  1.00  0.00    -0.179 A  
HETATM   12  C   UNL     1      -8.746  16.195  68.588  1.00  0.00    -0.214 A  
HETATM   13  C   UNL     1      -9.844  16.676  69.292  1.00  0.00    -0.194 A  
HETATM   14 CL   UNL     1      -7.495  17.275  68.109  1.00  0.00    -0.201 Cl 
HETATM   15  C   UNL     1      -8.659  14.844  68.263  1.00  0.00    -0.160 A  
ENDBRANCH   2   9
BRANCH   8  16
HETATM   16  C   UNL     1     -11.540  10.278  71.443  1.00  0.00    -0.145 C  
BRANCH  16  17
HETATM   17  C   UNL     1     -11.712   8.815  71.863  1.00  0.00    -0.429 C  
BRANCH  17  18
HETATM   18  C   UNL     1     -11.539   7.845  70.694  1.00  0.00    -0.215 C  
BRANCH  18  19
HETATM   19  C   UNL     1     -10.104   7.813  70.208  1.00  0.00    -0.195 C  
HETATM   20  O   UNL     1      -9.244   7.094  70.713  1.00  0.00    -0.156 OA 
BRANCH  19  21
HETATM   21  C   UNL     1      -9.716   8.728  69.104  1.00  0.00    -0.175 A  
HETATM   22  C   UNL     1      -8.741   9.704  69.364  1.00  0.00    -0.173 A  
HETATM   23  C   UNL     1      -8.360  10.602  68.366  1.00  0.00    -0.127 A  
HETATM   24  C   UNL     1      -8.945  10.511  67.108  1.00  0.00    -0.140 A  
HETATM   25  F   UNL     1      -8.579  11.371  66.150  1.00  0.00    -0.171 F  
HETATM   26  C   UNL     1      -9.901   9.542  66.828  1.00  0.00    -0.277 A  
HETATM   27  C   UNL     1     -10.292   8.646  67.826  1.00  0.00    -0.303 A  
ENDBRANCH  19  21
ENDBRANCH  18  19
ENDBRANCH  17  18
ENDBRANCH  16  17
ENDBRANCH   8  16
TORSDOF 6
ENDMDL
MODEL      198
REMARK 921   NORMALIZED FREE ENERGY PREDICTED BY IDOCK:   -3.68 KCAL/MOL
REMARK 922        TOTAL FREE ENERGY PREDICTED BY IDOCK:   -6.28 KCAL/MOL
REMARK 923 INTER-LIGAND FREE ENERGY PREDICTED BY IDOCK:   -5.47 KCAL/MOL
REMARK 924 INTRA-LIGAND FREE ENERGY PREDICTED BY IDOCK:   -0.81 KCAL/MOL
REMARK 927      BINDING AFFINITY PREDICTED BY RF-SCORE:    0.00 PKD
ROOT
HETATM    1  O   UNL     1      -5.903   5.909  65.188  1.00  0.00    -0.023 OA 
HETATM    2  C   UNL     1      -7.188   6.541  65.333  1.00  0.00    -0.073 C  
HETATM    3  H   UNL     1      -6.046   4.971  65.127  1.00  0.00     0.000 HD 
HETATM    4  C   UNL     1      -6.956   8.060  65.432  1.00  0.00    -0.063 C  
HETATM    5  C   UNL     1      -8.037   6.171  64.099  1.00  0.00    -0.081 C  
HETATM    6  C   UNL     1      -6.519   8.656  64.092  1.00  0.00    -0.072 C  
HETATM    7  C   UNL     1      -7.559   6.882  62.831  1.00  0.00    -0.098 C  
HETATM    8  N   UNL     1      -7.429   8.339  62.982  1.00  0.00    -0.109 NA 
ENDROOT
BRANCH   2   9
HETATM    9  C   UNL     1      -7.843   5.998  66.610  1.00  0.00    -0.101 A  
HETATM   10  C   UNL     1      -8.143   4.630  66.752  1.00  0.00    -0.103 A  
HETATM   11  C   UNL     1      -8.191   6.856  67.671  1.00  0.00    -0.117 A  
HETATM   12  C   UNL     1      -9.128   5.013  68.920  1.00  0.00    -0.109 A  
HETATM   13  C   UNL     1      -8.780   4.141  67.895  1.00  0.00    -0.118 A  
HETATM   14 CL   UNL     1      -9.935   4.415  70.317  1.00  0.00    -0.283 Cl 
HETATM   15  C   UNL     1      -8.830   6.368  68.817  1.00  0.00    -0.124 A  
ENDBRANCH   2   9
BRANCH   8  16
HETATM   16  C   UNL     1      -8.746   8.992  63.081  1.00  0.00    -0.101 C  
BRANCH  16  17
HETATM   17  C   UNL     1      -8.727  10.349  63.792  1.00  0.00    -0.198 C  
BRANCH  17  18
HETATM   18  C   UNL     1      -9.882  10.510  64.780  1.00  0.00    -0.387 C  
BRANCH  18  19
HETATM   19  C   UNL     1     -10.801  11.645  64.378  1.00  0.00    -0.339 C  
HETATM   20  O   UNL     1     -11.359  11.697  63.284  1.00  0.00    -0.347 OA 
BRANCH  19  21
HETATM   21  C   UNL     1     -10.994  12.764  65.335  1.00  0.00    -0.313 A  
HETATM   22  C   UNL     1     -11.457  12.461  66.625  1.00  0.00    -0.429 A  
HETATM   23  C   UNL     1     -11.675  13.480  67.553  1.00  0.00    -0.403 A  
HETATM   24  C   UNL     1     -11.416  14.797  67.193  1.00  0.00    -0.364 A  
HETATM   25  F   UNL     1     -11.624  15.775  68.082  1.00  0.00    -0.347 F  
HETATM   26  C   UNL     1     -10.942  15.115  65.925  1.00  0.00    -0.339 A  
HETATM   27  C   UNL     1     -10.730  14.100  64.989  1.00  0.00    -0.429 A  
ENDBRANCH  19  21
ENDBRANCH  18  19
ENDBRANCH  17  18
ENDBRANCH  16  17
ENDBRANCH   8  16
TORSDOF 6
ENDMDL
MODEL      199
REMARK 921   NORMALIZED FREE ENERGY PREDICTED BY IDOCK:   -3.61 KCAL/MOL
REMARK 922        TOTAL FREE ENERGY PREDICTED BY IDOCK:   -6.19 KCAL/MOL
REMARK 923 INTER-LIGAND FREE ENERGY PREDICTED BY IDOCK:   -4.97 KCAL/MOL
REMARK 924 INTRA-LIGAND FREE ENERGY PREDICTED BY IDOCK:   -1.22 KCAL/MOL
REMARK 927      BINDING AFFINITY PREDICTED BY RF-SCORE:    0.00 PKD
ROOT
HETATM    1  O   UNL     1     -12.497  10.642  68.511  1.00  0.00    -0.719 OA 
HETATM    2  C   UNL     1     -11.092  10.921  68.375  1.00  0.00    -0.262 C  
HETATM    3  H   UNL     1     -12.706  10.645  69.438  1.00  0.00     0.000 HD 
HETATM    4  C   UNL     1     -10.756  10.915  66.872  1.00  0.00    -0.318 C  
HETATM    5  C   UNL     1     -10.821  12.298  69.016  1.00  0.00    -0.197 C  
HETATM    6  C   UNL     1     -11.337  12.136  66.155  1.00  0.00    -0.361 C  
HETATM    7  C   UNL     1     -11.379  13.450  68.179  1.00  0.00    -0.287 C  
HETATM    8  N   UNL     1     -10.957  13.416  66.770  1.00  0.00    -0.285 NA 
ENDROOT
BRANCH   2   9
HETATM    9  C   UNL     1     -10.316   9.826  69.119  1.00  0.00    -0.225 A  
HETATM   10  C   UNL     1     -10.961   8.956  70.018  1.00  0.00    -0.217 A  
HETATM   11  C   UNL     1      -8.926   9.675  68.947  1.00  0.00    -0.144 A  
HETATM   12  C   UNL     1      -8.875   7.871  70.553  1.00  0.00    -0.141 A  
HETATM   13  C   UNL     1     -10.248   7.988  70.730  1.00  0.00    -0.209 A  
HETATM   14 CL   UNL     1      -7.992   6.696  71.449  1.00  0.00    -0.106 Cl 
HETATM   15  C   UNL     1      -8.210   8.706  69.660  1.00  0.00    -0.114 A  
ENDBRANCH   2   9
BRANCH   8  16
HETATM   16  C   UNL     1      -9.529  13.750  66.625  1.00  0.00    -0.279 C  
BRANCH  16  17
HETATM   17  C   UNL     1      -9.041  14.857  67.565  1.00  0.00    -0.186 C  
BRANCH  17  18
HETATM   18  C   UNL     1      -7.516  14.949  67.620  1.00  0.00    -0.205 C  
BRANCH  18  19
HETATM   19  C   UNL     1      -6.942  14.017  68.667  1.00  0.00    -0.106 C  
HETATM   20  O   UNL     1      -6.740  14.362  69.829  1.00  0.00    -0.145 OA 
BRANCH  19  21
HETATM   21  C   UNL     1      -6.567  12.641  68.251  1.00  0.00    -0.079 A  
HETATM   22  C   UNL     1      -5.728  11.898  69.096  1.00  0.00    -0.059 A  
HETATM   23  C   UNL     1      -5.328  10.611  68.738  1.00  0.00    -0.041 A  
HETATM   24  C   UNL     1      -5.781  10.064  67.543  1.00  0.00    -0.045 A  
HETATM   25  F   UNL     1      -5.399   8.828  67.199  1.00  0.00    -0.034 F  
HETATM   26  C   UNL     1      -6.624  10.779  66.700  1.00  0.00    -0.112 A  
HETATM   27  C   UNL     1      -7.020  12.072  67.050  1.00  0.00    -0.095 A  
ENDBRANCH  19  21
ENDBRANCH  18  19
ENDBRANCH  17  18
ENDBRANCH  16  17
ENDBRANCH   8  16
TORSDOF 6
ENDMDL
MODEL      200
REMARK 921   NORMALIZED FREE ENERGY PREDICTED BY IDOCK:   -3.61 KCAL/MOL
REMARK 922        TOTAL FREE ENERGY PREDICTED BY IDOCK:   -6.18 KCAL/MOL
REMARK 923 INTER-LIGAND FREE ENERGY PREDICTED BY IDOCK:   -5.13 KCAL/MOL
REMARK 924 INTRA-LIGAND FREE ENERGY PREDICTED BY IDOCK:   -1.05 KCAL/MOL
REMARK 927      BINDING AFFINITY PREDICTED BY RF-SCORE:    0.00 PKD
ROOT
HETATM    1  O   UNL     1      -7.739   9.688  66.334  1.00  0.00    -0.100 OA 
HETATM    2  C   UNL     1      -8.252  10.263  67.549  1.00  0.00    -0.114 C  
HETATM    3  H   UNL     1      -7.246  10.362  65.879  1.00  0.00     0.000 HD 
HETATM    4  C   UNL     1      -9.051   9.171  68.285  1.00  0.00    -0.132 C  
HETATM    5  C   UNL     1      -7.050  10.753  68.383  1.00  0.00    -0.075 C  
HETATM    6  C   UNL     1      -8.134   8.094  68.869  1.00  0.00    -0.116 C  
HETATM    7  C   UNL     1      -6.248   9.595  68.983  1.00  0.00    -0.041 C  
HETATM    8  N   UNL     1      -7.070   8.630  69.730  1.00  0.00    -0.050 NA 
ENDROOT
BRANCH   2   9
HETATM    9  C   UNL     1      -9.153  11.447  67.171  1.00  0.00    -0.164 A  
HETATM   10  C   UNL     1      -8.869  12.752  67.618  1.00  0.00    -0.189 A  
HETATM   11  C   UNL     1     -10.308  11.262  66.387  1.00  0.00    -0.291 A  
HETATM   12  C   UNL     1     -10.856  13.608  66.551  1.00  0.00    -0.283 A  
HETATM   13  C   UNL     1      -9.713  13.823  67.313  1.00  0.00    -0.242 A  
HETATM   14 CL   UNL     1     -11.908  14.923  66.197  1.00  0.00    -0.191 Cl 
HETATM   15  C   UNL     1     -11.155  12.333  66.081  1.00  0.00    -0.349 A  
ENDBRANCH   2   9
BRANCH   8  16
HETATM   16  C   UNL     1      -7.555   9.203  70.999  1.00  0.00    -0.096 C  
BRANCH  16  17
HETATM   17  C   UNL     1      -8.318   8.214  71.886  1.00  0.00    -0.187 C  
BRANCH  17  18
HETATM   18  C   UNL     1      -9.714   8.716  72.257  1.00  0.00    -0.357 C  
BRANCH  18  19
HETATM   19  C   UNL     1     -10.711   7.577  72.330  1.00  0.00    -0.250 C  
HETATM   20  O   UNL     1     -11.713   7.613  73.040  1.00  0.00    -0.238 OA 
BRANCH  19  21
HETATM   21  C   UNL     1     -10.432   6.350  71.541  1.00  0.00    -0.256 A  
HETATM   22  C   UNL     1      -9.939   5.224  72.219  1.00  0.00    -0.222 A  
HETATM   23  C   UNL     1      -9.641   4.055  71.518  1.00  0.00    -0.237 A  
HETATM   24  C   UNL     1      -9.850   4.010  70.145  1.00  0.00    -0.137 A  
HETATM   25  F   UNL     1      -9.564   2.889  69.472  1.00  0.00    -0.218 F  
HETATM   26  C   UNL     1     -10.351   5.111  69.459  1.00  0.00    -0.292 A  
HETATM   27  C   UNL     1     -10.643   6.287  70.154  1.00  0.00    -0.306 A  
ENDBRANCH  19  21
ENDBRANCH  18  19
ENDBRANCH  17  18
ENDBRANCH  16  17
ENDBRANCH   8  16
TORSDOF 6
ENDMDL
MODEL      201
REMARK 921   NORMALIZED FREE ENERGY PREDICTED BY IDOCK:   -3.57 KCAL/MOL
REMARK 922        TOTAL FREE ENERGY PREDICTED BY IDOCK:   -6.13 KCAL/MOL
REMARK 923 INTER-LIGAND FREE ENERGY PREDICTED BY IDOCK:   -4.93 KCAL/MOL
REMARK 924 INTRA-LIGAND FREE ENERGY PREDICTED BY IDOCK:   -1.20 KCAL/MOL
REMARK 927      BINDING AFFINITY PREDICTED BY RF-SCORE:    0.00 PKD
ROOT
HETATM    1  O   UNL     1      -9.603  11.967  69.441  1.00  0.00    -0.177 OA 
HETATM    2  C   UNL     1      -9.203  10.819  68.670  1.00  0.00    -0.184 C  
HETATM    3  H   UNL     1     -10.552  12.009  69.427  1.00  0.00     0.000 HD 
HETATM    4  C   UNL     1      -7.664  10.752  68.693  1.00  0.00    -0.114 C  
HETATM    5  C   UNL     1      -9.839   9.571  69.317  1.00  0.00    -0.184 C  
HETATM    6  C   UNL     1      -7.134  10.343  70.069  1.00  0.00    -0.150 C  
HETATM    7  C   UNL     1      -9.183   9.208  70.651  1.00  0.00    -0.258 C  
HETATM    8  N   UNL     1      -7.718   9.094  70.577  1.00  0.00    -0.117 NA 
ENDROOT
BRANCH   2   9
HETATM    9  C   UNL     1      -9.726  11.001  67.239  1.00  0.00    -0.188 A  
HETATM   10  C   UNL     1     -10.683  11.987  66.932  1.00  0.00    -0.282 A  
HETATM   11  C   UNL     1      -9.285  10.170  66.191  1.00  0.00    -0.196 A  
HETATM   12  C   UNL     1     -10.754  11.279  64.627  1.00  0.00    -0.303 A  
HETATM   13  C   UNL     1     -11.194  12.125  65.639  1.00  0.00    -0.381 A  
HETATM   14 CL   UNL     1     -11.402  11.432  63.040  1.00  0.00    -0.002 Cl 
HETATM   15  C   UNL     1      -9.796  10.306  64.896  1.00  0.00    -0.404 A  
ENDBRANCH   2   9
BRANCH   8  16
HETATM   16  C   UNL     1      -7.307   7.891  69.830  1.00  0.00    -0.075 C  
BRANCH  16  17
HETATM   17  C   UNL     1      -6.525   6.869  70.660  1.00  0.00    -0.051 C  
BRANCH  17  18
HETATM   18  C   UNL     1      -7.197   5.496  70.684  1.00  0.00    -0.073 C  
BRANCH  18  19
HETATM   19  C   UNL     1      -8.705   5.616  70.593  1.00  0.00    -0.134 C  
HETATM   20  O   UNL     1      -9.418   5.819  71.573  1.00  0.00    -0.149 OA 
BRANCH  19  21
HETATM   21  C   UNL     1      -9.344   5.431  69.265  1.00  0.00    -0.159 A  
HETATM   22  C   UNL     1      -8.781   4.496  68.382  1.00  0.00    -0.114 A  
HETATM   23  C   UNL     1      -9.331   4.304  67.115  1.00  0.00    -0.187 A  
HETATM   24  C   UNL     1     -10.452   5.036  66.739  1.00  0.00    -0.219 A  
HETATM   25  F   UNL     1     -10.981   4.851  65.524  1.00  0.00    -0.284 F  
HETATM   26  C   UNL     1     -11.033   5.955  67.606  1.00  0.00    -0.247 A  
HETATM   27  C   UNL     1     -10.480   6.158  68.873  1.00  0.00    -0.293 A  
ENDBRANCH  19  21
ENDBRANCH  18  19
ENDBRANCH  17  18
ENDBRANCH  16  17
ENDBRANCH   8  16
TORSDOF 6
ENDMDL
MODEL      202
REMARK 921   NORMALIZED FREE ENERGY PREDICTED BY IDOCK:   -3.56 KCAL/MOL
REMARK 922        TOTAL FREE ENERGY PREDICTED BY IDOCK:   -6.11 KCAL/MOL
REMARK 923 INTER-LIGAND FREE ENERGY PREDICTED BY IDOCK:   -6.41 KCAL/MOL
REMARK 924 INTRA-LIGAND FREE ENERGY PREDICTED BY IDOCK:    0.30 KCAL/MOL
REMARK 927      BINDING AFFINITY PREDICTED BY RF-SCORE:    0.00 PKD
ROOT
HETATM    1  O   UNL     1      -8.700  12.056  65.730  1.00  0.00    -0.405 OA 
HETATM    2  C   UNL     1      -9.453  11.445  66.794  1.00  0.00    -0.182 C  
HETATM    3  H   UNL     1      -8.992  11.672  64.911  1.00  0.00     0.000 HD 
HETATM    4  C   UNL     1      -8.980  12.068  68.121  1.00  0.00    -0.190 C  
HETATM    5  C   UNL     1     -10.948  11.722  66.533  1.00  0.00    -0.342 C  
HETATM    6  C   UNL     1      -9.447  13.518  68.266  1.00  0.00    -0.212 C  
HETATM    7  C   UNL     1     -11.320  13.186  66.782  1.00  0.00    -0.316 C  
HETATM    8  N   UNL     1     -10.897  13.689  68.098  1.00  0.00    -0.240 NA 
ENDROOT
BRANCH   2   9
HETATM    9  C   UNL     1      -9.180   9.935  66.764  1.00  0.00    -0.176 A  
HETATM   10  C   UNL     1      -7.948   9.408  67.196  1.00  0.00    -0.102 A  
HETATM   11  C   UNL     1     -10.144   9.030  66.278  1.00  0.00    -0.311 A  
HETATM   12  C   UNL     1      -8.644   7.170  66.627  1.00  0.00    -0.124 A  
HETATM   13  C   UNL     1      -7.681   8.038  67.127  1.00  0.00    -0.101 A  
HETATM   14 CL   UNL     1      -8.306   5.486  66.519  1.00  0.00    -0.109 Cl 
HETATM   15  C   UNL     1      -9.878   7.658  66.208  1.00  0.00    -0.080 A  
ENDBRANCH   2   9
BRANCH   8  16
HETATM   16  C   UNL     1     -11.701  13.101  69.185  1.00  0.00    -0.325 C  
BRANCH  16  17
HETATM   17  C   UNL     1     -11.737  11.570  69.187  1.00  0.00    -0.395 C  
BRANCH  17  18
HETATM   18  C   UNL     1     -11.740  10.985  70.599  1.00  0.00    -0.371 C  
BRANCH  18  19
HETATM   19  C   UNL     1     -10.639   9.959  70.776  1.00  0.00    -0.239 C  
HETATM   20  O   UNL     1      -9.472  10.170  70.451  1.00  0.00    -0.017 OA 
BRANCH  19  21
HETATM   21  C   UNL     1     -11.002   8.627  71.323  1.00  0.00    -0.333 A  
HETATM   22  C   UNL     1     -10.491   8.264  72.579  1.00  0.00    -0.406 A  
HETATM   23  C   UNL     1     -10.785   7.014  73.125  1.00  0.00    -0.359 A  
HETATM   24  C   UNL     1     -11.602   6.137  72.420  1.00  0.00    -0.292 A  
HETATM   25  F   UNL     1     -11.886   4.939  72.943  1.00  0.00    -0.323 F  
HETATM   26  C   UNL     1     -12.130   6.486  71.182  1.00  0.00    -0.318 A  
HETATM   27  C   UNL     1     -11.831   7.732  70.627  1.00  0.00    -0.142 A  
ENDBRANCH  19  21
ENDBRANCH  18  19
ENDBRANCH  17  18
ENDBRANCH  16  17
ENDBRANCH   8  16
TORSDOF 6
ENDMDL
MODEL      203
REMARK 921   NORMALIZED FREE ENERGY PREDICTED BY IDOCK:   -3.53 KCAL/MOL
REMARK 922        TOTAL FREE ENERGY PREDICTED BY IDOCK:   -6.08 KCAL/MOL
REMARK 923 INTER-LIGAND FREE ENERGY PREDICTED BY IDOCK:   -5.36 KCAL/MOL
REMARK 924 INTRA-LIGAND FREE ENERGY PREDICTED BY IDOCK:   -0.72 KCAL/MOL
REMARK 927      BINDING AFFINITY PREDICTED BY RF-SCORE:    0.00 PKD
ROOT
HETATM    1  O   UNL     1      -9.583  12.765  68.830  1.00  0.00    -0.408 OA 
HETATM    2  C   UNL     1      -9.398  11.607  67.996  1.00  0.00    -0.178 C  
HETATM    3  H   UNL     1     -10.498  12.797  69.083  1.00  0.00     0.000 HD 
HETATM    4  C   UNL     1      -7.914  11.556  67.586  1.00  0.00    -0.126 C  
HETATM    5  C   UNL     1      -9.808  10.365  68.814  1.00  0.00    -0.190 C  
HETATM    6  C   UNL     1      -7.012  11.179  68.763  1.00  0.00    -0.088 C  
HETATM    7  C   UNL     1      -8.797  10.035  69.915  1.00  0.00    -0.147 C  
HETATM    8  N   UNL     1      -7.411   9.934  69.435  1.00  0.00    -0.080 NA 
ENDROOT
BRANCH   2   9
HETATM    9  C   UNL     1     -10.305  11.757  66.767  1.00  0.00    -0.251 A  
HETATM   10  C   UNL     1     -10.035  11.065  65.572  1.00  0.00    -0.308 A  
HETATM   11  C   UNL     1     -11.423  12.613  66.787  1.00  0.00    -0.410 A  
HETATM   12  C   UNL     1     -11.921  12.098  64.481  1.00  0.00    -0.337 A  
HETATM   13  C   UNL     1     -10.833  11.234  64.438  1.00  0.00    -0.373 A  
HETATM   14 CL   UNL     1     -12.890  12.326  63.077  1.00  0.00    -0.146 Cl 
HETATM   15  C   UNL     1     -12.224  12.784  65.653  1.00  0.00    -0.503 A  
ENDBRANCH   2   9
BRANCH   8  16
HETATM   16  C   UNL     1      -7.208   8.722  68.620  1.00  0.00    -0.073 C  
BRANCH  16  17
HETATM   17  C   UNL     1      -7.487   7.410  69.360  1.00  0.00    -0.091 C  
BRANCH  17  18
HETATM   18  C   UNL     1      -8.542   6.554  68.659  1.00  0.00    -0.124 C  
BRANCH  18  19
HETATM   19  C   UNL     1      -8.400   5.090  69.025  1.00  0.00    -0.086 C  
HETATM   20  O   UNL     1      -7.776   4.288  68.334  1.00  0.00    -0.070 OA 
BRANCH  19  21
HETATM   21  C   UNL     1      -9.087   4.604  70.249  1.00  0.00    -0.164 A  
HETATM   22  C   UNL     1      -9.445   5.545  71.227  1.00  0.00    -0.185 A  
HETATM   23  C   UNL     1     -10.071   5.134  72.404  1.00  0.00    -0.233 A  
HETATM   24  C   UNL     1     -10.351   3.785  72.593  1.00  0.00    -0.151 A  
HETATM   25  F   UNL     1     -10.952   3.390  73.721  1.00  0.00    -0.246 F  
HETATM   26  C   UNL     1     -10.017   2.841  71.629  1.00  0.00    -0.156 A  
HETATM   27  C   UNL     1      -9.382   3.246  70.452  1.00  0.00    -0.237 A  
ENDBRANCH  19  21
ENDBRANCH  18  19
ENDBRANCH  17  18
ENDBRANCH  16  17
ENDBRANCH   8  16
TORSDOF 6
ENDMDL
MODEL      204
REMARK 921   NORMALIZED FREE ENERGY PREDICTED BY IDOCK:   -3.51 KCAL/MOL
REMARK 922        TOTAL FREE ENERGY PREDICTED BY IDOCK:   -6.05 KCAL/MOL
REMARK 923 INTER-LIGAND FREE ENERGY PREDICTED BY IDOCK:   -3.95 KCAL/MOL
REMARK 924 INTRA-LIGAND FREE ENERGY PREDICTED BY IDOCK:   -2.10 KCAL/MOL
REMARK 927      BINDING AFFINITY PREDICTED BY RF-SCORE:    0.00 PKD
ROOT
HETATM    1  O   UNL     1     -10.415   3.443  71.629  1.00  0.00     0.115 OA 
HETATM    2  C   UNL     1      -9.974   4.763  71.264  1.00  0.00    -0.200 C  
HETATM    3  H   UNL     1      -9.783   2.821  71.287  1.00  0.00     0.000 HD 
HETATM    4  C   UNL     1     -10.999   5.770  71.819  1.00  0.00    -0.317 C  
HETATM    5  C   UNL     1      -8.573   4.978  71.874  1.00  0.00    -0.131 C  
HETATM    6  C   UNL     1     -10.921   5.878  73.343  1.00  0.00    -0.196 C  
HETATM    7  C   UNL     1      -8.621   5.150  73.394  1.00  0.00    -0.115 C  
HETATM    8  N   UNL     1      -9.572   6.179  73.844  1.00  0.00    -0.156 NA 
ENDROOT
BRANCH   2   9
HETATM    9  C   UNL     1      -9.903   4.834  69.733  1.00  0.00    -0.288 A  
HETATM   10  C   UNL     1     -10.705   5.733  69.006  1.00  0.00    -0.354 A  
HETATM   11  C   UNL     1      -9.051   3.982  69.003  1.00  0.00    -0.193 A  
HETATM   12  C   UNL     1      -9.838   4.904  66.914  1.00  0.00    -0.197 A  
HETATM   13  C   UNL     1     -10.675   5.768  67.610  1.00  0.00    -0.313 A  
HETATM   14 CL   UNL     1      -9.818   4.930  65.193  1.00  0.00    -0.032 Cl 
HETATM   15  C   UNL     1      -9.020   4.015  67.605  1.00  0.00    -0.149 A  
ENDBRANCH   2   9
BRANCH   8  16
HETATM   16  C   UNL     1      -9.097   7.535  73.514  1.00  0.00    -0.235 C  
BRANCH  16  17
HETATM   17  C   UNL     1      -7.575   7.662  73.407  1.00  0.00    -0.135 C  
BRANCH  17  18
HETATM   18  C   UNL     1      -7.140   8.509  72.211  1.00  0.00    -0.091 C  
BRANCH  18  19
HETATM   19  C   UNL     1      -8.197   8.519  71.125  1.00  0.00    -0.144 C  
HETATM   20  O   UNL     1      -9.360   8.860  71.330  1.00  0.00    -0.223 OA 
BRANCH  19  21
HETATM   21  C   UNL     1      -7.813   8.050  69.769  1.00  0.00    -0.106 A  
HETATM   22  C   UNL     1      -8.449   8.634  68.662  1.00  0.00    -0.130 A  
HETATM   23  C   UNL     1      -8.139   8.212  67.369  1.00  0.00    -0.122 A  
HETATM   24  C   UNL     1      -7.185   7.217  67.186  1.00  0.00    -0.092 A  
HETATM   25  F   UNL     1      -6.887   6.812  65.946  1.00  0.00    -0.050 F  
HETATM   26  C   UNL     1      -6.535   6.639  68.269  1.00  0.00    -0.049 A  
HETATM   27  C   UNL     1      -6.847   7.051  69.567  1.00  0.00    -0.051 A  
ENDBRANCH  19  21
ENDBRANCH  18  19
ENDBRANCH  17  18
ENDBRANCH  16  17
ENDBRANCH   8  16
TORSDOF 6
ENDMDL
MODEL      205
REMARK 921   NORMALIZED FREE ENERGY PREDICTED BY IDOCK:   -3.48 KCAL/MOL
REMARK 922        TOTAL FREE ENERGY PREDICTED BY IDOCK:   -6.02 KCAL/MOL
REMARK 923 INTER-LIGAND FREE ENERGY PREDICTED BY IDOCK:   -5.19 KCAL/MOL
REMARK 924 INTRA-LIGAND FREE ENERGY PREDICTED BY IDOCK:   -0.83 KCAL/MOL
REMARK 927      BINDING AFFINITY PREDICTED BY RF-SCORE:    0.00 PKD
ROOT
HETATM    1  O   UNL     1     -10.219   4.021  71.091  1.00  0.00    -0.102 OA 
HETATM    2  C   UNL     1     -10.022   5.165  70.242  1.00  0.00    -0.250 C  
HETATM    3  H   UNL     1      -9.442   3.477  71.030  1.00  0.00     0.000 HD 
HETATM    4  C   UNL     1     -11.282   6.046  70.341  1.00  0.00    -0.380 C  
HETATM    5  C   UNL     1      -8.765   5.909  70.736  1.00  0.00    -0.134 C  
HETATM    6  C   UNL     1     -11.384   6.741  71.700  1.00  0.00    -0.266 C  
HETATM    7  C   UNL     1      -9.001   6.631  72.065  1.00  0.00    -0.139 C  
HETATM    8  N   UNL     1     -10.182   7.508  72.060  1.00  0.00    -0.193 NA 
ENDROOT
BRANCH   2   9
HETATM    9  C   UNL     1      -9.812   4.662  68.807  1.00  0.00    -0.201 A  
HETATM   10  C   UNL     1     -10.291   5.388  67.701  1.00  0.00    -0.235 A  
HETATM   11  C   UNL     1      -9.155   3.442  68.552  1.00  0.00    -0.206 A  
HETATM   12  C   UNL     1      -9.503   3.695  66.176  1.00  0.00    -0.162 A  
HETATM   13  C   UNL     1     -10.140   4.910  66.397  1.00  0.00    -0.286 A  
HETATM   14 CL   UNL     1      -9.339   3.093  64.572  1.00  0.00    -0.139 Cl 
HETATM   15  C   UNL     1      -9.003   2.961  67.247  1.00  0.00    -0.185 A  
ENDBRANCH   2   9
BRANCH   8  16
HETATM   16  C   UNL     1      -9.963   8.705  71.229  1.00  0.00    -0.246 C  
BRANCH  16  17
HETATM   17  C   UNL     1      -8.491   9.022  70.953  1.00  0.00    -0.253 C  
BRANCH  17  18
HETATM   18  C   UNL     1      -8.231   9.377  69.489  1.00  0.00    -0.124 C  
BRANCH  18  19
HETATM   19  C   UNL     1      -8.310  10.873  69.259  1.00  0.00    -0.012 C  
HETATM   20  O   UNL     1      -7.523  11.669  69.767  1.00  0.00     0.251 OA 
BRANCH  19  21
HETATM   21  C   UNL     1      -9.419  11.396  68.420  1.00  0.00    -0.194 A  
HETATM   22  C   UNL     1      -9.644  12.781  68.407  1.00  0.00    -0.175 A  
HETATM   23  C   UNL     1     -10.687  13.318  67.653  1.00  0.00    -0.250 A  
HETATM   24  C   UNL     1     -11.493  12.470  66.901  1.00  0.00    -0.353 A  
HETATM   25  F   UNL     1     -12.493  12.984  66.177  1.00  0.00    -0.462 F  
HETATM   26  C   UNL     1     -11.275  11.097  66.890  1.00  0.00    -0.258 A  
HETATM   27  C   UNL     1     -10.238  10.553  67.651  1.00  0.00    -0.234 A  
ENDBRANCH  19  21
ENDBRANCH  18  19
ENDBRANCH  17  18
ENDBRANCH  16  17
ENDBRANCH   8  16
TORSDOF 6
ENDMDL
MODEL      206
REMARK 921   NORMALIZED FREE ENERGY PREDICTED BY IDOCK:   -3.46 KCAL/MOL
REMARK 922        TOTAL FREE ENERGY PREDICTED BY IDOCK:   -5.99 KCAL/MOL
REMARK 923 INTER-LIGAND FREE ENERGY PREDICTED BY IDOCK:   -5.42 KCAL/MOL
REMARK 924 INTRA-LIGAND FREE ENERGY PREDICTED BY IDOCK:   -0.57 KCAL/MOL
REMARK 927      BINDING AFFINITY PREDICTED BY RF-SCORE:    0.00 PKD
ROOT
HETATM    1  O   UNL     1      -9.132   8.806  66.688  1.00  0.00    -0.142 OA 
HETATM    2  C   UNL     1      -9.793   9.711  67.591  1.00  0.00    -0.164 C  
HETATM    3  H   UNL     1      -8.390   9.263  66.311  1.00  0.00     0.000 HD 
HETATM    4  C   UNL     1     -10.997   8.970  68.203  1.00  0.00     0.015 C  
HETATM    5  C   UNL     1      -8.772  10.131  68.669  1.00  0.00    -0.128 C  
HETATM    6  C   UNL     1     -10.555   7.888  69.191  1.00  0.00    -0.173 C  
HETATM    7  C   UNL     1      -8.461   8.997  69.648  1.00  0.00    -0.128 C  
HETATM    8  N   UNL     1      -9.658   8.385  70.244  1.00  0.00    -0.164 NA 
ENDROOT
BRANCH   2   9
HETATM    9  C   UNL     1     -10.249  10.936  66.786  1.00  0.00    -0.277 A  
HETATM   10  C   UNL     1      -9.552  11.357  65.638  1.00  0.00    -0.258 A  
HETATM   11  C   UNL     1     -11.366  11.695  67.187  1.00  0.00    -0.373 A  
HETATM   12  C   UNL     1     -11.035  13.238  65.358  1.00  0.00    -0.284 A  
HETATM   13  C   UNL     1      -9.939  12.497  64.931  1.00  0.00    -0.190 A  
HETATM   14 CL   UNL     1     -11.497  14.657  64.501  1.00  0.00    -0.364 Cl 
HETATM   15  C   UNL     1     -11.755  12.839  66.480  1.00  0.00    -0.463 A  
ENDBRANCH   2   9
BRANCH   8  16
HETATM   16  C   UNL     1     -10.307   9.293  71.206  1.00  0.00    -0.327 C  
BRANCH  16  17
HETATM   17  C   UNL     1     -11.571   8.724  71.858  1.00  0.00    -0.432 C  
BRANCH  17  18
HETATM   18  C   UNL     1     -11.497   7.211  72.060  1.00  0.00    -0.310 C  
BRANCH  18  19
HETATM   19  C   UNL     1     -10.388   6.834  73.021  1.00  0.00    -0.228 C  
HETATM   20  O   UNL     1     -10.271   7.340  74.136  1.00  0.00    -0.255 OA 
BRANCH  19  21
HETATM   21  C   UNL     1      -9.376   5.843  72.572  1.00  0.00    -0.146 A  
HETATM   22  C   UNL     1      -8.067   5.963  73.066  1.00  0.00    -0.117 A  
HETATM   23  C   UNL     1      -7.076   5.071  72.656  1.00  0.00    -0.083 A  
HETATM   24  C   UNL     1      -7.400   4.053  71.765  1.00  0.00    -0.059 A  
HETATM   25  F   UNL     1      -6.450   3.197  71.372  1.00  0.00    -0.017 F  
HETATM   26  C   UNL     1      -8.694   3.911  71.278  1.00  0.00    -0.127 A  
HETATM   27  C   UNL     1      -9.688   4.806  71.678  1.00  0.00    -0.230 A  
ENDBRANCH  19  21
ENDBRANCH  18  19
ENDBRANCH  17  18
ENDBRANCH  16  17
ENDBRANCH   8  16
TORSDOF 6
ENDMDL
MODEL      207
REMARK 921   NORMALIZED FREE ENERGY PREDICTED BY IDOCK:   -3.46 KCAL/MOL
REMARK 922        TOTAL FREE ENERGY PREDICTED BY IDOCK:   -5.98 KCAL/MOL
REMARK 923 INTER-LIGAND FREE ENERGY PREDICTED BY IDOCK:   -4.31 KCAL/MOL
REMARK 924 INTRA-LIGAND FREE ENERGY PREDICTED BY IDOCK:   -1.67 KCAL/MOL
REMARK 927      BINDING AFFINITY PREDICTED BY RF-SCORE:    0.00 PKD
ROOT
HETATM    1  O   UNL     1      -6.730  11.157  70.488  1.00  0.00    -0.497 OA 
HETATM    2  C   UNL     1      -7.278  10.141  69.628  1.00  0.00    -0.127 C  
HETATM    3  H   UNL     1      -5.881  10.855  70.789  1.00  0.00     0.000 HD 
HETATM    4  C   UNL     1      -8.654  10.632  69.139  1.00  0.00    -0.136 C  
HETATM    5  C   UNL     1      -6.295   9.935  68.456  1.00  0.00    -0.050 C  
HETATM    6  C   UNL     1      -8.524  11.782  68.139  1.00  0.00    -0.158 C  
HETATM    7  C   UNL     1      -6.303  11.111  67.477  1.00  0.00    -0.065 C  
HETATM    8  N   UNL     1      -7.646  11.476  67.001  1.00  0.00    -0.148 NA 
ENDROOT
BRANCH   2   9
HETATM    9  C   UNL     1      -7.410   8.848  70.444  1.00  0.00    -0.070 A  
HETATM   10  C   UNL     1      -8.052   8.838  71.696  1.00  0.00    -0.153 A  
HETATM   11  C   UNL     1      -6.868   7.634  69.977  1.00  0.00    -0.050 A  
HETATM   12  C   UNL     1      -7.576   6.491  71.984  1.00  0.00    -0.093 A  
HETATM   13  C   UNL     1      -8.134   7.671  72.461  1.00  0.00    -0.140 A  
HETATM   14 CL   UNL     1      -7.654   5.060  72.936  1.00  0.00    -0.095 Cl 
HETATM   15  C   UNL     1      -6.949   6.465  70.742  1.00  0.00    -0.068 A  
ENDBRANCH   2   9
BRANCH   8  16
HETATM   16  C   UNL     1      -8.188  10.460  66.081  1.00  0.00    -0.144 C  
BRANCH  16  17
HETATM   17  C   UNL     1      -7.872   9.015  66.479  1.00  0.00    -0.100 C  
BRANCH  17  18
HETATM   18  C   UNL     1      -8.991   8.044  66.099  1.00  0.00    -0.215 C  
BRANCH  18  19
HETATM   19  C   UNL     1     -10.132   8.097  67.095  1.00  0.00    -0.264 C  
HETATM   20  O   UNL     1     -10.990   8.977  67.080  1.00  0.00    -0.119 OA 
BRANCH  19  21
HETATM   21  C   UNL     1     -10.181   7.063  68.160  1.00  0.00    -0.211 A  
HETATM   22  C   UNL     1      -9.602   5.811  67.897  1.00  0.00    -0.124 A  
HETATM   23  C   UNL     1      -9.643   4.800  68.857  1.00  0.00    -0.229 A  
HETATM   24  C   UNL     1     -10.250   5.048  70.083  1.00  0.00    -0.259 A  
HETATM   25  F   UNL     1     -10.290   4.079  71.005  1.00  0.00    -0.202 F  
HETATM   26  C   UNL     1     -10.815   6.286  70.367  1.00  0.00    -0.360 A  
HETATM   27  C   UNL     1     -10.785   7.299  69.406  1.00  0.00    -0.236 A  
ENDBRANCH  19  21
ENDBRANCH  18  19
ENDBRANCH  17  18
ENDBRANCH  16  17
ENDBRANCH   8  16
TORSDOF 6
ENDMDL
MODEL      208
REMARK 921   NORMALIZED FREE ENERGY PREDICTED BY IDOCK:   -3.39 KCAL/MOL
REMARK 922        TOTAL FREE ENERGY PREDICTED BY IDOCK:   -5.89 KCAL/MOL
REMARK 923 INTER-LIGAND FREE ENERGY PREDICTED BY IDOCK:   -5.15 KCAL/MOL
REMARK 924 INTRA-LIGAND FREE ENERGY PREDICTED BY IDOCK:   -0.74 KCAL/MOL
REMARK 927      BINDING AFFINITY PREDICTED BY RF-SCORE:    0.00 PKD
ROOT
HETATM    1  O   UNL     1      -9.987  12.336  68.639  1.00  0.00    -0.323 OA 
HETATM    2  C   UNL     1      -9.927  10.899  68.623  1.00  0.00    -0.189 C  
HETATM    3  H   UNL     1      -9.836  12.623  69.532  1.00  0.00     0.000 HD 
HETATM    4  C   UNL     1     -10.173  10.435  67.174  1.00  0.00    -0.271 C  
HETATM    5  C   UNL     1      -8.531  10.479  69.128  1.00  0.00    -0.152 C  
HETATM    6  C   UNL     1      -8.986  10.759  66.265  1.00  0.00    -0.170 C  
HETATM    7  C   UNL     1      -7.430  10.779  68.109  1.00  0.00    -0.091 C  
HETATM    8  N   UNL     1      -7.704  10.244  66.766  1.00  0.00    -0.108 NA 
ENDROOT
BRANCH   2   9
HETATM    9  C   UNL     1     -11.015  10.367  69.566  1.00  0.00    -0.307 A  
HETATM   10  C   UNL     1     -12.013  11.215  70.082  1.00  0.00    -0.449 A  
HETATM   11  C   UNL     1     -11.035   9.016  69.966  1.00  0.00    -0.230 A  
HETATM   12  C   UNL     1     -12.962   9.409  71.367  1.00  0.00    -0.346 A  
HETATM   13  C   UNL     1     -12.977  10.742  70.975  1.00  0.00    -0.425 A  
HETATM   14 CL   UNL     1     -14.135   8.832  72.487  1.00  0.00    -0.472 Cl 
HETATM   15  C   UNL     1     -11.999   8.541  70.862  1.00  0.00    -0.204 A  
ENDBRANCH   2   9
BRANCH   8  16
HETATM   16  C   UNL     1      -7.594   8.775  66.737  1.00  0.00    -0.090 C  
BRANCH  16  17
HETATM   17  C   UNL     1      -8.485   8.095  65.694  1.00  0.00    -0.170 C  
BRANCH  17  18
HETATM   18  C   UNL     1      -9.101   6.794  66.206  1.00  0.00    -0.165 C  
BRANCH  18  19
HETATM   19  C   UNL     1      -8.257   5.594  65.827  1.00  0.00    -0.122 C  
HETATM   20  O   UNL     1      -7.106   5.435  66.228  1.00  0.00    -0.069 OA 
BRANCH  19  21
HETATM   21  C   UNL     1      -8.837   4.596  64.893  1.00  0.00    -0.151 A  
HETATM   22  C   UNL     1     -10.230   4.418  64.893  1.00  0.00    -0.129 A  
HETATM   23  C   UNL     1     -10.819   3.476  64.049  1.00  0.00    -0.147 A  
HETATM   24  C   UNL     1     -10.017   2.725  63.198  1.00  0.00    -0.107 A  
HETATM   25  F   UNL     1     -10.582   1.822  62.388  1.00  0.00    -0.093 F  
HETATM   26  C   UNL     1      -8.638   2.898  63.173  1.00  0.00    -0.085 A  
HETATM   27  C   UNL     1      -8.041   3.833  64.022  1.00  0.00    -0.089 A  
ENDBRANCH  19  21
ENDBRANCH  18  19
ENDBRANCH  17  18
ENDBRANCH  16  17
ENDBRANCH   8  16
TORSDOF 6
ENDMDL
MODEL      209
REMARK 921   NORMALIZED FREE ENERGY PREDICTED BY IDOCK:   -3.30 KCAL/MOL
REMARK 922        TOTAL FREE ENERGY PREDICTED BY IDOCK:   -5.77 KCAL/MOL
REMARK 923 INTER-LIGAND FREE ENERGY PREDICTED BY IDOCK:   -4.85 KCAL/MOL
REMARK 924 INTRA-LIGAND FREE ENERGY PREDICTED BY IDOCK:   -0.91 KCAL/MOL
REMARK 927      BINDING AFFINITY PREDICTED BY RF-SCORE:    0.00 PKD
ROOT
HETATM    1  O   UNL     1      -6.080  11.023  67.989  1.00  0.00    -0.049 OA 
HETATM    2  C   UNL     1      -6.978  11.436  69.035  1.00  0.00    -0.106 C  
HETATM    3  H   UNL     1      -6.508  10.334  67.494  1.00  0.00     0.000 HD 
HETATM    4  C   UNL     1      -6.283  12.554  69.836  1.00  0.00    -0.094 C  
HETATM    5  C   UNL     1      -8.279  11.932  68.371  1.00  0.00    -0.160 C  
HETATM    6  C   UNL     1      -6.196  13.855  69.035  1.00  0.00    -0.094 C  
HETATM    7  C   UNL     1      -8.096  13.277  67.665  1.00  0.00    -0.174 C  
HETATM    8  N   UNL     1      -7.491  14.314  68.515  1.00  0.00    -0.113 NA 
ENDROOT
BRANCH   2   9
HETATM    9  C   UNL     1      -7.266  10.218  69.923  1.00  0.00    -0.162 A  
HETATM   10  C   UNL     1      -8.523   9.585  69.909  1.00  0.00    -0.198 A  
HETATM   11  C   UNL     1      -6.288   9.709  70.801  1.00  0.00    -0.097 A  
HETATM   12  C   UNL     1      -7.824   8.034  71.617  1.00  0.00    -0.103 A  
HETATM   13  C   UNL     1      -8.801   8.504  70.749  1.00  0.00    -0.187 A  
HETATM   14 CL   UNL     1      -8.174   6.718  72.670  1.00  0.00    -0.107 Cl 
HETATM   15  C   UNL     1      -6.566   8.627  71.643  1.00  0.00    -0.074 A  
ENDBRANCH   2   9
BRANCH   8  16
HETATM   16  C   UNL     1      -8.428  14.773  69.556  1.00  0.00     0.091 C  
BRANCH  16  17
HETATM   17  C   UNL     1      -9.892  14.828  69.110  1.00  0.00    -0.167 C  
BRANCH  17  18
HETATM   18  C   UNL     1     -10.413  16.260  68.983  1.00  0.00    -0.276 C  
BRANCH  18  19
HETATM   19  C   UNL     1     -10.189  16.810  67.589  1.00  0.00    -0.289 C  
HETATM   20  O   UNL     1     -10.680  16.300  66.584  1.00  0.00    -0.291 OA 
BRANCH  19  21
HETATM   21  C   UNL     1      -9.299  17.988  67.435  1.00  0.00    -0.254 A  
HETATM   22  C   UNL     1      -9.721  19.034  66.598  1.00  0.00    -0.383 A  
HETATM   23  C   UNL     1      -8.910  20.151  66.403  1.00  0.00    -0.332 A  
HETATM   24  C   UNL     1      -7.685  20.228  67.057  1.00  0.00    -0.321 A  
HETATM   25  F   UNL     1      -6.907  21.300  66.871  1.00  0.00    -0.367 F  
HETATM   26  C   UNL     1      -7.257  19.210  67.901  1.00  0.00    -0.269 A  
HETATM   27  C   UNL     1      -8.062  18.084  68.093  1.00  0.00    -0.276 A  
ENDBRANCH  19  21
ENDBRANCH  18  19
ENDBRANCH  17  18
ENDBRANCH  16  17
ENDBRANCH   8  16
TORSDOF 6
ENDMDL
MODEL      210
REMARK 921   NORMALIZED FREE ENERGY PREDICTED BY IDOCK:   -3.23 KCAL/MOL
REMARK 922        TOTAL FREE ENERGY PREDICTED BY IDOCK:   -5.68 KCAL/MOL
REMARK 923 INTER-LIGAND FREE ENERGY PREDICTED BY IDOCK:   -5.21 KCAL/MOL
REMARK 924 INTRA-LIGAND FREE ENERGY PREDICTED BY IDOCK:   -0.46 KCAL/MOL
REMARK 927      BINDING AFFINITY PREDICTED BY RF-SCORE:    0.00 PKD
ROOT
HETATM    1  O   UNL     1      -8.351  12.147  66.194  1.00  0.00    -0.389 OA 
HETATM    2  C   UNL     1      -8.975  12.298  67.481  1.00  0.00    -0.180 C  
HETATM    3  H   UNL     1      -7.571  12.691  66.183  1.00  0.00     0.000 HD 
HETATM    4  C   UNL     1     -10.238  11.417  67.497  1.00  0.00    -0.210 C  
HETATM    5  C   UNL     1      -7.957  11.857  68.554  1.00  0.00    -0.137 C  
HETATM    6  C   UNL     1      -9.891   9.928  67.546  1.00  0.00    -0.169 C  
HETATM    7  C   UNL     1      -7.743  10.342  68.565  1.00  0.00    -0.101 C  
HETATM    8  N   UNL     1      -8.992   9.569  68.652  1.00  0.00    -0.131 NA 
ENDROOT
BRANCH   2   9
HETATM    9  C   UNL     1      -9.333  13.780  67.665  1.00  0.00    -0.213 A  
HETATM   10  C   UNL     1     -10.670  14.217  67.635  1.00  0.00    -0.260 A  
HETATM   11  C   UNL     1      -8.331  14.753  67.844  1.00  0.00    -0.151 A  
HETATM   12  C   UNL     1      -9.985  16.512  67.915  1.00  0.00    -0.245 A  
HETATM   13  C   UNL     1     -10.995  15.570  67.757  1.00  0.00    -0.317 A  
HETATM   14 CL   UNL     1     -10.383  18.182  68.041  1.00  0.00    -0.392 Cl 
HETATM   15  C   UNL     1      -8.654  16.110  67.966  1.00  0.00    -0.171 A  
ENDBRANCH   2   9
BRANCH   8  16
HETATM   16  C   UNL     1      -9.607   9.684  69.987  1.00  0.00    -0.243 C  
BRANCH  16  17
HETATM   17  C   UNL     1     -11.110   9.393  70.016  1.00  0.00    -0.248 C  
BRANCH  17  18
HETATM   18  C   UNL     1     -11.423   7.973  70.490  1.00  0.00    -0.192 C  
BRANCH  18  19
HETATM   19  C   UNL     1     -10.209   7.317  71.114  1.00  0.00    -0.190 C  
HETATM   20  O   UNL     1      -9.707   7.707  72.167  1.00  0.00    -0.162 OA 
BRANCH  19  21
HETATM   21  C   UNL     1      -9.575   6.183  70.393  1.00  0.00    -0.188 A  
HETATM   22  C   UNL     1      -8.224   6.299  70.033  1.00  0.00    -0.125 A  
HETATM   23  C   UNL     1      -7.590   5.271  69.334  1.00  0.00    -0.069 A  
HETATM   24  C   UNL     1      -8.306   4.124  69.012  1.00  0.00    -0.077 A  
HETATM   25  F   UNL     1      -7.699   3.137  68.343  1.00  0.00    -0.057 F  
HETATM   26  C   UNL     1      -9.641   3.985  69.374  1.00  0.00    -0.257 A  
HETATM   27  C   UNL     1     -10.283   5.015  70.066  1.00  0.00    -0.339 A  
ENDBRANCH  19  21
ENDBRANCH  18  19
ENDBRANCH  17  18
ENDBRANCH  16  17
ENDBRANCH   8  16
TORSDOF 6
ENDMDL
MODEL      211
REMARK 921   NORMALIZED FREE ENERGY PREDICTED BY IDOCK:   -3.17 KCAL/MOL
REMARK 922        TOTAL FREE ENERGY PREDICTED BY IDOCK:   -5.59 KCAL/MOL
REMARK 923 INTER-LIGAND FREE ENERGY PREDICTED BY IDOCK:   -5.87 KCAL/MOL
REMARK 924 INTRA-LIGAND FREE ENERGY PREDICTED BY IDOCK:    0.28 KCAL/MOL
REMARK 927      BINDING AFFINITY PREDICTED BY RF-SCORE:    0.00 PKD
ROOT
HETATM    1  O   UNL     1      -7.882  11.448  65.920  1.00  0.00    -0.368 OA 
HETATM    2  C   UNL     1      -8.450  11.650  67.227  1.00  0.00    -0.156 C  
HETATM    3  H   UNL     1      -7.175  12.073  65.811  1.00  0.00     0.000 HD 
HETATM    4  C   UNL     1      -9.597  10.636  67.403  1.00  0.00    -0.180 C  
HETATM    5  C   UNL     1      -7.331  11.433  68.267  1.00  0.00    -0.089 C  
HETATM    6  C   UNL     1      -9.072   9.208  67.562  1.00  0.00    -0.124 C  
HETATM    7  C   UNL     1      -6.938   9.960  68.399  1.00  0.00    -0.068 C  
HETATM    8  N   UNL     1      -8.079   9.062  68.635  1.00  0.00    -0.106 NA 
ENDROOT
BRANCH   2   9
HETATM    9  C   UNL     1      -8.971  13.092  67.301  1.00  0.00    -0.212 A  
HETATM   10  C   UNL     1      -8.096  14.175  67.504  1.00  0.00    -0.199 A  
HETATM   11  C   UNL     1     -10.347  13.375  67.193  1.00  0.00    -0.246 A  
HETATM   12  C   UNL     1      -9.937  15.732  67.524  1.00  0.00    -0.236 A  
HETATM   13  C   UNL     1      -8.573  15.483  67.617  1.00  0.00    -0.175 A  
HETATM   14 CL   UNL     1     -10.527  17.341  67.688  1.00  0.00    -0.356 Cl 
HETATM   15  C   UNL     1     -10.827  14.685  67.307  1.00  0.00    -0.305 A  
ENDBRANCH   2   9
BRANCH   8  16
HETATM   16  C   UNL     1      -8.630   9.234  69.991  1.00  0.00    -0.182 C  
BRANCH  16  17
HETATM   17  C   UNL     1     -10.097   9.673  70.025  1.00  0.00    -0.293 C  
BRANCH  17  18
HETATM   18  C   UNL     1     -10.794   9.290  71.331  1.00  0.00    -0.434 C  
BRANCH  18  19
HETATM   19  C   UNL     1      -9.845   8.585  72.279  1.00  0.00    -0.313 C  
HETATM   20  O   UNL     1      -8.856   9.132  72.762  1.00  0.00    -0.022 OA 
BRANCH  19  21
HETATM   21  C   UNL     1     -10.104   7.158  72.597  1.00  0.00    -0.217 A  
HETATM   22  C   UNL     1     -10.182   6.783  73.948  1.00  0.00    -0.396 A  
HETATM   23  C   UNL     1     -10.400   5.450  74.297  1.00  0.00    -0.302 A  
HETATM   24  C   UNL     1     -10.554   4.498  73.295  1.00  0.00    -0.216 A  
HETATM   25  F   UNL     1     -10.764   3.220  73.630  1.00  0.00    -0.208 F  
HETATM   26  C   UNL     1     -10.495   4.854  71.953  1.00  0.00    -0.233 A  
HETATM   27  C   UNL     1     -10.268   6.185  71.597  1.00  0.00    -0.235 A  
ENDBRANCH  19  21
ENDBRANCH  18  19
ENDBRANCH  17  18
ENDBRANCH  16  17
ENDBRANCH   8  16
TORSDOF 6
ENDMDL
MODEL      212
REMARK 921   NORMALIZED FREE ENERGY PREDICTED BY IDOCK:   -3.13 KCAL/MOL
REMARK 922        TOTAL FREE ENERGY PREDICTED BY IDOCK:   -5.54 KCAL/MOL
REMARK 923 INTER-LIGAND FREE ENERGY PREDICTED BY IDOCK:   -4.86 KCAL/MOL
REMARK 924 INTRA-LIGAND FREE ENERGY PREDICTED BY IDOCK:   -0.68 KCAL/MOL
REMARK 927      BINDING AFFINITY PREDICTED BY RF-SCORE:    0.00 PKD
ROOT
HETATM    1  O   UNL     1     -10.957  10.781  64.367  1.00  0.00    -0.250 OA 
HETATM    2  C   UNL     1     -10.102  11.120  65.474  1.00  0.00    -0.257 C  
HETATM    3  H   UNL     1     -10.591  11.179  63.585  1.00  0.00     0.000 HD 
HETATM    4  C   UNL     1     -10.696  10.476  66.741  1.00  0.00    -0.252 C  
HETATM    5  C   UNL     1      -8.692  10.578  65.164  1.00  0.00    -0.197 C  
HETATM    6  C   UNL     1     -10.529   8.955  66.735  1.00  0.00    -0.199 C  
HETATM    7  C   UNL     1      -8.621   9.052  65.261  1.00  0.00    -0.174 C  
HETATM    8  N   UNL     1      -9.142   8.515  66.528  1.00  0.00    -0.164 NA 
ENDROOT
BRANCH   2   9
HETATM    9  C   UNL     1     -10.068  12.650  65.597  1.00  0.00    -0.285 A  
HETATM   10  C   UNL     1      -9.451  13.280  66.694  1.00  0.00    -0.262 A  
HETATM   11  C   UNL     1     -10.676  13.472  64.628  1.00  0.00    -0.429 A  
HETATM   12  C   UNL     1     -10.080  15.457  65.869  1.00  0.00    -0.345 A  
HETATM   13  C   UNL     1      -9.457  14.670  66.830  1.00  0.00    -0.259 A  
HETATM   14 CL   UNL     1     -10.110  17.168  66.049  1.00  0.00    -0.323 Cl 
HETATM   15  C   UNL     1     -10.685  14.865  64.764  1.00  0.00    -0.365 A  
ENDBRANCH   2   9
BRANCH   8  16
HETATM   16  C   UNL     1      -8.241   8.820  67.655  1.00  0.00    -0.110 C  
BRANCH  16  17
HETATM   17  C   UNL     1      -6.756   8.609  67.350  1.00  0.00    -0.063 C  
BRANCH  17  18
HETATM   18  C   UNL     1      -6.178   7.386  68.063  1.00  0.00    -0.043 C  
BRANCH  18  19
HETATM   19  C   UNL     1      -7.117   6.200  67.977  1.00  0.00    -0.078 C  
HETATM   20  O   UNL     1      -7.506   5.733  66.908  1.00  0.00    -0.082 OA 
BRANCH  19  21
HETATM   21  C   UNL     1      -7.623   5.612  69.243  1.00  0.00    -0.087 A  
HETATM   22  C   UNL     1      -8.864   6.052  69.730  1.00  0.00    -0.134 A  
HETATM   23  C   UNL     1      -9.371   5.546  70.927  1.00  0.00    -0.191 A  
HETATM   24  C   UNL     1      -8.642   4.591  71.627  1.00  0.00    -0.115 A  
HETATM   25  F   UNL     1      -9.127   4.105  72.775  1.00  0.00    -0.105 F  
HETATM   26  C   UNL     1      -7.418   4.133  71.153  1.00  0.00    -0.048 A  
HETATM   27  C   UNL     1      -6.902   4.643  69.959  1.00  0.00    -0.044 A  
ENDBRANCH  19  21
ENDBRANCH  18  19
ENDBRANCH  17  18
ENDBRANCH  16  17
ENDBRANCH   8  16
TORSDOF 6
ENDMDL
MODEL      213
REMARK 921   NORMALIZED FREE ENERGY PREDICTED BY IDOCK:   -2.99 KCAL/MOL
REMARK 922        TOTAL FREE ENERGY PREDICTED BY IDOCK:   -5.34 KCAL/MOL
REMARK 923 INTER-LIGAND FREE ENERGY PREDICTED BY IDOCK:   -4.60 KCAL/MOL
REMARK 924 INTRA-LIGAND FREE ENERGY PREDICTED BY IDOCK:   -0.75 KCAL/MOL
REMARK 927      BINDING AFFINITY PREDICTED BY RF-SCORE:    0.00 PKD
ROOT
HETATM    1  O   UNL     1      -7.809   8.663  72.406  1.00  0.00    -0.316 OA 
HETATM    2  C   UNL     1      -8.306   8.422  71.078  1.00  0.00    -0.134 C  
HETATM    3  H   UNL     1      -8.015   7.902  72.936  1.00  0.00     0.000 HD 
HETATM    4  C   UNL     1      -7.973   9.657  70.220  1.00  0.00    -0.198 C  
HETATM    5  C   UNL     1      -7.618   7.150  70.540  1.00  0.00    -0.089 C  
HETATM    6  C   UNL     1      -6.475   9.757  69.926  1.00  0.00    -0.062 C  
HETATM    7  C   UNL     1      -6.142   7.384  70.208  1.00  0.00    -0.027 C  
HETATM    8  N   UNL     1      -5.909   8.539  69.328  1.00  0.00    -0.037 NA 
ENDROOT
BRANCH   2   9
HETATM    9  C   UNL     1      -9.823   8.206  71.169  1.00  0.00    -0.207 A  
HETATM   10  C   UNL     1     -10.707   9.290  71.324  1.00  0.00    -0.422 A  
HETATM   11  C   UNL     1     -10.378   6.912  71.128  1.00  0.00    -0.222 A  
HETATM   12  C   UNL     1     -12.603   7.804  71.426  1.00  0.00    -0.317 A  
HETATM   13  C   UNL     1     -12.084   9.093  71.453  1.00  0.00    -0.409 A  
HETATM   14 CL   UNL     1     -14.296   7.558  71.609  1.00  0.00    -0.586 Cl 
HETATM   15  C   UNL     1     -11.757   6.712  71.257  1.00  0.00    -0.386 A  
ENDBRANCH   2   9
BRANCH   8  16
HETATM   16  C   UNL     1      -6.373   8.274  67.954  1.00  0.00    -0.053 C  
BRANCH  16  17
HETATM   17  C   UNL     1      -6.209   6.821  67.502  1.00  0.00    -0.040 C  
BRANCH  17  18
HETATM   18  C   UNL     1      -6.729   6.585  66.083  1.00  0.00    -0.049 C  
BRANCH  18  19
HETATM   19  C   UNL     1      -8.169   6.113  66.092  1.00  0.00    -0.119 C  
HETATM   20  O   UNL     1      -9.057   6.693  66.713  1.00  0.00    -0.132 OA 
BRANCH  19  21
HETATM   21  C   UNL     1      -8.504   4.868  65.355  1.00  0.00    -0.133 A  
HETATM   22  C   UNL     1      -8.764   4.963  63.978  1.00  0.00    -0.119 A  
HETATM   23  C   UNL     1      -9.105   3.825  63.246  1.00  0.00    -0.106 A  
HETATM   24  C   UNL     1      -9.170   2.594  63.889  1.00  0.00    -0.109 A  
HETATM   25  F   UNL     1      -9.497   1.503  63.188  1.00  0.00    -0.087 F  
HETATM   26  C   UNL     1      -8.901   2.479  65.248  1.00  0.00    -0.121 A  
HETATM   27  C   UNL     1      -8.568   3.617  65.988  1.00  0.00    -0.115 A  
ENDBRANCH  19  21
ENDBRANCH  18  19
ENDBRANCH  17  18
ENDBRANCH  16  17
ENDBRANCH   8  16
TORSDOF 6
ENDMDL
MODEL      214
REMARK 921   NORMALIZED FREE ENERGY PREDICTED BY IDOCK:   -2.70 KCAL/MOL
REMARK 922        TOTAL FREE ENERGY PREDICTED BY IDOCK:   -4.96 KCAL/MOL
REMARK 923 INTER-LIGAND FREE ENERGY PREDICTED BY IDOCK:   -4.48 KCAL/MOL
REMARK 924 INTRA-LIGAND FREE ENERGY PREDICTED BY IDOCK:   -0.48 KCAL/MOL
REMARK 927      BINDING AFFINITY PREDICTED BY RF-SCORE:    0.00 PKD
ROOT
HETATM    1  O   UNL     1     -12.858  14.111  68.734  1.00  0.00    -0.110 OA 
HETATM    2  C   UNL     1     -11.549  13.643  69.107  1.00  0.00    -0.309 C  
HETATM    3  H   UNL     1     -12.847  14.288  67.801  1.00  0.00     0.000 HD 
HETATM    4  C   UNL     1     -11.566  13.356  70.621  1.00  0.00     0.191 C  
HETATM    5  C   UNL     1     -11.251  12.371  68.287  1.00  0.00    -0.309 C  
HETATM    6  C   UNL     1     -12.394  12.113  70.953  1.00  0.00    -0.273 C  
HETATM    7  C   UNL     1     -12.078  11.171  68.754  1.00  0.00    -0.162 C  
HETATM    8  N   UNL     1     -11.989  10.917  70.200  1.00  0.00    -0.321 NA 
ENDROOT
BRANCH   2   9
HETATM    9  C   UNL     1     -10.535  14.745  68.766  1.00  0.00    -0.250 A  
HETATM   10  C   UNL     1      -9.278  14.434  68.216  1.00  0.00    -0.201 A  
HETATM   11  C   UNL     1     -10.822  16.101  69.017  1.00  0.00    -0.299 A  
HETATM   12  C   UNL     1      -8.639  16.759  68.220  1.00  0.00    -0.226 A  
HETATM   13  C   UNL     1      -8.336  15.431  67.947  1.00  0.00    -0.148 A  
HETATM   14 CL   UNL     1      -7.471  17.985  67.911  1.00  0.00    -0.218 Cl 
HETATM   15  C   UNL     1      -9.880  17.100  68.748  1.00  0.00    -0.293 A  
ENDBRANCH   2   9
BRANCH   8  16
HETATM   16  C   UNL     1     -10.664  10.392  70.576  1.00  0.00    -0.027 C  
BRANCH  16  17
HETATM   17  C   UNL     1     -10.708   9.159  71.483  1.00  0.00    -0.437 C  
BRANCH  17  18
HETATM   18  C   UNL     1      -9.729   8.071  71.043  1.00  0.00    -0.185 C  
BRANCH  18  19
HETATM   19  C   UNL     1     -10.125   7.478  69.706  1.00  0.00    -0.194 C  
HETATM   20  O   UNL     1     -11.111   7.853  69.075  1.00  0.00     0.024 OA 
BRANCH  19  21
HETATM   21  C   UNL     1      -9.307   6.362  69.164  1.00  0.00    -0.132 A  
HETATM   22  C   UNL     1      -9.187   5.194  69.933  1.00  0.00    -0.173 A  
HETATM   23  C   UNL     1      -8.412   4.128  69.477  1.00  0.00    -0.093 A  
HETATM   24  C   UNL     1      -7.771   4.227  68.247  1.00  0.00    -0.075 A  
HETATM   25  F   UNL     1      -7.027   3.204  67.809  1.00  0.00    -0.046 F  
HETATM   26  C   UNL     1      -7.890   5.370  67.466  1.00  0.00    -0.100 A  
HETATM   27  C   UNL     1      -8.658   6.444  67.921  1.00  0.00    -0.116 A  
ENDBRANCH  19  21
ENDBRANCH  18  19
ENDBRANCH  17  18
ENDBRANCH  16  17
ENDBRANCH   8  16
TORSDOF 6
ENDMDL
MODEL      215
REMARK 921   NORMALIZED FREE ENERGY PREDICTED BY IDOCK:   -2.59 KCAL/MOL
REMARK 922        TOTAL FREE ENERGY PREDICTED BY IDOCK:   -4.81 KCAL/MOL
REMARK 923 INTER-LIGAND FREE ENERGY PREDICTED BY IDOCK:   -3.77 KCAL/MOL
REMARK 924 INTRA-LIGAND FREE ENERGY PREDICTED BY IDOCK:   -1.05 KCAL/MOL
REMARK 927      BINDING AFFINITY PREDICTED BY RF-SCORE:    0.00 PKD
ROOT
HETATM    1  O   UNL     1     -10.752  13.838  67.933  1.00  0.00    -0.241 OA 
HETATM    2  C   UNL     1      -9.373  13.883  67.525  1.00  0.00    -0.217 C  
HETATM    3  H   UNL     1     -11.241  14.424  67.368  1.00  0.00     0.000 HD 
HETATM    4  C   UNL     1      -8.580  12.932  68.443  1.00  0.00    -0.120 C  
HETATM    5  C   UNL     1      -9.303  13.442  66.048  1.00  0.00    -0.010 C  
HETATM    6  C   UNL     1      -8.895  11.464  68.146  1.00  0.00    -0.162 C  
HETATM    7  C   UNL     1      -9.558  11.943  65.876  1.00  0.00    -0.231 C  
HETATM    8  N   UNL     1      -8.715  11.097  66.734  1.00  0.00    -0.152 NA 
ENDROOT
BRANCH   2   9
HETATM    9  C   UNL     1      -8.880  15.329  67.672  1.00  0.00    -0.180 A  
HETATM   10  C   UNL     1      -7.514  15.650  67.560  1.00  0.00    -0.205 A  
HETATM   11  C   UNL     1      -9.777  16.379  67.950  1.00  0.00    -0.235 A  
HETATM   12  C   UNL     1      -7.964  17.972  68.028  1.00  0.00    -0.255 A  
HETATM   13  C   UNL     1      -7.059  16.958  67.738  1.00  0.00    -0.156 A  
HETATM   14 CL   UNL     1      -7.400  19.580  68.272  1.00  0.00    -0.335 Cl 
HETATM   15  C   UNL     1      -9.323  17.690  68.129  1.00  0.00    -0.279 A  
ENDBRANCH   2   9
BRANCH   8  16
HETATM   16  C   UNL     1      -7.310  11.103  66.287  1.00  0.00    -0.055 C  
BRANCH  16  17
HETATM   17  C   UNL     1      -6.806   9.753  65.770  1.00  0.00    -0.098 C  
BRANCH  17  18
HETATM   18  C   UNL     1      -5.791   9.105  66.712  1.00  0.00    -0.051 C  
BRANCH  18  19
HETATM   19  C   UNL     1      -6.478   8.383  67.854  1.00  0.00    -0.057 C  
HETATM   20  O   UNL     1      -6.465   8.800  69.010  1.00  0.00    -0.046 OA 
BRANCH  19  21
HETATM   21  C   UNL     1      -7.153   7.093  67.563  1.00  0.00    -0.088 A  
HETATM   22  C   UNL     1      -8.420   6.866  68.124  1.00  0.00    -0.124 A  
HETATM   23  C   UNL     1      -9.085   5.661  67.899  1.00  0.00    -0.107 A  
HETATM   24  C   UNL     1      -8.488   4.691  67.101  1.00  0.00    -0.105 A  
HETATM   25  F   UNL     1      -9.125   3.535  66.883  1.00  0.00    -0.124 F  
HETATM   26  C   UNL     1      -7.241   4.904  66.524  1.00  0.00    -0.077 A  
HETATM   27  C   UNL     1      -6.567   6.106  66.754  1.00  0.00    -0.059 A  
ENDBRANCH  19  21
ENDBRANCH  18  19
ENDBRANCH  17  18
ENDBRANCH  16  17
ENDBRANCH   8  16
TORSDOF 6
ENDMDL
MODEL      216
REMARK 921   NORMALIZED FREE ENERGY PREDICTED BY IDOCK:   -2.57 KCAL/MOL
REMARK 922        TOTAL FREE ENERGY PREDICTED BY IDOCK:   -4.78 KCAL/MOL
REMARK 923 INTER-LIGAND FREE ENERGY PREDICTED BY IDOCK:   -4.80 KCAL/MOL
REMARK 924 INTRA-LIGAND FREE ENERGY PREDICTED BY IDOCK:    0.02 KCAL/MOL
REMARK 927      BINDING AFFINITY PREDICTED BY RF-SCORE:    0.00 PKD
ROOT
HETATM    1  O   UNL     1      -9.078   5.567  69.729  1.00  0.00    -0.128 OA 
HETATM    2  C   UNL     1      -9.113   6.988  69.502  1.00  0.00    -0.146 C  
HETATM    3  H   UNL     1      -9.868   5.194  69.356  1.00  0.00     0.000 HD 
HETATM    4  C   UNL     1      -7.832   7.592  70.108  1.00  0.00    -0.098 C  
HETATM    5  C   UNL     1      -9.189   7.221  67.979  1.00  0.00    -0.131 C  
HETATM    6  C   UNL     1      -6.590   7.225  69.292  1.00  0.00    -0.041 C  
HETATM    7  C   UNL     1      -7.871   6.895  67.274  1.00  0.00    -0.110 C  
HETATM    8  N   UNL     1      -6.702   7.563  67.866  1.00  0.00    -0.064 NA 
ENDROOT
BRANCH   2   9
HETATM    9  C   UNL     1     -10.366   7.549  70.189  1.00  0.00    -0.217 A  
HETATM   10  C   UNL     1     -11.257   6.708  70.881  1.00  0.00    -0.352 A  
HETATM   11  C   UNL     1     -10.679   8.920  70.125  1.00  0.00    -0.245 A  
HETATM   12  C   UNL     1     -12.714   8.564  71.375  1.00  0.00    -0.271 A  
HETATM   13  C   UNL     1     -12.421   7.209  71.468  1.00  0.00    -0.418 A  
HETATM   14 CL   UNL     1     -14.161   9.179  72.076  1.00  0.00    -0.399 Cl 
HETATM   15  C   UNL     1     -11.845   9.425  70.711  1.00  0.00    -0.323 A  
ENDBRANCH   2   9
BRANCH   8  16
HETATM   16  C   UNL     1      -6.711   9.011  67.592  1.00  0.00    -0.065 C  
BRANCH  16  17
HETATM   17  C   UNL     1      -8.110   9.616  67.438  1.00  0.00    -0.110 C  
BRANCH  17  18
HETATM   18  C   UNL     1      -8.293  10.341  66.105  1.00  0.00    -0.140 C  
BRANCH  18  19
HETATM   19  C   UNL     1      -9.314  11.455  66.215  1.00  0.00    -0.212 C  
HETATM   20  O   UNL     1     -10.440  11.379  65.728  1.00  0.00    -0.249 OA 
BRANCH  19  21
HETATM   21  C   UNL     1      -8.913  12.709  66.904  1.00  0.00    -0.213 A  
HETATM   22  C   UNL     1      -9.924  13.531  67.426  1.00  0.00    -0.234 A  
HETATM   23  C   UNL     1      -9.599  14.729  68.062  1.00  0.00    -0.209 A  
HETATM   24  C   UNL     1      -8.263  15.096  68.185  1.00  0.00    -0.145 A  
HETATM   25  F   UNL     1      -7.950  16.245  68.795  1.00  0.00    -0.171 F  
HETATM   26  C   UNL     1      -7.248  14.287  67.687  1.00  0.00    -0.200 A  
HETATM   27  C   UNL     1      -7.568  13.090  67.043  1.00  0.00     0.090 A  
ENDBRANCH  19  21
ENDBRANCH  18  19
ENDBRANCH  17  18
ENDBRANCH  16  17
ENDBRANCH   8  16
TORSDOF 6
ENDMDL
MODEL      217
REMARK 921   NORMALIZED FREE ENERGY PREDICTED BY IDOCK:   -2.50 KCAL/MOL
REMARK 922        TOTAL FREE ENERGY PREDICTED BY IDOCK:   -4.69 KCAL/MOL
REMARK 923 INTER-LIGAND FREE ENERGY PREDICTED BY IDOCK:   -3.91 KCAL/MOL
REMARK 924 INTRA-LIGAND FREE ENERGY PREDICTED BY IDOCK:   -0.78 KCAL/MOL
REMARK 927      BINDING AFFINITY PREDICTED BY RF-SCORE:    0.00 PKD
ROOT
HETATM    1  O   UNL     1     -12.950  14.117  68.393  1.00  0.00     0.390 OA 
HETATM    2  C   UNL     1     -11.717  13.630  68.952  1.00  0.00    -0.338 C  
HETATM    3  H   UNL     1     -12.779  14.375  67.494  1.00  0.00     0.000 HD 
HETATM    4  C   UNL     1     -11.994  13.211  70.408  1.00  0.00    -0.343 C  
HETATM    5  C   UNL     1     -11.247  12.437  68.093  1.00  0.00    -0.313 C  
HETATM    6  C   UNL     1     -12.837  11.936  70.481  1.00  0.00     0.103 C  
HETATM    7  C   UNL     1     -12.115  11.194  68.301  1.00  0.00     0.062 C  
HETATM    8  N   UNL     1     -12.276  10.815  69.713  1.00  0.00    -0.320 NA 
ENDROOT
BRANCH   2   9
HETATM    9  C   UNL     1     -10.686  14.766  68.891  1.00  0.00    -0.253 A  
HETATM   10  C   UNL     1      -9.338  14.513  68.575  1.00  0.00    -0.203 A  
HETATM   11  C   UNL     1     -11.051  16.096  69.176  1.00  0.00    -0.329 A  
HETATM   12  C   UNL     1      -8.774  16.839  68.865  1.00  0.00    -0.224 A  
HETATM   13  C   UNL     1      -8.390  15.538  68.563  1.00  0.00    -0.161 A  
HETATM   14 CL   UNL     1      -7.602  18.099  68.875  1.00  0.00    -0.264 Cl 
HETATM   15  C   UNL     1     -10.103  17.125  69.165  1.00  0.00    -0.254 A  
ENDBRANCH   2   9
BRANCH   8  16
HETATM   16  C   UNL     1     -11.026  10.270  70.273  1.00  0.00    -0.309 C  
BRANCH  16  17
HETATM   17  C   UNL     1     -10.902   8.747  70.176  1.00  0.00    -0.241 C  
BRANCH  17  18
HETATM   18  C   UNL     1     -10.290   8.292  68.851  1.00  0.00    -0.230 C  
BRANCH  18  19
HETATM   19  C   UNL     1      -9.146   9.192  68.430  1.00  0.00    -0.132 C  
HETATM   20  O   UNL     1      -9.041   9.652  67.295  1.00  0.00    -0.133 OA 
BRANCH  19  21
HETATM   21  C   UNL     1      -8.085   9.488  69.426  1.00  0.00    -0.116 A  
HETATM   22  C   UNL     1      -7.726   8.479  70.333  1.00  0.00    -0.080 A  
HETATM   23  C   UNL     1      -6.751   8.716  71.302  1.00  0.00    -0.072 A  
HETATM   24  C   UNL     1      -6.126   9.958  71.351  1.00  0.00     0.093 A  
HETATM   25  F   UNL     1      -5.190  10.186  72.280  1.00  0.00    -0.088 F  
HETATM   26  C   UNL     1      -6.457  10.964  70.451  1.00  0.00    -0.040 A  
HETATM   27  C   UNL     1      -7.440  10.735  69.485  1.00  0.00    -0.113 A  
ENDBRANCH  19  21
ENDBRANCH  18  19
ENDBRANCH  17  18
ENDBRANCH  16  17
ENDBRANCH   8  16
TORSDOF 6
ENDMDL
MODEL      218
REMARK 921   NORMALIZED FREE ENERGY PREDICTED BY IDOCK:    2.76 KCAL/MOL
REMARK 922        TOTAL FREE ENERGY PREDICTED BY IDOCK:    2.41 KCAL/MOL
REMARK 923 INTER-LIGAND FREE ENERGY PREDICTED BY IDOCK:    2.70 KCAL/MOL
REMARK 924 INTRA-LIGAND FREE ENERGY PREDICTED BY IDOCK:   -0.28 KCAL/MOL
REMARK 927      BINDING AFFINITY PREDICTED BY RF-SCORE:    0.00 PKD
ROOT
HETATM    1  O   UNL     1      -7.055  11.987  68.798  1.00  0.00    -0.101 OA 
HETATM    2  C   UNL     1      -8.014  11.348  67.936  1.00  0.00    -0.120 C  
HETATM    3  H   UNL     1      -6.187  11.748  68.494  1.00  0.00     0.000 HD 
HETATM    4  C   UNL     1      -9.421  11.735  68.429  1.00  0.00    -0.188 C  
HETATM    5  C   UNL     1      -7.757  11.843  66.497  1.00  0.00     0.105 C  
HETATM    6  C   UNL     1      -9.741  13.202  68.139  1.00  0.00    -0.228 C  
HETATM    7  C   UNL     1      -8.184  13.299  66.298  1.00  0.00     1.005 C  
HETATM    8  N   UNL     1      -9.563  13.575  66.728  1.00  0.00    -0.260 NA 
ENDROOT
BRANCH   2   9
HETATM    9  C   UNL     1      -7.796   9.831  68.022  1.00  0.00    -0.086 A  
HETATM   10  C   UNL     1      -6.520   9.291  68.271  1.00  0.00    -0.055 A  
HETATM   11  C   UNL     1      -8.861   8.930  67.829  1.00  0.00    -0.136 A  
HETATM   12  C   UNL     1      -7.377   7.043  68.094  1.00  0.00    -0.097 A  
HETATM   13  C   UNL     1      -6.311   7.910  68.305  1.00  0.00    -0.050 A  
HETATM   14 CL   UNL     1      -7.115   5.342  68.112  1.00  0.00    -0.065 Cl 
HETATM   15  C   UNL     1      -8.653   7.547  67.862  1.00  0.00    -0.121 A  
ENDBRANCH   2   9
BRANCH   8  16
HETATM   16  C   UNL     1     -10.546  12.963  65.816  1.00  0.00    -0.275 C  
BRANCH  16  17
HETATM   17  C   UNL     1     -11.119  13.922  64.769  1.00  0.00    -0.386 C  
BRANCH  17  18
HETATM   18  C   UNL     1     -12.430  14.567  65.218  1.00  0.00    -0.281 C  
BRANCH  18  19
HETATM   19  C   UNL     1     -12.187  15.672  66.226  1.00  0.00     1.159 C  
HETATM   20  O   UNL     1     -11.872  16.815  65.899  1.00  0.00     1.341 OA 
BRANCH  19  21
HETATM   21  C   UNL     1     -12.291  15.341  67.670  1.00  0.00     0.671 A  
HETATM   22  C   UNL     1     -12.757  14.065  68.025  1.00  0.00     0.908 A  
HETATM   23  C   UNL     1     -12.893  13.714  69.369  1.00  0.00     0.737 A  
HETATM   24  C   UNL     1     -12.550  14.635  70.352  1.00  0.00    -0.343 A  
HETATM   25  F   UNL     1     -12.680  14.299  71.641  1.00  0.00    -0.358 F  
HETATM   26  C   UNL     1     -12.073  15.897  70.019  1.00  0.00    -0.264 A  
HETATM   27  C   UNL     1     -11.943  16.257  68.676  1.00  0.00     0.183 A  
ENDBRANCH  19  21
ENDBRANCH  18  19
ENDBRANCH  17  18
ENDBRANCH  16  17
ENDBRANCH   8  16
TORSDOF 6
ENDMDL
MODEL      219
REMARK 921   NORMALIZED FREE ENERGY PREDICTED BY IDOCK:    3.66 KCAL/MOL
REMARK 922        TOTAL FREE ENERGY PREDICTED BY IDOCK:    3.64 KCAL/MOL
REMARK 923 INTER-LIGAND FREE ENERGY PREDICTED BY IDOCK:    4.91 KCAL/MOL
REMARK 924 INTRA-LIGAND FREE ENERGY PREDICTED BY IDOCK:   -1.27 KCAL/MOL
REMARK 927      BINDING AFFINITY PREDICTED BY RF-SCORE:    0.00 PKD
ROOT
HETATM    1  O   UNL     1      -5.818  13.933  67.612  1.00  0.00    -0.281 OA 
HETATM    2  C   UNL     1      -6.730  12.826  67.733  1.00  0.00    -0.134 C  
HETATM    3  H   UNL     1      -4.935  13.583  67.617  1.00  0.00     0.000 HD 
HETATM    4  C   UNL     1      -8.162  13.394  67.724  1.00  0.00    -0.172 C  
HETATM    5  C   UNL     1      -6.484  11.879  66.541  1.00  0.00     0.202 C  
HETATM    6  C   UNL     1      -8.559  13.912  66.340  1.00  0.00     0.367 C  
HETATM    7  C   UNL     1      -6.987  12.464  65.219  1.00  0.00     4.849 C  
HETATM    8  N   UNL     1      -8.385  12.921  65.269  1.00  0.00     2.394 NA 
ENDROOT
BRANCH   2   9
HETATM    9  C   UNL     1      -6.430  12.106  69.055  1.00  0.00    -0.092 A  
HETATM   10  C   UNL     1      -5.684  12.729  70.073  1.00  0.00    -0.136 A  
HETATM   11  C   UNL     1      -6.869  10.787  69.281  1.00  0.00    -0.092 A  
HETATM   12  C   UNL     1      -5.803  10.751  71.448  1.00  0.00     0.281 A  
HETATM   13  C   UNL     1      -5.371  12.058  71.258  1.00  0.00    -0.039 A  
HETATM   14 CL   UNL     1      -5.397   9.916  72.897  1.00  0.00     0.047 Cl 
HETATM   15  C   UNL     1      -6.556  10.113  70.467  1.00  0.00    -0.112 A  
ENDBRANCH   2   9
BRANCH   8  16
HETATM   16  C   UNL     1      -9.322  11.786  65.344  1.00  0.00    -0.082 C  
BRANCH  16  17
HETATM   17  C   UNL     1     -10.231  11.635  64.120  1.00  0.00    -0.372 C  
BRANCH  17  18
HETATM   18  C   UNL     1     -11.705  11.866  64.452  1.00  0.00    -0.357 C  
BRANCH  18  19
HETATM   19  C   UNL     1     -11.960  13.299  64.875  1.00  0.00    -0.378 C  
HETATM   20  O   UNL     1     -12.018  14.230  64.076  1.00  0.00    -0.403 OA 
BRANCH  19  21
HETATM   21  C   UNL     1     -12.098  13.587  66.326  1.00  0.00    -0.476 A  
HETATM   22  C   UNL     1     -12.058  12.509  67.223  1.00  0.00    -0.133 A  
HETATM   23  C   UNL     1     -12.206  12.727  68.593  1.00  0.00     0.011 A  
HETATM   24  C   UNL     1     -12.380  14.023  69.063  1.00  0.00    -0.104 A  
HETATM   25  F   UNL     1     -12.521  14.233  70.377  1.00  0.00    -0.348 F  
HETATM   26  C   UNL     1     -12.407  15.105  68.191  1.00  0.00     0.337 A  
HETATM   27  C   UNL     1     -12.268  14.892  66.817  1.00  0.00     0.136 A  
ENDBRANCH  19  21
ENDBRANCH  18  19
ENDBRANCH  17  18
ENDBRANCH  16  17
ENDBRANCH   8  16
TORSDOF 6
ENDMDL
