MODEL        1
REMARK 921   NORMALIZED FREE ENERGY PREDICTED BY IDOCK:   -6.82 KCAL/MOL
REMARK 922        TOTAL FREE ENERGY PREDICTED BY IDOCK:  -13.31 KCAL/MOL
REMARK 923 INTER-LIGAND FREE ENERGY PREDICTED BY IDOCK:  -10.81 KCAL/MOL
REMARK 924 INTRA-LIGAND FREE ENERGY PREDICTED BY IDOCK:   -2.49 KCAL/MOL
REMARK 927      BINDING AFFINITY PREDICTED BY RF-SCORE:    0.00 PKD
ROOT
HETATM    1  C   UNL     1     -10.272  19.963  68.183  1.00  0.00    -0.564 C  
HETATM    2  C   UNL     1     -10.088  20.217  66.694  1.00  0.00    -0.538 C  
ENDROOT
BRANCH   2   3
HETATM    3  C   UNL     1     -10.547  19.003  65.889  1.00  0.00    -0.466 C  
BRANCH   3   4
HETATM    4  C   UNL     1     -10.336  17.666  66.610  1.00  0.00    -0.333 C  
BRANCH   4   5
HETATM    5  N   UNL     1      -9.594  16.589  65.908  1.00  0.00    -0.483 NA 
BRANCH   5   6
HETATM    6  C   UNL     1      -8.771  15.807  66.855  1.00  0.00    -0.244 C  
BRANCH   6   7
HETATM    7  C   UNL     1      -8.827  16.241  68.332  1.00  0.00    -0.202 C  
BRANCH   7   8
HETATM    8  C   UNL     1      -8.420  15.149  69.319  1.00  0.00    -0.209 C  
HETATM    9  C   UNL     1      -8.192  13.825  68.595  1.00  0.00    -0.077 C  
ENDBRANCH   7   8
ENDBRANCH   6   7
ENDBRANCH   5   6
BRANCH   5  10
HETATM   10  C   UNL     1     -10.542  15.699  65.185  1.00  0.00    -0.424 C  
BRANCH  10  11
HETATM   11  C   UNL     1     -10.356  14.233  65.568  1.00  0.00    -0.374 C  
BRANCH  11  12
HETATM   12  C   UNL     1     -11.670  13.474  65.798  1.00  0.00    -0.345 C  
HETATM   13  H   UNL     1     -12.765  12.161  64.828  1.00  0.00     0.000 HD 
HETATM   14  O   UNL     1     -11.951  12.631  64.685  1.00  0.00    -0.359 OA 
BRANCH  12  15
HETATM   15  C   UNL     1     -11.662  12.634  67.077  1.00  0.00    -0.438 A  
HETATM   16  C   UNL     1     -11.929  13.198  68.348  1.00  0.00    -0.324 A  
HETATM   17  C   UNL     1     -12.401  14.523  68.487  1.00  0.00    -0.020 A  
HETATM   18  C   UNL     1     -12.609  15.114  69.733  1.00  0.00    -0.149 A  
HETATM   19  C   UNL     1     -12.356  14.390  70.890  1.00  0.00    -0.419 A  
HETATM   20  C   UNL     1     -12.532  15.004  72.256  1.00  0.00    -0.349 C  
HETATM   21  C   UNL     1     -11.926  13.057  70.768  1.00  0.00    -0.129 A  
HETATM   22  F   UNL     1     -11.373  15.014  72.970  1.00  0.00    -0.454 F  
HETATM   23  C   UNL     1     -11.710  12.416  69.519  1.00  0.00    -0.388 A  
HETATM   24  F   UNL     1     -13.435  14.328  73.019  1.00  0.00    -0.550 F  
HETATM   25  F   UNL     1     -12.962  16.296  72.224  1.00  0.00    -0.479 F  
HETATM   26  C   UNL     1     -11.275  11.042  69.407  1.00  0.00    -0.332 A  
HETATM   27  C   UNL     1     -11.010  10.201  70.520  1.00  0.00    -0.380 A  
HETATM   28  C   UNL     1     -10.577   8.880  70.379  1.00  0.00    -0.217 A  
HETATM   29  C   UNL     1     -10.396   8.331  69.126  1.00  0.00    -0.225 A  
HETATM   30 CL   UNL     1     -10.257   7.929  71.777  1.00  0.00    -0.234 Cl 
HETATM   31  C   UNL     1     -10.652   9.116  68.008  1.00  0.00    -0.197 A  
HETATM   32  C   UNL     1     -11.088  10.466  68.129  1.00  0.00    -0.344 A  
HETATM   33 CL   UNL     1     -10.376   8.359  66.466  1.00  0.00    -0.304 Cl 
HETATM   34  C   UNL     1     -11.314  11.272  67.005  1.00  0.00    -0.262 A  
ENDBRANCH  12  15
ENDBRANCH  11  12
ENDBRANCH  10  11
ENDBRANCH   5  10
ENDBRANCH   4   5
ENDBRANCH   3   4
ENDBRANCH   2   3
TORSDOF 10
ENDMDL
MODEL        2
REMARK 921   NORMALIZED FREE ENERGY PREDICTED BY IDOCK:   -6.77 KCAL/MOL
REMARK 922        TOTAL FREE ENERGY PREDICTED BY IDOCK:  -13.23 KCAL/MOL
REMARK 923 INTER-LIGAND FREE ENERGY PREDICTED BY IDOCK:  -10.42 KCAL/MOL
REMARK 924 INTRA-LIGAND FREE ENERGY PREDICTED BY IDOCK:   -2.81 KCAL/MOL
REMARK 927      BINDING AFFINITY PREDICTED BY RF-SCORE:    0.00 PKD
ROOT
HETATM    1  C   UNL     1      -7.494  12.408  67.334  1.00  0.00    -0.157 C  
HETATM    2  C   UNL     1      -8.306  13.200  68.347  1.00  0.00    -0.122 C  
ENDROOT
BRANCH   2   3
HETATM    3  C   UNL     1      -7.945  14.683  68.272  1.00  0.00    -0.133 C  
BRANCH   3   4
HETATM    4  C   UNL     1      -8.973  15.605  68.938  1.00  0.00    -0.221 C  
BRANCH   4   5
HETATM    5  N   UNL     1     -10.412  15.249  68.845  1.00  0.00    -0.232 NA 
BRANCH   5   6
HETATM    6  C   UNL     1     -11.145  15.681  70.055  1.00  0.00    -0.324 C  
BRANCH   6   7
HETATM    7  C   UNL     1     -12.586  15.157  70.206  1.00  0.00    -0.370 C  
BRANCH   7   8
HETATM    8  C   UNL     1     -13.186  15.375  71.593  1.00  0.00    -0.563 C  
HETATM    9  C   UNL     1     -13.619  14.048  72.209  1.00  0.00    -0.622 C  
ENDBRANCH   7   8
ENDBRANCH   6   7
ENDBRANCH   5   6
BRANCH   5  10
HETATM   10  C   UNL     1     -11.013  15.857  67.627  1.00  0.00    -0.298 C  
BRANCH  10  11
HETATM   11  C   UNL     1     -10.983  14.902  66.436  1.00  0.00    -0.336 C  
BRANCH  11  12
HETATM   12  C   UNL     1     -12.058  13.807  66.485  1.00  0.00    -0.443 C  
HETATM   13  H   UNL     1     -13.625  13.278  65.424  1.00  0.00     0.000 HD 
HETATM   14  O   UNL     1     -12.959  13.956  65.393  1.00  0.00    -0.722 OA 
BRANCH  12  15
HETATM   15  C   UNL     1     -11.474  12.392  66.466  1.00  0.00    -0.427 A  
HETATM   16  C   UNL     1     -11.457  11.571  67.619  1.00  0.00    -0.357 A  
HETATM   17  C   UNL     1     -12.143  11.936  68.800  1.00  0.00    -0.182 A  
HETATM   18  C   UNL     1     -12.085  11.170  69.963  1.00  0.00    -0.437 A  
HETATM   19  C   UNL     1     -11.338  10.000  69.982  1.00  0.00    -0.334 A  
HETATM   20  C   UNL     1     -11.219   9.163  71.230  1.00  0.00    -0.337 C  
HETATM   21  C   UNL     1     -10.683   9.602  68.804  1.00  0.00    -0.234 A  
HETATM   22  F   UNL     1      -9.929   9.043  71.650  1.00  0.00    -0.321 F  
HETATM   23  C   UNL     1     -10.724  10.349  67.595  1.00  0.00    -0.335 A  
HETATM   24  F   UNL     1     -11.673   7.892  71.051  1.00  0.00    -0.275 F  
HETATM   25  F   UNL     1     -11.911   9.662  72.292  1.00  0.00    -0.383 F  
HETATM   26  C   UNL     1     -10.051   9.925  66.388  1.00  0.00    -0.308 A  
HETATM   27  C   UNL     1      -9.281   8.737  66.285  1.00  0.00    -0.261 A  
HETATM   28  C   UNL     1      -8.631   8.362  65.106  1.00  0.00    -0.132 A  
HETATM   29  C   UNL     1      -8.726   9.144  63.973  1.00  0.00    -0.165 A  
HETATM   30 CL   UNL     1      -7.698   6.917  65.065  1.00  0.00    -0.104 Cl 
HETATM   31  C   UNL     1      -9.478  10.312  64.027  1.00  0.00    -0.300 A  
HETATM   32  C   UNL     1     -10.142  10.717  65.219  1.00  0.00    -0.363 A  
HETATM   33 CL   UNL     1      -9.527  11.255  62.565  1.00  0.00    -0.275 Cl 
HETATM   34  C   UNL     1     -10.873  11.910  65.288  1.00  0.00    -0.347 A  
ENDBRANCH  12  15
ENDBRANCH  11  12
ENDBRANCH  10  11
ENDBRANCH   5  10
ENDBRANCH   4   5
ENDBRANCH   3   4
ENDBRANCH   2   3
TORSDOF 10
ENDMDL
MODEL        3
REMARK 921   NORMALIZED FREE ENERGY PREDICTED BY IDOCK:   -6.73 KCAL/MOL
REMARK 922        TOTAL FREE ENERGY PREDICTED BY IDOCK:  -13.16 KCAL/MOL
REMARK 923 INTER-LIGAND FREE ENERGY PREDICTED BY IDOCK:   -9.99 KCAL/MOL
REMARK 924 INTRA-LIGAND FREE ENERGY PREDICTED BY IDOCK:   -3.18 KCAL/MOL
REMARK 927      BINDING AFFINITY PREDICTED BY RF-SCORE:    0.00 PKD
ROOT
HETATM    1  C   UNL     1     -13.803  15.155  71.394  1.00  0.00    -0.587 C  
HETATM    2  C   UNL     1     -12.345  14.780  71.174  1.00  0.00    -0.397 C  
ENDROOT
BRANCH   2   3
HETATM    3  C   UNL     1     -11.752  15.604  70.033  1.00  0.00    -0.369 C  
BRANCH   3   4
HETATM    4  C   UNL     1     -10.511  14.972  69.392  1.00  0.00    -0.247 C  
BRANCH   4   5
HETATM    5  N   UNL     1      -9.947  15.595  68.169  1.00  0.00    -0.216 NA 
BRANCH   5   6
HETATM    6  C   UNL     1      -8.916  14.728  67.558  1.00  0.00    -0.187 C  
BRANCH   6   7
HETATM    7  C   UNL     1      -8.525  13.466  68.350  1.00  0.00    -0.135 C  
BRANCH   7   8
HETATM    8  C   UNL     1      -7.659  12.482  67.567  1.00  0.00    -0.156 C  
HETATM    9  C   UNL     1      -7.226  11.320  68.455  1.00  0.00    -0.094 C  
ENDBRANCH   7   8
ENDBRANCH   6   7
ENDBRANCH   5   6
BRANCH   5  10
HETATM   10  C   UNL     1     -11.032  15.881  67.191  1.00  0.00    -0.214 C  
BRANCH  10  11
HETATM   11  C   UNL     1     -11.087  14.840  66.076  1.00  0.00    -0.330 C  
BRANCH  11  12
HETATM   12  C   UNL     1     -12.111  13.722  66.314  1.00  0.00    -0.446 C  
HETATM   13  H   UNL     1     -13.765  13.080  65.470  1.00  0.00     0.000 HD 
HETATM   14  O   UNL     1     -13.131  13.772  65.322  1.00  0.00    -0.756 OA 
BRANCH  12  15
HETATM   15  C   UNL     1     -11.484  12.325  66.321  1.00  0.00    -0.435 A  
HETATM   16  C   UNL     1     -11.447  11.524  67.487  1.00  0.00    -0.355 A  
HETATM   17  C   UNL     1     -12.149  11.887  68.659  1.00  0.00    -0.155 A  
HETATM   18  C   UNL     1     -12.073  11.142  69.835  1.00  0.00    -0.418 A  
HETATM   19  C   UNL     1     -11.291   9.996  69.876  1.00  0.00    -0.306 A  
HETATM   20  C   UNL     1     -11.152   9.184  71.138  1.00  0.00    -0.323 C  
HETATM   21  C   UNL     1     -10.619   9.600  68.707  1.00  0.00    -0.242 A  
HETATM   22  F   UNL     1      -9.860   9.110  71.565  1.00  0.00    -0.329 F  
HETATM   23  C   UNL     1     -10.677  10.325  67.486  1.00  0.00    -0.348 A  
HETATM   24  F   UNL     1     -11.566   7.897  70.978  1.00  0.00    -0.270 F  
HETATM   25  F   UNL     1     -11.863   9.679  72.189  1.00  0.00    -0.420 F  
HETATM   26  C   UNL     1      -9.987   9.902  66.288  1.00  0.00    -0.322 A  
HETATM   27  C   UNL     1      -9.180   8.737  66.207  1.00  0.00    -0.261 A  
HETATM   28  C   UNL     1      -8.514   8.362  65.038  1.00  0.00    -0.141 A  
HETATM   29  C   UNL     1      -8.628   9.122  63.892  1.00  0.00    -0.188 A  
HETATM   30 CL   UNL     1      -7.537   6.946  65.024  1.00  0.00    -0.096 Cl 
HETATM   31  C   UNL     1      -9.416  10.268  63.923  1.00  0.00    -0.302 A  
HETATM   32  C   UNL     1     -10.096  10.671  65.106  1.00  0.00    -0.374 A  
HETATM   33 CL   UNL     1      -9.487  11.184  62.446  1.00  0.00    -0.217 Cl 
HETATM   34  C   UNL     1     -10.864  11.843  65.153  1.00  0.00    -0.350 A  
ENDBRANCH  12  15
ENDBRANCH  11  12
ENDBRANCH  10  11
ENDBRANCH   5  10
ENDBRANCH   4   5
ENDBRANCH   3   4
ENDBRANCH   2   3
TORSDOF 10
ENDMDL
MODEL        4
REMARK 921   NORMALIZED FREE ENERGY PREDICTED BY IDOCK:   -6.73 KCAL/MOL
REMARK 922        TOTAL FREE ENERGY PREDICTED BY IDOCK:  -13.16 KCAL/MOL
REMARK 923 INTER-LIGAND FREE ENERGY PREDICTED BY IDOCK:  -11.31 KCAL/MOL
REMARK 924 INTRA-LIGAND FREE ENERGY PREDICTED BY IDOCK:   -1.86 KCAL/MOL
REMARK 927      BINDING AFFINITY PREDICTED BY RF-SCORE:    0.00 PKD
ROOT
HETATM    1  C   UNL     1     -10.178   7.970  71.781  1.00  0.00    -0.260 C  
HETATM    2  C   UNL     1     -10.995   9.228  71.527  1.00  0.00    -0.446 C  
ENDROOT
BRANCH   2   3
HETATM    3  C   UNL     1     -10.993   9.571  70.038  1.00  0.00    -0.284 C  
BRANCH   3   4
HETATM    4  C   UNL     1      -9.664  10.149  69.538  1.00  0.00    -0.229 C  
BRANCH   4   5
HETATM    5  N   UNL     1      -9.095   9.630  68.269  1.00  0.00    -0.123 NA 
BRANCH   5   6
HETATM    6  C   UNL     1      -9.365   8.183  68.119  1.00  0.00    -0.133 C  
BRANCH   6   7
HETATM    7  C   UNL     1     -10.239   7.771  66.919  1.00  0.00    -0.373 C  
BRANCH   7   8
HETATM    8  C   UNL     1     -11.117   6.549  67.179  1.00  0.00    -0.434 C  
HETATM    9  C   UNL     1     -11.030   6.123  68.641  1.00  0.00    -0.415 C  
ENDBRANCH   7   8
ENDBRANCH   6   7
ENDBRANCH   5   6
BRANCH   5  10
HETATM   10  C   UNL     1      -9.648  10.385  67.112  1.00  0.00    -0.164 C  
BRANCH  10  11
HETATM   11  C   UNL     1      -9.681  11.889  67.373  1.00  0.00    -0.189 C  
BRANCH  11  12
HETATM   12  C   UNL     1     -11.067  12.525  67.199  1.00  0.00    -0.276 C  
HETATM   13  H   UNL     1     -12.926  11.907  67.054  1.00  0.00     0.000 HD 
HETATM   14  O   UNL     1     -12.068  11.513  67.163  1.00  0.00    -0.494 OA 
BRANCH  12  15
HETATM   15  C   UNL     1     -11.408  13.532  68.299  1.00  0.00    -0.328 A  
HETATM   16  C   UNL     1     -11.034  14.895  68.212  1.00  0.00    -0.268 A  
HETATM   17  C   UNL     1     -10.491  15.441  67.027  1.00  0.00    -0.295 A  
HETATM   18  C   UNL     1     -10.060  16.764  66.944  1.00  0.00    -0.286 A  
HETATM   19  C   UNL     1     -10.164  17.594  68.053  1.00  0.00    -0.362 A  
HETATM   20  C   UNL     1      -9.675  19.019  68.016  1.00  0.00    -0.340 C  
HETATM   21  C   UNL     1     -10.739  17.077  69.226  1.00  0.00    -0.226 A  
HETATM   22  F   UNL     1      -8.699  19.253  68.937  1.00  0.00    -0.383 F  
HETATM   23  C   UNL     1     -11.198  15.738  69.349  1.00  0.00    -0.324 A  
HETATM   24  F   UNL     1     -10.663  19.917  68.285  1.00  0.00    -0.516 F  
HETATM   25  F   UNL     1      -9.150  19.388  66.814  1.00  0.00    -0.294 F  
HETATM   26  C   UNL     1     -11.794  15.221  70.560  1.00  0.00    -0.363 A  
HETATM   27  C   UNL     1     -11.973  15.984  71.745  1.00  0.00    -0.592 A  
HETATM   28  C   UNL     1     -12.541  15.451  72.904  1.00  0.00    -0.419 A  
HETATM   29  C   UNL     1     -12.966  14.138  72.938  1.00  0.00    -0.498 A  
HETATM   30 CL   UNL     1     -12.705  16.433  74.308  1.00  0.00    -0.465 Cl 
HETATM   31  C   UNL     1     -12.818  13.357  71.797  1.00  0.00    -0.289 A  
HETATM   32  C   UNL     1     -12.236  13.878  70.608  1.00  0.00    -0.443 A  
HETATM   33 CL   UNL     1     -13.356  11.707  71.929  1.00  0.00    -0.504 Cl 
HETATM   34  C   UNL     1     -12.054  13.085  69.466  1.00  0.00    -0.289 A  
ENDBRANCH  12  15
ENDBRANCH  11  12
ENDBRANCH  10  11
ENDBRANCH   5  10
ENDBRANCH   4   5
ENDBRANCH   3   4
ENDBRANCH   2   3
TORSDOF 10
ENDMDL
MODEL        5
REMARK 921   NORMALIZED FREE ENERGY PREDICTED BY IDOCK:   -6.69 KCAL/MOL
REMARK 922        TOTAL FREE ENERGY PREDICTED BY IDOCK:  -13.09 KCAL/MOL
REMARK 923 INTER-LIGAND FREE ENERGY PREDICTED BY IDOCK:  -11.53 KCAL/MOL
REMARK 924 INTRA-LIGAND FREE ENERGY PREDICTED BY IDOCK:   -1.56 KCAL/MOL
REMARK 927      BINDING AFFINITY PREDICTED BY RF-SCORE:    0.00 PKD
ROOT
HETATM    1  C   UNL     1     -13.874  14.250  71.836  1.00  0.00    -0.545 C  
HETATM    2  C   UNL     1     -13.185  15.524  71.371  1.00  0.00    -0.587 C  
ENDROOT
BRANCH   2   3
HETATM    3  C   UNL     1     -12.408  15.266  70.081  1.00  0.00    -0.392 C  
BRANCH   3   4
HETATM    4  C   UNL     1     -11.222  16.215  69.873  1.00  0.00    -0.349 C  
BRANCH   4   5
HETATM    5  N   UNL     1     -10.719  16.432  68.494  1.00  0.00    -0.302 NA 
BRANCH   5   6
HETATM    6  C   UNL     1      -9.522  17.301  68.495  1.00  0.00    -0.285 C  
BRANCH   6   7
HETATM    7  C   UNL     1      -9.776  18.819  68.425  1.00  0.00    -0.421 C  
BRANCH   7   8
HETATM    8  C   UNL     1     -10.884  19.221  67.455  1.00  0.00    -0.524 C  
HETATM    9  C   UNL     1     -10.339  19.347  66.036  1.00  0.00    -0.584 C  
ENDBRANCH   7   8
ENDBRANCH   6   7
ENDBRANCH   5   6
BRANCH   5  10
HETATM   10  C   UNL     1     -10.414  15.127  67.847  1.00  0.00    -0.245 C  
BRANCH  10  11
HETATM   11  C   UNL     1     -11.173  14.946  66.535  1.00  0.00    -0.335 C  
BRANCH  11  12
HETATM   12  C   UNL     1     -12.207  13.813  66.561  1.00  0.00    -0.430 C  
HETATM   13  H   UNL     1     -13.731  13.228  65.467  1.00  0.00     0.000 HD 
HETATM   14  O   UNL     1     -13.091  13.930  65.451  1.00  0.00    -0.752 OA 
BRANCH  12  15
HETATM   15  C   UNL     1     -11.571  12.420  66.554  1.00  0.00    -0.447 A  
HETATM   16  C   UNL     1     -11.541  11.603  67.708  1.00  0.00    -0.359 A  
HETATM   17  C   UNL     1     -12.256  11.944  68.879  1.00  0.00    -0.065 A  
HETATM   18  C   UNL     1     -12.187  11.183  70.045  1.00  0.00    -0.402 A  
HETATM   19  C   UNL     1     -11.397  10.041  70.077  1.00  0.00    -0.334 A  
HETATM   20  C   UNL     1     -11.265   9.212  71.329  1.00  0.00    -0.337 C  
HETATM   21  C   UNL     1     -10.712   9.666  68.909  1.00  0.00    -0.230 A  
HETATM   22  F   UNL     1      -9.978   9.140  71.767  1.00  0.00    -0.364 F  
HETATM   23  C   UNL     1     -10.763  10.409  67.698  1.00  0.00    -0.335 A  
HETATM   24  F   UNL     1     -11.669   7.925  71.146  1.00  0.00    -0.272 F  
HETATM   25  F   UNL     1     -11.990   9.687  72.380  1.00  0.00    -0.317 F  
HETATM   26  C   UNL     1     -10.059  10.007  66.501  1.00  0.00    -0.296 A  
HETATM   27  C   UNL     1      -9.243   8.848  66.412  1.00  0.00    -0.240 A  
HETATM   28  C   UNL     1      -8.564   8.495  65.244  1.00  0.00    -0.165 A  
HETATM   29  C   UNL     1      -8.671   9.271  64.108  1.00  0.00    -0.201 A  
HETATM   30 CL   UNL     1      -7.577   7.085  65.219  1.00  0.00    -0.092 Cl 
HETATM   31  C   UNL     1      -9.467  10.410  64.148  1.00  0.00    -0.300 A  
HETATM   32  C   UNL     1     -10.162  10.793  65.330  1.00  0.00    -0.351 A  
HETATM   33 CL   UNL     1      -9.529  11.348  62.683  1.00  0.00    -0.318 Cl 
HETATM   34  C   UNL     1     -10.937  11.958  65.385  1.00  0.00    -0.352 A  
ENDBRANCH  12  15
ENDBRANCH  11  12
ENDBRANCH  10  11
ENDBRANCH   5  10
ENDBRANCH   4   5
ENDBRANCH   3   4
ENDBRANCH   2   3
TORSDOF 10
ENDMDL
MODEL        6
REMARK 921   NORMALIZED FREE ENERGY PREDICTED BY IDOCK:   -6.51 KCAL/MOL
REMARK 922        TOTAL FREE ENERGY PREDICTED BY IDOCK:  -12.82 KCAL/MOL
REMARK 923 INTER-LIGAND FREE ENERGY PREDICTED BY IDOCK:  -11.57 KCAL/MOL
REMARK 924 INTRA-LIGAND FREE ENERGY PREDICTED BY IDOCK:   -1.25 KCAL/MOL
REMARK 927      BINDING AFFINITY PREDICTED BY RF-SCORE:    0.00 PKD
ROOT
HETATM    1  C   UNL     1     -10.523   4.674  65.842  1.00  0.00    -0.305 C  
HETATM    2  C   UNL     1     -10.344   5.427  67.151  1.00  0.00    -0.288 C  
ENDROOT
BRANCH   2   3
HETATM    3  C   UNL     1     -10.976   6.815  67.055  1.00  0.00    -0.439 C  
BRANCH   3   4
HETATM    4  C   UNL     1      -9.958   7.961  67.070  1.00  0.00    -0.252 C  
BRANCH   4   5
HETATM    5  N   UNL     1     -10.112   9.037  68.081  1.00  0.00    -0.183 NA 
BRANCH   5   6
HETATM    6  C   UNL     1      -9.022   8.988  69.080  1.00  0.00    -0.140 C  
BRANCH   6   7
HETATM    7  C   UNL     1      -9.446   8.790  70.548  1.00  0.00    -0.219 C  
BRANCH   7   8
HETATM    8  C   UNL     1     -10.734   9.515  70.928  1.00  0.00    -0.403 C  
HETATM    9  C   UNL     1     -11.716   8.557  71.597  1.00  0.00    -0.369 C  
ENDBRANCH   7   8
ENDBRANCH   6   7
ENDBRANCH   5   6
BRANCH   5  10
HETATM   10  C   UNL     1     -10.148  10.367  67.415  1.00  0.00    -0.196 C  
BRANCH  10  11
HETATM   11  C   UNL     1     -11.466  11.097  67.665  1.00  0.00    -0.328 C  
BRANCH  11  12
HETATM   12  C   UNL     1     -11.485  12.545  67.157  1.00  0.00    -0.351 C  
HETATM   13  H   UNL     1     -12.519  13.605  65.864  1.00  0.00     0.000 HD 
HETATM   14  O   UNL     1     -12.507  12.708  66.179  1.00  0.00    -0.520 OA 
BRANCH  12  15
HETATM   15  C   UNL     1     -11.690  13.570  68.275  1.00  0.00    -0.394 A  
HETATM   16  C   UNL     1     -11.260  14.913  68.151  1.00  0.00    -0.310 A  
HETATM   17  C   UNL     1     -10.788  15.431  66.923  1.00  0.00    -0.313 A  
HETATM   18  C   UNL     1     -10.302  16.731  66.799  1.00  0.00    -0.293 A  
HETATM   19  C   UNL     1     -10.279  17.568  67.907  1.00  0.00    -0.350 A  
HETATM   20  C   UNL     1      -9.727  18.968  67.824  1.00  0.00    -0.325 C  
HETATM   21  C   UNL     1     -10.783  17.081  69.126  1.00  0.00    -0.253 A  
HETATM   22  F   UNL     1      -8.671  19.157  68.663  1.00  0.00    -0.354 F  
HETATM   23  C   UNL     1     -11.294  15.765  69.292  1.00  0.00    -0.350 A  
HETATM   24  F   UNL     1     -10.648  19.912  68.164  1.00  0.00    -0.527 F  
HETATM   25  F   UNL     1      -9.282  19.308  66.582  1.00  0.00    -0.290 F  
HETATM   26  C   UNL     1     -11.817  15.280  70.549  1.00  0.00    -0.363 A  
HETATM   27  C   UNL     1     -11.865  16.053  71.740  1.00  0.00    -0.599 A  
HETATM   28  C   UNL     1     -12.364  15.550  72.944  1.00  0.00    -0.429 A  
HETATM   29  C   UNL     1     -12.847  14.260  73.018  1.00  0.00    -0.461 A  
HETATM   30 CL   UNL     1     -12.371  16.542  74.350  1.00  0.00    -0.554 Cl 
HETATM   31  C   UNL     1     -12.827  13.470  71.874  1.00  0.00    -0.272 A  
HETATM   32  C   UNL     1     -12.317  13.960  70.639  1.00  0.00    -0.451 A  
HETATM   33 CL   UNL     1     -13.430  11.848  72.057  1.00  0.00    -0.473 Cl 
HETATM   34  C   UNL     1     -12.263  13.157  69.492  1.00  0.00    -0.214 A  
ENDBRANCH  12  15
ENDBRANCH  11  12
ENDBRANCH  10  11
ENDBRANCH   5  10
ENDBRANCH   4   5
ENDBRANCH   3   4
ENDBRANCH   2   3
TORSDOF 10
ENDMDL
MODEL        7
REMARK 921   NORMALIZED FREE ENERGY PREDICTED BY IDOCK:   -6.48 KCAL/MOL
REMARK 922        TOTAL FREE ENERGY PREDICTED BY IDOCK:  -12.77 KCAL/MOL
REMARK 923 INTER-LIGAND FREE ENERGY PREDICTED BY IDOCK:  -10.27 KCAL/MOL
REMARK 924 INTRA-LIGAND FREE ENERGY PREDICTED BY IDOCK:   -2.50 KCAL/MOL
REMARK 927      BINDING AFFINITY PREDICTED BY RF-SCORE:    0.00 PKD
ROOT
HETATM    1  C   UNL     1     -10.513   8.807  71.572  1.00  0.00    -0.373 C  
HETATM    2  C   UNL     1     -10.653   9.566  70.262  1.00  0.00    -0.317 C  
ENDROOT
BRANCH   2   3
HETATM    3  C   UNL     1      -9.453   9.289  69.357  1.00  0.00    -0.169 C  
BRANCH   3   4
HETATM    4  C   UNL     1      -8.334  10.330  69.478  1.00  0.00    -0.151 C  
BRANCH   4   5
HETATM    5  N   UNL     1      -8.257  11.411  68.464  1.00  0.00    -0.149 NA 
BRANCH   5   6
HETATM    6  C   UNL     1      -6.855  11.822  68.230  1.00  0.00    -0.068 C  
BRANCH   6   7
HETATM    7  C   UNL     1      -6.516  13.296  68.520  1.00  0.00    -0.085 C  
BRANCH   7   8
HETATM    8  C   UNL     1      -7.735  14.210  68.612  1.00  0.00    -0.135 C  
HETATM    9  C   UNL     1      -7.335  15.667  68.392  1.00  0.00    -0.116 C  
ENDBRANCH   7   8
ENDBRANCH   6   7
ENDBRANCH   5   6
BRANCH   5  10
HETATM   10  C   UNL     1      -8.888  10.968  67.191  1.00  0.00    -0.140 C  
BRANCH  10  11
HETATM   11  C   UNL     1      -9.592  12.116  66.470  1.00  0.00    -0.235 C  
BRANCH  11  12
HETATM   12  C   UNL     1     -11.099  12.197  66.745  1.00  0.00    -0.300 C  
HETATM   13  H   UNL     1     -12.531  10.969  67.295  1.00  0.00     0.000 HD 
HETATM   14  O   UNL     1     -11.597  10.918  67.125  1.00  0.00    -0.431 OA 
BRANCH  12  15
HETATM   15  C   UNL     1     -11.458  13.219  67.826  1.00  0.00    -0.354 A  
HETATM   16  C   UNL     1     -11.186  14.600  67.674  1.00  0.00    -0.332 A  
HETATM   17  C   UNL     1     -10.740  15.138  66.445  1.00  0.00    -0.317 A  
HETATM   18  C   UNL     1     -10.408  16.483  66.296  1.00  0.00    -0.327 A  
HETATM   19  C   UNL     1     -10.518  17.345  67.379  1.00  0.00    -0.336 A  
HETATM   20  C   UNL     1     -10.133  18.798  67.269  1.00  0.00    -0.357 C  
HETATM   21  C   UNL     1     -10.998  16.834  68.597  1.00  0.00    -0.298 A  
HETATM   22  F   UNL     1      -9.133  19.133  68.131  1.00  0.00    -0.311 F  
HETATM   23  C   UNL     1     -11.356  15.472  68.788  1.00  0.00    -0.339 A  
HETATM   24  F   UNL     1     -11.168  19.634  67.556  1.00  0.00    -0.533 F  
HETATM   25  F   UNL     1      -9.693  19.156  66.031  1.00  0.00    -0.358 F  
HETATM   26  C   UNL     1     -11.856  14.961  70.044  1.00  0.00    -0.353 A  
HETATM   27  C   UNL     1     -12.032  15.753  71.210  1.00  0.00    -0.485 A  
HETATM   28  C   UNL     1     -12.504  15.227  72.414  1.00  0.00    -0.362 A  
HETATM   29  C   UNL     1     -12.834  13.890  72.513  1.00  0.00    -0.371 A  
HETATM   30 CL   UNL     1     -12.671  16.247  73.789  1.00  0.00    -0.632 Cl 
HETATM   31  C   UNL     1     -12.686  13.078  71.394  1.00  0.00    -0.281 A  
HETATM   32  C   UNL     1     -12.199  13.594  70.160  1.00  0.00    -0.413 A  
HETATM   33 CL   UNL     1     -13.098  11.402  71.609  1.00  0.00    -0.554 Cl 
HETATM   34  C   UNL     1     -12.015  12.773  69.039  1.00  0.00    -0.288 A  
ENDBRANCH  12  15
ENDBRANCH  11  12
ENDBRANCH  10  11
ENDBRANCH   5  10
ENDBRANCH   4   5
ENDBRANCH   3   4
ENDBRANCH   2   3
TORSDOF 10
ENDMDL
MODEL        8
REMARK 921   NORMALIZED FREE ENERGY PREDICTED BY IDOCK:   -6.43 KCAL/MOL
REMARK 922        TOTAL FREE ENERGY PREDICTED BY IDOCK:  -12.69 KCAL/MOL
REMARK 923 INTER-LIGAND FREE ENERGY PREDICTED BY IDOCK:  -11.47 KCAL/MOL
REMARK 924 INTRA-LIGAND FREE ENERGY PREDICTED BY IDOCK:   -1.22 KCAL/MOL
REMARK 927      BINDING AFFINITY PREDICTED BY RF-SCORE:    0.00 PKD
ROOT
HETATM    1  C   UNL     1     -10.390   5.369  69.442  1.00  0.00    -0.339 C  
HETATM    2  C   UNL     1     -11.196   6.527  68.873  1.00  0.00    -0.341 C  
ENDROOT
BRANCH   2   3
HETATM    3  C   UNL     1     -10.598   6.986  67.544  1.00  0.00    -0.351 C  
BRANCH   3   4
HETATM    4  C   UNL     1     -10.659   8.503  67.330  1.00  0.00    -0.245 C  
BRANCH   4   5
HETATM    5  N   UNL     1      -9.428   9.209  66.891  1.00  0.00    -0.161 NA 
BRANCH   5   6
HETATM    6  C   UNL     1      -9.263   9.126  65.424  1.00  0.00    -0.202 C  
BRANCH   6   7
HETATM    7  C   UNL     1      -9.097  10.464  64.677  1.00  0.00    -0.255 C  
BRANCH   7   8
HETATM    8  C   UNL     1     -10.285  10.836  63.793  1.00  0.00    -0.354 C  
HETATM    9  C   UNL     1     -10.188  12.291  63.344  1.00  0.00    -0.360 C  
ENDBRANCH   7   8
ENDBRANCH   6   7
ENDBRANCH   5   6
BRANCH   5  10
HETATM   10  C   UNL     1      -9.467  10.630  67.331  1.00  0.00    -0.154 C  
BRANCH  10  11
HETATM   11  C   UNL     1     -10.886  11.088  67.662  1.00  0.00    -0.306 C  
BRANCH  11  12
HETATM   12  C   UNL     1     -11.243  12.471  67.100  1.00  0.00    -0.300 C  
HETATM   13  H   UNL     1     -12.588  13.228  65.884  1.00  0.00     0.000 HD 
HETATM   14  O   UNL     1     -12.367  12.371  66.232  1.00  0.00    -0.577 OA 
BRANCH  12  15
HETATM   15  C   UNL     1     -11.540  13.503  68.191  1.00  0.00    -0.368 A  
HETATM   16  C   UNL     1     -11.194  14.868  68.047  1.00  0.00    -0.318 A  
HETATM   17  C   UNL     1     -10.728  15.391  66.819  1.00  0.00    -0.310 A  
HETATM   18  C   UNL     1     -10.324  16.717  66.677  1.00  0.00    -0.297 A  
HETATM   19  C   UNL     1     -10.381  17.575  67.767  1.00  0.00    -0.367 A  
HETATM   20  C   UNL     1      -9.918  19.007  67.665  1.00  0.00    -0.351 C  
HETATM   21  C   UNL     1     -10.880  17.082  68.985  1.00  0.00    -0.206 A  
HETATM   22  F   UNL     1      -8.897  19.281  68.523  1.00  0.00    -0.353 F  
HETATM   23  C   UNL     1     -11.310  15.740  69.169  1.00  0.00    -0.349 A  
HETATM   24  F   UNL     1     -10.905  19.895  67.965  1.00  0.00    -0.507 F  
HETATM   25  F   UNL     1      -9.468  19.350  66.427  1.00  0.00    -0.328 F  
HETATM   26  C   UNL     1     -11.829  15.247  70.425  1.00  0.00    -0.361 A  
HETATM   27  C   UNL     1     -11.954  16.039  71.596  1.00  0.00    -0.569 A  
HETATM   28  C   UNL     1     -12.447  15.530  72.800  1.00  0.00    -0.418 A  
HETATM   29  C   UNL     1     -12.847  14.213  72.892  1.00  0.00    -0.433 A  
HETATM   30 CL   UNL     1     -12.550  16.548  74.184  1.00  0.00    -0.492 Cl 
HETATM   31  C   UNL     1     -12.750  13.402  71.766  1.00  0.00    -0.223 A  
HETATM   32  C   UNL     1     -12.244  13.900  70.532  1.00  0.00    -0.443 A  
HETATM   33 CL   UNL     1     -13.252  11.749  71.972  1.00  0.00    -0.569 Cl 
HETATM   34  C   UNL     1     -12.113  13.079  69.404  1.00  0.00    -0.267 A  
ENDBRANCH  12  15
ENDBRANCH  11  12
ENDBRANCH  10  11
ENDBRANCH   5  10
ENDBRANCH   4   5
ENDBRANCH   3   4
ENDBRANCH   2   3
TORSDOF 10
ENDMDL
MODEL        9
REMARK 921   NORMALIZED FREE ENERGY PREDICTED BY IDOCK:   -6.41 KCAL/MOL
REMARK 922        TOTAL FREE ENERGY PREDICTED BY IDOCK:  -12.65 KCAL/MOL
REMARK 923 INTER-LIGAND FREE ENERGY PREDICTED BY IDOCK:  -11.65 KCAL/MOL
REMARK 924 INTRA-LIGAND FREE ENERGY PREDICTED BY IDOCK:   -1.00 KCAL/MOL
REMARK 927      BINDING AFFINITY PREDICTED BY RF-SCORE:    0.00 PKD
ROOT
HETATM    1  C   UNL     1     -10.583  11.898  63.394  1.00  0.00    -0.485 C  
HETATM    2  C   UNL     1      -9.344  11.088  63.046  1.00  0.00    -0.363 C  
ENDROOT
BRANCH   2   3
HETATM    3  C   UNL     1      -9.259   9.844  63.930  1.00  0.00    -0.295 C  
BRANCH   3   4
HETATM    4  C   UNL     1      -9.101  10.155  65.423  1.00  0.00    -0.188 C  
BRANCH   4   5
HETATM    5  N   UNL     1      -9.987   9.461  66.391  1.00  0.00    -0.265 NA 
BRANCH   5   6
HETATM    6  C   UNL     1      -9.468   8.114  66.715  1.00  0.00    -0.198 C  
BRANCH   6   7
HETATM    7  C   UNL     1      -9.719   7.610  68.149  1.00  0.00    -0.168 C  
BRANCH   7   8
HETATM    8  C   UNL     1     -10.824   6.561  68.256  1.00  0.00    -0.359 C  
HETATM    9  C   UNL     1     -10.940   6.046  69.688  1.00  0.00    -0.470 C  
ENDBRANCH   7   8
ENDBRANCH   6   7
ENDBRANCH   5   6
BRANCH   5  10
HETATM   10  C   UNL     1     -10.131  10.274  67.629  1.00  0.00    -0.191 C  
BRANCH  10  11
HETATM   11  C   UNL     1     -11.484  10.979  67.696  1.00  0.00    -0.303 C  
BRANCH  11  12
HETATM   12  C   UNL     1     -11.470  12.413  67.148  1.00  0.00    -0.357 C  
HETATM   13  H   UNL     1     -12.465  13.453  65.810  1.00  0.00     0.000 HD 
HETATM   14  O   UNL     1     -12.474  12.565  66.149  1.00  0.00    -0.522 OA 
BRANCH  12  15
HETATM   15  C   UNL     1     -11.675  13.472  68.234  1.00  0.00    -0.394 A  
HETATM   16  C   UNL     1     -11.242  14.809  68.070  1.00  0.00    -0.311 A  
HETATM   17  C   UNL     1     -10.765  15.288  66.828  1.00  0.00    -0.313 A  
HETATM   18  C   UNL     1     -10.277  16.584  66.666  1.00  0.00    -0.302 A  
HETATM   19  C   UNL     1     -10.254  17.453  67.748  1.00  0.00    -0.345 A  
HETATM   20  C   UNL     1      -9.699  18.849  67.624  1.00  0.00    -0.314 C  
HETATM   21  C   UNL     1     -10.762  17.005  68.980  1.00  0.00    -0.271 A  
HETATM   22  F   UNL     1      -8.644  19.061  68.459  1.00  0.00    -0.336 F  
HETATM   23  C   UNL     1     -11.276  15.696  69.185  1.00  0.00    -0.315 A  
HETATM   24  F   UNL     1     -10.617  19.805  67.933  1.00  0.00    -0.504 F  
HETATM   25  F   UNL     1      -9.250  19.150  66.373  1.00  0.00    -0.306 F  
HETATM   26  C   UNL     1     -11.802  15.251  70.455  1.00  0.00    -0.363 A  
HETATM   27  C   UNL     1     -11.852  16.059  71.621  1.00  0.00    -0.582 A  
HETATM   28  C   UNL     1     -12.354  15.594  72.839  1.00  0.00    -0.447 A  
HETATM   29  C   UNL     1     -12.840  14.308  72.952  1.00  0.00    -0.482 A  
HETATM   30 CL   UNL     1     -12.361  16.629  74.214  1.00  0.00    -0.491 Cl 
HETATM   31  C   UNL     1     -12.820  13.483  71.832  1.00  0.00    -0.272 A  
HETATM   32  C   UNL     1     -12.306  13.935  70.584  1.00  0.00    -0.451 A  
HETATM   33 CL   UNL     1     -13.427  11.869  72.064  1.00  0.00    -0.473 Cl 
HETATM   34  C   UNL     1     -12.251  13.097  69.462  1.00  0.00    -0.214 A  
ENDBRANCH  12  15
ENDBRANCH  11  12
ENDBRANCH  10  11
ENDBRANCH   5  10
ENDBRANCH   4   5
ENDBRANCH   3   4
ENDBRANCH   2   3
TORSDOF 10
ENDMDL
MODEL       10
REMARK 921   NORMALIZED FREE ENERGY PREDICTED BY IDOCK:   -6.40 KCAL/MOL
REMARK 922        TOTAL FREE ENERGY PREDICTED BY IDOCK:  -12.63 KCAL/MOL
REMARK 923 INTER-LIGAND FREE ENERGY PREDICTED BY IDOCK:  -11.19 KCAL/MOL
REMARK 924 INTRA-LIGAND FREE ENERGY PREDICTED BY IDOCK:   -1.44 KCAL/MOL
REMARK 927      BINDING AFFINITY PREDICTED BY RF-SCORE:    0.00 PKD
ROOT
HETATM    1  C   UNL     1     -10.137  19.663  68.420  1.00  0.00    -0.557 C  
HETATM    2  C   UNL     1     -10.032  20.265  67.026  1.00  0.00    -0.601 C  
ENDROOT
BRANCH   2   3
HETATM    3  C   UNL     1     -10.465  19.246  65.974  1.00  0.00    -0.573 C  
BRANCH   3   4
HETATM    4  C   UNL     1     -10.359  17.790  66.442  1.00  0.00    -0.351 C  
BRANCH   4   5
HETATM    5  N   UNL     1      -9.816  16.779  65.501  1.00  0.00    -0.563 NA 
BRANCH   5   6
HETATM    6  C   UNL     1      -8.550  16.207  66.008  1.00  0.00    -0.196 C  
BRANCH   6   7
HETATM    7  C   UNL     1      -7.988  16.826  67.302  1.00  0.00    -0.197 C  
BRANCH   7   8
HETATM    8  C   UNL     1      -6.584  17.408  67.157  1.00  0.00    -0.193 C  
HETATM    9  C   UNL     1      -6.588  18.905  67.450  1.00  0.00    -0.199 C  
ENDBRANCH   7   8
ENDBRANCH   6   7
ENDBRANCH   5   6
BRANCH   5  10
HETATM   10  C   UNL     1     -10.818  15.702  65.271  1.00  0.00    -0.406 C  
BRANCH  10  11
HETATM   11  C   UNL     1     -11.085  14.888  66.535  1.00  0.00    -0.341 C  
BRANCH  11  12
HETATM   12  C   UNL     1     -12.097  13.751  66.345  1.00  0.00    -0.444 C  
HETATM   13  H   UNL     1     -13.421  13.211  64.997  1.00  0.00     0.000 HD 
HETATM   14  O   UNL     1     -12.794  13.915  65.115  1.00  0.00    -0.695 OA 
BRANCH  12  15
HETATM   15  C   UNL     1     -11.453  12.363  66.377  1.00  0.00    -0.427 A  
HETATM   16  C   UNL     1     -11.426  11.574  67.552  1.00  0.00    -0.355 A  
HETATM   17  C   UNL     1     -12.152  11.940  68.709  1.00  0.00    -0.182 A  
HETATM   18  C   UNL     1     -12.086  11.209  69.894  1.00  0.00    -0.418 A  
HETATM   19  C   UNL     1     -11.290  10.073  69.960  1.00  0.00    -0.334 A  
HETATM   20  C   UNL     1     -11.162   9.276  71.233  1.00  0.00    -0.355 C  
HETATM   21  C   UNL     1     -10.594   9.673  68.807  1.00  0.00    -0.242 A  
HETATM   22  F   UNL     1      -9.878   9.224  71.682  1.00  0.00    -0.364 F  
HETATM   23  C   UNL     1     -10.640  10.385  67.578  1.00  0.00    -0.312 A  
HETATM   24  F   UNL     1     -11.557   7.983  71.080  1.00  0.00    -0.266 F  
HETATM   25  F   UNL     1     -11.898   9.773  72.267  1.00  0.00    -0.326 F  
HETATM   26  C   UNL     1      -9.925   9.959  66.396  1.00  0.00    -0.309 A  
HETATM   27  C   UNL     1      -9.102   8.803  66.341  1.00  0.00    -0.221 A  
HETATM   28  C   UNL     1      -8.412   8.424  65.187  1.00  0.00    -0.160 A  
HETATM   29  C   UNL     1      -8.516   9.171  64.031  1.00  0.00    -0.195 A  
HETATM   30 CL   UNL     1      -7.417   7.021  65.205  1.00  0.00    -0.088 Cl 
HETATM   31  C   UNL     1      -9.319  10.307  64.037  1.00  0.00    -0.289 A  
HETATM   32  C   UNL     1     -10.024  10.714  65.204  1.00  0.00    -0.366 A  
HETATM   33 CL   UNL     1      -9.376  11.207  62.549  1.00  0.00    -0.324 Cl 
HETATM   34  C   UNL     1     -10.807  11.876  65.226  1.00  0.00    -0.347 A  
ENDBRANCH  12  15
ENDBRANCH  11  12
ENDBRANCH  10  11
ENDBRANCH   5  10
ENDBRANCH   4   5
ENDBRANCH   3   4
ENDBRANCH   2   3
TORSDOF 10
ENDMDL
MODEL       11
REMARK 921   NORMALIZED FREE ENERGY PREDICTED BY IDOCK:   -6.36 KCAL/MOL
REMARK 922        TOTAL FREE ENERGY PREDICTED BY IDOCK:  -12.57 KCAL/MOL
REMARK 923 INTER-LIGAND FREE ENERGY PREDICTED BY IDOCK:  -10.37 KCAL/MOL
REMARK 924 INTRA-LIGAND FREE ENERGY PREDICTED BY IDOCK:   -2.20 KCAL/MOL
REMARK 927      BINDING AFFINITY PREDICTED BY RF-SCORE:    0.00 PKD
ROOT
HETATM    1  C   UNL     1      -8.678  19.545  66.295  1.00  0.00    -0.383 C  
HETATM    2  C   UNL     1      -9.925  20.225  66.841  1.00  0.00    -0.592 C  
ENDROOT
BRANCH   2   3
HETATM    3  C   UNL     1     -10.779  19.222  67.615  1.00  0.00    -0.533 C  
BRANCH   3   4
HETATM    4  C   UNL     1     -10.006  18.450  68.690  1.00  0.00    -0.387 C  
BRANCH   4   5
HETATM    5  N   UNL     1      -9.931  16.971  68.587  1.00  0.00    -0.278 NA 
BRANCH   5   6
HETATM    6  C   UNL     1      -8.539  16.525  68.356  1.00  0.00    -0.213 C  
BRANCH   6   7
HETATM    7  C   UNL     1      -8.245  15.874  66.991  1.00  0.00    -0.255 C  
BRANCH   7   8
HETATM    8  C   UNL     1      -8.180  14.350  67.028  1.00  0.00    -0.138 C  
HETATM    9  C   UNL     1      -8.201  13.843  68.467  1.00  0.00    -0.131 C  
ENDBRANCH   7   8
ENDBRANCH   6   7
ENDBRANCH   5   6
BRANCH   5  10
HETATM   10  C   UNL     1     -10.482  16.341  69.817  1.00  0.00    -0.260 C  
BRANCH  10  11
HETATM   11  C   UNL     1     -11.900  15.815  69.606  1.00  0.00    -0.352 C  
BRANCH  11  12
HETATM   12  C   UNL     1     -12.092  14.350  70.019  1.00  0.00    -0.343 C  
HETATM   13  H   UNL     1     -13.527  13.245  70.782  1.00  0.00     0.000 HD 
HETATM   14  O   UNL     1     -13.408  14.152  70.525  1.00  0.00    -0.131 OA 
BRANCH  12  15
HETATM   15  C   UNL     1     -11.839  13.365  68.875  1.00  0.00    -0.373 A  
HETATM   16  C   UNL     1     -11.614  11.987  69.106  1.00  0.00    -0.370 A  
HETATM   17  C   UNL     1     -11.795  11.409  70.383  1.00  0.00    -0.428 A  
HETATM   18  C   UNL     1     -11.518  10.068  70.641  1.00  0.00    -0.425 A  
HETATM   19  C   UNL     1     -11.053   9.251  69.620  1.00  0.00    -0.134 A  
HETATM   20  C   UNL     1     -10.706   7.805  69.866  1.00  0.00    -0.245 C  
HETATM   21  C   UNL     1     -10.907   9.800  68.334  1.00  0.00    -0.244 A  
HETATM   22  F   UNL     1      -9.401   7.532  69.588  1.00  0.00    -0.152 F  
HETATM   23  C   UNL     1     -11.187  11.159  68.028  1.00  0.00    -0.359 A  
HETATM   24  F   UNL     1     -11.437   6.954  69.094  1.00  0.00    -0.208 F  
HETATM   25  F   UNL     1     -10.904   7.405  71.153  1.00  0.00    -0.234 F  
HETATM   26  C   UNL     1     -11.040  11.710  66.699  1.00  0.00    -0.364 A  
HETATM   27  C   UNL     1     -10.596  10.963  65.575  1.00  0.00    -0.240 A  
HETATM   28  C   UNL     1     -10.451  11.529  64.306  1.00  0.00    -0.338 A  
HETATM   29  C   UNL     1     -10.749  12.859  64.093  1.00  0.00    -0.443 A  
HETATM   30 CL   UNL     1      -9.888  10.563  62.998  1.00  0.00    -0.332 Cl 
HETATM   31  C   UNL     1     -11.195  13.626  65.163  1.00  0.00    -0.310 A  
HETATM   32  C   UNL     1     -11.344  13.071  66.466  1.00  0.00    -0.359 A  
HETATM   33 CL   UNL     1     -11.525  15.299  64.817  1.00  0.00    -0.397 Cl 
HETATM   34  C   UNL     1     -11.760  13.848  67.555  1.00  0.00    -0.416 A  
ENDBRANCH  12  15
ENDBRANCH  11  12
ENDBRANCH  10  11
ENDBRANCH   5  10
ENDBRANCH   4   5
ENDBRANCH   3   4
ENDBRANCH   2   3
TORSDOF 10
ENDMDL
MODEL       12
REMARK 921   NORMALIZED FREE ENERGY PREDICTED BY IDOCK:   -6.28 KCAL/MOL
REMARK 922        TOTAL FREE ENERGY PREDICTED BY IDOCK:  -12.45 KCAL/MOL
REMARK 923 INTER-LIGAND FREE ENERGY PREDICTED BY IDOCK:  -10.67 KCAL/MOL
REMARK 924 INTRA-LIGAND FREE ENERGY PREDICTED BY IDOCK:   -1.78 KCAL/MOL
REMARK 927      BINDING AFFINITY PREDICTED BY RF-SCORE:    0.00 PKD
ROOT
HETATM    1  C   UNL     1     -10.326   5.131  67.184  1.00  0.00    -0.246 C  
HETATM    2  C   UNL     1     -10.928   6.523  67.073  1.00  0.00    -0.466 C  
ENDROOT
BRANCH   2   3
HETATM    3  C   UNL     1     -10.180   7.498  67.980  1.00  0.00    -0.239 C  
BRANCH   3   4
HETATM    4  C   UNL     1      -9.013   8.215  67.291  1.00  0.00    -0.137 C  
BRANCH   4   5
HETATM    5  N   UNL     1      -9.044   9.696  67.196  1.00  0.00    -0.134 NA 
BRANCH   5   6
HETATM    6  C   UNL     1      -7.849  10.208  66.492  1.00  0.00    -0.112 C  
BRANCH   6   7
HETATM    7  C   UNL     1      -6.983  11.225  67.261  1.00  0.00    -0.109 C  
BRANCH   7   8
HETATM    8  C   UNL     1      -7.548  12.644  67.269  1.00  0.00    -0.121 C  
HETATM    9  C   UNL     1      -8.015  13.029  68.670  1.00  0.00    -0.027 C  
ENDBRANCH   7   8
ENDBRANCH   6   7
ENDBRANCH   5   6
BRANCH   5  10
HETATM   10  C   UNL     1     -10.285  10.141  66.506  1.00  0.00    -0.223 C  
BRANCH  10  11
HETATM   11  C   UNL     1     -11.142  11.041  67.394  1.00  0.00    -0.370 C  
BRANCH  11  12
HETATM   12  C   UNL     1     -11.343  12.458  66.840  1.00  0.00    -0.333 C  
HETATM   13  H   UNL     1     -12.550  13.351  65.572  1.00  0.00     0.000 HD 
HETATM   14  O   UNL     1     -12.426  12.474  65.915  1.00  0.00    -0.596 OA 
BRANCH  12  15
HETATM   15  C   UNL     1     -11.598  13.499  67.932  1.00  0.00    -0.377 A  
HETATM   16  C   UNL     1     -11.242  14.859  67.772  1.00  0.00    -0.329 A  
HETATM   17  C   UNL     1     -10.804  15.370  66.528  1.00  0.00    -0.298 A  
HETATM   18  C   UNL     1     -10.391  16.691  66.368  1.00  0.00    -0.310 A  
HETATM   19  C   UNL     1     -10.408  17.556  67.454  1.00  0.00    -0.351 A  
HETATM   20  C   UNL     1      -9.933  18.981  67.332  1.00  0.00    -0.342 C  
HETATM   21  C   UNL     1     -10.879  17.074  68.688  1.00  0.00    -0.284 A  
HETATM   22  F   UNL     1      -8.885  19.249  68.160  1.00  0.00    -0.319 F  
HETATM   23  C   UNL     1     -11.317  15.738  68.891  1.00  0.00    -0.356 A  
HETATM   24  F   UNL     1     -10.902  19.882  67.654  1.00  0.00    -0.513 F  
HETATM   25  F   UNL     1      -9.513  19.313  66.080  1.00  0.00    -0.347 F  
HETATM   26  C   UNL     1     -11.806  15.257  70.164  1.00  0.00    -0.356 A  
HETATM   27  C   UNL     1     -11.891  16.057  71.334  1.00  0.00    -0.531 A  
HETATM   28  C   UNL     1     -12.356  15.559  72.553  1.00  0.00    -0.411 A  
HETATM   29  C   UNL     1     -12.768  14.246  72.664  1.00  0.00    -0.396 A  
HETATM   30 CL   UNL     1     -12.409  16.585  73.934  1.00  0.00    -0.555 Cl 
HETATM   31  C   UNL     1     -12.710  13.429  71.540  1.00  0.00    -0.293 A  
HETATM   32  C   UNL     1     -12.233  13.915  70.290  1.00  0.00    -0.428 A  
HETATM   33 CL   UNL     1     -13.223  11.782  71.768  1.00  0.00    -0.523 Cl 
HETATM   34  C   UNL     1     -12.142  13.087  69.163  1.00  0.00    -0.234 A  
ENDBRANCH  12  15
ENDBRANCH  11  12
ENDBRANCH  10  11
ENDBRANCH   5  10
ENDBRANCH   4   5
ENDBRANCH   3   4
ENDBRANCH   2   3
TORSDOF 10
ENDMDL
MODEL       13
REMARK 921   NORMALIZED FREE ENERGY PREDICTED BY IDOCK:   -6.28 KCAL/MOL
REMARK 922        TOTAL FREE ENERGY PREDICTED BY IDOCK:  -12.44 KCAL/MOL
REMARK 923 INTER-LIGAND FREE ENERGY PREDICTED BY IDOCK:   -9.72 KCAL/MOL
REMARK 924 INTRA-LIGAND FREE ENERGY PREDICTED BY IDOCK:   -2.72 KCAL/MOL
REMARK 927      BINDING AFFINITY PREDICTED BY RF-SCORE:    0.00 PKD
ROOT
HETATM    1  C   UNL     1     -11.199  10.437  69.932  1.00  0.00    -0.371 C  
HETATM    2  C   UNL     1     -11.881  11.528  69.120  1.00  0.00    -0.406 C  
ENDROOT
BRANCH   2   3
HETATM    3  C   UNL     1     -11.403  12.905  69.575  1.00  0.00    -0.221 C  
BRANCH   3   4
HETATM    4  C   UNL     1     -12.087  14.069  68.848  1.00  0.00    -0.316 C  
BRANCH   4   5
HETATM    5  N   UNL     1     -11.950  15.437  69.410  1.00  0.00    -0.338 NA 
BRANCH   5   6
HETATM    6  C   UNL     1     -12.828  15.618  70.587  1.00  0.00    -0.350 C  
BRANCH   6   7
HETATM    7  C   UNL     1     -12.136  15.625  71.963  1.00  0.00    -0.529 C  
BRANCH   7   8
HETATM    8  C   UNL     1     -12.886  14.850  73.043  1.00  0.00    -0.586 C  
HETATM    9  C   UNL     1     -13.550  13.609  72.452  1.00  0.00    -0.703 C  
ENDBRANCH   7   8
ENDBRANCH   6   7
ENDBRANCH   5   6
BRANCH   5  10
HETATM   10  C   UNL     1     -10.532  15.703  69.773  1.00  0.00    -0.308 C  
BRANCH  10  11
HETATM   11  C   UNL     1      -9.829  16.576  68.736  1.00  0.00    -0.254 C  
BRANCH  11  12
HETATM   12  C   UNL     1      -8.439  16.070  68.330  1.00  0.00    -0.177 C  
HETATM   13  H   UNL     1      -6.660  15.928  69.153  1.00  0.00     0.000 HD 
HETATM   14  O   UNL     1      -7.521  16.241  69.405  1.00  0.00    -0.233 OA 
BRANCH  12  15
HETATM   15  C   UNL     1      -8.438  14.602  67.896  1.00  0.00    -0.158 A  
HETATM   16  C   UNL     1      -9.220  14.139  66.812  1.00  0.00    -0.282 A  
HETATM   17  C   UNL     1      -9.900  15.032  65.952  1.00  0.00    -0.369 A  
HETATM   18  C   UNL     1     -10.725  14.590  64.919  1.00  0.00    -0.448 A  
HETATM   19  C   UNL     1     -10.893  13.229  64.704  1.00  0.00    -0.396 A  
HETATM   20  C   UNL     1     -11.805  12.711  63.622  1.00  0.00    -0.530 C  
HETATM   21  C   UNL     1     -10.191  12.329  65.524  1.00  0.00    -0.296 A  
HETATM   22  F   UNL     1     -12.811  11.939  64.120  1.00  0.00    -0.483 F  
HETATM   23  C   UNL     1      -9.335  12.737  66.582  1.00  0.00    -0.242 A  
HETATM   24  F   UNL     1     -11.151  11.932  62.717  1.00  0.00    -0.184 F  
HETATM   25  F   UNL     1     -12.413  13.693  62.900  1.00  0.00    -0.483 F  
HETATM   26  C   UNL     1      -8.613  11.800  67.413  1.00  0.00    -0.160 A  
HETATM   27  C   UNL     1      -8.690  10.390  67.270  1.00  0.00    -0.125 A  
HETATM   28  C   UNL     1      -7.990   9.510  68.099  1.00  0.00    -0.094 A  
HETATM   29  C   UNL     1      -7.174   9.991  69.102  1.00  0.00    -0.076 A  
HETATM   30 CL   UNL     1      -8.150   7.811  67.875  1.00  0.00    -0.124 Cl 
HETATM   31  C   UNL     1      -7.062  11.366  69.273  1.00  0.00    -0.100 A  
HETATM   32  C   UNL     1      -7.772  12.280  68.444  1.00  0.00    -0.141 A  
HETATM   33 CL   UNL     1      -6.034  11.891  70.575  1.00  0.00    -0.128 Cl 
HETATM   34  C   UNL     1      -7.690  13.666  68.634  1.00  0.00    -0.107 A  
ENDBRANCH  12  15
ENDBRANCH  11  12
ENDBRANCH  10  11
ENDBRANCH   5  10
ENDBRANCH   4   5
ENDBRANCH   3   4
ENDBRANCH   2   3
TORSDOF 10
ENDMDL
MODEL       14
REMARK 921   NORMALIZED FREE ENERGY PREDICTED BY IDOCK:   -6.18 KCAL/MOL
REMARK 922        TOTAL FREE ENERGY PREDICTED BY IDOCK:  -12.28 KCAL/MOL
REMARK 923 INTER-LIGAND FREE ENERGY PREDICTED BY IDOCK:  -10.88 KCAL/MOL
REMARK 924 INTRA-LIGAND FREE ENERGY PREDICTED BY IDOCK:   -1.41 KCAL/MOL
REMARK 927      BINDING AFFINITY PREDICTED BY RF-SCORE:    0.00 PKD
ROOT
HETATM    1  C   UNL     1     -10.469  18.770  66.280  1.00  0.00    -0.489 C  
HETATM    2  C   UNL     1      -9.108  18.188  66.633  1.00  0.00    -0.290 C  
ENDROOT
BRANCH   2   3
HETATM    3  C   UNL     1      -9.122  17.629  68.055  1.00  0.00    -0.267 C  
BRANCH   3   4
HETATM    4  C   UNL     1     -10.527  17.314  68.581  1.00  0.00    -0.356 C  
BRANCH   4   5
HETATM    5  N   UNL     1     -10.781  15.977  69.173  1.00  0.00    -0.251 NA 
BRANCH   5   6
HETATM    6  C   UNL     1     -11.056  16.080  70.623  1.00  0.00    -0.330 C  
BRANCH   6   7
HETATM    7  C   UNL     1     -12.477  15.701  71.080  1.00  0.00    -0.505 C  
BRANCH   7   8
HETATM    8  C   UNL     1     -12.515  14.765  72.286  1.00  0.00    -0.408 C  
HETATM    9  C   UNL     1     -13.758  13.880  72.243  1.00  0.00    -0.660 C  
ENDBRANCH   7   8
ENDBRANCH   6   7
ENDBRANCH   5   6
BRANCH   5  10
HETATM   10  C   UNL     1     -11.917  15.314  68.475  1.00  0.00    -0.201 C  
BRANCH  10  11
HETATM   11  C   UNL     1     -11.512  14.781  67.102  1.00  0.00    -0.375 C  
BRANCH  11  12
HETATM   12  C   UNL     1     -12.389  13.629  66.595  1.00  0.00    -0.331 C  
HETATM   13  H   UNL     1     -13.427  13.211  64.979  1.00  0.00     0.000 HD 
HETATM   14  O   UNL     1     -12.883  13.925  65.293  1.00  0.00    -0.689 OA 
BRANCH  12  15
HETATM   15  C   UNL     1     -11.655  12.286  66.561  1.00  0.00    -0.440 A  
HETATM   16  C   UNL     1     -11.533  11.468  67.709  1.00  0.00    -0.357 A  
HETATM   17  C   UNL     1     -12.238  11.751  68.901  1.00  0.00    -0.091 A  
HETATM   18  C   UNL     1     -12.080  10.992  70.060  1.00  0.00    -0.441 A  
HETATM   19  C   UNL     1     -11.210   9.911  70.063  1.00  0.00    -0.327 A  
HETATM   20  C   UNL     1     -10.983   9.088  71.305  1.00  0.00    -0.313 C  
HETATM   21  C   UNL     1     -10.533   9.591  68.874  1.00  0.00    -0.235 A  
HETATM   22  F   UNL     1      -9.682   9.107  71.707  1.00  0.00    -0.354 F  
HETATM   23  C   UNL     1     -10.671  10.333  67.670  1.00  0.00    -0.339 A  
HETATM   24  F   UNL     1     -11.298   7.775  71.126  1.00  0.00    -0.252 F  
HETATM   25  F   UNL     1     -11.711   9.505  72.379  1.00  0.00    -0.305 F  
HETATM   26  C   UNL     1      -9.974   9.989  66.451  1.00  0.00    -0.300 A  
HETATM   27  C   UNL     1      -9.080   8.892  66.331  1.00  0.00    -0.217 A  
HETATM   28  C   UNL     1      -8.411   8.593  65.142  1.00  0.00    -0.168 A  
HETATM   29  C   UNL     1      -8.606   9.364  64.015  1.00  0.00    -0.222 A  
HETATM   30 CL   UNL     1      -7.326   7.259  65.081  1.00  0.00    -0.077 Cl 
HETATM   31  C   UNL     1      -9.480  10.444  64.084  1.00  0.00    -0.300 A  
HETATM   32  C   UNL     1     -10.167  10.770  65.288  1.00  0.00    -0.351 A  
HETATM   33 CL   UNL     1      -9.652  11.380  62.628  1.00  0.00    -0.283 Cl 
HETATM   34  C   UNL     1     -11.023  11.876  65.372  1.00  0.00    -0.352 A  
ENDBRANCH  12  15
ENDBRANCH  11  12
ENDBRANCH  10  11
ENDBRANCH   5  10
ENDBRANCH   4   5
ENDBRANCH   3   4
ENDBRANCH   2   3
TORSDOF 10
ENDMDL
MODEL       15
REMARK 921   NORMALIZED FREE ENERGY PREDICTED BY IDOCK:   -6.13 KCAL/MOL
REMARK 922        TOTAL FREE ENERGY PREDICTED BY IDOCK:  -12.21 KCAL/MOL
REMARK 923 INTER-LIGAND FREE ENERGY PREDICTED BY IDOCK:   -9.75 KCAL/MOL
REMARK 924 INTRA-LIGAND FREE ENERGY PREDICTED BY IDOCK:   -2.46 KCAL/MOL
REMARK 927      BINDING AFFINITY PREDICTED BY RF-SCORE:    0.00 PKD
ROOT
HETATM    1  C   UNL     1      -6.926  11.219  67.890  1.00  0.00    -0.073 C  
HETATM    2  C   UNL     1      -7.324  12.423  68.731  1.00  0.00    -0.076 C  
ENDROOT
BRANCH   2   3
HETATM    3  C   UNL     1      -7.974  13.492  67.853  1.00  0.00    -0.162 C  
BRANCH   3   4
HETATM    4  C   UNL     1      -8.032  14.877  68.506  1.00  0.00    -0.140 C  
BRANCH   4   5
HETATM    5  N   UNL     1      -8.713  15.978  67.780  1.00  0.00    -0.167 NA 
BRANCH   5   6
HETATM    6  C   UNL     1      -7.890  17.207  67.783  1.00  0.00    -0.182 C  
BRANCH   6   7
HETATM    7  C   UNL     1      -8.480  18.424  68.521  1.00  0.00    -0.346 C  
BRANCH   7   8
HETATM    8  C   UNL     1      -9.997  18.380  68.683  1.00  0.00    -0.415 C  
HETATM    9  C   UNL     1     -10.685  19.062  67.504  1.00  0.00    -0.532 C  
ENDBRANCH   7   8
ENDBRANCH   6   7
ENDBRANCH   5   6
BRANCH   5  10
HETATM   10  C   UNL     1      -9.018  15.560  66.384  1.00  0.00    -0.324 C  
BRANCH  10  11
HETATM   11  C   UNL     1     -10.494  15.744  66.040  1.00  0.00    -0.350 C  
BRANCH  11  12
HETATM   12  C   UNL     1     -11.207  14.449  65.628  1.00  0.00    -0.323 C  
HETATM   13  H   UNL     1     -10.984  13.055  64.261  1.00  0.00     0.000 HD 
HETATM   14  O   UNL     1     -10.543  13.857  64.516  1.00  0.00    -0.424 OA 
BRANCH  12  15
HETATM   15  C   UNL     1     -11.297  13.426  66.763  1.00  0.00    -0.353 A  
HETATM   16  C   UNL     1     -11.668  13.795  68.079  1.00  0.00    -0.390 A  
HETATM   17  C   UNL     1     -12.155  15.088  68.378  1.00  0.00    -0.139 A  
HETATM   18  C   UNL     1     -12.465  15.487  69.677  1.00  0.00    -0.137 A  
HETATM   19  C   UNL     1     -12.303  14.595  70.729  1.00  0.00    -0.398 A  
HETATM   20  C   UNL     1     -12.591  14.999  72.152  1.00  0.00    -0.330 C  
HETATM   21  C   UNL     1     -11.858  13.293  70.443  1.00  0.00    -0.270 A  
HETATM   22  F   UNL     1     -11.492  14.893  72.951  1.00  0.00    -0.398 F  
HETATM   23  C   UNL     1     -11.540  12.844  69.133  1.00  0.00    -0.375 A  
HETATM   24  F   UNL     1     -13.548  14.223  72.731  1.00  0.00    -0.509 F  
HETATM   25  F   UNL     1     -13.022  16.285  72.281  1.00  0.00    -0.479 F  
HETATM   26  C   UNL     1     -11.091  11.500  68.851  1.00  0.00    -0.288 A  
HETATM   27  C   UNL     1     -10.913  10.499  69.843  1.00  0.00    -0.359 A  
HETATM   28  C   UNL     1     -10.463   9.211  69.541  1.00  0.00    -0.219 A  
HETATM   29  C   UNL     1     -10.180   8.855  68.238  1.00  0.00    -0.239 A  
HETATM   30 CL   UNL     1     -10.252   8.059  70.801  1.00  0.00    -0.201 Cl 
HETATM   31  C   UNL     1     -10.349   9.801  67.233  1.00  0.00    -0.248 A  
HETATM   32  C   UNL     1     -10.799  11.121  67.520  1.00  0.00    -0.303 A  
HETATM   33 CL   UNL     1      -9.947   9.282  65.622  1.00  0.00    -0.266 Cl 
HETATM   34  C   UNL     1     -10.939  12.088  66.516  1.00  0.00    -0.337 A  
ENDBRANCH  12  15
ENDBRANCH  11  12
ENDBRANCH  10  11
ENDBRANCH   5  10
ENDBRANCH   4   5
ENDBRANCH   3   4
ENDBRANCH   2   3
TORSDOF 10
ENDMDL
MODEL       16
REMARK 921   NORMALIZED FREE ENERGY PREDICTED BY IDOCK:   -6.10 KCAL/MOL
REMARK 922        TOTAL FREE ENERGY PREDICTED BY IDOCK:  -12.16 KCAL/MOL
REMARK 923 INTER-LIGAND FREE ENERGY PREDICTED BY IDOCK:   -8.90 KCAL/MOL
REMARK 924 INTRA-LIGAND FREE ENERGY PREDICTED BY IDOCK:   -3.26 KCAL/MOL
REMARK 927      BINDING AFFINITY PREDICTED BY RF-SCORE:    0.00 PKD
ROOT
HETATM    1  C   UNL     1      -7.335  11.536  68.743  1.00  0.00    -0.115 C  
HETATM    2  C   UNL     1      -7.292  10.019  68.858  1.00  0.00    -0.080 C  
ENDROOT
BRANCH   2   3
HETATM    3  C   UNL     1      -7.725   9.581  70.256  1.00  0.00    -0.170 C  
BRANCH   3   4
HETATM    4  C   UNL     1      -7.759   8.060  70.445  1.00  0.00    -0.085 C  
BRANCH   4   5
HETATM    5  N   UNL     1      -8.919   7.456  71.147  1.00  0.00    -0.143 NA 
BRANCH   5   6
HETATM    6  C   UNL     1      -8.605   6.087  71.611  1.00  0.00    -0.131 C  
BRANCH   6   7
HETATM    7  C   UNL     1      -9.648   4.999  71.291  1.00  0.00    -0.223 C  
BRANCH   7   8
HETATM    8  C   UNL     1     -10.332   5.171  69.937  1.00  0.00    -0.347 C  
HETATM    9  C   UNL     1      -9.394   4.769  68.803  1.00  0.00    -0.187 C  
ENDBRANCH   7   8
ENDBRANCH   6   7
ENDBRANCH   5   6
BRANCH   5  10
HETATM   10  C   UNL     1      -9.328   8.313  72.293  1.00  0.00    -0.253 C  
BRANCH  10  11
HETATM   11  C   UNL     1     -10.846   8.415  72.418  1.00  0.00    -0.416 C  
BRANCH  11  12
HETATM   12  C   UNL     1     -11.597   8.242  71.091  1.00  0.00    -0.279 C  
HETATM   13  H   UNL     1     -13.385   7.670  70.510  1.00  0.00     0.000 HD 
HETATM   14  O   UNL     1     -12.920   7.777  71.333  1.00  0.00    -0.328 OA 
BRANCH  12  15
HETATM   15  C   UNL     1     -11.659   9.530  70.265  1.00  0.00    -0.219 A  
HETATM   16  C   UNL     1     -11.139   9.605  68.951  1.00  0.00    -0.097 A  
HETATM   17  C   UNL     1     -10.703   8.452  68.258  1.00  0.00    -0.084 A  
HETATM   18  C   UNL     1     -10.131   8.517  66.988  1.00  0.00    -0.347 A  
HETATM   19  C   UNL     1      -9.980   9.747  66.361  1.00  0.00    -0.314 A  
HETATM   20  C   UNL     1      -9.332   9.863  65.005  1.00  0.00    -0.264 C  
HETATM   21  C   UNL     1     -10.446  10.897  67.020  1.00  0.00    -0.291 A  
HETATM   22  F   UNL     1      -8.218  10.645  65.032  1.00  0.00    -0.164 F  
HETATM   23  C   UNL     1     -11.042  10.874  68.310  1.00  0.00    -0.324 A  
HETATM   24  F   UNL     1     -10.158  10.423  64.079  1.00  0.00    -0.374 F  
HETATM   25  F   UNL     1      -8.937   8.669  64.482  1.00  0.00    -0.158 F  
HETATM   26  C   UNL     1     -11.524  12.065  68.973  1.00  0.00    -0.357 A  
HETATM   27  C   UNL     1     -11.445  13.369  68.418  1.00  0.00    -0.351 A  
HETATM   28  C   UNL     1     -11.907  14.503  69.090  1.00  0.00    -0.319 A  
HETATM   29  C   UNL     1     -12.479  14.392  70.341  1.00  0.00    -0.420 A  
HETATM   30 CL   UNL     1     -11.757  16.054  68.360  1.00  0.00    -0.294 Cl 
HETATM   31  C   UNL     1     -12.586  13.131  70.920  1.00  0.00    -0.295 A  
HETATM   32  C   UNL     1     -12.114  11.965  70.254  1.00  0.00    -0.409 A  
HETATM   33 CL   UNL     1     -13.295  13.079  72.508  1.00  0.00    -0.569 Cl 
HETATM   34  C   UNL     1     -12.188  10.697  70.847  1.00  0.00    -0.497 A  
ENDBRANCH  12  15
ENDBRANCH  11  12
ENDBRANCH  10  11
ENDBRANCH   5  10
ENDBRANCH   4   5
ENDBRANCH   3   4
ENDBRANCH   2   3
TORSDOF 10
ENDMDL
MODEL       17
REMARK 921   NORMALIZED FREE ENERGY PREDICTED BY IDOCK:   -6.01 KCAL/MOL
REMARK 922        TOTAL FREE ENERGY PREDICTED BY IDOCK:  -12.02 KCAL/MOL
REMARK 923 INTER-LIGAND FREE ENERGY PREDICTED BY IDOCK:   -9.31 KCAL/MOL
REMARK 924 INTRA-LIGAND FREE ENERGY PREDICTED BY IDOCK:   -2.71 KCAL/MOL
REMARK 927      BINDING AFFINITY PREDICTED BY RF-SCORE:    0.00 PKD
ROOT
HETATM    1  C   UNL     1      -7.577  12.408  68.270  1.00  0.00    -0.131 C  
HETATM    2  C   UNL     1      -7.842  13.693  67.500  1.00  0.00    -0.185 C  
ENDROOT
BRANCH   2   3
HETATM    3  C   UNL     1      -7.521  14.908  68.369  1.00  0.00    -0.115 C  
BRANCH   3   4
HETATM    4  C   UNL     1      -8.631  15.267  69.364  1.00  0.00    -0.226 C  
BRANCH   4   5
HETATM    5  N   UNL     1      -9.533  16.402  69.044  1.00  0.00    -0.258 NA 
BRANCH   5   6
HETATM    6  C   UNL     1      -9.204  16.986  67.725  1.00  0.00    -0.236 C  
BRANCH   6   7
HETATM    7  C   UNL     1     -10.283  16.862  66.632  1.00  0.00    -0.312 C  
BRANCH   7   8
HETATM    8  C   UNL     1     -10.018  15.750  65.620  1.00  0.00    -0.378 C  
HETATM    9  C   UNL     1     -11.235  15.535  64.725  1.00  0.00    -0.399 C  
ENDBRANCH   7   8
ENDBRANCH   6   7
ENDBRANCH   5   6
BRANCH   5  10
HETATM   10  C   UNL     1     -10.952  15.955  69.075  1.00  0.00    -0.277 C  
BRANCH  10  11
HETATM   11  C   UNL     1     -11.085  14.503  69.529  1.00  0.00    -0.285 C  
BRANCH  11  12
HETATM   12  C   UNL     1     -12.159  13.707  68.775  1.00  0.00    -0.297 C  
HETATM   13  H   UNL     1     -13.278  13.952  67.179  1.00  0.00     0.000 HD 
HETATM   14  O   UNL     1     -12.613  14.445  67.645  1.00  0.00     0.038 OA 
BRANCH  12  15
HETATM   15  C   UNL     1     -11.674  12.330  68.316  1.00  0.00    -0.392 A  
HETATM   16  C   UNL     1     -11.616  11.223  69.195  1.00  0.00    -0.387 A  
HETATM   17  C   UNL     1     -12.176  11.274  70.493  1.00  0.00    -0.474 A  
HETATM   18  C   UNL     1     -12.073  10.215  71.393  1.00  0.00    -0.475 A  
HETATM   19  C   UNL     1     -11.406   9.056  71.020  1.00  0.00    -0.362 A  
HETATM   20  C   UNL     1     -11.240   7.903  71.976  1.00  0.00    -0.287 C  
HETATM   21  C   UNL     1     -10.879   8.973  69.720  1.00  0.00    -0.215 A  
HETATM   22  F   UNL     1      -9.930   7.618  72.219  1.00  0.00    -0.190 F  
HETATM   23  C   UNL     1     -10.970  10.026  68.769  1.00  0.00    -0.242 A  
HETATM   24  F   UNL     1     -11.790   6.751  71.505  1.00  0.00    -0.300 F  
HETATM   25  F   UNL     1     -11.807   8.117  73.197  1.00  0.00    -0.413 F  
HETATM   26  C   UNL     1     -10.431   9.925  67.432  1.00  0.00    -0.325 A  
HETATM   27  C   UNL     1      -9.752   8.781  66.935  1.00  0.00    -0.273 A  
HETATM   28  C   UNL     1      -9.229   8.719  65.642  1.00  0.00    -0.180 A  
HETATM   29  C   UNL     1      -9.365   9.787  64.778  1.00  0.00    -0.327 A  
HETATM   30 CL   UNL     1      -8.400   7.305  65.118  1.00  0.00    -0.115 Cl 
HETATM   31  C   UNL     1     -10.031  10.925  65.220  1.00  0.00    -0.273 A  
HETATM   32  C   UNL     1     -10.565  11.011  66.537  1.00  0.00    -0.310 A  
HETATM   33 CL   UNL     1     -10.138  12.236  64.081  1.00  0.00    -0.339 Cl 
HETATM   34  C   UNL     1     -11.207  12.168  66.999  1.00  0.00    -0.370 A  
ENDBRANCH  12  15
ENDBRANCH  11  12
ENDBRANCH  10  11
ENDBRANCH   5  10
ENDBRANCH   4   5
ENDBRANCH   3   4
ENDBRANCH   2   3
TORSDOF 10
ENDMDL
MODEL       18
REMARK 921   NORMALIZED FREE ENERGY PREDICTED BY IDOCK:   -5.98 KCAL/MOL
REMARK 922        TOTAL FREE ENERGY PREDICTED BY IDOCK:  -11.97 KCAL/MOL
REMARK 923 INTER-LIGAND FREE ENERGY PREDICTED BY IDOCK:   -9.73 KCAL/MOL
REMARK 924 INTRA-LIGAND FREE ENERGY PREDICTED BY IDOCK:   -2.25 KCAL/MOL
REMARK 927      BINDING AFFINITY PREDICTED BY RF-SCORE:    0.00 PKD
ROOT
HETATM    1  C   UNL     1      -7.085  11.764  68.264  1.00  0.00    -0.079 C  
HETATM    2  C   UNL     1      -8.248  12.745  68.242  1.00  0.00    -0.159 C  
ENDROOT
BRANCH   2   3
HETATM    3  C   UNL     1      -8.224  13.568  66.956  1.00  0.00    -0.050 C  
BRANCH   3   4
HETATM    4  C   UNL     1      -8.146  15.081  67.191  1.00  0.00    -0.214 C  
BRANCH   4   5
HETATM    5  N   UNL     1      -9.393  15.881  67.098  1.00  0.00    -0.209 NA 
BRANCH   5   6
HETATM    6  C   UNL     1      -9.124  17.224  66.542  1.00  0.00    -0.265 C  
BRANCH   6   7
HETATM    7  C   UNL     1     -10.257  18.260  66.671  1.00  0.00    -0.399 C  
BRANCH   7   8
HETATM    8  C   UNL     1     -10.043  19.282  67.784  1.00  0.00    -0.488 C  
HETATM    9  C   UNL     1      -9.886  20.685  67.205  1.00  0.00    -0.529 C  
ENDBRANCH   7   8
ENDBRANCH   6   7
ENDBRANCH   5   6
BRANCH   5  10
HETATM   10  C   UNL     1     -10.400  15.166  66.266  1.00  0.00    -0.294 C  
BRANCH  10  11
HETATM   11  C   UNL     1     -11.561  14.635  67.104  1.00  0.00    -0.394 C  
BRANCH  11  12
HETATM   12  C   UNL     1     -12.357  13.510  66.428  1.00  0.00    -0.357 C  
HETATM   13  H   UNL     1     -13.157  13.169  64.666  1.00  0.00     0.000 HD 
HETATM   14  O   UNL     1     -12.664  13.866  65.084  1.00  0.00    -0.620 OA 
BRANCH  12  15
HETATM   15  C   UNL     1     -11.624  12.167  66.439  1.00  0.00    -0.429 A  
HETATM   16  C   UNL     1     -11.526  11.374  67.607  1.00  0.00    -0.348 A  
HETATM   17  C   UNL     1     -12.254  11.685  68.779  1.00  0.00    -0.048 A  
HETATM   18  C   UNL     1     -12.120  10.952  69.957  1.00  0.00    -0.433 A  
HETATM   19  C   UNL     1     -11.251   9.870  70.001  1.00  0.00    -0.327 A  
HETATM   20  C   UNL     1     -11.050   9.074  71.266  1.00  0.00    -0.312 C  
HETATM   21  C   UNL     1     -10.551   9.523  68.833  1.00  0.00    -0.239 A  
HETATM   22  F   UNL     1      -9.757   9.102  71.692  1.00  0.00    -0.341 F  
HETATM   23  C   UNL     1     -10.665  10.238  67.610  1.00  0.00    -0.339 A  
HETATM   24  F   UNL     1     -11.363   7.759  71.110  1.00  0.00    -0.252 F  
HETATM   25  F   UNL     1     -11.798   9.516  72.315  1.00  0.00    -0.385 F  
HETATM   26  C   UNL     1      -9.944   9.866  66.414  1.00  0.00    -0.309 A  
HETATM   27  C   UNL     1      -9.050   8.766  66.336  1.00  0.00    -0.221 A  
HETATM   28  C   UNL     1      -8.357   8.441  65.168  1.00  0.00    -0.167 A  
HETATM   29  C   UNL     1      -8.529   9.186  64.019  1.00  0.00    -0.195 A  
HETATM   30 CL   UNL     1      -7.273   7.104  65.158  1.00  0.00    -0.070 Cl 
HETATM   31  C   UNL     1      -9.403  10.268  64.047  1.00  0.00    -0.289 A  
HETATM   32  C   UNL     1     -10.113  10.621  65.229  1.00  0.00    -0.363 A  
HETATM   33 CL   UNL     1      -9.545  11.172  62.567  1.00  0.00    -0.252 Cl 
HETATM   34  C   UNL     1     -10.969  11.730  65.273  1.00  0.00    -0.350 A  
ENDBRANCH  12  15
ENDBRANCH  11  12
ENDBRANCH  10  11
ENDBRANCH   5  10
ENDBRANCH   4   5
ENDBRANCH   3   4
ENDBRANCH   2   3
TORSDOF 10
ENDMDL
MODEL       19
REMARK 921   NORMALIZED FREE ENERGY PREDICTED BY IDOCK:   -5.96 KCAL/MOL
REMARK 922        TOTAL FREE ENERGY PREDICTED BY IDOCK:  -11.94 KCAL/MOL
REMARK 923 INTER-LIGAND FREE ENERGY PREDICTED BY IDOCK:   -9.16 KCAL/MOL
REMARK 924 INTRA-LIGAND FREE ENERGY PREDICTED BY IDOCK:   -2.78 KCAL/MOL
REMARK 927      BINDING AFFINITY PREDICTED BY RF-SCORE:    0.00 PKD
ROOT
HETATM    1  C   UNL     1      -9.557   4.632  67.827  1.00  0.00    -0.203 C  
HETATM    2  C   UNL     1     -10.409   5.884  67.974  1.00  0.00    -0.257 C  
ENDROOT
BRANCH   2   3
HETATM    3  C   UNL     1     -10.984   5.971  69.386  1.00  0.00    -0.455 C  
BRANCH   3   4
HETATM    4  C   UNL     1      -9.926   5.874  70.492  1.00  0.00    -0.189 C  
BRANCH   4   5
HETATM    5  N   UNL     1      -9.869   6.945  71.518  1.00  0.00    -0.170 NA 
BRANCH   5   6
HETATM    6  C   UNL     1      -9.060   8.090  71.046  1.00  0.00    -0.148 C  
BRANCH   6   7
HETATM    7  C   UNL     1      -7.861   7.754  70.140  1.00  0.00    -0.095 C  
BRANCH   7   8
HETATM    8  C   UNL     1      -7.497   8.860  69.152  1.00  0.00    -0.073 C  
HETATM    9  C   UNL     1      -7.881  10.228  69.709  1.00  0.00    -0.151 C  
ENDBRANCH   7   8
ENDBRANCH   6   7
ENDBRANCH   5   6
BRANCH   5  10
HETATM   10  C   UNL     1     -11.245   7.391  71.872  1.00  0.00    -0.247 C  
BRANCH  10  11
HETATM   11  C   UNL     1     -11.352   8.912  71.946  1.00  0.00    -0.446 C  
BRANCH  11  12
HETATM   12  C   UNL     1     -12.585   9.488  71.235  1.00  0.00    -0.339 C  
HETATM   13  H   UNL     1     -14.382  10.101  71.739  1.00  0.00     0.000 HD 
HETATM   14  O   UNL     1     -13.619   9.745  72.180  1.00  0.00    -0.419 OA 
BRANCH  12  15
HETATM   15  C   UNL     1     -12.284  10.770  70.456  1.00  0.00    -0.457 A  
HETATM   16  C   UNL     1     -11.614  10.752  69.209  1.00  0.00    -0.376 A  
HETATM   17  C   UNL     1     -11.352   9.543  68.525  1.00  0.00     0.188 A  
HETATM   18  C   UNL     1     -10.639   9.502  67.328  1.00  0.00    -0.317 A  
HETATM   19  C   UNL     1     -10.166  10.680  66.767  1.00  0.00    -0.284 A  
HETATM   20  C   UNL     1      -9.358  10.676  65.494  1.00  0.00    -0.205 C  
HETATM   21  C   UNL     1     -10.454  11.895  67.414  1.00  0.00    -0.242 A  
HETATM   22  F   UNL     1      -8.116  11.205  65.669  1.00  0.00    -0.146 F  
HETATM   23  C   UNL     1     -11.184  11.980  68.630  1.00  0.00    -0.309 A  
HETATM   24  F   UNL     1      -9.940  11.410  64.506  1.00  0.00    -0.245 F  
HETATM   25  F   UNL     1      -9.164   9.433  64.973  1.00  0.00    -0.249 F  
HETATM   26  C   UNL     1     -11.480  13.237  69.280  1.00  0.00    -0.345 A  
HETATM   27  C   UNL     1     -11.068  14.503  68.786  1.00  0.00    -0.267 A  
HETATM   28  C   UNL     1     -11.358  15.699  69.446  1.00  0.00    -0.330 A  
HETATM   29  C   UNL     1     -12.079  15.694  70.623  1.00  0.00    -0.443 A  
HETATM   30 CL   UNL     1     -10.807  17.193  68.794  1.00  0.00    -0.270 Cl 
HETATM   31  C   UNL     1     -12.510  14.477  71.139  1.00  0.00    -0.341 A  
HETATM   32  C   UNL     1     -12.219  13.246  70.486  1.00  0.00    -0.416 A  
HETATM   33 CL   UNL     1     -13.389  14.554  72.638  1.00  0.00    -0.541 Cl 
HETATM   34  C   UNL     1     -12.621  12.014  71.020  1.00  0.00    -0.370 A  
ENDBRANCH  12  15
ENDBRANCH  11  12
ENDBRANCH  10  11
ENDBRANCH   5  10
ENDBRANCH   4   5
ENDBRANCH   3   4
ENDBRANCH   2   3
TORSDOF 10
ENDMDL
MODEL       20
REMARK 921   NORMALIZED FREE ENERGY PREDICTED BY IDOCK:   -5.95 KCAL/MOL
REMARK 922        TOTAL FREE ENERGY PREDICTED BY IDOCK:  -11.92 KCAL/MOL
REMARK 923 INTER-LIGAND FREE ENERGY PREDICTED BY IDOCK:   -8.46 KCAL/MOL
REMARK 924 INTRA-LIGAND FREE ENERGY PREDICTED BY IDOCK:   -3.46 KCAL/MOL
REMARK 927      BINDING AFFINITY PREDICTED BY RF-SCORE:    0.00 PKD
ROOT
HETATM    1  C   UNL     1      -8.536  15.007  67.091  1.00  0.00    -0.246 C  
HETATM    2  C   UNL     1      -8.596  13.783  67.992  1.00  0.00    -0.177 C  
ENDROOT
BRANCH   2   3
HETATM    3  C   UNL     1      -7.748  12.654  67.410  1.00  0.00    -0.161 C  
BRANCH   3   4
HETATM    4  C   UNL     1      -7.496  11.500  68.388  1.00  0.00    -0.109 C  
BRANCH   4   5
HETATM    5  N   UNL     1      -6.457  10.496  68.051  1.00  0.00    -0.059 NA 
BRANCH   5   6
HETATM    6  C   UNL     1      -6.352   9.465  69.106  1.00  0.00    -0.042 C  
BRANCH   6   7
HETATM    7  C   UNL     1      -7.314   9.607  70.301  1.00  0.00    -0.153 C  
BRANCH   7   8
HETATM    8  C   UNL     1      -7.245   8.453  71.298  1.00  0.00    -0.073 C  
HETATM    9  C   UNL     1      -7.084   7.121  70.571  1.00  0.00    -0.063 C  
ENDBRANCH   7   8
ENDBRANCH   6   7
ENDBRANCH   5   6
BRANCH   5  10
HETATM   10  C   UNL     1      -6.760   9.865  66.737  1.00  0.00    -0.079 C  
BRANCH  10  11
HETATM   11  C   UNL     1      -7.395   8.486  66.896  1.00  0.00    -0.083 C  
BRANCH  11  12
HETATM   12  C   UNL     1      -8.813   8.379  66.321  1.00  0.00    -0.159 C  
HETATM   13  H   UNL     1     -10.093   6.949  65.898  1.00  0.00     0.000 HD 
HETATM   14  O   UNL     1      -9.214   7.015  66.255  1.00  0.00    -0.166 OA 
BRANCH  12  15
HETATM   15  C   UNL     1      -9.848   9.170  67.125  1.00  0.00    -0.253 A  
HETATM   16  C   UNL     1     -10.425  10.366  66.637  1.00  0.00    -0.279 A  
HETATM   17  C   UNL     1     -10.221  10.800  65.307  1.00  0.00    -0.351 A  
HETATM   18  C   UNL     1     -10.730  12.006  64.829  1.00  0.00    -0.352 A  
HETATM   19  C   UNL     1     -11.471  12.824  65.671  1.00  0.00    -0.379 A  
HETATM   20  C   UNL     1     -12.007  14.153  65.205  1.00  0.00    -0.388 C  
HETATM   21  C   UNL     1     -11.717  12.388  66.985  1.00  0.00    -0.423 A  
HETATM   22  F   UNL     1     -11.525  15.192  65.943  1.00  0.00    -0.340 F  
HETATM   23  C   UNL     1     -11.224  11.162  67.508  1.00  0.00    -0.369 A  
HETATM   24  F   UNL     1     -13.363  14.230  65.295  1.00  0.00    -0.419 F  
HETATM   25  F   UNL     1     -11.701  14.443  63.909  1.00  0.00    -0.327 F  
HETATM   26  C   UNL     1     -11.491  10.722  68.859  1.00  0.00    -0.362 A  
HETATM   27  C   UNL     1     -12.256  11.463  69.798  1.00  0.00    -0.332 A  
HETATM   28  C   UNL     1     -12.484  11.017  71.102  1.00  0.00    -0.397 A  
HETATM   29  C   UNL     1     -11.972   9.809  71.530  1.00  0.00    -0.488 A  
HETATM   30 CL   UNL     1     -13.404  11.982  72.190  1.00  0.00    -0.545 Cl 
HETATM   31  C   UNL     1     -11.224   9.046  70.640  1.00  0.00    -0.270 A  
HETATM   32  C   UNL     1     -10.974   9.485  69.309  1.00  0.00    -0.167 A  
HETATM   33 CL   UNL     1     -10.593   7.549  71.263  1.00  0.00    -0.223 Cl 
HETATM   34  C   UNL     1     -10.192   8.736  68.419  1.00  0.00    -0.228 A  
ENDBRANCH  12  15
ENDBRANCH  11  12
ENDBRANCH  10  11
ENDBRANCH   5  10
ENDBRANCH   4   5
ENDBRANCH   3   4
ENDBRANCH   2   3
TORSDOF 10
ENDMDL
MODEL       21
REMARK 921   NORMALIZED FREE ENERGY PREDICTED BY IDOCK:   -5.92 KCAL/MOL
REMARK 922        TOTAL FREE ENERGY PREDICTED BY IDOCK:  -11.88 KCAL/MOL
REMARK 923 INTER-LIGAND FREE ENERGY PREDICTED BY IDOCK:  -10.90 KCAL/MOL
REMARK 924 INTRA-LIGAND FREE ENERGY PREDICTED BY IDOCK:   -0.98 KCAL/MOL
REMARK 927      BINDING AFFINITY PREDICTED BY RF-SCORE:    0.00 PKD
ROOT
HETATM    1  C   UNL     1     -10.242  19.579  68.847  1.00  0.00    -0.394 C  
HETATM    2  C   UNL     1     -10.909  19.553  67.480  1.00  0.00    -0.494 C  
ENDROOT
BRANCH   2   3
HETATM    3  C   UNL     1      -9.873  19.291  66.388  1.00  0.00    -0.455 C  
BRANCH   3   4
HETATM    4  C   UNL     1      -8.614  18.572  66.890  1.00  0.00    -0.278 C  
BRANCH   4   5
HETATM    5  N   UNL     1      -7.870  17.700  65.947  1.00  0.00    -0.553 NA 
BRANCH   5   6
HETATM    6  C   UNL     1      -6.451  18.107  65.854  1.00  0.00    -0.269 C  
BRANCH   6   7
HETATM    7  C   UNL     1      -6.149  19.598  66.097  1.00  0.00    -0.185 C  
BRANCH   7   8
HETATM    8  C   UNL     1      -6.648  20.523  64.989  1.00  0.00    -0.307 C  
HETATM    9  C   UNL     1      -5.740  20.439  63.766  1.00  0.00    -0.310 C  
ENDBRANCH   7   8
ENDBRANCH   6   7
ENDBRANCH   5   6
BRANCH   5  10
HETATM   10  C   UNL     1      -7.977  16.277  66.371  1.00  0.00    -0.264 C  
BRANCH  10  11
HETATM   11  C   UNL     1      -9.089  16.067  67.397  1.00  0.00    -0.207 C  
BRANCH  11  12
HETATM   12  C   UNL     1     -10.354  15.416  66.823  1.00  0.00    -0.279 C  
HETATM   13  H   UNL     1     -10.930  14.653  65.106  1.00  0.00     0.000 HD 
HETATM   14  O   UNL     1     -10.145  15.056  65.461  1.00  0.00    -0.328 OA 
BRANCH  12  15
HETATM   15  C   UNL     1     -10.803  14.181  67.607  1.00  0.00    -0.266 A  
HETATM   16  C   UNL     1     -11.458  14.282  68.858  1.00  0.00    -0.318 A  
HETATM   17  C   UNL     1     -11.901  15.526  69.365  1.00  0.00    -0.392 A  
HETATM   18  C   UNL     1     -12.491  15.651  70.621  1.00  0.00    -0.463 A  
HETATM   19  C   UNL     1     -12.665  14.527  71.417  1.00  0.00    -0.407 A  
HETATM   20  C   UNL     1     -13.264  14.626  72.797  1.00  0.00    -0.497 C  
HETATM   21  C   UNL     1     -12.266  13.278  70.911  1.00  0.00    -0.346 A  
HETATM   22  F   UNL     1     -12.410  14.188  73.763  1.00  0.00    -0.295 F  
HETATM   23  C   UNL     1     -11.669  13.106  69.633  1.00  0.00    -0.370 A  
HETATM   24  F   UNL     1     -14.392  13.876  72.930  1.00  0.00    -0.328 F  
HETATM   25  F   UNL     1     -13.612  15.894  73.154  1.00  0.00    -0.573 F  
HETATM   26  C   UNL     1     -11.271  11.814  69.121  1.00  0.00    -0.324 A  
HETATM   27  C   UNL     1     -11.422  10.596  69.836  1.00  0.00    -0.393 A  
HETATM   28  C   UNL     1     -11.014   9.364  69.319  1.00  0.00    -0.117 A  
HETATM   29  C   UNL     1     -10.446   9.284  68.064  1.00  0.00    -0.275 A  
HETATM   30 CL   UNL     1     -11.212   7.934  70.255  1.00  0.00    -0.243 Cl 
HETATM   31  C   UNL     1     -10.286  10.451  67.325  1.00  0.00    -0.228 A  
HETATM   32  C   UNL     1     -10.689  11.717  67.836  1.00  0.00    -0.241 A  
HETATM   33 CL   UNL     1      -9.539  10.268  65.764  1.00  0.00    -0.259 Cl 
HETATM   34  C   UNL     1     -10.499  12.900  67.109  1.00  0.00    -0.241 A  
ENDBRANCH  12  15
ENDBRANCH  11  12
ENDBRANCH  10  11
ENDBRANCH   5  10
ENDBRANCH   4   5
ENDBRANCH   3   4
ENDBRANCH   2   3
TORSDOF 10
ENDMDL
MODEL       22
REMARK 921   NORMALIZED FREE ENERGY PREDICTED BY IDOCK:   -5.89 KCAL/MOL
REMARK 922        TOTAL FREE ENERGY PREDICTED BY IDOCK:  -11.83 KCAL/MOL
REMARK 923 INTER-LIGAND FREE ENERGY PREDICTED BY IDOCK:  -10.64 KCAL/MOL
REMARK 924 INTRA-LIGAND FREE ENERGY PREDICTED BY IDOCK:   -1.19 KCAL/MOL
REMARK 927      BINDING AFFINITY PREDICTED BY RF-SCORE:    0.00 PKD
ROOT
HETATM    1  C   UNL     1      -5.760   9.496  62.637  1.00  0.00    -0.085 C  
HETATM    2  C   UNL     1      -7.275   9.425  62.764  1.00  0.00    -0.101 C  
ENDROOT
BRANCH   2   3
HETATM    3  C   UNL     1      -7.898  10.783  62.444  1.00  0.00    -0.195 C  
BRANCH   3   4
HETATM    4  C   UNL     1      -9.409  10.844  62.692  1.00  0.00    -0.314 C  
BRANCH   4   5
HETATM    5  N   UNL     1      -9.905  11.565  63.891  1.00  0.00    -0.284 NA 
BRANCH   5   6
HETATM    6  C   UNL     1     -11.379  11.488  63.986  1.00  0.00    -0.296 C  
BRANCH   6   7
HETATM    7  C   UNL     1     -12.168  12.641  63.335  1.00  0.00    -0.610 C  
BRANCH   7   8
HETATM    8  C   UNL     1     -12.100  13.956  64.107  1.00  0.00    -0.464 C  
HETATM    9  C   UNL     1     -12.904  13.865  65.400  1.00  0.00    -0.466 C  
ENDBRANCH   7   8
ENDBRANCH   6   7
ENDBRANCH   5   6
BRANCH   5  10
HETATM   10  C   UNL     1      -9.275  11.010  65.121  1.00  0.00    -0.205 C  
BRANCH  10  11
HETATM   11  C   UNL     1     -10.278  10.868  66.263  1.00  0.00    -0.300 C  
BRANCH  11  12
HETATM   12  C   UNL     1      -9.721  11.263  67.638  1.00  0.00    -0.171 C  
HETATM   13  H   UNL     1      -8.034  11.967  68.360  1.00  0.00     0.000 HD 
HETATM   14  O   UNL     1      -8.379  11.722  67.509  1.00  0.00    -0.141 OA 
BRANCH  12  15
HETATM   15  C   UNL     1     -10.556  12.339  68.336  1.00  0.00    -0.250 A  
HETATM   16  C   UNL     1     -10.443  13.711  68.005  1.00  0.00    -0.251 A  
HETATM   17  C   UNL     1      -9.694  14.145  66.887  1.00  0.00    -0.272 A  
HETATM   18  C   UNL     1      -9.522  15.494  66.583  1.00  0.00    -0.281 A  
HETATM   19  C   UNL     1     -10.103  16.463  67.391  1.00  0.00    -0.262 A  
HETATM   20  C   UNL     1      -9.909  17.933  67.119  1.00  0.00    -0.308 C  
HETATM   21  C   UNL     1     -10.884  16.046  68.483  1.00  0.00    -0.304 A  
HETATM   22  F   UNL     1      -9.308  18.575  68.159  1.00  0.00    -0.284 F  
HETATM   23  C   UNL     1     -11.092  14.682  68.821  1.00  0.00    -0.274 A  
HETATM   24  F   UNL     1     -11.086  18.584  66.909  1.00  0.00    -0.347 F  
HETATM   25  F   UNL     1      -9.138  18.191  66.026  1.00  0.00    -0.267 F  
HETATM   26  C   UNL     1     -11.904  14.267  69.943  1.00  0.00    -0.382 A  
HETATM   27  C   UNL     1     -12.564  15.167  70.820  1.00  0.00    -0.452 A  
HETATM   28  C   UNL     1     -13.331  14.734  71.904  1.00  0.00    -0.359 A  
HETATM   29  C   UNL     1     -13.487  13.387  72.161  1.00  0.00    -0.646 A  
HETATM   30 CL   UNL     1     -14.085  15.888  72.936  1.00  0.00    -0.508 Cl 
HETATM   31  C   UNL     1     -12.865  12.470  71.321  1.00  0.00    -0.241 A  
HETATM   32  C   UNL     1     -12.073  12.889  70.216  1.00  0.00    -0.377 A  
HETATM   33 CL   UNL     1     -13.088  10.792  71.727  1.00  0.00    -0.583 Cl 
HETATM   34  C   UNL     1     -11.416  11.970  69.387  1.00  0.00    -0.361 A  
ENDBRANCH  12  15
ENDBRANCH  11  12
ENDBRANCH  10  11
ENDBRANCH   5  10
ENDBRANCH   4   5
ENDBRANCH   3   4
ENDBRANCH   2   3
TORSDOF 10
ENDMDL
MODEL       23
REMARK 921   NORMALIZED FREE ENERGY PREDICTED BY IDOCK:   -5.89 KCAL/MOL
REMARK 922        TOTAL FREE ENERGY PREDICTED BY IDOCK:  -11.83 KCAL/MOL
REMARK 923 INTER-LIGAND FREE ENERGY PREDICTED BY IDOCK:  -10.15 KCAL/MOL
REMARK 924 INTRA-LIGAND FREE ENERGY PREDICTED BY IDOCK:   -1.68 KCAL/MOL
REMARK 927      BINDING AFFINITY PREDICTED BY RF-SCORE:    0.00 PKD
ROOT
HETATM    1  C   UNL     1      -5.868   8.886  70.060  1.00  0.00    -0.031 C  
HETATM    2  C   UNL     1      -5.820   8.970  68.541  1.00  0.00    -0.042 C  
ENDROOT
BRANCH   2   3
HETATM    3  C   UNL     1      -7.174   8.586  67.946  1.00  0.00    -0.088 C  
BRANCH   3   4
HETATM    4  C   UNL     1      -8.273   9.627  68.185  1.00  0.00    -0.106 C  
BRANCH   4   5
HETATM    5  N   UNL     1      -9.689   9.222  67.998  1.00  0.00    -0.147 NA 
BRANCH   5   6
HETATM    6  C   UNL     1     -10.452   9.361  69.258  1.00  0.00    -0.218 C  
BRANCH   6   7
HETATM    7  C   UNL     1      -9.653   9.807  70.497  1.00  0.00    -0.166 C  
BRANCH   7   8
HETATM    8  C   UNL     1      -9.503   8.726  71.565  1.00  0.00    -0.341 C  
HETATM    9  C   UNL     1     -10.842   8.449  72.243  1.00  0.00    -0.422 C  
ENDBRANCH   7   8
ENDBRANCH   6   7
ENDBRANCH   5   6
BRANCH   5  10
HETATM   10  C   UNL     1     -10.316  10.032  66.918  1.00  0.00    -0.234 C  
BRANCH  10  11
HETATM   11  C   UNL     1      -9.784  11.463  66.893  1.00  0.00    -0.213 C  
BRANCH  11  12
HETATM   12  C   UNL     1     -10.805  12.502  66.412  1.00  0.00    -0.261 C  
HETATM   13  H   UNL     1     -12.573  12.495  65.554  1.00  0.00     0.000 HD 
HETATM   14  O   UNL     1     -11.940  11.851  65.851  1.00  0.00    -0.480 OA 
BRANCH  12  15
HETATM   15  C   UNL     1     -11.266  13.449  67.524  1.00  0.00    -0.309 A  
HETATM   16  C   UNL     1     -11.045  14.845  67.461  1.00  0.00    -0.319 A  
HETATM   17  C   UNL     1     -10.557  15.467  66.289  1.00  0.00    -0.310 A  
HETATM   18  C   UNL     1     -10.275  16.831  66.230  1.00  0.00    -0.341 A  
HETATM   19  C   UNL     1     -10.480  17.627  67.349  1.00  0.00    -0.356 A  
HETATM   20  C   UNL     1     -10.152  19.098  67.339  1.00  0.00    -0.379 C  
HETATM   21  C   UNL     1     -11.004  17.031  68.509  1.00  0.00    -0.247 A  
HETATM   22  F   UNL     1      -9.216  19.425  68.273  1.00  0.00    -0.340 F  
HETATM   23  C   UNL     1     -11.313  15.647  68.608  1.00  0.00    -0.359 A  
HETATM   24  F   UNL     1     -11.236  19.876  67.610  1.00  0.00    -0.422 F  
HETATM   25  F   UNL     1      -9.661  19.541  66.148  1.00  0.00    -0.367 F  
HETATM   26  C   UNL     1     -11.858  15.048  69.805  1.00  0.00    -0.357 A  
HETATM   27  C   UNL     1     -12.131  15.768  70.998  1.00  0.00    -0.464 A  
HETATM   28  C   UNL     1     -12.646  15.157  72.144  1.00  0.00    -0.332 A  
HETATM   29  C   UNL     1     -12.923  13.805  72.154  1.00  0.00    -0.437 A  
HETATM   30 CL   UNL     1     -12.931  16.093  73.560  1.00  0.00    -0.648 Cl 
HETATM   31  C   UNL     1     -12.679  13.063  71.004  1.00  0.00    -0.262 A  
HETATM   32  C   UNL     1     -12.149  13.664  69.828  1.00  0.00    -0.396 A  
HETATM   33 CL   UNL     1     -13.031  11.362  71.106  1.00  0.00    -0.409 Cl 
HETATM   34  C   UNL     1     -11.869  12.915  68.678  1.00  0.00    -0.347 A  
ENDBRANCH  12  15
ENDBRANCH  11  12
ENDBRANCH  10  11
ENDBRANCH   5  10
ENDBRANCH   4   5
ENDBRANCH   3   4
ENDBRANCH   2   3
TORSDOF 10
ENDMDL
MODEL       24
REMARK 921   NORMALIZED FREE ENERGY PREDICTED BY IDOCK:   -5.84 KCAL/MOL
REMARK 922        TOTAL FREE ENERGY PREDICTED BY IDOCK:  -11.74 KCAL/MOL
REMARK 923 INTER-LIGAND FREE ENERGY PREDICTED BY IDOCK:  -10.57 KCAL/MOL
REMARK 924 INTRA-LIGAND FREE ENERGY PREDICTED BY IDOCK:   -1.18 KCAL/MOL
REMARK 927      BINDING AFFINITY PREDICTED BY RF-SCORE:    0.00 PKD
ROOT
HETATM    1  C   UNL     1      -8.493  19.046  66.319  1.00  0.00    -0.289 C  
HETATM    2  C   UNL     1      -9.587  19.895  66.948  1.00  0.00    -0.517 C  
ENDROOT
BRANCH   2   3
HETATM    3  C   UNL     1     -10.606  19.005  67.658  1.00  0.00    -0.526 C  
BRANCH   3   4
HETATM    4  C   UNL     1     -10.021  18.208  68.830  1.00  0.00    -0.375 C  
BRANCH   4   5
HETATM    5  N   UNL     1     -10.113  16.726  68.798  1.00  0.00    -0.269 NA 
BRANCH   5   6
HETATM    6  C   UNL     1      -8.774  16.108  68.915  1.00  0.00    -0.248 C  
BRANCH   6   7
HETATM    7  C   UNL     1      -8.075  15.733  67.594  1.00  0.00    -0.163 C  
BRANCH   7   8
HETATM    8  C   UNL     1      -8.446  14.350  67.064  1.00  0.00    -0.206 C  
HETATM    9  C   UNL     1      -8.020  13.264  68.047  1.00  0.00    -0.152 C  
ENDBRANCH   7   8
ENDBRANCH   6   7
ENDBRANCH   5   6
BRANCH   5  10
HETATM   10  C   UNL     1     -11.005  16.244  69.888  1.00  0.00    -0.365 C  
BRANCH  10  11
HETATM   11  C   UNL     1     -12.017  15.216  69.386  1.00  0.00    -0.337 C  
BRANCH  11  12
HETATM   12  C   UNL     1     -11.990  13.886  70.152  1.00  0.00    -0.332 C  
HETATM   13  H   UNL     1     -13.260  12.785  71.170  1.00  0.00     0.000 HD 
HETATM   14  O   UNL     1     -13.277  13.609  70.695  1.00  0.00    -0.071 OA 
BRANCH  12  15
HETATM   15  C   UNL     1     -11.543  12.705  69.287  1.00  0.00    -0.376 A  
HETATM   16  C   UNL     1     -11.631  12.732  67.875  1.00  0.00    -0.400 A  
HETATM   17  C   UNL     1     -11.960  13.915  67.174  1.00  0.00    -0.455 A  
HETATM   18  C   UNL     1     -12.112  13.943  65.789  1.00  0.00    -0.449 A  
HETATM   19  C   UNL     1     -11.933  12.781  65.051  1.00  0.00    -0.456 A  
HETATM   20  C   UNL     1     -12.125  12.761  63.556  1.00  0.00    -0.559 C  
HETATM   21  C   UNL     1     -11.565  11.606  65.729  1.00  0.00    -0.088 A  
HETATM   22  F   UNL     1     -13.104  11.896  63.173  1.00  0.00    -0.648 F  
HETATM   23  C   UNL     1     -11.392  11.536  67.138  1.00  0.00    -0.354 A  
HETATM   24  F   UNL     1     -11.002  12.372  62.891  1.00  0.00    -0.387 F  
HETATM   25  F   UNL     1     -12.470  13.970  63.032  1.00  0.00    -0.342 F  
HETATM   26  C   UNL     1     -11.007  10.322  67.822  1.00  0.00    -0.360 A  
HETATM   27  C   UNL     1     -10.773   9.083  67.168  1.00  0.00    -0.206 A  
HETATM   28  C   UNL     1     -10.415   7.924  67.859  1.00  0.00    -0.198 A  
HETATM   29  C   UNL     1     -10.263   7.943  69.231  1.00  0.00    -0.216 A  
HETATM   30 CL   UNL     1     -10.169   6.454  66.999  1.00  0.00    -0.234 Cl 
HETATM   31  C   UNL     1     -10.473   9.138  69.911  1.00  0.00    -0.223 A  
HETATM   32  C   UNL     1     -10.845  10.329  69.227  1.00  0.00    -0.275 A  
HETATM   33 CL   UNL     1     -10.286   9.073  71.640  1.00  0.00    -0.413 Cl 
HETATM   34  C   UNL     1     -11.091  11.527  69.911  1.00  0.00    -0.079 A  
ENDBRANCH  12  15
ENDBRANCH  11  12
ENDBRANCH  10  11
ENDBRANCH   5  10
ENDBRANCH   4   5
ENDBRANCH   3   4
ENDBRANCH   2   3
TORSDOF 10
ENDMDL
MODEL       25
REMARK 921   NORMALIZED FREE ENERGY PREDICTED BY IDOCK:   -5.81 KCAL/MOL
REMARK 922        TOTAL FREE ENERGY PREDICTED BY IDOCK:  -11.70 KCAL/MOL
REMARK 923 INTER-LIGAND FREE ENERGY PREDICTED BY IDOCK:  -10.11 KCAL/MOL
REMARK 924 INTRA-LIGAND FREE ENERGY PREDICTED BY IDOCK:   -1.59 KCAL/MOL
REMARK 927      BINDING AFFINITY PREDICTED BY RF-SCORE:    0.00 PKD
ROOT
HETATM    1  C   UNL     1     -10.578   5.576  67.171  1.00  0.00    -0.313 C  
HETATM    2  C   UNL     1      -9.930   5.642  68.546  1.00  0.00    -0.205 C  
ENDROOT
BRANCH   2   3
HETATM    3  C   UNL     1     -10.976   5.971  69.610  1.00  0.00    -0.470 C  
BRANCH   3   4
HETATM    4  C   UNL     1     -10.385   6.215  71.003  1.00  0.00    -0.210 C  
BRANCH   4   5
HETATM    5  N   UNL     1     -11.314   6.382  72.149  1.00  0.00    -0.276 NA 
BRANCH   5   6
HETATM    6  C   UNL     1     -11.304   5.187  73.020  1.00  0.00    -0.309 C  
BRANCH   6   7
HETATM    7  C   UNL     1     -10.047   4.299  72.951  1.00  0.00    -0.212 C  
BRANCH   7   8
HETATM    8  C   UNL     1     -10.327   2.853  72.550  1.00  0.00    -0.189 C  
HETATM    9  C   UNL     1      -9.641   2.517  71.229  1.00  0.00    -0.224 C  
ENDBRANCH   7   8
ENDBRANCH   6   7
ENDBRANCH   5   6
BRANCH   5  10
HETATM   10  C   UNL     1     -10.952   7.597  72.930  1.00  0.00    -0.400 C  
BRANCH  10  11
HETATM   11  C   UNL     1     -10.845   8.836  72.044  1.00  0.00    -0.428 C  
BRANCH  11  12
HETATM   12  C   UNL     1     -12.162   9.235  71.364  1.00  0.00    -0.349 C  
HETATM   13  H   UNL     1     -13.999   9.659  71.920  1.00  0.00     0.000 HD 
HETATM   14  O   UNL     1     -13.183   9.413  72.341  1.00  0.00    -0.434 OA 
BRANCH  12  15
HETATM   15  C   UNL     1     -12.042  10.508  70.523  1.00  0.00    -0.437 A  
HETATM   16  C   UNL     1     -11.483  10.500  69.223  1.00  0.00    -0.323 A  
HETATM   17  C   UNL     1     -11.176   9.292  68.555  1.00  0.00     0.197 A  
HETATM   18  C   UNL     1     -10.568   9.268  67.301  1.00  0.00    -0.303 A  
HETATM   19  C   UNL     1     -10.249  10.460  66.665  1.00  0.00    -0.292 A  
HETATM   20  C   UNL     1      -9.557  10.476  65.326  1.00  0.00    -0.249 C  
HETATM   21  C   UNL     1     -10.585  11.669  67.299  1.00  0.00    -0.265 A  
HETATM   22  F   UNL     1      -8.355  11.114  65.375  1.00  0.00    -0.151 F  
HETATM   23  C   UNL     1     -11.213  11.738  68.572  1.00  0.00    -0.306 A  
HETATM   24  F   UNL     1     -10.283  11.121  64.372  1.00  0.00    -0.285 F  
HETATM   25  F   UNL     1      -9.300   9.235  64.827  1.00  0.00    -0.281 F  
HETATM   26  C   UNL     1     -11.560  12.988  69.208  1.00  0.00    -0.367 A  
HETATM   27  C   UNL     1     -11.305  14.265  68.642  1.00  0.00    -0.302 A  
HETATM   28  C   UNL     1     -11.639  15.457  69.289  1.00  0.00    -0.339 A  
HETATM   29  C   UNL     1     -12.253  15.435  70.525  1.00  0.00    -0.436 A  
HETATM   30 CL   UNL     1     -11.279  16.966  68.547  1.00  0.00    -0.218 Cl 
HETATM   31  C   UNL     1     -12.530  14.206  71.114  1.00  0.00    -0.371 A  
HETATM   32  C   UNL     1     -12.191  12.980  70.474  1.00  0.00    -0.392 A  
HETATM   33 CL   UNL     1     -13.281  14.264  72.682  1.00  0.00    -0.562 Cl 
HETATM   34  C   UNL     1     -12.437  11.740  71.078  1.00  0.00    -0.411 A  
ENDBRANCH  12  15
ENDBRANCH  11  12
ENDBRANCH  10  11
ENDBRANCH   5  10
ENDBRANCH   4   5
ENDBRANCH   3   4
ENDBRANCH   2   3
TORSDOF 10
ENDMDL
MODEL       26
REMARK 921   NORMALIZED FREE ENERGY PREDICTED BY IDOCK:   -5.79 KCAL/MOL
REMARK 922        TOTAL FREE ENERGY PREDICTED BY IDOCK:  -11.68 KCAL/MOL
REMARK 923 INTER-LIGAND FREE ENERGY PREDICTED BY IDOCK:   -8.76 KCAL/MOL
REMARK 924 INTRA-LIGAND FREE ENERGY PREDICTED BY IDOCK:   -2.92 KCAL/MOL
REMARK 927      BINDING AFFINITY PREDICTED BY RF-SCORE:    0.00 PKD
ROOT
HETATM    1  C   UNL     1      -7.460   9.737  68.044  1.00  0.00    -0.082 C  
HETATM    2  C   UNL     1      -8.149  10.213  69.314  1.00  0.00    -0.149 C  
ENDROOT
BRANCH   2   3
HETATM    3  C   UNL     1      -7.682   9.386  70.511  1.00  0.00    -0.177 C  
BRANCH   3   4
HETATM    4  C   UNL     1      -8.827   8.758  71.314  1.00  0.00    -0.226 C  
BRANCH   4   5
HETATM    5  N   UNL     1      -9.824   7.925  70.597  1.00  0.00    -0.184 NA 
BRANCH   5   6
HETATM    6  C   UNL     1      -9.272   6.590  70.280  1.00  0.00    -0.155 C  
BRANCH   6   7
HETATM    7  C   UNL     1     -10.129   5.693  69.366  1.00  0.00    -0.290 C  
BRANCH   7   8
HETATM    8  C   UNL     1     -10.635   6.389  68.106  1.00  0.00    -0.314 C  
HETATM    9  C   UNL     1      -9.482   6.679  67.149  1.00  0.00    -0.158 C  
ENDBRANCH   7   8
ENDBRANCH   6   7
ENDBRANCH   5   6
BRANCH   5  10
HETATM   10  C   UNL     1     -11.065   7.794  71.410  1.00  0.00    -0.238 C  
BRANCH  10  11
HETATM   11  C   UNL     1     -11.515   9.135  71.986  1.00  0.00    -0.351 C  
BRANCH  11  12
HETATM   12  C   UNL     1     -12.730   9.745  71.274  1.00  0.00    -0.369 C  
HETATM   13  H   UNL     1     -14.533  10.351  71.765  1.00  0.00     0.000 HD 
HETATM   14  O   UNL     1     -13.781   9.973  72.207  1.00  0.00    -0.326 OA 
BRANCH  12  15
HETATM   15  C   UNL     1     -12.405  11.055  70.550  1.00  0.00    -0.462 A  
HETATM   16  C   UNL     1     -11.854  11.076  69.247  1.00  0.00    -0.411 A  
HETATM   17  C   UNL     1     -11.745   9.902  68.468  1.00  0.00     0.416 A  
HETATM   18  C   UNL     1     -11.147   9.895  67.209  1.00  0.00    -0.063 A  
HETATM   19  C   UNL     1     -10.640  11.074  66.679  1.00  0.00    -0.315 A  
HETATM   20  C   UNL     1      -9.953  11.102  65.338  1.00  0.00    -0.259 C  
HETATM   21  C   UNL     1     -10.777  12.258  67.424  1.00  0.00    -0.261 A  
HETATM   22  F   UNL     1      -8.664  11.531  65.427  1.00  0.00    -0.140 F  
HETATM   23  C   UNL     1     -11.387  12.309  68.707  1.00  0.00    -0.337 A  
HETATM   24  F   UNL     1     -10.564  11.939  64.456  1.00  0.00    -0.288 F  
HETATM   25  F   UNL     1      -9.899   9.886  64.724  1.00  0.00    -0.358 F  
HETATM   26  C   UNL     1     -11.528  13.535  69.459  1.00  0.00    -0.318 A  
HETATM   27  C   UNL     1     -11.070  14.801  69.007  1.00  0.00    -0.268 A  
HETATM   28  C   UNL     1     -11.210  15.966  69.764  1.00  0.00    -0.339 A  
HETATM   29  C   UNL     1     -11.820  15.930  71.002  1.00  0.00    -0.468 A  
HETATM   30 CL   UNL     1     -10.610  17.461  69.157  1.00  0.00    -0.265 Cl 
HETATM   31  C   UNL     1     -12.292  14.713  71.480  1.00  0.00    -0.351 A  
HETATM   32  C   UNL     1     -12.154  13.513  70.728  1.00  0.00    -0.351 A  
HETATM   33 CL   UNL     1     -13.025  14.747  73.058  1.00  0.00    -0.564 Cl 
HETATM   34  C   UNL     1     -12.597  12.278  71.220  1.00  0.00    -0.336 A  
ENDBRANCH  12  15
ENDBRANCH  11  12
ENDBRANCH  10  11
ENDBRANCH   5  10
ENDBRANCH   4   5
ENDBRANCH   3   4
ENDBRANCH   2   3
TORSDOF 10
ENDMDL
MODEL       27
REMARK 921   NORMALIZED FREE ENERGY PREDICTED BY IDOCK:   -5.79 KCAL/MOL
REMARK 922        TOTAL FREE ENERGY PREDICTED BY IDOCK:  -11.67 KCAL/MOL
REMARK 923 INTER-LIGAND FREE ENERGY PREDICTED BY IDOCK:  -10.51 KCAL/MOL
REMARK 924 INTRA-LIGAND FREE ENERGY PREDICTED BY IDOCK:   -1.16 KCAL/MOL
REMARK 927      BINDING AFFINITY PREDICTED BY RF-SCORE:    0.00 PKD
ROOT
HETATM    1  C   UNL     1     -10.177  19.772  68.409  1.00  0.00    -0.568 C  
HETATM    2  C   UNL     1     -10.117  20.115  66.928  1.00  0.00    -0.592 C  
ENDROOT
BRANCH   2   3
HETATM    3  C   UNL     1     -10.210  18.844  66.085  1.00  0.00    -0.485 C  
BRANCH   3   4
HETATM    4  C   UNL     1     -10.530  17.584  66.898  1.00  0.00    -0.285 C  
BRANCH   4   5
HETATM    5  N   UNL     1      -9.914  16.297  66.488  1.00  0.00    -0.263 NA 
BRANCH   5   6
HETATM    6  C   UNL     1      -9.463  15.524  67.666  1.00  0.00    -0.208 C  
BRANCH   6   7
HETATM    7  C   UNL     1      -9.731  16.158  69.044  1.00  0.00    -0.248 C  
BRANCH   7   8
HETATM    8  C   UNL     1     -10.659  15.339  69.937  1.00  0.00    -0.291 C  
HETATM    9  C   UNL     1     -12.116  15.724  69.698  1.00  0.00    -0.282 C  
ENDBRANCH   7   8
ENDBRANCH   6   7
ENDBRANCH   5   6
BRANCH   5  10
HETATM   10  C   UNL     1     -10.879  15.501  65.681  1.00  0.00    -0.346 C  
BRANCH  10  11
HETATM   11  C   UNL     1     -10.662  13.999  65.850  1.00  0.00    -0.293 C  
BRANCH  11  12
HETATM   12  C   UNL     1     -11.880  13.250  66.409  1.00  0.00    -0.396 C  
HETATM   13  H   UNL     1     -13.406  12.242  65.690  1.00  0.00     0.000 HD 
HETATM   14  O   UNL     1     -12.651  12.705  65.343  1.00  0.00    -0.641 OA 
BRANCH  12  15
HETATM   15  C   UNL     1     -11.501  12.129  67.380  1.00  0.00    -0.415 A  
HETATM   16  C   UNL     1     -10.757  10.997  66.968  1.00  0.00    -0.319 A  
HETATM   17  C   UNL     1     -10.164  10.925  65.687  1.00  0.00    -0.323 A  
HETATM   18  C   UNL     1      -9.482   9.794  65.243  1.00  0.00    -0.343 A  
HETATM   19  C   UNL     1      -9.364   8.688  66.075  1.00  0.00    -0.284 A  
HETATM   20  C   UNL     1      -8.668   7.432  65.619  1.00  0.00    -0.075 C  
HETATM   21  C   UNL     1      -9.914   8.760  67.367  1.00  0.00    -0.267 A  
HETATM   22  F   UNL     1      -9.494   6.349  65.635  1.00  0.00    -0.075 F  
HETATM   23  C   UNL     1     -10.608   9.897  67.861  1.00  0.00    -0.303 A  
HETATM   24  F   UNL     1      -7.610   7.105  66.411  1.00  0.00    -0.083 F  
HETATM   25  F   UNL     1      -8.177   7.507  64.350  1.00  0.00    -0.144 F  
HETATM   26  C   UNL     1     -11.162   9.959  69.194  1.00  0.00    -0.151 A  
HETATM   27  C   UNL     1     -11.081   8.901  70.138  1.00  0.00    -0.217 A  
HETATM   28  C   UNL     1     -11.639   8.987  71.415  1.00  0.00    -0.326 A  
HETATM   29  C   UNL     1     -12.295  10.133  71.819  1.00  0.00    -0.401 A  
HETATM   30 CL   UNL     1     -11.517   7.654  72.496  1.00  0.00    -0.383 Cl 
HETATM   31  C   UNL     1     -12.390  11.198  70.930  1.00  0.00    -0.399 A  
HETATM   32  C   UNL     1     -11.835  11.128  69.621  1.00  0.00    -0.419 A  
HETATM   33 CL   UNL     1     -13.253  12.595  71.505  1.00  0.00    -0.391 Cl 
HETATM   34  C   UNL     1     -11.958  12.186  68.710  1.00  0.00    -0.292 A  
ENDBRANCH  12  15
ENDBRANCH  11  12
ENDBRANCH  10  11
ENDBRANCH   5  10
ENDBRANCH   4   5
ENDBRANCH   3   4
ENDBRANCH   2   3
TORSDOF 10
ENDMDL
MODEL       28
REMARK 921   NORMALIZED FREE ENERGY PREDICTED BY IDOCK:   -5.78 KCAL/MOL
REMARK 922        TOTAL FREE ENERGY PREDICTED BY IDOCK:  -11.66 KCAL/MOL
REMARK 923 INTER-LIGAND FREE ENERGY PREDICTED BY IDOCK:   -9.26 KCAL/MOL
REMARK 924 INTRA-LIGAND FREE ENERGY PREDICTED BY IDOCK:   -2.40 KCAL/MOL
REMARK 927      BINDING AFFINITY PREDICTED BY RF-SCORE:    0.00 PKD
ROOT
HETATM    1  C   UNL     1     -11.298  15.684  64.614  1.00  0.00    -0.355 C  
HETATM    2  C   UNL     1     -10.144  15.509  65.591  1.00  0.00    -0.406 C  
ENDROOT
BRANCH   2   3
HETATM    3  C   UNL     1      -9.721  16.863  66.158  1.00  0.00    -0.296 C  
BRANCH   3   4
HETATM    4  C   UNL     1      -9.185  16.792  67.593  1.00  0.00    -0.223 C  
BRANCH   4   5
HETATM    5  N   UNL     1      -9.490  15.588  68.407  1.00  0.00    -0.193 NA 
BRANCH   5   6
HETATM    6  C   UNL     1      -8.359  15.249  69.298  1.00  0.00    -0.243 C  
BRANCH   6   7
HETATM    7  C   UNL     1      -7.401  14.150  68.801  1.00  0.00    -0.128 C  
BRANCH   7   8
HETATM    8  C   UNL     1      -7.931  13.352  67.612  1.00  0.00    -0.174 C  
HETATM    9  C   UNL     1      -6.943  12.261  67.211  1.00  0.00    -0.142 C  
ENDBRANCH   7   8
ENDBRANCH   6   7
ENDBRANCH   5   6
BRANCH   5  10
HETATM   10  C   UNL     1     -10.730  15.806  69.200  1.00  0.00    -0.246 C  
BRANCH  10  11
HETATM   11  C   UNL     1     -11.293  14.498  69.753  1.00  0.00    -0.305 C  
BRANCH  11  12
HETATM   12  C   UNL     1     -12.265  13.784  68.803  1.00  0.00    -0.186 C  
HETATM   13  H   UNL     1     -13.135  14.161  67.082  1.00  0.00     0.000 HD 
HETATM   14  O   UNL     1     -12.533  14.603  67.670  1.00  0.00    -0.042 OA 
BRANCH  12  15
HETATM   15  C   UNL     1     -11.752  12.422  68.331  1.00  0.00    -0.386 A  
HETATM   16  C   UNL     1     -11.668  11.308  69.200  1.00  0.00    -0.410 A  
HETATM   17  C   UNL     1     -12.227  11.336  70.498  1.00  0.00    -0.474 A  
HETATM   18  C   UNL     1     -12.100  10.271  71.388  1.00  0.00    -0.457 A  
HETATM   19  C   UNL     1     -11.409   9.130  71.004  1.00  0.00    -0.377 A  
HETATM   20  C   UNL     1     -11.216   7.972  71.949  1.00  0.00    -0.280 C  
HETATM   21  C   UNL     1     -10.883   9.070  69.702  1.00  0.00    -0.196 A  
HETATM   22  F   UNL     1      -9.900   7.713  72.187  1.00  0.00    -0.182 F  
HETATM   23  C   UNL     1     -10.998  10.130  68.762  1.00  0.00    -0.264 A  
HETATM   24  F   UNL     1     -11.742   6.812  71.468  1.00  0.00    -0.289 F  
HETATM   25  F   UNL     1     -11.785   8.163  73.172  1.00  0.00    -0.431 F  
HETATM   26  C   UNL     1     -10.458  10.052  67.423  1.00  0.00    -0.316 A  
HETATM   27  C   UNL     1      -9.756   8.928  66.914  1.00  0.00    -0.263 A  
HETATM   28  C   UNL     1      -9.234   8.889  65.619  1.00  0.00    -0.204 A  
HETATM   29  C   UNL     1      -9.395   9.962  64.766  1.00  0.00    -0.339 A  
HETATM   30 CL   UNL     1      -8.376   7.498  65.082  1.00  0.00    -0.123 Cl 
HETATM   31  C   UNL     1     -10.084  11.081  65.219  1.00  0.00    -0.275 A  
HETATM   32  C   UNL     1     -10.618  11.144  66.538  1.00  0.00    -0.314 A  
HETATM   33 CL   UNL     1     -10.222  12.400  64.093  1.00  0.00    -0.375 Cl 
HETATM   34  C   UNL     1     -11.284  12.283  67.011  1.00  0.00    -0.367 A  
ENDBRANCH  12  15
ENDBRANCH  11  12
ENDBRANCH  10  11
ENDBRANCH   5  10
ENDBRANCH   4   5
ENDBRANCH   3   4
ENDBRANCH   2   3
TORSDOF 10
ENDMDL
MODEL       29
REMARK 921   NORMALIZED FREE ENERGY PREDICTED BY IDOCK:   -5.77 KCAL/MOL
REMARK 922        TOTAL FREE ENERGY PREDICTED BY IDOCK:  -11.64 KCAL/MOL
REMARK 923 INTER-LIGAND FREE ENERGY PREDICTED BY IDOCK:  -11.21 KCAL/MOL
REMARK 924 INTRA-LIGAND FREE ENERGY PREDICTED BY IDOCK:   -0.43 KCAL/MOL
REMARK 927      BINDING AFFINITY PREDICTED BY RF-SCORE:    0.00 PKD
ROOT
HETATM    1  C   UNL     1     -13.093  15.792  72.635  1.00  0.00    -0.579 C  
HETATM    2  C   UNL     1     -11.845  16.089  71.817  1.00  0.00    -0.599 C  
ENDROOT
BRANCH   2   3
HETATM    3  C   UNL     1     -12.112  15.840  70.333  1.00  0.00    -0.399 C  
BRANCH   3   4
HETATM    4  C   UNL     1     -10.852  15.892  69.461  1.00  0.00    -0.305 C  
BRANCH   4   5
HETATM    5  N   UNL     1     -10.960  16.448  68.089  1.00  0.00    -0.347 NA 
BRANCH   5   6
HETATM    6  C   UNL     1      -9.970  17.525  67.872  1.00  0.00    -0.312 C  
BRANCH   6   7
HETATM    7  C   UNL     1     -10.012  18.704  68.864  1.00  0.00    -0.399 C  
BRANCH   7   8
HETATM    8  C   UNL     1     -10.151  20.072  68.200  1.00  0.00    -0.547 C  
HETATM    9  C   UNL     1     -10.140  19.937  66.680  1.00  0.00    -0.598 C  
ENDBRANCH   7   8
ENDBRANCH   6   7
ENDBRANCH   5   6
BRANCH   5  10
HETATM   10  C   UNL     1     -10.782  15.368  67.081  1.00  0.00    -0.314 C  
BRANCH  10  11
HETATM   11  C   UNL     1     -11.964  14.401  67.064  1.00  0.00    -0.424 C  
BRANCH  11  12
HETATM   12  C   UNL     1     -11.666  13.060  66.379  1.00  0.00    -0.390 C  
HETATM   13  H   UNL     1     -10.394  12.374  65.047  1.00  0.00     0.000 HD 
HETATM   14  O   UNL     1     -10.579  13.205  65.471  1.00  0.00    -0.278 OA 
BRANCH  12  15
HETATM   15  C   UNL     1     -11.348  11.938  67.370  1.00  0.00    -0.389 A  
HETATM   16  C   UNL     1     -10.653  10.768  66.982  1.00  0.00    -0.312 A  
HETATM   17  C   UNL     1     -10.050  10.650  65.709  1.00  0.00    -0.327 A  
HETATM   18  C   UNL     1      -9.416   9.482  65.289  1.00  0.00    -0.326 A  
HETATM   19  C   UNL     1      -9.357   8.385  66.138  1.00  0.00    -0.267 A  
HETATM   20  C   UNL     1      -8.714   7.092  65.707  1.00  0.00    -0.100 C  
HETATM   21  C   UNL     1      -9.916   8.500  67.422  1.00  0.00    -0.275 A  
HETATM   22  F   UNL     1      -9.589   6.048  65.730  1.00  0.00    -0.133 F  
HETATM   23  C   UNL     1     -10.564   9.675  67.892  1.00  0.00    -0.308 A  
HETATM   24  F   UNL     1      -7.681   6.729  66.516  1.00  0.00    -0.092 F  
HETATM   25  F   UNL     1      -8.207   7.126  64.443  1.00  0.00    -0.131 F  
HETATM   26  C   UNL     1     -11.128   9.782  69.219  1.00  0.00    -0.184 A  
HETATM   27  C   UNL     1     -11.105   8.735  70.178  1.00  0.00    -0.214 A  
HETATM   28  C   UNL     1     -11.672   8.865  71.447  1.00  0.00    -0.315 A  
HETATM   29  C   UNL     1     -12.279  10.044  71.827  1.00  0.00    -0.383 A  
HETATM   30 CL   UNL     1     -11.623   7.543  72.548  1.00  0.00    -0.353 Cl 
HETATM   31  C   UNL     1     -12.317  11.100  70.922  1.00  0.00    -0.399 A  
HETATM   32  C   UNL     1     -11.752  10.986  69.621  1.00  0.00    -0.401 A  
HETATM   33 CL   UNL     1     -13.122  12.543  71.468  1.00  0.00    -0.441 Cl 
HETATM   34  C   UNL     1     -11.817  12.034  68.694  1.00  0.00    -0.366 A  
ENDBRANCH  12  15
ENDBRANCH  11  12
ENDBRANCH  10  11
ENDBRANCH   5  10
ENDBRANCH   4   5
ENDBRANCH   3   4
ENDBRANCH   2   3
TORSDOF 10
ENDMDL
MODEL       30
REMARK 921   NORMALIZED FREE ENERGY PREDICTED BY IDOCK:   -5.64 KCAL/MOL
REMARK 922        TOTAL FREE ENERGY PREDICTED BY IDOCK:  -11.43 KCAL/MOL
REMARK 923 INTER-LIGAND FREE ENERGY PREDICTED BY IDOCK:   -9.87 KCAL/MOL
REMARK 924 INTRA-LIGAND FREE ENERGY PREDICTED BY IDOCK:   -1.56 KCAL/MOL
REMARK 927      BINDING AFFINITY PREDICTED BY RF-SCORE:    0.00 PKD
ROOT
HETATM    1  C   UNL     1     -12.333  12.339  63.800  1.00  0.00    -0.637 C  
HETATM    2  C   UNL     1     -11.309  13.452  63.968  1.00  0.00    -0.356 C  
ENDROOT
BRANCH   2   3
HETATM    3  C   UNL     1     -11.970  14.698  64.554  1.00  0.00    -0.473 C  
BRANCH   3   4
HETATM    4  C   UNL     1     -10.997  15.857  64.799  1.00  0.00    -0.375 C  
BRANCH   4   5
HETATM    5  N   UNL     1     -10.156  15.833  66.022  1.00  0.00    -0.312 NA 
BRANCH   5   6
HETATM    6  C   UNL     1      -9.638  17.182  66.338  1.00  0.00    -0.278 C  
BRANCH   6   7
HETATM    7  C   UNL     1     -10.232  17.871  67.581  1.00  0.00    -0.369 C  
BRANCH   7   8
HETATM    8  C   UNL     1     -10.354  19.388  67.456  1.00  0.00    -0.556 C  
HETATM    9  C   UNL     1      -9.729  19.872  66.150  1.00  0.00    -0.527 C  
ENDBRANCH   7   8
ENDBRANCH   6   7
ENDBRANCH   5   6
BRANCH   5  10
HETATM   10  C   UNL     1     -10.935  15.294  67.171  1.00  0.00    -0.331 C  
BRANCH  10  11
HETATM   11  C   UNL     1     -10.363  13.973  67.681  1.00  0.00    -0.242 C  
BRANCH  11  12
HETATM   12  C   UNL     1     -11.426  12.961  68.128  1.00  0.00    -0.315 C  
HETATM   13  H   UNL     1     -13.312  12.582  67.728  1.00  0.00     0.000 HD 
HETATM   14  O   UNL     1     -12.654  13.209  67.450  1.00  0.00    -0.030 OA 
BRANCH  12  15
HETATM   15  C   UNL     1     -11.007  11.508  67.896  1.00  0.00    -0.287 A  
HETATM   16  C   UNL     1     -11.142  10.518  68.898  1.00  0.00    -0.312 A  
HETATM   17  C   UNL     1     -11.841  10.769  70.100  1.00  0.00    -0.427 A  
HETATM   18  C   UNL     1     -11.929   9.826  71.123  1.00  0.00    -0.463 A  
HETATM   19  C   UNL     1     -11.322   8.587  70.973  1.00  0.00    -0.313 A  
HETATM   20  C   UNL     1     -11.362   7.554  72.070  1.00  0.00    -0.273 C  
HETATM   21  C   UNL     1     -10.658   8.307  69.767  1.00  0.00    -0.228 A  
HETATM   22  F   UNL     1     -10.117   7.214  72.505  1.00  0.00    -0.182 F  
HETATM   23  C   UNL     1     -10.552   9.236  68.697  1.00  0.00    -0.219 A  
HETATM   24  F   UNL     1     -11.948   6.392  71.671  1.00  0.00    -0.340 F  
HETATM   25  F   UNL     1     -12.046   7.957  73.178  1.00  0.00    -0.243 F  
HETATM   26  C   UNL     1      -9.872   8.932  67.458  1.00  0.00    -0.237 A  
HETATM   27  C   UNL     1      -9.237   7.691  67.185  1.00  0.00    -0.158 A  
HETATM   28  C   UNL     1      -8.576   7.433  65.982  1.00  0.00    -0.151 A  
HETATM   29  C   UNL     1      -8.524   8.391  64.991  1.00  0.00    -0.160 A  
HETATM   30 CL   UNL     1      -7.812   5.911  65.734  1.00  0.00    -0.099 Cl 
HETATM   31  C   UNL     1      -9.140   9.618  65.212  1.00  0.00    -0.218 A  
HETATM   32  C   UNL     1      -9.813   9.904  66.433  1.00  0.00    -0.288 A  
HETATM   33 CL   UNL     1      -9.007  10.780  63.924  1.00  0.00    -0.184 Cl 
HETATM   34  C   UNL     1     -10.406  11.151  66.674  1.00  0.00    -0.286 A  
ENDBRANCH  12  15
ENDBRANCH  11  12
ENDBRANCH  10  11
ENDBRANCH   5  10
ENDBRANCH   4   5
ENDBRANCH   3   4
ENDBRANCH   2   3
TORSDOF 10
ENDMDL
MODEL       31
REMARK 921   NORMALIZED FREE ENERGY PREDICTED BY IDOCK:   -5.64 KCAL/MOL
REMARK 922        TOTAL FREE ENERGY PREDICTED BY IDOCK:  -11.43 KCAL/MOL
REMARK 923 INTER-LIGAND FREE ENERGY PREDICTED BY IDOCK:  -11.01 KCAL/MOL
REMARK 924 INTRA-LIGAND FREE ENERGY PREDICTED BY IDOCK:   -0.42 KCAL/MOL
REMARK 927      BINDING AFFINITY PREDICTED BY RF-SCORE:    0.00 PKD
ROOT
HETATM    1  C   UNL     1      -9.518  20.119  66.809  1.00  0.00    -0.533 C  
HETATM    2  C   UNL     1     -10.767  19.312  67.133  1.00  0.00    -0.584 C  
ENDROOT
BRANCH   2   3
HETATM    3  C   UNL     1     -10.420  17.831  67.273  1.00  0.00    -0.356 C  
BRANCH   3   4
HETATM    4  C   UNL     1     -10.533  17.301  68.707  1.00  0.00    -0.340 C  
BRANCH   4   5
HETATM    5  N   UNL     1     -10.763  15.849  68.912  1.00  0.00    -0.238 NA 
BRANCH   5   6
HETATM    6  C   UNL     1     -12.021  15.609  69.653  1.00  0.00    -0.349 C  
BRANCH   6   7
HETATM    7  C   UNL     1     -11.885  15.345  71.165  1.00  0.00    -0.422 C  
BRANCH   7   8
HETATM    8  C   UNL     1     -13.156  15.627  71.963  1.00  0.00    -0.541 C  
HETATM    9  C   UNL     1     -12.819  15.954  73.415  1.00  0.00    -0.688 C  
ENDBRANCH   7   8
ENDBRANCH   6   7
ENDBRANCH   5   6
BRANCH   5  10
HETATM   10  C   UNL     1     -10.789  15.143  67.602  1.00  0.00    -0.295 C  
BRANCH  10  11
HETATM   11  C   UNL     1     -12.022  14.253  67.455  1.00  0.00    -0.411 C  
BRANCH  11  12
HETATM   12  C   UNL     1     -11.763  12.946  66.694  1.00  0.00    -0.390 C  
HETATM   13  H   UNL     1     -10.575  12.327  65.256  1.00  0.00     0.000 HD 
HETATM   14  O   UNL     1     -10.735  13.137  65.728  1.00  0.00    -0.273 OA 
BRANCH  12  15
HETATM   15  C   UNL     1     -11.381  11.782  67.612  1.00  0.00    -0.370 A  
HETATM   16  C   UNL     1     -10.616  10.683  67.153  1.00  0.00    -0.312 A  
HETATM   17  C   UNL     1     -10.004  10.685  65.879  1.00  0.00    -0.312 A  
HETATM   18  C   UNL     1      -9.301   9.587  65.387  1.00  0.00    -0.324 A  
HETATM   19  C   UNL     1      -9.179   8.442  66.164  1.00  0.00    -0.263 A  
HETATM   20  C   UNL     1      -8.459   7.220  65.654  1.00  0.00    -0.131 C  
HETATM   21  C   UNL     1      -9.747   8.439  67.449  1.00  0.00    -0.222 A  
HETATM   22  F   UNL     1      -9.270   6.127  65.603  1.00  0.00    -0.157 F  
HETATM   23  C   UNL     1     -10.464   9.540  67.991  1.00  0.00    -0.279 A  
HETATM   24  F   UNL     1      -7.407   6.867  66.444  1.00  0.00    -0.067 F  
HETATM   25  F   UNL     1      -7.952   7.366  64.398  1.00  0.00    -0.119 F  
HETATM   26  C   UNL     1     -11.037   9.527  69.318  1.00  0.00    -0.109 A  
HETATM   27  C   UNL     1     -10.953   8.423  70.207  1.00  0.00    -0.236 A  
HETATM   28  C   UNL     1     -11.530   8.436  71.479  1.00  0.00    -0.278 A  
HETATM   29  C   UNL     1     -12.207   9.550  71.931  1.00  0.00    -0.432 A  
HETATM   30 CL   UNL     1     -11.404   7.051  72.492  1.00  0.00    -0.301 Cl 
HETATM   31  C   UNL     1     -12.306  10.658  71.096  1.00  0.00    -0.400 A  
HETATM   32  C   UNL     1     -11.732  10.663  69.794  1.00  0.00    -0.385 A  
HETATM   33 CL   UNL     1     -13.197  12.012  71.729  1.00  0.00    -0.510 Cl 
HETATM   34  C   UNL     1     -11.857  11.764  68.936  1.00  0.00    -0.381 A  
ENDBRANCH  12  15
ENDBRANCH  11  12
ENDBRANCH  10  11
ENDBRANCH   5  10
ENDBRANCH   4   5
ENDBRANCH   3   4
ENDBRANCH   2   3
TORSDOF 10
ENDMDL
MODEL       32
REMARK 921   NORMALIZED FREE ENERGY PREDICTED BY IDOCK:   -5.61 KCAL/MOL
REMARK 922        TOTAL FREE ENERGY PREDICTED BY IDOCK:  -11.39 KCAL/MOL
REMARK 923 INTER-LIGAND FREE ENERGY PREDICTED BY IDOCK:   -8.07 KCAL/MOL
REMARK 924 INTRA-LIGAND FREE ENERGY PREDICTED BY IDOCK:   -3.33 KCAL/MOL
REMARK 927      BINDING AFFINITY PREDICTED BY RF-SCORE:    0.00 PKD
ROOT
HETATM    1  C   UNL     1      -7.701   8.939  71.568  1.00  0.00    -0.097 C  
HETATM    2  C   UNL     1      -7.215   9.447  70.219  1.00  0.00    -0.104 C  
ENDROOT
BRANCH   2   3
HETATM    3  C   UNL     1      -6.786   8.277  69.335  1.00  0.00    -0.043 C  
BRANCH   3   4
HETATM    4  C   UNL     1      -5.808   8.669  68.222  1.00  0.00    -0.042 C  
BRANCH   4   5
HETATM    5  N   UNL     1      -6.279   9.582  67.150  1.00  0.00    -0.063 NA 
BRANCH   5   6
HETATM    6  C   UNL     1      -5.466  10.817  67.108  1.00  0.00    -0.044 C  
BRANCH   6   7
HETATM    7  C   UNL     1      -6.231  12.146  67.249  1.00  0.00    -0.152 C  
BRANCH   7   8
HETATM    8  C   UNL     1      -7.713  11.981  67.572  1.00  0.00    -0.155 C  
HETATM    9  C   UNL     1      -8.406  13.340  67.636  1.00  0.00    -0.181 C  
ENDBRANCH   7   8
ENDBRANCH   6   7
ENDBRANCH   5   6
BRANCH   5  10
HETATM   10  C   UNL     1      -6.243   8.890  65.833  1.00  0.00    -0.056 C  
BRANCH  10  11
HETATM   11  C   UNL     1      -7.329   9.400  64.888  1.00  0.00    -0.106 C  
BRANCH  11  12
HETATM   12  C   UNL     1      -8.640   8.605  64.956  1.00  0.00    -0.158 C  
HETATM   13  H   UNL     1      -9.183   6.746  65.290  1.00  0.00     0.000 HD 
HETATM   14  O   UNL     1      -8.370   7.238  65.248  1.00  0.00    -0.142 OA 
BRANCH  12  15
HETATM   15  C   UNL     1      -9.624   9.157  65.991  1.00  0.00    -0.342 A  
HETATM   16  C   UNL     1     -10.292  10.392  65.809  1.00  0.00    -0.257 A  
HETATM   17  C   UNL     1     -10.234  11.093  64.583  1.00  0.00    -0.376 A  
HETATM   18  C   UNL     1     -10.833  12.339  64.407  1.00  0.00    -0.370 A  
HETATM   19  C   UNL     1     -11.523  12.927  65.459  1.00  0.00    -0.361 A  
HETATM   20  C   UNL     1     -12.153  14.290  65.321  1.00  0.00    -0.400 C  
HETATM   21  C   UNL     1     -11.624  12.224  66.671  1.00  0.00    -0.438 A  
HETATM   22  F   UNL     1     -11.644  15.186  66.212  1.00  0.00    -0.324 F  
HETATM   23  C   UNL     1     -11.035  10.949  66.889  1.00  0.00    -0.286 A  
HETATM   24  F   UNL     1     -13.496  14.267  65.542  1.00  0.00    -0.467 F  
HETATM   25  F   UNL     1     -11.984  14.850  64.091  1.00  0.00    -0.429 F  
HETATM   26  C   UNL     1     -11.154  10.233  68.139  1.00  0.00    -0.324 A  
HETATM   27  C   UNL     1     -11.854  10.726  69.272  1.00  0.00    -0.359 A  
HETATM   28  C   UNL     1     -11.938  10.015  70.472  1.00  0.00    -0.272 A  
HETATM   29  C   UNL     1     -11.340   8.778  70.598  1.00  0.00    -0.289 A  
HETATM   30 CL   UNL     1     -12.788  10.688  71.808  1.00  0.00    -0.563 Cl 
HETATM   31  C   UNL     1     -10.651   8.253  69.510  1.00  0.00    -0.213 A  
HETATM   32  C   UNL     1     -10.547   8.964  68.281  1.00  0.00    -0.203 A  
HETATM   33 CL   UNL     1      -9.904   6.701  69.758  1.00  0.00    -0.170 Cl 
HETATM   34  C   UNL     1      -9.825   8.454  67.193  1.00  0.00    -0.279 A  
ENDBRANCH  12  15
ENDBRANCH  11  12
ENDBRANCH  10  11
ENDBRANCH   5  10
ENDBRANCH   4   5
ENDBRANCH   3   4
ENDBRANCH   2   3
TORSDOF 10
ENDMDL
MODEL       33
REMARK 921   NORMALIZED FREE ENERGY PREDICTED BY IDOCK:   -5.55 KCAL/MOL
REMARK 922        TOTAL FREE ENERGY PREDICTED BY IDOCK:  -11.29 KCAL/MOL
REMARK 923 INTER-LIGAND FREE ENERGY PREDICTED BY IDOCK:  -10.00 KCAL/MOL
REMARK 924 INTRA-LIGAND FREE ENERGY PREDICTED BY IDOCK:   -1.29 KCAL/MOL
REMARK 927      BINDING AFFINITY PREDICTED BY RF-SCORE:    0.00 PKD
ROOT
HETATM    1  C   UNL     1      -9.483  19.602  69.198  1.00  0.00    -0.264 C  
HETATM    2  C   UNL     1     -10.276  20.137  68.014  1.00  0.00    -0.493 C  
ENDROOT
BRANCH   2   3
HETATM    3  C   UNL     1     -10.981  18.993  67.288  1.00  0.00    -0.365 C  
BRANCH   3   4
HETATM    4  C   UNL     1     -10.233  18.494  66.046  1.00  0.00    -0.345 C  
BRANCH   4   5
HETATM    5  N   UNL     1      -9.529  17.189  66.117  1.00  0.00    -0.441 NA 
BRANCH   5   6
HETATM    6  C   UNL     1      -8.076  17.378  66.316  1.00  0.00    -0.263 C  
BRANCH   6   7
HETATM    7  C   UNL     1      -7.504  18.754  65.923  1.00  0.00    -0.233 C  
BRANCH   7   8
HETATM    8  C   UNL     1      -6.514  19.329  66.933  1.00  0.00    -0.197 C  
HETATM    9  C   UNL     1      -6.532  20.855  66.897  1.00  0.00    -0.370 C  
ENDBRANCH   7   8
ENDBRANCH   6   7
ENDBRANCH   5   6
BRANCH   5  10
HETATM   10  C   UNL     1     -10.100  16.356  67.211  1.00  0.00    -0.270 C  
BRANCH  10  11
HETATM   11  C   UNL     1     -10.939  15.200  66.672  1.00  0.00    -0.318 C  
BRANCH  11  12
HETATM   12  C   UNL     1     -10.171  13.877  66.540  1.00  0.00    -0.280 C  
HETATM   13  H   UNL     1      -8.294  13.297  66.532  1.00  0.00     0.000 HD 
HETATM   14  O   UNL     1      -8.769  14.116  66.614  1.00  0.00    -0.169 OA 
BRANCH  12  15
HETATM   15  C   UNL     1     -10.563  12.847  67.602  1.00  0.00    -0.232 A  
HETATM   16  C   UNL     1     -10.363  11.459  67.412  1.00  0.00    -0.232 A  
HETATM   17  C   UNL     1      -9.621  10.959  66.317  1.00  0.00    -0.234 A  
HETATM   18  C   UNL     1      -9.468   9.594  66.081  1.00  0.00    -0.274 A  
HETATM   19  C   UNL     1     -10.050   8.675  66.944  1.00  0.00    -0.355 A  
HETATM   20  C   UNL     1      -9.939   7.191  66.703  1.00  0.00    -0.164 C  
HETATM   21  C   UNL     1     -10.756   9.156  68.060  1.00  0.00    -0.205 A  
HETATM   22  F   UNL     1     -11.157   6.602  66.544  1.00  0.00    -0.363 F  
HETATM   23  C   UNL     1     -10.928  10.538  68.341  1.00  0.00    -0.310 A  
HETATM   24  F   UNL     1      -9.342   6.538  67.737  1.00  0.00    -0.122 F  
HETATM   25  F   UNL     1      -9.221   6.869  65.591  1.00  0.00    -0.115 F  
HETATM   26  C   UNL     1     -11.650  11.020  69.497  1.00  0.00    -0.384 A  
HETATM   27  C   UNL     1     -12.265  10.173  70.458  1.00  0.00    -0.352 A  
HETATM   28  C   UNL     1     -12.968  10.670  71.557  1.00  0.00    -0.461 A  
HETATM   29  C   UNL     1     -13.085  12.030  71.760  1.00  0.00    -0.460 A  
HETATM   30 CL   UNL     1     -13.703   9.580  72.668  1.00  0.00    -0.370 Cl 
HETATM   31  C   UNL     1     -12.490  12.896  70.849  1.00  0.00    -0.296 A  
HETATM   32  C   UNL     1     -11.776  12.411  69.717  1.00  0.00    -0.361 A  
HETATM   33 CL   UNL     1     -12.705  14.595  71.160  1.00  0.00    -0.384 Cl 
HETATM   34  C   UNL     1     -11.204  13.280  68.778  1.00  0.00    -0.317 A  
ENDBRANCH  12  15
ENDBRANCH  11  12
ENDBRANCH  10  11
ENDBRANCH   5  10
ENDBRANCH   4   5
ENDBRANCH   3   4
ENDBRANCH   2   3
TORSDOF 10
ENDMDL
MODEL       34
REMARK 921   NORMALIZED FREE ENERGY PREDICTED BY IDOCK:   -5.50 KCAL/MOL
REMARK 922        TOTAL FREE ENERGY PREDICTED BY IDOCK:  -11.20 KCAL/MOL
REMARK 923 INTER-LIGAND FREE ENERGY PREDICTED BY IDOCK:   -9.69 KCAL/MOL
REMARK 924 INTRA-LIGAND FREE ENERGY PREDICTED BY IDOCK:   -1.52 KCAL/MOL
REMARK 927      BINDING AFFINITY PREDICTED BY RF-SCORE:    0.00 PKD
ROOT
HETATM    1  C   UNL     1      -9.314   9.282  70.453  1.00  0.00    -0.295 C  
HETATM    2  C   UNL     1      -9.114   9.326  68.946  1.00  0.00    -0.139 C  
ENDROOT
BRANCH   2   3
HETATM    3  C   UNL     1     -10.398   8.916  68.228  1.00  0.00    -0.250 C  
BRANCH   3   4
HETATM    4  C   UNL     1     -10.213   8.657  66.728  1.00  0.00    -0.291 C  
BRANCH   4   5
HETATM    5  N   UNL     1      -9.401   9.615  65.936  1.00  0.00    -0.199 NA 
BRANCH   5   6
HETATM    6  C   UNL     1      -8.583   8.910  64.926  1.00  0.00    -0.172 C  
BRANCH   6   7
HETATM    7  C   UNL     1      -7.120   9.374  64.784  1.00  0.00    -0.102 C  
BRANCH   7   8
HETATM    8  C   UNL     1      -6.371   9.488  66.109  1.00  0.00    -0.069 C  
HETATM    9  C   UNL     1      -6.346   8.145  66.832  1.00  0.00    -0.056 C  
ENDBRANCH   7   8
ENDBRANCH   6   7
ENDBRANCH   5   6
BRANCH   5  10
HETATM   10  C   UNL     1     -10.285  10.618  65.282  1.00  0.00    -0.282 C  
BRANCH  10  11
HETATM   11  C   UNL     1      -9.796  12.046  65.509  1.00  0.00    -0.251 C  
BRANCH  11  12
HETATM   12  C   UNL     1      -9.260  12.307  66.923  1.00  0.00    -0.209 C  
HETATM   13  H   UNL     1      -7.639  13.069  67.732  1.00  0.00     0.000 HD 
HETATM   14  O   UNL     1      -7.971  12.908  66.856  1.00  0.00    -0.071 OA 
BRANCH  12  15
HETATM   15  C   UNL     1     -10.185  13.192  67.762  1.00  0.00    -0.231 A  
HETATM   16  C   UNL     1     -10.223  14.598  67.608  1.00  0.00    -0.232 A  
HETATM   17  C   UNL     1      -9.549  15.247  66.547  1.00  0.00    -0.294 A  
HETATM   18  C   UNL     1      -9.524  16.634  66.417  1.00  0.00    -0.305 A  
HETATM   19  C   UNL     1     -10.183  17.426  67.348  1.00  0.00    -0.326 A  
HETATM   20  C   UNL     1     -10.149  18.931  67.264  1.00  0.00    -0.357 C  
HETATM   21  C   UNL     1     -10.891  16.795  68.385  1.00  0.00    -0.355 A  
HETATM   22  F   UNL     1      -9.593  19.497  68.371  1.00  0.00    -0.371 F  
HETATM   23  C   UNL     1     -10.949  15.385  68.548  1.00  0.00    -0.278 A  
HETATM   24  F   UNL     1     -11.391  19.475  67.151  1.00  0.00    -0.540 F  
HETATM   25  F   UNL     1      -9.434  19.405  66.205  1.00  0.00    -0.340 F  
HETATM   26  C   UNL     1     -11.687  14.748  69.615  1.00  0.00    -0.354 A  
HETATM   27  C   UNL     1     -12.417  15.456  70.607  1.00  0.00    -0.478 A  
HETATM   28  C   UNL     1     -13.109  14.811  71.635  1.00  0.00    -0.337 A  
HETATM   29  C   UNL     1     -13.118  13.434  71.719  1.00  0.00    -0.479 A  
HETATM   30 CL   UNL     1     -13.953  15.739  72.813  1.00  0.00    -0.634 Cl 
HETATM   31  C   UNL     1     -12.425  12.700  70.762  1.00  0.00    -0.270 A  
HETATM   32  C   UNL     1     -11.706  13.337  69.711  1.00  0.00    -0.354 A  
HETATM   33 CL   UNL     1     -12.464  10.971  70.952  1.00  0.00    -0.477 Cl 
HETATM   34  C   UNL     1     -10.978  12.604  68.765  1.00  0.00    -0.289 A  
ENDBRANCH  12  15
ENDBRANCH  11  12
ENDBRANCH  10  11
ENDBRANCH   5  10
ENDBRANCH   4   5
ENDBRANCH   3   4
ENDBRANCH   2   3
TORSDOF 10
ENDMDL
MODEL       35
REMARK 921   NORMALIZED FREE ENERGY PREDICTED BY IDOCK:   -5.46 KCAL/MOL
REMARK 922        TOTAL FREE ENERGY PREDICTED BY IDOCK:  -11.15 KCAL/MOL
REMARK 923 INTER-LIGAND FREE ENERGY PREDICTED BY IDOCK:   -9.62 KCAL/MOL
REMARK 924 INTRA-LIGAND FREE ENERGY PREDICTED BY IDOCK:   -1.53 KCAL/MOL
REMARK 927      BINDING AFFINITY PREDICTED BY RF-SCORE:    0.00 PKD
ROOT
HETATM    1  C   UNL     1     -11.944  14.439  67.269  1.00  0.00    -0.409 C  
HETATM    2  C   UNL     1     -11.481  15.175  68.517  1.00  0.00    -0.335 C  
ENDROOT
BRANCH   2   3
HETATM    3  C   UNL     1     -11.308  14.195  69.676  1.00  0.00    -0.289 C  
BRANCH   3   4
HETATM    4  C   UNL     1     -12.552  13.342  69.956  1.00  0.00     0.010 C  
BRANCH   4   5
HETATM    5  N   UNL     1     -12.457  12.257  70.965  1.00  0.00    -0.336 NA 
BRANCH   5   6
HETATM    6  C   UNL     1     -13.295  12.555  72.146  1.00  0.00    -0.435 C  
BRANCH   6   7
HETATM    7  C   UNL     1     -13.705  14.028  72.342  1.00  0.00    -0.669 C  
BRANCH   7   8
HETATM    8  C   UNL     1     -12.825  14.795  73.325  1.00  0.00    -0.621 C  
HETATM    9  C   UNL     1     -12.249  16.047  72.671  1.00  0.00    -0.619 C  
ENDBRANCH   7   8
ENDBRANCH   6   7
ENDBRANCH   5   6
BRANCH   5  10
HETATM   10  C   UNL     1     -12.856  10.957  70.359  1.00  0.00    -0.184 C  
BRANCH  10  11
HETATM   11  C   UNL     1     -12.201   9.772  71.065  1.00  0.00    -0.436 C  
BRANCH  11  12
HETATM   12  C   UNL     1     -10.683   9.681  70.857  1.00  0.00    -0.332 C  
HETATM   13  H   UNL     1      -9.127   9.034  71.868  1.00  0.00     0.000 HD 
HETATM   14  O   UNL     1     -10.067   9.090  71.997  1.00  0.00    -0.327 OA 
BRANCH  12  15
HETATM   15  C   UNL     1     -10.295   8.887  69.607  1.00  0.00    -0.214 A  
HETATM   16  C   UNL     1     -10.173   9.498  68.337  1.00  0.00    -0.221 A  
HETATM   17  C   UNL     1     -10.217  10.903  68.182  1.00  0.00    -0.197 A  
HETATM   18  C   UNL     1     -10.161  11.517  66.932  1.00  0.00    -0.241 A  
HETATM   19  C   UNL     1     -10.051  10.742  65.786  1.00  0.00    -0.320 A  
HETATM   20  C   UNL     1     -10.025  11.366  64.414  1.00  0.00    -0.274 C  
HETATM   21  C   UNL     1      -9.964   9.346  65.926  1.00  0.00    -0.327 A  
HETATM   22  F   UNL     1     -11.056  10.938  63.633  1.00  0.00    -0.370 F  
HETATM   23  C   UNL     1     -10.009   8.681  67.181  1.00  0.00    -0.297 A  
HETATM   24  F   UNL     1      -8.888  11.067  63.727  1.00  0.00    -0.177 F  
HETATM   25  F   UNL     1     -10.108  12.725  64.429  1.00  0.00    -0.327 F  
HETATM   26  C   UNL     1      -9.912   7.244  67.311  1.00  0.00    -0.251 A  
HETATM   27  C   UNL     1      -9.772   6.355  66.213  1.00  0.00    -0.082 A  
HETATM   28  C   UNL     1      -9.695   4.970  66.371  1.00  0.00    -0.182 A  
HETATM   29  C   UNL     1      -9.741   4.404  67.629  1.00  0.00    -0.198 A  
HETATM   30 CL   UNL     1      -9.547   3.956  64.988  1.00  0.00    -0.170 Cl 
HETATM   31  C   UNL     1      -9.868   5.238  68.734  1.00  0.00    -0.161 A  
HETATM   32  C   UNL     1      -9.956   6.651  68.595  1.00  0.00    -0.151 A  
HETATM   33 CL   UNL     1      -9.945   4.445  70.281  1.00  0.00    -0.283 Cl 
HETATM   34  C   UNL     1     -10.119   7.494  69.703  1.00  0.00    -0.189 A  
ENDBRANCH  12  15
ENDBRANCH  11  12
ENDBRANCH  10  11
ENDBRANCH   5  10
ENDBRANCH   4   5
ENDBRANCH   3   4
ENDBRANCH   2   3
TORSDOF 10
ENDMDL
MODEL       36
REMARK 921   NORMALIZED FREE ENERGY PREDICTED BY IDOCK:   -5.42 KCAL/MOL
REMARK 922        TOTAL FREE ENERGY PREDICTED BY IDOCK:  -11.08 KCAL/MOL
REMARK 923 INTER-LIGAND FREE ENERGY PREDICTED BY IDOCK:   -9.97 KCAL/MOL
REMARK 924 INTRA-LIGAND FREE ENERGY PREDICTED BY IDOCK:   -1.12 KCAL/MOL
REMARK 927      BINDING AFFINITY PREDICTED BY RF-SCORE:    0.00 PKD
ROOT
HETATM    1  C   UNL     1     -10.651   7.767  72.899  1.00  0.00    -0.428 C  
HETATM    2  C   UNL     1     -10.463   7.698  71.391  1.00  0.00    -0.230 C  
ENDROOT
BRANCH   2   3
HETATM    3  C   UNL     1     -11.298   6.562  70.804  1.00  0.00    -0.399 C  
BRANCH   3   4
HETATM    4  C   UNL     1     -11.357   6.564  69.272  1.00  0.00    -0.294 C  
BRANCH   4   5
HETATM    5  N   UNL     1     -10.183   7.069  68.517  1.00  0.00    -0.166 NA 
BRANCH   5   6
HETATM    6  C   UNL     1      -9.173   6.005  68.330  1.00  0.00    -0.114 C  
BRANCH   6   7
HETATM    7  C   UNL     1      -9.624   4.763  67.537  1.00  0.00    -0.190 C  
BRANCH   7   8
HETATM    8  C   UNL     1      -9.149   3.439  68.129  1.00  0.00    -0.205 C  
HETATM    9  C   UNL     1      -9.167   3.492  69.654  1.00  0.00    -0.223 C  
ENDBRANCH   7   8
ENDBRANCH   6   7
ENDBRANCH   5   6
BRANCH   5  10
HETATM   10  C   UNL     1     -10.615   7.612  67.200  1.00  0.00    -0.340 C  
BRANCH  10  11
HETATM   11  C   UNL     1     -10.329   9.107  67.076  1.00  0.00    -0.333 C  
BRANCH  11  12
HETATM   12  C   UNL     1      -9.786   9.749  68.359  1.00  0.00    -0.149 C  
HETATM   13  H   UNL     1      -8.096  10.547  68.967  1.00  0.00     0.000 HD 
HETATM   14  O   UNL     1      -8.432  10.149  68.172  1.00  0.00    -0.116 OA 
BRANCH  12  15
HETATM   15  C   UNL     1     -10.608  10.954  68.822  1.00  0.00    -0.231 A  
HETATM   16  C   UNL     1     -10.430  12.243  68.266  1.00  0.00    -0.236 A  
HETATM   17  C   UNL     1      -9.619  12.455  67.127  1.00  0.00    -0.206 A  
HETATM   18  C   UNL     1      -9.383  13.725  66.605  1.00  0.00    -0.277 A  
HETATM   19  C   UNL     1      -9.960  14.836  67.205  1.00  0.00    -0.231 A  
HETATM   20  C   UNL     1      -9.699  16.230  66.695  1.00  0.00    -0.250 C  
HETATM   21  C   UNL     1     -10.801  14.639  68.314  1.00  0.00    -0.249 A  
HETATM   22  F   UNL     1      -9.119  17.025  67.636  1.00  0.00    -0.220 F  
HETATM   23  C   UNL     1     -11.075  13.360  68.871  1.00  0.00    -0.307 A  
HETATM   24  F   UNL     1     -10.841  16.870  66.320  1.00  0.00    -0.259 F  
HETATM   25  F   UNL     1      -8.873  16.272  65.612  1.00  0.00    -0.315 F  
HETATM   26  C   UNL     1     -11.948  13.171  70.007  1.00  0.00    -0.391 A  
HETATM   27  C   UNL     1     -12.610  14.229  70.684  1.00  0.00    -0.424 A  
HETATM   28  C   UNL     1     -13.438  14.014  71.789  1.00  0.00    -0.392 A  
HETATM   29  C   UNL     1     -13.655  12.737  72.265  1.00  0.00    -0.563 A  
HETATM   30 CL   UNL     1     -14.190  15.350  72.570  1.00  0.00    -0.579 Cl 
HETATM   31  C   UNL     1     -13.033  11.669  71.626  1.00  0.00    -0.378 A  
HETATM   32  C   UNL     1     -12.180  11.867  70.504  1.00  0.00    -0.426 A  
HETATM   33 CL   UNL     1     -13.337  10.095  72.303  1.00  0.00    -0.448 Cl 
HETATM   34  C   UNL     1     -11.525  10.798  69.878  1.00  0.00    -0.398 A  
ENDBRANCH  12  15
ENDBRANCH  11  12
ENDBRANCH  10  11
ENDBRANCH   5  10
ENDBRANCH   4   5
ENDBRANCH   3   4
ENDBRANCH   2   3
TORSDOF 10
ENDMDL
MODEL       37
REMARK 921   NORMALIZED FREE ENERGY PREDICTED BY IDOCK:   -5.40 KCAL/MOL
REMARK 922        TOTAL FREE ENERGY PREDICTED BY IDOCK:  -11.06 KCAL/MOL
REMARK 923 INTER-LIGAND FREE ENERGY PREDICTED BY IDOCK:   -8.15 KCAL/MOL
REMARK 924 INTRA-LIGAND FREE ENERGY PREDICTED BY IDOCK:   -2.91 KCAL/MOL
REMARK 927      BINDING AFFINITY PREDICTED BY RF-SCORE:    0.00 PKD
ROOT
HETATM    1  C   UNL     1      -8.485   7.658  74.334  1.00  0.00    -0.259 C  
HETATM    2  C   UNL     1      -8.199   7.989  72.876  1.00  0.00    -0.221 C  
ENDROOT
BRANCH   2   3
HETATM    3  C   UNL     1      -8.281   6.727  72.020  1.00  0.00    -0.104 C  
BRANCH   3   4
HETATM    4  C   UNL     1      -7.146   6.598  70.998  1.00  0.00    -0.072 C  
BRANCH   4   5
HETATM    5  N   UNL     1      -7.104   7.548  69.858  1.00  0.00    -0.062 NA 
BRANCH   5   6
HETATM    6  C   UNL     1      -5.932   8.446  69.958  1.00  0.00    -0.028 C  
BRANCH   6   7
HETATM    7  C   UNL     1      -6.228   9.957  69.991  1.00  0.00    -0.065 C  
BRANCH   7   8
HETATM    8  C   UNL     1      -7.693  10.311  69.751  1.00  0.00    -0.159 C  
HETATM    9  C   UNL     1      -7.816  11.433  68.723  1.00  0.00    -0.128 C  
ENDBRANCH   7   8
ENDBRANCH   6   7
ENDBRANCH   5   6
BRANCH   5  10
HETATM   10  C   UNL     1      -7.081   6.804  68.569  1.00  0.00    -0.083 C  
BRANCH  10  11
HETATM   11  C   UNL     1      -7.937   7.482  67.502  1.00  0.00    -0.116 C  
BRANCH  11  12
HETATM   12  C   UNL     1      -9.427   7.123  67.572  1.00  0.00    -0.124 C  
HETATM   13  H   UNL     1     -10.540   5.761  68.448  1.00  0.00     0.000 HD 
HETATM   14  O   UNL     1      -9.617   5.983  68.405  1.00  0.00    -0.118 OA 
BRANCH  12  15
HETATM   15  C   UNL     1     -10.297   8.272  68.086  1.00  0.00    -0.253 A  
HETATM   16  C   UNL     1     -10.497   9.456  67.336  1.00  0.00    -0.343 A  
HETATM   17  C   UNL     1     -10.060   9.569  65.996  1.00  0.00    -0.319 A  
HETATM   18  C   UNL     1     -10.193  10.748  65.265  1.00  0.00    -0.351 A  
HETATM   19  C   UNL     1     -10.778  11.862  65.852  1.00  0.00    -0.326 A  
HETATM   20  C   UNL     1     -10.906  13.167  65.109  1.00  0.00    -0.304 C  
HETATM   21  C   UNL     1     -11.255  11.753  67.170  1.00  0.00    -0.375 A  
HETATM   22  F   UNL     1     -10.248  14.183  65.732  1.00  0.00    -0.283 F  
HETATM   23  C   UNL     1     -11.147  10.568  67.947  1.00  0.00    -0.367 A  
HETATM   24  F   UNL     1     -12.200  13.576  64.992  1.00  0.00    -0.361 F  
HETATM   25  F   UNL     1     -10.411  13.125  63.840  1.00  0.00    -0.426 F  
HETATM   26  C   UNL     1     -11.648  10.467  69.299  1.00  0.00    -0.308 A  
HETATM   27  C   UNL     1     -12.285  11.532  69.990  1.00  0.00    -0.354 A  
HETATM   28  C   UNL     1     -12.747  11.407  71.302  1.00  0.00    -0.393 A  
HETATM   29  C   UNL     1     -12.606  10.217  71.985  1.00  0.00    -0.351 A  
HETATM   30 CL   UNL     1     -13.490  12.750  72.080  1.00  0.00    -0.637 Cl 
HETATM   31  C   UNL     1     -11.996   9.144  71.344  1.00  0.00    -0.339 A  
HETATM   32  C   UNL     1     -11.512   9.252  70.009  1.00  0.00    -0.077 A  
HETATM   33 CL   UNL     1     -11.834   7.687  72.281  1.00  0.00    -0.347 Cl 
HETATM   34  C   UNL     1     -10.866   8.185  69.370  1.00  0.00    -0.096 A  
ENDBRANCH  12  15
ENDBRANCH  11  12
ENDBRANCH  10  11
ENDBRANCH   5  10
ENDBRANCH   4   5
ENDBRANCH   3   4
ENDBRANCH   2   3
TORSDOF 10
ENDMDL
MODEL       38
REMARK 921   NORMALIZED FREE ENERGY PREDICTED BY IDOCK:   -5.34 KCAL/MOL
REMARK 922        TOTAL FREE ENERGY PREDICTED BY IDOCK:  -10.95 KCAL/MOL
REMARK 923 INTER-LIGAND FREE ENERGY PREDICTED BY IDOCK:   -9.91 KCAL/MOL
REMARK 924 INTRA-LIGAND FREE ENERGY PREDICTED BY IDOCK:   -1.04 KCAL/MOL
REMARK 927      BINDING AFFINITY PREDICTED BY RF-SCORE:    0.00 PKD
ROOT
HETATM    1  C   UNL     1      -9.669   4.121  66.474  1.00  0.00    -0.228 C  
HETATM    2  C   UNL     1      -8.852   5.065  65.605  1.00  0.00    -0.143 C  
ENDROOT
BRANCH   2   3
HETATM    3  C   UNL     1      -9.140   6.517  65.984  1.00  0.00    -0.111 C  
BRANCH   3   4
HETATM    4  C   UNL     1     -10.335   6.684  66.930  1.00  0.00    -0.254 C  
BRANCH   4   5
HETATM    5  N   UNL     1     -10.181   7.555  68.123  1.00  0.00    -0.183 NA 
BRANCH   5   6
HETATM    6  C   UNL     1      -9.759   6.769  69.303  1.00  0.00    -0.151 C  
BRANCH   6   7
HETATM    7  C   UNL     1     -10.886   6.166  70.163  1.00  0.00    -0.395 C  
BRANCH   7   8
HETATM    8  C   UNL     1     -10.498   5.930  71.621  1.00  0.00    -0.285 C  
HETATM    9  C   UNL     1     -11.424   6.703  72.557  1.00  0.00    -0.269 C  
ENDBRANCH   7   8
ENDBRANCH   6   7
ENDBRANCH   5   6
BRANCH   5  10
HETATM   10  C   UNL     1      -9.202   8.641  67.843  1.00  0.00    -0.139 C  
BRANCH  10  11
HETATM   11  C   UNL     1      -9.546   9.927  68.591  1.00  0.00    -0.159 C  
BRANCH  11  12
HETATM   12  C   UNL     1      -9.959  11.090  67.678  1.00  0.00    -0.173 C  
HETATM   13  H   UNL     1     -11.021  11.331  66.043  1.00  0.00     0.000 HD 
HETATM   14  O   UNL     1     -10.766  10.610  66.608  1.00  0.00    -0.239 OA 
BRANCH  12  15
HETATM   15  C   UNL     1     -10.712  12.196  68.420  1.00  0.00    -0.252 A  
HETATM   16  C   UNL     1     -10.555  13.564  68.091  1.00  0.00    -0.253 A  
HETATM   17  C   UNL     1      -9.841  13.973  66.941  1.00  0.00    -0.267 A  
HETATM   18  C   UNL     1      -9.624  15.315  66.636  1.00  0.00    -0.276 A  
HETATM   19  C   UNL     1     -10.123  16.303  67.475  1.00  0.00    -0.258 A  
HETATM   20  C   UNL     1      -9.878  17.765  67.201  1.00  0.00    -0.311 C  
HETATM   21  C   UNL     1     -10.871  15.913  68.599  1.00  0.00    -0.291 A  
HETATM   22  F   UNL     1      -9.202  18.373  68.214  1.00  0.00    -0.282 F  
HETATM   23  C   UNL     1     -11.122  14.557  68.941  1.00  0.00    -0.273 A  
HETATM   24  F   UNL     1     -11.034  18.468  67.049  1.00  0.00    -0.413 F  
HETATM   25  F   UNL     1      -9.148  17.996  66.074  1.00  0.00    -0.260 F  
HETATM   26  C   UNL     1     -11.899  14.170  70.097  1.00  0.00    -0.382 A  
HETATM   27  C   UNL     1     -12.478  15.092  71.009  1.00  0.00    -0.419 A  
HETATM   28  C   UNL     1     -13.212  14.686  72.126  1.00  0.00    -0.363 A  
HETATM   29  C   UNL     1     -13.413  13.345  72.383  1.00  0.00    -0.685 A  
HETATM   30 CL   UNL     1     -13.865  15.864  73.197  1.00  0.00    -0.543 Cl 
HETATM   31  C   UNL     1     -12.872  12.407  71.511  1.00  0.00    -0.274 A  
HETATM   32  C   UNL     1     -12.115  12.799  70.371  1.00  0.00    -0.382 A  
HETATM   33 CL   UNL     1     -13.150  10.739  71.919  1.00  0.00    -0.599 Cl 
HETATM   34  C   UNL     1     -11.538  11.857  69.508  1.00  0.00    -0.394 A  
ENDBRANCH  12  15
ENDBRANCH  11  12
ENDBRANCH  10  11
ENDBRANCH   5  10
ENDBRANCH   4   5
ENDBRANCH   3   4
ENDBRANCH   2   3
TORSDOF 10
ENDMDL
MODEL       39
REMARK 921   NORMALIZED FREE ENERGY PREDICTED BY IDOCK:   -5.32 KCAL/MOL
REMARK 922        TOTAL FREE ENERGY PREDICTED BY IDOCK:  -10.93 KCAL/MOL
REMARK 923 INTER-LIGAND FREE ENERGY PREDICTED BY IDOCK:   -9.39 KCAL/MOL
REMARK 924 INTRA-LIGAND FREE ENERGY PREDICTED BY IDOCK:   -1.54 KCAL/MOL
REMARK 927      BINDING AFFINITY PREDICTED BY RF-SCORE:    0.00 PKD
ROOT
HETATM    1  C   UNL     1     -11.959  12.185  69.868  1.00  0.00    -0.380 C  
HETATM    2  C   UNL     1     -12.009  13.362  68.906  1.00  0.00    -0.362 C  
ENDROOT
BRANCH   2   3
HETATM    3  C   UNL     1     -11.134  14.505  69.419  1.00  0.00    -0.297 C  
BRANCH   3   4
HETATM    4  C   UNL     1     -11.467  15.867  68.799  1.00  0.00    -0.393 C  
BRANCH   4   5
HETATM    5  N   UNL     1     -10.494  16.476  67.858  1.00  0.00    -0.302 NA 
BRANCH   5   6
HETATM    6  C   UNL     1     -10.784  17.911  67.649  1.00  0.00    -0.331 C  
BRANCH   6   7
HETATM    7  C   UNL     1     -10.493  18.472  66.243  1.00  0.00    -0.441 C  
BRANCH   7   8
HETATM    8  C   UNL     1     -10.327  19.989  66.199  1.00  0.00    -0.570 C  
HETATM    9  C   UNL     1      -9.320  20.452  67.248  1.00  0.00    -0.547 C  
ENDBRANCH   7   8
ENDBRANCH   6   7
ENDBRANCH   5   6
BRANCH   5  10
HETATM   10  C   UNL     1      -9.106  16.295  68.365  1.00  0.00    -0.203 C  
BRANCH  10  11
HETATM   11  C   UNL     1      -8.224  15.550  67.365  1.00  0.00    -0.199 C  
BRANCH  11  12
HETATM   12  C   UNL     1      -7.453  14.369  67.970  1.00  0.00    -0.140 C  
HETATM   13  H   UNL     1      -6.802  13.830  69.744  1.00  0.00     0.000 HD 
HETATM   14  O   UNL     1      -7.280  14.562  69.370  1.00  0.00    -0.145 OA 
BRANCH  12  15
HETATM   15  C   UNL     1      -8.134  13.020  67.727  1.00  0.00    -0.168 A  
HETATM   16  C   UNL     1      -9.129  12.849  66.736  1.00  0.00    -0.211 A  
HETATM   17  C   UNL     1      -9.418  13.860  65.791  1.00  0.00    -0.016 A  
HETATM   18  C   UNL     1     -10.437  13.732  64.849  1.00  0.00    -0.437 A  
HETATM   19  C   UNL     1     -11.204  12.575  64.816  1.00  0.00    -0.344 A  
HETATM   20  C   UNL     1     -12.340  12.413  63.838  1.00  0.00    -0.508 C  
HETATM   21  C   UNL     1     -10.903  11.544  65.721  1.00  0.00    -0.319 A  
HETATM   22  F   UNL     1     -13.536  12.226  64.462  1.00  0.00    -0.364 F  
HETATM   23  C   UNL     1      -9.868  11.631  66.691  1.00  0.00    -0.223 A  
HETATM   24  F   UNL     1     -12.174  11.337  63.020  1.00  0.00    -0.359 F  
HETATM   25  F   UNL     1     -12.512  13.486  63.016  1.00  0.00    -0.555 F  
HETATM   26  C   UNL     1      -9.564  10.559  67.612  1.00  0.00    -0.175 A  
HETATM   27  C   UNL     1     -10.264   9.325  67.652  1.00  0.00    -0.285 A  
HETATM   28  C   UNL     1      -9.955   8.313  68.564  1.00  0.00    -0.190 A  
HETATM   29  C   UNL     1      -8.929   8.477  69.472  1.00  0.00    -0.149 A  
HETATM   30 CL   UNL     1     -10.864   6.852  68.565  1.00  0.00    -0.243 Cl 
HETATM   31  C   UNL     1      -8.209   9.667  69.462  1.00  0.00    -0.136 A  
HETATM   32  C   UNL     1      -8.513  10.713  68.546  1.00  0.00    -0.136 A  
HETATM   33 CL   UNL     1      -6.949   9.805  70.654  1.00  0.00    -0.124 Cl 
HETATM   34  C   UNL     1      -7.814  11.928  68.555  1.00  0.00    -0.136 A  
ENDBRANCH  12  15
ENDBRANCH  11  12
ENDBRANCH  10  11
ENDBRANCH   5  10
ENDBRANCH   4   5
ENDBRANCH   3   4
ENDBRANCH   2   3
TORSDOF 10
ENDMDL
MODEL       40
REMARK 921   NORMALIZED FREE ENERGY PREDICTED BY IDOCK:   -5.32 KCAL/MOL
REMARK 922        TOTAL FREE ENERGY PREDICTED BY IDOCK:  -10.93 KCAL/MOL
REMARK 923 INTER-LIGAND FREE ENERGY PREDICTED BY IDOCK:   -8.69 KCAL/MOL
REMARK 924 INTRA-LIGAND FREE ENERGY PREDICTED BY IDOCK:   -2.24 KCAL/MOL
REMARK 927      BINDING AFFINITY PREDICTED BY RF-SCORE:    0.00 PKD
ROOT
HETATM    1  C   UNL     1      -7.991  16.786  66.425  1.00  0.00    -0.356 C  
HETATM    2  C   UNL     1      -8.965  15.618  66.470  1.00  0.00    -0.343 C  
ENDROOT
BRANCH   2   3
HETATM    3  C   UNL     1     -10.164  15.892  65.564  1.00  0.00    -0.394 C  
BRANCH   3   4
HETATM    4  C   UNL     1     -10.503  14.734  64.618  1.00  0.00    -0.141 C  
BRANCH   4   5
HETATM    5  N   UNL     1     -11.896  14.222  64.591  1.00  0.00    -0.424 NA 
BRANCH   5   6
HETATM    6  C   UNL     1     -11.932  12.801  64.183  1.00  0.00    -0.427 C  
BRANCH   6   7
HETATM    7  C   UNL     1     -10.669  12.255  63.489  1.00  0.00    -0.497 C  
BRANCH   7   8
HETATM    8  C   UNL     1     -10.421  10.768  63.725  1.00  0.00    -0.218 C  
HETATM    9  C   UNL     1      -9.271  10.267  62.856  1.00  0.00    -0.316 C  
ENDBRANCH   7   8
ENDBRANCH   6   7
ENDBRANCH   5   6
BRANCH   5  10
HETATM   10  C   UNL     1     -12.532  14.396  65.925  1.00  0.00    -0.300 C  
BRANCH  10  11
HETATM   11  C   UNL     1     -12.384  13.151  66.797  1.00  0.00    -0.173 C  
BRANCH  11  12
HETATM   12  C   UNL     1     -11.546  13.371  68.064  1.00  0.00    -0.334 C  
HETATM   13  H   UNL     1     -11.798  14.182  69.836  1.00  0.00     0.000 HD 
HETATM   14  O   UNL     1     -12.317  14.046  69.052  1.00  0.00    -0.307 OA 
BRANCH  12  15
HETATM   15  C   UNL     1     -10.999  12.069  68.654  1.00  0.00    -0.281 A  
HETATM   16  C   UNL     1      -9.928  11.364  68.056  1.00  0.00    -0.192 A  
HETATM   17  C   UNL     1      -9.180  11.915  66.990  1.00  0.00    -0.191 A  
HETATM   18  C   UNL     1      -8.163  11.209  66.349  1.00  0.00    -0.164 A  
HETATM   19  C   UNL     1      -7.853   9.920  66.760  1.00  0.00    -0.109 A  
HETATM   20  C   UNL     1      -6.786   9.110  66.069  1.00  0.00    -0.084 C  
HETATM   21  C   UNL     1      -8.559   9.374  67.845  1.00  0.00    -0.120 A  
HETATM   22  F   UNL     1      -7.279   7.958  65.535  1.00  0.00    -0.062 F  
HETATM   23  C   UNL     1      -9.596  10.062  68.531  1.00  0.00    -0.157 A  
HETATM   24  F   UNL     1      -5.788   8.732  66.914  1.00  0.00    -0.047 F  
HETATM   25  F   UNL     1      -6.179   9.767  65.042  1.00  0.00    -0.073 F  
HETATM   26  C   UNL     1     -10.310   9.491  69.651  1.00  0.00    -0.236 A  
HETATM   27  C   UNL     1     -10.061   8.193  70.172  1.00  0.00    -0.194 A  
HETATM   28  C   UNL     1     -10.778   7.664  71.247  1.00  0.00    -0.228 A  
HETATM   29  C   UNL     1     -11.769   8.403  71.861  1.00  0.00    -0.398 A  
HETATM   30 CL   UNL     1     -10.432   6.075  71.809  1.00  0.00    -0.257 Cl 
HETATM   31  C   UNL     1     -12.040   9.682  71.390  1.00  0.00    -0.388 A  
HETATM   32  C   UNL     1     -11.326  10.238  70.291  1.00  0.00    -0.398 A  
HETATM   33 CL   UNL     1     -13.320  10.538  72.201  1.00  0.00    -0.472 Cl 
HETATM   34  C   UNL     1     -11.619  11.514  69.790  1.00  0.00    -0.401 A  
ENDBRANCH  12  15
ENDBRANCH  11  12
ENDBRANCH  10  11
ENDBRANCH   5  10
ENDBRANCH   4   5
ENDBRANCH   3   4
ENDBRANCH   2   3
TORSDOF 10
ENDMDL
MODEL       41
REMARK 921   NORMALIZED FREE ENERGY PREDICTED BY IDOCK:   -5.31 KCAL/MOL
REMARK 922        TOTAL FREE ENERGY PREDICTED BY IDOCK:  -10.91 KCAL/MOL
REMARK 923 INTER-LIGAND FREE ENERGY PREDICTED BY IDOCK:   -9.71 KCAL/MOL
REMARK 924 INTRA-LIGAND FREE ENERGY PREDICTED BY IDOCK:   -1.20 KCAL/MOL
REMARK 927      BINDING AFFINITY PREDICTED BY RF-SCORE:    0.00 PKD
ROOT
HETATM    1  C   UNL     1     -10.229  18.705  66.105  1.00  0.00    -0.450 C  
HETATM    2  C   UNL     1     -10.382  17.366  66.810  1.00  0.00    -0.305 C  
ENDROOT
BRANCH   2   3
HETATM    3  C   UNL     1      -9.613  16.280  66.059  1.00  0.00    -0.371 C  
BRANCH   3   4
HETATM    4  C   UNL     1     -10.502  15.154  65.517  1.00  0.00    -0.379 C  
BRANCH   4   5
HETATM    5  N   UNL     1     -11.698  14.753  66.300  1.00  0.00    -0.308 NA 
BRANCH   5   6
HETATM    6  C   UNL     1     -12.636  13.965  65.472  1.00  0.00    -0.526 C  
BRANCH   6   7
HETATM    7  C   UNL     1     -12.182  13.651  64.033  1.00  0.00    -0.443 C  
BRANCH   7   8
HETATM    8  C   UNL     1     -12.200  12.165  63.684  1.00  0.00    -0.663 C  
HETATM    9  C   UNL     1     -10.780  11.639  63.493  1.00  0.00    -0.495 C  
ENDBRANCH   7   8
ENDBRANCH   6   7
ENDBRANCH   5   6
BRANCH   5  10
HETATM   10  C   UNL     1     -11.288  13.977  67.503  1.00  0.00    -0.321 C  
BRANCH  10  11
HETATM   11  C   UNL     1     -11.766  12.528  67.439  1.00  0.00    -0.432 C  
BRANCH  11  12
HETATM   12  C   UNL     1     -10.679  11.528  67.025  1.00  0.00    -0.259 C  
HETATM   13  H   UNL     1      -8.739  11.556  66.714  1.00  0.00     0.000 HD 
HETATM   14  O   UNL     1      -9.412  12.175  66.971  1.00  0.00    -0.192 OA 
BRANCH  12  15
HETATM   15  C   UNL     1     -10.588  10.320  67.960  1.00  0.00    -0.272 A  
HETATM   16  C   UNL     1      -9.992   9.101  67.556  1.00  0.00    -0.258 A  
HETATM   17  C   UNL     1      -9.283   8.989  66.338  1.00  0.00    -0.239 A  
HETATM   18  C   UNL     1      -8.745   7.781  65.897  1.00  0.00    -0.175 A  
HETATM   19  C   UNL     1      -8.893   6.637  66.669  1.00  0.00    -0.140 A  
HETATM   20  C   UNL     1      -8.359   5.304  66.209  1.00  0.00    -0.114 C  
HETATM   21  C   UNL     1      -9.560   6.740  67.902  1.00  0.00    -0.125 A  
HETATM   22  F   UNL     1      -9.342   4.371  66.079  1.00  0.00    -0.129 F  
HETATM   23  C   UNL     1     -10.115   7.953  68.392  1.00  0.00    -0.218 A  
HETATM   24  F   UNL     1      -7.457   4.775  67.082  1.00  0.00    -0.080 F  
HETATM   25  F   UNL     1      -7.729   5.353  65.002  1.00  0.00    -0.076 F  
HETATM   26  C   UNL     1     -10.792   8.047  69.666  1.00  0.00    -0.172 A  
HETATM   27  C   UNL     1     -10.980   6.950  70.547  1.00  0.00    -0.313 A  
HETATM   28  C   UNL     1     -11.652   7.071  71.766  1.00  0.00    -0.280 A  
HETATM   29  C   UNL     1     -12.158   8.289  72.170  1.00  0.00    -0.425 A  
HETATM   30 CL   UNL     1     -11.858   5.690  72.771  1.00  0.00    -0.253 Cl 
HETATM   31  C   UNL     1     -11.989   9.393  71.342  1.00  0.00    -0.371 A  
HETATM   32  C   UNL     1     -11.314   9.290  70.093  1.00  0.00    -0.193 A  
HETATM   33 CL   UNL     1     -12.678  10.886  71.911  1.00  0.00    -0.428 Cl 
HETATM   34  C   UNL     1     -11.170  10.392  69.239  1.00  0.00    -0.304 A  
ENDBRANCH  12  15
ENDBRANCH  11  12
ENDBRANCH  10  11
ENDBRANCH   5  10
ENDBRANCH   4   5
ENDBRANCH   3   4
ENDBRANCH   2   3
TORSDOF 10
ENDMDL
MODEL       42
REMARK 921   NORMALIZED FREE ENERGY PREDICTED BY IDOCK:   -5.29 KCAL/MOL
REMARK 922        TOTAL FREE ENERGY PREDICTED BY IDOCK:  -10.87 KCAL/MOL
REMARK 923 INTER-LIGAND FREE ENERGY PREDICTED BY IDOCK:   -8.99 KCAL/MOL
REMARK 924 INTRA-LIGAND FREE ENERGY PREDICTED BY IDOCK:   -1.89 KCAL/MOL
REMARK 927      BINDING AFFINITY PREDICTED BY RF-SCORE:    0.00 PKD
ROOT
HETATM    1  C   UNL     1     -14.258   8.530  71.663  1.00  0.00    -0.496 C  
HETATM    2  C   UNL     1     -13.700   7.153  71.989  1.00  0.00    -0.189 C  
ENDROOT
BRANCH   2   3
HETATM    3  C   UNL     1     -12.263   7.030  71.485  1.00  0.00    -0.407 C  
BRANCH   3   4
HETATM    4  C   UNL     1     -12.158   6.697  69.992  1.00  0.00     0.036 C  
BRANCH   4   5
HETATM    5  N   UNL     1     -10.858   6.213  69.461  1.00  0.00    -0.322 NA 
BRANCH   5   6
HETATM    6  C   UNL     1     -10.362   5.059  70.241  1.00  0.00    -0.229 C  
BRANCH   6   7
HETATM    7  C   UNL     1      -9.211   5.342  71.226  1.00  0.00    -0.178 C  
BRANCH   7   8
HETATM    8  C   UNL     1      -8.100   6.217  70.652  1.00  0.00    -0.113 C  
HETATM    9  C   UNL     1      -7.939   7.493  71.475  1.00  0.00    -0.094 C  
ENDBRANCH   7   8
ENDBRANCH   6   7
ENDBRANCH   5   6
BRANCH   5  10
HETATM   10  C   UNL     1     -10.993   5.850  68.024  1.00  0.00    -0.155 C  
BRANCH  10  11
HETATM   11  C   UNL     1     -10.777   7.052  67.107  1.00  0.00    -0.433 C  
BRANCH  11  12
HETATM   12  C   UNL     1      -9.796   8.094  67.662  1.00  0.00    -0.169 C  
HETATM   13  H   UNL     1      -7.881   8.503  67.496  1.00  0.00     0.000 HD 
HETATM   14  O   UNL     1      -8.488   7.857  67.152  1.00  0.00    -0.115 OA 
BRANCH  12  15
HETATM   15  C   UNL     1     -10.208   9.534  67.345  1.00  0.00    -0.285 A  
HETATM   16  C   UNL     1     -10.776  10.386  68.322  1.00  0.00    -0.275 A  
HETATM   17  C   UNL     1     -10.824  10.021  69.687  1.00  0.00    -0.292 A  
HETATM   18  C   UNL     1     -11.435  10.820  70.652  1.00  0.00    -0.314 A  
HETATM   19  C   UNL     1     -12.019  12.024  70.281  1.00  0.00    -0.398 A  
HETATM   20  C   UNL     1     -12.723  12.899  71.287  1.00  0.00    -0.278 C  
HETATM   21  C   UNL     1     -11.944  12.420  68.935  1.00  0.00    -0.289 A  
HETATM   22  F   UNL     1     -14.034  13.091  70.975  1.00  0.00     0.247 F  
HETATM   23  C   UNL     1     -11.323  11.640  67.923  1.00  0.00    -0.369 A  
HETATM   24  F   UNL     1     -12.174  14.142  71.372  1.00  0.00    -0.373 F  
HETATM   25  F   UNL     1     -12.711  12.396  72.553  1.00  0.00    -0.210 F  
HETATM   26  C   UNL     1     -11.246  12.062  66.542  1.00  0.00    -0.387 A  
HETATM   27  C   UNL     1     -11.785  13.282  66.055  1.00  0.00    -0.408 A  
HETATM   28  C   UNL     1     -11.707  13.656  64.712  1.00  0.00    -0.377 A  
HETATM   29  C   UNL     1     -11.081  12.840  63.792  1.00  0.00    -0.475 A  
HETATM   30 CL   UNL     1     -12.403  15.142  64.193  1.00  0.00    -0.322 Cl 
HETATM   31  C   UNL     1     -10.530  11.639  64.227  1.00  0.00    -0.331 A  
HETATM   32  C   UNL     1     -10.605  11.236  65.590  1.00  0.00    -0.303 A  
HETATM   33 CL   UNL     1      -9.781  10.657  63.002  1.00  0.00    -0.364 Cl 
HETATM   34  C   UNL     1     -10.082  10.012  66.027  1.00  0.00    -0.318 A  
ENDBRANCH  12  15
ENDBRANCH  11  12
ENDBRANCH  10  11
ENDBRANCH   5  10
ENDBRANCH   4   5
ENDBRANCH   3   4
ENDBRANCH   2   3
TORSDOF 10
ENDMDL
MODEL       43
REMARK 921   NORMALIZED FREE ENERGY PREDICTED BY IDOCK:   -5.27 KCAL/MOL
REMARK 922        TOTAL FREE ENERGY PREDICTED BY IDOCK:  -10.85 KCAL/MOL
REMARK 923 INTER-LIGAND FREE ENERGY PREDICTED BY IDOCK:   -9.23 KCAL/MOL
REMARK 924 INTRA-LIGAND FREE ENERGY PREDICTED BY IDOCK:   -1.62 KCAL/MOL
REMARK 927      BINDING AFFINITY PREDICTED BY RF-SCORE:    0.00 PKD
ROOT
HETATM    1  C   UNL     1      -9.972   3.108  74.440  1.00  0.00    -0.174 C  
HETATM    2  C   UNL     1     -10.036   4.095  73.283  1.00  0.00    -0.200 C  
ENDROOT
BRANCH   2   3
HETATM    3  C   UNL     1     -10.835   5.333  73.687  1.00  0.00    -0.347 C  
BRANCH   3   4
HETATM    4  C   UNL     1     -11.061   6.325  72.540  1.00  0.00    -0.272 C  
BRANCH   4   5
HETATM    5  N   UNL     1      -9.906   7.113  72.043  1.00  0.00    -0.159 NA 
BRANCH   5   6
HETATM    6  C   UNL     1      -9.543   6.714  70.665  1.00  0.00    -0.169 C  
BRANCH   6   7
HETATM    7  C   UNL     1     -10.605   5.920  69.880  1.00  0.00    -0.370 C  
BRANCH   7   8
HETATM    8  C   UNL     1     -10.024   4.916  68.888  1.00  0.00    -0.220 C  
HETATM    9  C   UNL     1      -9.293   3.795  69.620  1.00  0.00    -0.245 C  
ENDBRANCH   7   8
ENDBRANCH   6   7
ENDBRANCH   5   6
BRANCH   5  10
HETATM   10  C   UNL     1     -10.214   8.568  72.099  1.00  0.00    -0.333 C  
BRANCH  10  11
HETATM   11  C   UNL     1     -11.697   8.829  72.352  1.00  0.00    -0.337 C  
BRANCH  11  12
HETATM   12  C   UNL     1     -12.525   9.025  71.074  1.00  0.00    -0.161 C  
HETATM   13  H   UNL     1     -14.427   9.072  70.583  1.00  0.00     0.000 HD 
HETATM   14  O   UNL     1     -13.915   8.951  71.375  1.00  0.00    -0.363 OA 
BRANCH  12  15
HETATM   15  C   UNL     1     -12.232  10.350  70.366  1.00  0.00    -0.389 A  
HETATM   16  C   UNL     1     -11.501  10.409  69.156  1.00  0.00    -0.261 A  
HETATM   17  C   UNL     1     -11.161   9.241  68.436  1.00  0.00     0.068 A  
HETATM   18  C   UNL     1     -10.388   9.278  67.277  1.00  0.00    -0.332 A  
HETATM   19  C   UNL     1      -9.930  10.495  66.791  1.00  0.00    -0.252 A  
HETATM   20  C   UNL     1      -9.061  10.575  65.562  1.00  0.00    -0.186 C  
HETATM   21  C   UNL     1     -10.294  11.669  67.473  1.00  0.00    -0.220 A  
HETATM   22  F   UNL     1      -7.848  11.137  65.823  1.00  0.00    -0.141 F  
HETATM   23  C   UNL     1     -11.087  11.676  68.652  1.00  0.00    -0.287 A  
HETATM   24  F   UNL     1      -9.618  11.331  64.577  1.00  0.00    -0.236 F  
HETATM   25  F   UNL     1      -8.796   9.363  64.999  1.00  0.00    -0.161 F  
HETATM   26  C   UNL     1     -11.460  12.892  69.339  1.00  0.00    -0.323 A  
HETATM   27  C   UNL     1     -11.070  14.192  68.920  1.00  0.00    -0.288 A  
HETATM   28  C   UNL     1     -11.435  15.347  69.615  1.00  0.00    -0.320 A  
HETATM   29  C   UNL     1     -12.213  15.266  70.752  1.00  0.00    -0.411 A  
HETATM   30 CL   UNL     1     -10.907  16.887  69.056  1.00  0.00    -0.295 Cl 
HETATM   31  C   UNL     1     -12.625  14.013  71.193  1.00  0.00    -0.371 A  
HETATM   32  C   UNL     1     -12.258  12.823  70.505  1.00  0.00    -0.389 A  
HETATM   33 CL   UNL     1     -13.581  13.994  72.647  1.00  0.00    -0.631 Cl 
HETATM   34  C   UNL     1     -12.642  11.556  70.965  1.00  0.00    -0.457 A  
ENDBRANCH  12  15
ENDBRANCH  11  12
ENDBRANCH  10  11
ENDBRANCH   5  10
ENDBRANCH   4   5
ENDBRANCH   3   4
ENDBRANCH   2   3
TORSDOF 10
ENDMDL
MODEL       44
REMARK 921   NORMALIZED FREE ENERGY PREDICTED BY IDOCK:   -5.26 KCAL/MOL
REMARK 922        TOTAL FREE ENERGY PREDICTED BY IDOCK:  -10.83 KCAL/MOL
REMARK 923 INTER-LIGAND FREE ENERGY PREDICTED BY IDOCK:   -7.52 KCAL/MOL
REMARK 924 INTRA-LIGAND FREE ENERGY PREDICTED BY IDOCK:   -3.31 KCAL/MOL
REMARK 927      BINDING AFFINITY PREDICTED BY RF-SCORE:    0.00 PKD
ROOT
HETATM    1  C   UNL     1     -10.773   5.395  70.714  1.00  0.00    -0.252 C  
HETATM    2  C   UNL     1     -11.432   6.252  69.644  1.00  0.00    -0.425 C  
ENDROOT
BRANCH   2   3
HETATM    3  C   UNL     1     -10.514   6.383  68.430  1.00  0.00    -0.266 C  
BRANCH   3   4
HETATM    4  C   UNL     1      -9.145   5.717  68.614  1.00  0.00    -0.114 C  
BRANCH   4   5
HETATM    5  N   UNL     1      -8.044   6.088  67.690  1.00  0.00    -0.105 NA 
BRANCH   5   6
HETATM    6  C   UNL     1      -8.529   6.985  66.618  1.00  0.00    -0.121 C  
BRANCH   6   7
HETATM    7  C   UNL     1      -7.545   8.065  66.131  1.00  0.00    -0.086 C  
BRANCH   7   8
HETATM    8  C   UNL     1      -8.106   8.973  65.040  1.00  0.00    -0.137 C  
HETATM    9  C   UNL     1      -9.529   9.409  65.379  1.00  0.00    -0.322 C  
ENDBRANCH   7   8
ENDBRANCH   6   7
ENDBRANCH   5   6
BRANCH   5  10
HETATM   10  C   UNL     1      -6.936   6.733  68.445  1.00  0.00    -0.077 C  
BRANCH  10  11
HETATM   11  C   UNL     1      -7.218   6.784  69.945  1.00  0.00    -0.080 C  
BRANCH  11  12
HETATM   12  C   UNL     1      -6.931   8.147  70.590  1.00  0.00    -0.037 C  
HETATM   13  H   UNL     1      -5.400   9.368  70.754  1.00  0.00     0.000 HD 
HETATM   14  O   UNL     1      -5.578   8.525  70.354  1.00  0.00    -0.027 OA 
BRANCH  12  15
HETATM   15  C   UNL     1      -7.859   9.256  70.089  1.00  0.00    -0.129 A  
HETATM   16  C   UNL     1      -9.181   9.404  70.572  1.00  0.00    -0.314 A  
HETATM   17  C   UNL     1      -9.657   8.658  71.674  1.00  0.00    -0.344 A  
HETATM   18  C   UNL     1     -10.974   8.747  72.122  1.00  0.00    -0.404 A  
HETATM   19  C   UNL     1     -11.865   9.597  71.481  1.00  0.00    -0.483 A  
HETATM   20  C   UNL     1     -13.306   9.693  71.911  1.00  0.00    -0.438 C  
HETATM   21  C   UNL     1     -11.396  10.376  70.409  1.00  0.00    -0.417 A  
HETATM   22  F   UNL     1     -14.166   9.348  70.913  1.00  0.00    -0.318 F  
HETATM   23  C   UNL     1     -10.060  10.322  69.927  1.00  0.00    -0.219 A  
HETATM   24  F   UNL     1     -13.656  10.955  72.284  1.00  0.00    -0.495 F  
HETATM   25  F   UNL     1     -13.619   8.890  72.966  1.00  0.00    -0.430 F  
HETATM   26  C   UNL     1      -9.589  11.134  68.829  1.00  0.00    -0.180 A  
HETATM   27  C   UNL     1     -10.403  12.054  68.116  1.00  0.00    -0.207 A  
HETATM   28  C   UNL     1      -9.922  12.816  67.049  1.00  0.00    -0.231 A  
HETATM   29  C   UNL     1      -8.607  12.706  66.646  1.00  0.00    -0.035 A  
HETATM   30 CL   UNL     1     -10.976  13.895  66.221  1.00  0.00    -0.297 Cl 
HETATM   31  C   UNL     1      -7.771  11.823  67.322  1.00  0.00    -0.158 A  
HETATM   32  C   UNL     1      -8.243  11.033  68.407  1.00  0.00    -0.137 A  
HETATM   33 CL   UNL     1      -6.135  11.725  66.737  1.00  0.00    -0.139 Cl 
HETATM   34  C   UNL     1      -7.414  10.118  69.069  1.00  0.00    -0.091 A  
ENDBRANCH  12  15
ENDBRANCH  11  12
ENDBRANCH  10  11
ENDBRANCH   5  10
ENDBRANCH   4   5
ENDBRANCH   3   4
ENDBRANCH   2   3
TORSDOF 10
ENDMDL
MODEL       45
REMARK 921   NORMALIZED FREE ENERGY PREDICTED BY IDOCK:   -5.24 KCAL/MOL
REMARK 922        TOTAL FREE ENERGY PREDICTED BY IDOCK:  -10.79 KCAL/MOL
REMARK 923 INTER-LIGAND FREE ENERGY PREDICTED BY IDOCK:   -8.22 KCAL/MOL
REMARK 924 INTRA-LIGAND FREE ENERGY PREDICTED BY IDOCK:   -2.57 KCAL/MOL
REMARK 927      BINDING AFFINITY PREDICTED BY RF-SCORE:    0.00 PKD
ROOT
HETATM    1  C   UNL     1     -10.024  11.212  63.488  1.00  0.00    -0.425 C  
HETATM    2  C   UNL     1      -9.457  10.030  64.261  1.00  0.00    -0.336 C  
ENDROOT
BRANCH   2   3
HETATM    3  C   UNL     1      -7.941  10.163  64.397  1.00  0.00    -0.153 C  
BRANCH   3   4
HETATM    4  C   UNL     1      -7.271   8.953  65.058  1.00  0.00    -0.091 C  
BRANCH   4   5
HETATM    5  N   UNL     1      -7.630   8.620  66.460  1.00  0.00    -0.088 NA 
BRANCH   5   6
HETATM    6  C   UNL     1      -8.285   7.296  66.540  1.00  0.00    -0.117 C  
BRANCH   6   7
HETATM    7  C   UNL     1      -9.041   6.984  67.845  1.00  0.00    -0.127 C  
BRANCH   7   8
HETATM    8  C   UNL     1     -10.560   7.060  67.719  1.00  0.00    -0.298 C  
HETATM    9  C   UNL     1     -11.235   6.406  68.921  1.00  0.00    -0.385 C  
ENDBRANCH   7   8
ENDBRANCH   6   7
ENDBRANCH   5   6
BRANCH   5  10
HETATM   10  C   UNL     1      -6.417   8.653  67.322  1.00  0.00    -0.058 C  
BRANCH  10  11
HETATM   11  C   UNL     1      -6.116  10.061  67.832  1.00  0.00    -0.053 C  
BRANCH  11  12
HETATM   12  C   UNL     1      -6.554  10.308  69.282  1.00  0.00    -0.055 C  
HETATM   13  H   UNL     1      -6.412  11.756  70.602  1.00  0.00     0.000 HD 
HETATM   14  O   UNL     1      -6.141  11.604  69.704  1.00  0.00    -0.089 OA 
BRANCH  12  15
HETATM   15  C   UNL     1      -8.065  10.170  69.484  1.00  0.00    -0.176 A  
HETATM   16  C   UNL     1      -8.995  10.934  68.741  1.00  0.00    -0.166 A  
HETATM   17  C   UNL     1      -8.593  11.729  67.643  1.00  0.00    -0.153 A  
HETATM   18  C   UNL     1      -9.486  12.536  66.940  1.00  0.00    -0.219 A  
HETATM   19  C   UNL     1     -10.824  12.571  67.310  1.00  0.00    -0.277 A  
HETATM   20  C   UNL     1     -11.814  13.458  66.600  1.00  0.00    -0.395 C  
HETATM   21  C   UNL     1     -11.247  11.755  68.374  1.00  0.00    -0.307 A  
HETATM   22  F   UNL     1     -12.390  14.363  67.439  1.00  0.00    -0.410 F  
HETATM   23  C   UNL     1     -10.371  10.912  69.111  1.00  0.00    -0.228 A  
HETATM   24  F   UNL     1     -12.841  12.756  66.047  1.00  0.00    -0.231 F  
HETATM   25  F   UNL     1     -11.268  14.186  65.586  1.00  0.00    -0.297 F  
HETATM   26  C   UNL     1     -10.821  10.072  70.198  1.00  0.00    -0.365 A  
HETATM   27  C   UNL     1     -12.166  10.008  70.646  1.00  0.00    -0.360 A  
HETATM   28  C   UNL     1     -12.567   9.196  71.710  1.00  0.00    -0.370 A  
HETATM   29  C   UNL     1     -11.651   8.402  72.370  1.00  0.00    -0.450 A  
HETATM   30 CL   UNL     1     -14.214   9.188  72.209  1.00  0.00    -0.430 Cl 
HETATM   31  C   UNL     1     -10.323   8.427  71.958  1.00  0.00    -0.304 A  
HETATM   32  C   UNL     1      -9.893   9.253  70.882  1.00  0.00    -0.363 A  
HETATM   33 CL   UNL     1      -9.227   7.418  72.858  1.00  0.00    -0.181 Cl 
HETATM   34  C   UNL     1      -8.550   9.307  70.485  1.00  0.00    -0.271 A  
ENDBRANCH  12  15
ENDBRANCH  11  12
ENDBRANCH  10  11
ENDBRANCH   5  10
ENDBRANCH   4   5
ENDBRANCH   3   4
ENDBRANCH   2   3
TORSDOF 10
ENDMDL
MODEL       46
REMARK 921   NORMALIZED FREE ENERGY PREDICTED BY IDOCK:   -5.23 KCAL/MOL
REMARK 922        TOTAL FREE ENERGY PREDICTED BY IDOCK:  -10.78 KCAL/MOL
REMARK 923 INTER-LIGAND FREE ENERGY PREDICTED BY IDOCK:   -9.41 KCAL/MOL
REMARK 924 INTRA-LIGAND FREE ENERGY PREDICTED BY IDOCK:   -1.37 KCAL/MOL
REMARK 927      BINDING AFFINITY PREDICTED BY RF-SCORE:    0.00 PKD
ROOT
HETATM    1  C   UNL     1     -11.802  15.364  72.711  1.00  0.00    -0.563 C  
HETATM    2  C   UNL     1     -11.906  16.182  71.432  1.00  0.00    -0.490 C  
ENDROOT
BRANCH   2   3
HETATM    3  C   UNL     1     -11.386  15.375  70.243  1.00  0.00    -0.332 C  
BRANCH   3   4
HETATM    4  C   UNL     1     -11.638  16.043  68.886  1.00  0.00    -0.354 C  
BRANCH   4   5
HETATM    5  N   UNL     1     -10.508  16.156  67.930  1.00  0.00    -0.281 NA 
BRANCH   5   6
HETATM    6  C   UNL     1      -9.215  15.908  68.603  1.00  0.00    -0.209 C  
BRANCH   6   7
HETATM    7  C   UNL     1      -8.009  16.721  68.094  1.00  0.00    -0.181 C  
BRANCH   7   8
HETATM    8  C   UNL     1      -6.978  15.896  67.328  1.00  0.00    -0.241 C  
HETATM    9  C   UNL     1      -6.374  14.821  68.227  1.00  0.00    -0.123 C  
ENDBRANCH   7   8
ENDBRANCH   6   7
ENDBRANCH   5   6
BRANCH   5  10
HETATM   10  C   UNL     1     -10.696  15.208  66.798  1.00  0.00    -0.311 C  
BRANCH  10  11
HETATM   11  C   UNL     1     -10.320  13.778  67.181  1.00  0.00    -0.261 C  
BRANCH  11  12
HETATM   12  C   UNL     1     -11.457  12.762  67.001  1.00  0.00    -0.341 C  
HETATM   13  H   UNL     1     -12.720  12.251  65.586  1.00  0.00     0.000 HD 
HETATM   14  O   UNL     1     -12.016  12.880  65.697  1.00  0.00    -0.392 OA 
BRANCH  12  15
HETATM   15  C   UNL     1     -11.011  11.316  67.230  1.00  0.00    -0.342 A  
HETATM   16  C   UNL     1     -11.290  10.625  68.433  1.00  0.00    -0.348 A  
HETATM   17  C   UNL     1     -12.153  11.164  69.415  1.00  0.00    -0.396 A  
HETATM   18  C   UNL     1     -12.389  10.526  70.631  1.00  0.00    -0.449 A  
HETATM   19  C   UNL     1     -11.769   9.315  70.907  1.00  0.00    -0.360 A  
HETATM   20  C   UNL     1     -11.968   8.612  72.225  1.00  0.00    -0.368 C  
HETATM   21  C   UNL     1     -10.940   8.747  69.925  1.00  0.00    -0.184 A  
HETATM   22  F   UNL     1     -10.798   8.446  72.904  1.00  0.00    -0.399 F  
HETATM   23  C   UNL     1     -10.680   9.359  68.669  1.00  0.00    -0.196 A  
HETATM   24  F   UNL     1     -12.492   7.364  72.077  1.00  0.00    -0.311 F  
HETATM   25  F   UNL     1     -12.802   9.271  73.077  1.00  0.00    -0.329 F  
HETATM   26  C   UNL     1      -9.830   8.761  67.665  1.00  0.00    -0.228 A  
HETATM   27  C   UNL     1      -9.165   7.516  67.827  1.00  0.00    -0.139 A  
HETATM   28  C   UNL     1      -8.339   6.970  66.842  1.00  0.00    -0.118 A  
HETATM   29  C   UNL     1      -8.144   7.630  65.646  1.00  0.00    -0.127 A  
HETATM   30 CL   UNL     1      -7.551   5.467  67.121  1.00  0.00    -0.091 Cl 
HETATM   31  C   UNL     1      -8.783   8.848  65.440  1.00  0.00    -0.191 A  
HETATM   32  C   UNL     1      -9.623   9.425  66.433  1.00  0.00    -0.285 A  
HETATM   33 CL   UNL     1      -8.465   9.628  63.917  1.00  0.00    -0.172 Cl 
HETATM   34  C   UNL     1     -10.242  10.668  66.245  1.00  0.00    -0.304 A  
ENDBRANCH  12  15
ENDBRANCH  11  12
ENDBRANCH  10  11
ENDBRANCH   5  10
ENDBRANCH   4   5
ENDBRANCH   3   4
ENDBRANCH   2   3
TORSDOF 10
ENDMDL
MODEL       47
REMARK 921   NORMALIZED FREE ENERGY PREDICTED BY IDOCK:   -5.23 KCAL/MOL
REMARK 922        TOTAL FREE ENERGY PREDICTED BY IDOCK:  -10.78 KCAL/MOL
REMARK 923 INTER-LIGAND FREE ENERGY PREDICTED BY IDOCK:   -8.45 KCAL/MOL
REMARK 924 INTRA-LIGAND FREE ENERGY PREDICTED BY IDOCK:   -2.32 KCAL/MOL
REMARK 927      BINDING AFFINITY PREDICTED BY RF-SCORE:    0.00 PKD
ROOT
HETATM    1  C   UNL     1      -7.977   5.962  63.535  1.00  0.00    -0.113 C  
HETATM    2  C   UNL     1      -8.318   7.245  64.279  1.00  0.00     0.124 C  
ENDROOT
BRANCH   2   3
HETATM    3  C   UNL     1      -7.302   8.336  63.945  1.00  0.00    -0.100 C  
BRANCH   3   4
HETATM    4  C   UNL     1      -7.910   9.741  63.856  1.00  0.00    -0.144 C  
BRANCH   4   5
HETATM    5  N   UNL     1      -8.733  10.233  64.989  1.00  0.00    -0.172 NA 
BRANCH   5   6
HETATM    6  C   UNL     1      -7.886  10.849  66.034  1.00  0.00    -0.121 C  
BRANCH   6   7
HETATM    7  C   UNL     1      -7.613   9.994  67.286  1.00  0.00    -0.095 C  
BRANCH   7   8
HETATM    8  C   UNL     1      -7.428  10.806  68.566  1.00  0.00    -0.100 C  
HETATM    9  C   UNL     1      -7.949  12.228  68.383  1.00  0.00    -0.152 C  
ENDBRANCH   7   8
ENDBRANCH   6   7
ENDBRANCH   5   6
BRANCH   5  10
HETATM   10  C   UNL     1      -9.749  11.206  64.502  1.00  0.00    -0.265 C  
BRANCH  10  11
HETATM   11  C   UNL     1      -9.841  12.436  65.402  1.00  0.00    -0.200 C  
BRANCH  11  12
HETATM   12  C   UNL     1     -11.230  12.659  66.016  1.00  0.00    -0.306 C  
HETATM   13  H   UNL     1     -13.101  12.367  65.490  1.00  0.00     0.000 HD 
HETATM   14  O   UNL     1     -12.241  12.228  65.110  1.00  0.00    -0.462 OA 
BRANCH  12  15
HETATM   15  C   UNL     1     -11.416  11.943  67.356  1.00  0.00    -0.393 A  
HETATM   16  C   UNL     1     -11.805  12.633  68.529  1.00  0.00    -0.342 A  
HETATM   17  C   UNL     1     -12.224  13.983  68.491  1.00  0.00    -0.210 A  
HETATM   18  C   UNL     1     -12.550  14.695  69.644  1.00  0.00    -0.105 A  
HETATM   19  C   UNL     1     -12.474  14.074  70.883  1.00  0.00    -0.439 A  
HETATM   20  C   UNL     1     -12.781  14.820  72.157  1.00  0.00    -0.326 C  
HETATM   21  C   UNL     1     -12.098  12.721  70.934  1.00  0.00    -0.144 A  
HETATM   22  F   UNL     1     -11.717  14.853  73.005  1.00  0.00    -0.407 F  
HETATM   23  C   UNL     1     -11.766  11.957  69.782  1.00  0.00    -0.403 A  
HETATM   24  F   UNL     1     -13.800  14.254  72.859  1.00  0.00    -0.529 F  
HETATM   25  F   UNL     1     -13.139  16.119  71.958  1.00  0.00    -0.498 F  
HETATM   26  C   UNL     1     -11.389  10.563  69.848  1.00  0.00    -0.380 A  
HETATM   27  C   UNL     1     -11.301   9.821  71.055  1.00  0.00    -0.460 A  
HETATM   28  C   UNL     1     -10.919   8.477  71.086  1.00  0.00    -0.253 A  
HETATM   29  C   UNL     1     -10.617   7.807  69.919  1.00  0.00    -0.239 A  
HETATM   30 CL   UNL     1     -10.815   7.650  72.592  1.00  0.00    -0.360 Cl 
HETATM   31  C   UNL     1     -10.699   8.492  68.712  1.00  0.00    -0.054 A  
HETATM   32  C   UNL     1     -11.079   9.863  68.658  1.00  0.00    -0.182 A  
HETATM   33 CL   UNL     1     -10.278   7.584  67.289  1.00  0.00    -0.305 Cl 
HETATM   34  C   UNL     1     -11.129  10.568  67.448  1.00  0.00    -0.322 A  
ENDBRANCH  12  15
ENDBRANCH  11  12
ENDBRANCH  10  11
ENDBRANCH   5  10
ENDBRANCH   4   5
ENDBRANCH   3   4
ENDBRANCH   2   3
TORSDOF 10
ENDMDL
MODEL       48
REMARK 921   NORMALIZED FREE ENERGY PREDICTED BY IDOCK:   -5.20 KCAL/MOL
REMARK 922        TOTAL FREE ENERGY PREDICTED BY IDOCK:  -10.74 KCAL/MOL
REMARK 923 INTER-LIGAND FREE ENERGY PREDICTED BY IDOCK:   -7.96 KCAL/MOL
REMARK 924 INTRA-LIGAND FREE ENERGY PREDICTED BY IDOCK:   -2.78 KCAL/MOL
REMARK 927      BINDING AFFINITY PREDICTED BY RF-SCORE:    0.00 PKD
ROOT
HETATM    1  C   UNL     1     -11.031   6.169  67.217  1.00  0.00    -0.418 C  
HETATM    2  C   UNL     1     -11.079   6.923  68.538  1.00  0.00    -0.145 C  
ENDROOT
BRANCH   2   3
HETATM    3  C   UNL     1     -10.980   5.947  69.709  1.00  0.00    -0.452 C  
BRANCH   3   4
HETATM    4  C   UNL     1     -11.096   6.616  71.083  1.00  0.00    -0.279 C  
BRANCH   4   5
HETATM    5  N   UNL     1     -11.200   8.095  71.147  1.00  0.00    -0.252 NA 
BRANCH   5   6
HETATM    6  C   UNL     1     -12.448   8.512  71.824  1.00  0.00    -0.342 C  
BRANCH   6   7
HETATM    7  C   UNL     1     -12.803  10.009  71.746  1.00  0.00    -0.546 C  
BRANCH   7   8
HETATM    8  C   UNL     1     -12.485  10.656  70.400  1.00  0.00    -0.421 C  
HETATM    9  C   UNL     1     -12.284  12.160  70.558  1.00  0.00    -0.392 C  
ENDBRANCH   7   8
ENDBRANCH   6   7
ENDBRANCH   5   6
BRANCH   5  10
HETATM   10  C   UNL     1     -10.015   8.664  71.846  1.00  0.00    -0.322 C  
BRANCH  10  11
HETATM   11  C   UNL     1      -8.757   8.602  70.983  1.00  0.00    -0.227 C  
BRANCH  11  12
HETATM   12  C   UNL     1      -8.568   9.817  70.065  1.00  0.00    -0.204 C  
HETATM   13  H   UNL     1      -7.279  11.287  69.869  1.00  0.00     0.000 HD 
HETATM   14  O   UNL     1      -7.396  10.535  70.438  1.00  0.00    -0.205 OA 
BRANCH  12  15
HETATM   15  C   UNL     1      -8.478   9.442  68.583  1.00  0.00    -0.119 A  
HETATM   16  C   UNL     1      -9.151  10.178  67.580  1.00  0.00    -0.143 A  
HETATM   17  C   UNL     1      -9.791  11.407  67.864  1.00  0.00    -0.188 A  
HETATM   18  C   UNL     1     -10.511  12.113  66.902  1.00  0.00    -0.250 A  
HETATM   19  C   UNL     1     -10.612  11.612  65.611  1.00  0.00    -0.324 A  
HETATM   20  C   UNL     1     -11.413  12.326  64.551  1.00  0.00    -0.341 C  
HETATM   21  C   UNL     1      -9.948  10.413  65.302  1.00  0.00    -0.376 A  
HETATM   22  F   UNL     1     -12.427  11.557  64.066  1.00  0.00    -0.337 F  
HETATM   23  C   UNL     1      -9.197   9.667  66.250  1.00  0.00    -0.213 A  
HETATM   24  F   UNL     1     -10.658  12.671  63.472  1.00  0.00    -0.409 F  
HETATM   25  F   UNL     1     -11.994  13.478  64.987  1.00  0.00    -0.335 F  
HETATM   26  C   UNL     1      -8.512   8.438  65.918  1.00  0.00    -0.159 A  
HETATM   27  C   UNL     1      -8.525   7.847  64.627  1.00  0.00     0.029 A  
HETATM   28  C   UNL     1      -7.865   6.650  64.340  1.00  0.00    -0.114 A  
HETATM   29  C   UNL     1      -7.152   5.990  65.320  1.00  0.00    -0.065 A  
HETATM   30 CL   UNL     1      -7.945   5.985  62.755  1.00  0.00    -0.101 Cl 
HETATM   31  C   UNL     1      -7.104   6.538  66.598  1.00  0.00    -0.068 A  
HETATM   32  C   UNL     1      -7.776   7.753  66.912  1.00  0.00    -0.103 A  
HETATM   33 CL   UNL     1      -6.206   5.633  67.782  1.00  0.00    -0.032 Cl 
HETATM   34  C   UNL     1      -7.760   8.292  68.206  1.00  0.00    -0.106 A  
ENDBRANCH  12  15
ENDBRANCH  11  12
ENDBRANCH  10  11
ENDBRANCH   5  10
ENDBRANCH   4   5
ENDBRANCH   3   4
ENDBRANCH   2   3
TORSDOF 10
ENDMDL
MODEL       49
REMARK 921   NORMALIZED FREE ENERGY PREDICTED BY IDOCK:   -5.20 KCAL/MOL
REMARK 922        TOTAL FREE ENERGY PREDICTED BY IDOCK:  -10.74 KCAL/MOL
REMARK 923 INTER-LIGAND FREE ENERGY PREDICTED BY IDOCK:   -9.62 KCAL/MOL
REMARK 924 INTRA-LIGAND FREE ENERGY PREDICTED BY IDOCK:   -1.11 KCAL/MOL
REMARK 927      BINDING AFFINITY PREDICTED BY RF-SCORE:    0.00 PKD
ROOT
HETATM    1  C   UNL     1      -8.214  17.161  66.222  1.00  0.00    -0.306 C  
HETATM    2  C   UNL     1      -9.042  15.907  65.984  1.00  0.00    -0.363 C  
ENDROOT
BRANCH   2   3
HETATM    3  C   UNL     1     -10.469  16.282  65.587  1.00  0.00    -0.386 C  
BRANCH   3   4
HETATM    4  C   UNL     1     -11.213  15.172  64.835  1.00  0.00    -0.417 C  
BRANCH   4   5
HETATM    5  N   UNL     1     -12.381  14.530  65.489  1.00  0.00    -0.316 NA 
BRANCH   5   6
HETATM    6  C   UNL     1     -12.822  13.336  64.736  1.00  0.00    -0.191 C  
BRANCH   6   7
HETATM    7  C   UNL     1     -12.017  12.989  63.469  1.00  0.00    -0.615 C  
BRANCH   7   8
HETATM    8  C   UNL     1     -11.360  11.612  63.505  1.00  0.00    -0.447 C  
HETATM    9  C   UNL     1      -9.846  11.732  63.362  1.00  0.00    -0.407 C  
ENDBRANCH   7   8
ENDBRANCH   6   7
ENDBRANCH   5   6
BRANCH   5  10
HETATM   10  C   UNL     1     -12.048  14.166  66.893  1.00  0.00    -0.432 C  
BRANCH  10  11
HETATM   11  C   UNL     1     -11.888  12.658  67.071  1.00  0.00    -0.415 C  
BRANCH  11  12
HETATM   12  C   UNL     1     -10.434  12.200  67.249  1.00  0.00    -0.218 C  
HETATM   13  H   UNL     1      -8.930  12.612  68.445  1.00  0.00     0.000 HD 
HETATM   14  O   UNL     1      -9.831  12.896  68.335  1.00  0.00    -0.224 OA 
BRANCH  12  15
HETATM   15  C   UNL     1     -10.304  10.693  67.482  1.00  0.00    -0.254 A  
HETATM   16  C   UNL     1     -10.825  10.064  68.638  1.00  0.00    -0.265 A  
HETATM   17  C   UNL     1     -11.655  10.756  69.549  1.00  0.00    -0.375 A  
HETATM   18  C   UNL     1     -12.125  10.170  70.723  1.00  0.00    -0.438 A  
HETATM   19  C   UNL     1     -11.783   8.859  71.025  1.00  0.00    -0.340 A  
HETATM   20  C   UNL     1     -12.239   8.201  72.302  1.00  0.00    -0.346 C  
HETATM   21  C   UNL     1     -10.992   8.144  70.109  1.00  0.00    -0.223 A  
HETATM   22  F   UNL     1     -11.194   7.804  73.080  1.00  0.00    -0.393 F  
HETATM   23  C   UNL     1     -10.500   8.701  68.897  1.00  0.00    -0.211 A  
HETATM   24  F   UNL     1     -12.982   7.083  72.076  1.00  0.00    -0.339 F  
HETATM   25  F   UNL     1     -13.005   9.007  73.090  1.00  0.00    -0.354 F  
HETATM   26  C   UNL     1      -9.694   7.952  67.960  1.00  0.00    -0.182 A  
HETATM   27  C   UNL     1      -9.304   6.600  68.152  1.00  0.00    -0.114 A  
HETATM   28  C   UNL     1      -8.512   5.908  67.234  1.00  0.00    -0.103 A  
HETATM   29  C   UNL     1      -8.079   6.523  66.077  1.00  0.00    -0.121 A  
HETATM   30 CL   UNL     1      -8.063   4.276  67.547  1.00  0.00    -0.098 Cl 
HETATM   31  C   UNL     1      -8.445   7.844  65.843  1.00  0.00    -0.138 A  
HETATM   32  C   UNL     1      -9.245   8.570  66.770  1.00  0.00    -0.215 A  
HETATM   33 CL   UNL     1      -7.838   8.555  64.376  1.00  0.00    -0.132 Cl 
HETATM   34  C   UNL     1      -9.588   9.912  66.556  1.00  0.00    -0.243 A  
ENDBRANCH  12  15
ENDBRANCH  11  12
ENDBRANCH  10  11
ENDBRANCH   5  10
ENDBRANCH   4   5
ENDBRANCH   3   4
ENDBRANCH   2   3
TORSDOF 10
ENDMDL
MODEL       50
REMARK 921   NORMALIZED FREE ENERGY PREDICTED BY IDOCK:   -5.18 KCAL/MOL
REMARK 922        TOTAL FREE ENERGY PREDICTED BY IDOCK:  -10.71 KCAL/MOL
REMARK 923 INTER-LIGAND FREE ENERGY PREDICTED BY IDOCK:   -8.89 KCAL/MOL
REMARK 924 INTRA-LIGAND FREE ENERGY PREDICTED BY IDOCK:   -1.82 KCAL/MOL
REMARK 927      BINDING AFFINITY PREDICTED BY RF-SCORE:    0.00 PKD
ROOT
HETATM    1  C   UNL     1     -12.332   6.379  71.967  1.00  0.00    -0.268 C  
HETATM    2  C   UNL     1     -11.119   5.592  71.493  1.00  0.00    -0.235 C  
ENDROOT
BRANCH   2   3
HETATM    3  C   UNL     1     -10.809   5.924  70.034  1.00  0.00    -0.421 C  
BRANCH   3   4
HETATM    4  C   UNL     1      -9.556   6.789  69.849  1.00  0.00    -0.155 C  
BRANCH   4   5
HETATM    5  N   UNL     1      -9.083   7.609  70.993  1.00  0.00    -0.147 NA 
BRANCH   5   6
HETATM    6  C   UNL     1      -7.658   7.342  71.285  1.00  0.00    -0.083 C  
BRANCH   6   7
HETATM    7  C   UNL     1      -7.361   6.502  72.542  1.00  0.00    -0.089 C  
BRANCH   7   8
HETATM    8  C   UNL     1      -8.385   6.673  73.662  1.00  0.00    -0.125 C  
HETATM    9  C   UNL     1      -8.162   7.990  74.400  1.00  0.00    -0.284 C  
ENDBRANCH   7   8
ENDBRANCH   6   7
ENDBRANCH   5   6
BRANCH   5  10
HETATM   10  C   UNL     1      -9.294   9.055  70.710  1.00  0.00    -0.249 C  
BRANCH  10  11
HETATM   11  C   UNL     1     -10.574   9.583  71.354  1.00  0.00    -0.307 C  
BRANCH  11  12
HETATM   12  C   UNL     1     -11.748   9.736  70.378  1.00  0.00    -0.231 C  
HETATM   13  H   UNL     1     -13.695   9.977  70.494  1.00  0.00     0.000 HD 
HETATM   14  O   UNL     1     -12.968   9.883  71.098  1.00  0.00    -0.351 OA 
BRANCH  12  15
HETATM   15  C   UNL     1     -11.583  10.920  69.422  1.00  0.00    -0.387 A  
HETATM   16  C   UNL     1     -11.078  10.760  68.109  1.00  0.00    -0.337 A  
HETATM   17  C   UNL     1     -10.874   9.481  67.543  1.00  0.00    -0.239 A  
HETATM   18  C   UNL     1     -10.319   9.305  66.277  1.00  0.00    -0.192 A  
HETATM   19  C   UNL     1      -9.953  10.413  65.525  1.00  0.00    -0.348 A  
HETATM   20  C   UNL     1      -9.315  10.266  64.167  1.00  0.00    -0.287 C  
HETATM   21  C   UNL     1     -10.187  11.693  66.057  1.00  0.00    -0.270 A  
HETATM   22  F   UNL     1      -8.074  10.825  64.116  1.00  0.00    -0.121 F  
HETATM   23  C   UNL     1     -10.757  11.915  67.339  1.00  0.00    -0.271 A  
HETATM   24  F   UNL     1     -10.037  10.870  63.183  1.00  0.00    -0.319 F  
HETATM   25  F   UNL     1      -9.156   8.971  63.774  1.00  0.00    -0.176 F  
HETATM   26  C   UNL     1     -11.000  13.237  67.871  1.00  0.00    -0.270 A  
HETATM   27  C   UNL     1     -10.688  14.439  67.183  1.00  0.00    -0.283 A  
HETATM   28  C   UNL     1     -10.922  15.703  67.730  1.00  0.00    -0.316 A  
HETATM   29  C   UNL     1     -11.486  15.830  68.984  1.00  0.00    -0.394 A  
HETATM   30 CL   UNL     1     -10.498  17.114  66.842  1.00  0.00    -0.305 Cl 
HETATM   31  C   UNL     1     -11.815  14.679  69.690  1.00  0.00    -0.320 A  
HETATM   32  C   UNL     1     -11.579  13.382  69.154  1.00  0.00    -0.365 A  
HETATM   33 CL   UNL     1     -12.498  14.925  71.272  1.00  0.00    -0.365 Cl 
HETATM   34  C   UNL     1     -11.878  12.219  69.876  1.00  0.00    -0.383 A  
ENDBRANCH  12  15
ENDBRANCH  11  12
ENDBRANCH  10  11
ENDBRANCH   5  10
ENDBRANCH   4   5
ENDBRANCH   3   4
ENDBRANCH   2   3
TORSDOF 10
ENDMDL
MODEL       51
REMARK 921   NORMALIZED FREE ENERGY PREDICTED BY IDOCK:   -5.16 KCAL/MOL
REMARK 922        TOTAL FREE ENERGY PREDICTED BY IDOCK:  -10.68 KCAL/MOL
REMARK 923 INTER-LIGAND FREE ENERGY PREDICTED BY IDOCK:   -7.98 KCAL/MOL
REMARK 924 INTRA-LIGAND FREE ENERGY PREDICTED BY IDOCK:   -2.70 KCAL/MOL
REMARK 927      BINDING AFFINITY PREDICTED BY RF-SCORE:    0.00 PKD
ROOT
HETATM    1  C   UNL     1      -7.658  12.917  67.893  1.00  0.00    -0.138 C  
HETATM    2  C   UNL     1      -7.047  12.099  69.021  1.00  0.00    -0.062 C  
ENDROOT
BRANCH   2   3
HETATM    3  C   UNL     1      -7.418  10.625  68.868  1.00  0.00    -0.108 C  
BRANCH   3   4
HETATM    4  C   UNL     1      -7.739   9.927  70.195  1.00  0.00    -0.175 C  
BRANCH   4   5
HETATM    5  N   UNL     1      -7.616   8.449  70.268  1.00  0.00    -0.065 NA 
BRANCH   5   6
HETATM    6  C   UNL     1      -8.593   7.881  71.223  1.00  0.00    -0.125 C  
BRANCH   6   7
HETATM    7  C   UNL     1      -8.449   8.321  72.692  1.00  0.00    -0.248 C  
BRANCH   7   8
HETATM    8  C   UNL     1      -8.598   7.184  73.700  1.00  0.00    -0.176 C  
HETATM    9  C   UNL     1     -10.071   6.894  73.972  1.00  0.00    -0.383 C  
ENDBRANCH   7   8
ENDBRANCH   6   7
ENDBRANCH   5   6
BRANCH   5  10
HETATM   10  C   UNL     1      -7.800   7.851  68.918  1.00  0.00    -0.117 C  
BRANCH  10  11
HETATM   11  C   UNL     1      -9.224   7.339  68.708  1.00  0.00    -0.137 C  
BRANCH  11  12
HETATM   12  C   UNL     1     -10.004   8.090  67.620  1.00  0.00    -0.180 C  
HETATM   13  H   UNL     1     -11.388   7.668  66.289  1.00  0.00     0.000 HD 
HETATM   14  O   UNL     1     -10.904   7.203  66.963  1.00  0.00    -0.351 OA 
BRANCH  12  15
HETATM   15  C   UNL     1     -10.785   9.290  68.162  1.00  0.00    -0.205 A  
HETATM   16  C   UNL     1     -10.838  10.525  67.472  1.00  0.00    -0.357 A  
HETATM   17  C   UNL     1     -10.331  10.664  66.160  1.00  0.00    -0.291 A  
HETATM   18  C   UNL     1     -10.318  11.887  65.491  1.00  0.00    -0.303 A  
HETATM   19  C   UNL     1     -10.822  13.020  66.116  1.00  0.00    -0.296 A  
HETATM   20  C   UNL     1     -10.792  14.368  65.442  1.00  0.00    -0.344 C  
HETATM   21  C   UNL     1     -11.367  12.890  67.405  1.00  0.00    -0.355 A  
HETATM   22  F   UNL     1     -10.071  15.282  66.148  1.00  0.00    -0.249 F  
HETATM   23  C   UNL     1     -11.407  11.661  68.117  1.00  0.00    -0.358 A  
HETATM   24  F   UNL     1     -12.034  14.906  65.297  1.00  0.00    -0.346 F  
HETATM   25  F   UNL     1     -10.246  14.345  64.195  1.00  0.00    -0.114 F  
HETATM   26  C   UNL     1     -11.977  11.539  69.440  1.00  0.00    -0.392 A  
HETATM   27  C   UNL     1     -12.541  12.623  70.164  1.00  0.00     0.031 A  
HETATM   28  C   UNL     1     -13.072  12.475  71.447  1.00  0.00    -0.210 A  
HETATM   29  C   UNL     1     -13.076  11.243  72.068  1.00  0.00    -0.431 A  
HETATM   30 CL   UNL     1     -13.720  13.841  72.269  1.00  0.00    -0.621 Cl 
HETATM   31  C   UNL     1     -12.541  10.151  71.392  1.00  0.00    -0.422 A  
HETATM   32  C   UNL     1     -11.989  10.281  70.086  1.00  0.00    -0.313 A  
HETATM   33 CL   UNL     1     -12.561   8.638  72.251  1.00  0.00    -0.444 Cl 
HETATM   34  C   UNL     1     -11.418   9.191  69.415  1.00  0.00     0.304 A  
ENDBRANCH  12  15
ENDBRANCH  11  12
ENDBRANCH  10  11
ENDBRANCH   5  10
ENDBRANCH   4   5
ENDBRANCH   3   4
ENDBRANCH   2   3
TORSDOF 10
ENDMDL
MODEL       52
REMARK 921   NORMALIZED FREE ENERGY PREDICTED BY IDOCK:   -5.16 KCAL/MOL
REMARK 922        TOTAL FREE ENERGY PREDICTED BY IDOCK:  -10.67 KCAL/MOL
REMARK 923 INTER-LIGAND FREE ENERGY PREDICTED BY IDOCK:   -9.35 KCAL/MOL
REMARK 924 INTRA-LIGAND FREE ENERGY PREDICTED BY IDOCK:   -1.32 KCAL/MOL
REMARK 927      BINDING AFFINITY PREDICTED BY RF-SCORE:    0.00 PKD
ROOT
HETATM    1  C   UNL     1      -7.101   5.702  62.355  1.00  0.00    -0.041 C  
HETATM    2  C   UNL     1      -7.865   6.514  63.390  1.00  0.00    -0.106 C  
ENDROOT
BRANCH   2   3
HETATM    3  C   UNL     1      -7.325   7.942  63.449  1.00  0.00    -0.108 C  
BRANCH   3   4
HETATM    4  C   UNL     1      -8.399   9.019  63.261  1.00  0.00    -0.189 C  
BRANCH   4   5
HETATM    5  N   UNL     1      -9.145   9.496  64.453  1.00  0.00    -0.218 NA 
BRANCH   5   6
HETATM    6  C   UNL     1      -8.219   9.862  65.547  1.00  0.00    -0.136 C  
BRANCH   6   7
HETATM    7  C   UNL     1      -8.340   9.047  66.849  1.00  0.00    -0.119 C  
BRANCH   7   8
HETATM    8  C   UNL     1      -9.307   7.869  66.759  1.00  0.00    -0.232 C  
HETATM    9  C   UNL     1     -10.666   8.242  67.343  1.00  0.00    -0.236 C  
ENDBRANCH   7   8
ENDBRANCH   6   7
ENDBRANCH   5   6
BRANCH   5  10
HETATM   10  C   UNL     1     -10.006  10.654  64.091  1.00  0.00    -0.342 C  
BRANCH  10  11
HETATM   11  C   UNL     1      -9.898  11.788  65.107  1.00  0.00    -0.263 C  
BRANCH  11  12
HETATM   12  C   UNL     1     -10.966  12.879  64.944  1.00  0.00    -0.301 C  
HETATM   13  H   UNL     1     -12.831  12.989  64.337  1.00  0.00     0.000 HD 
HETATM   14  O   UNL     1     -12.171  12.313  64.438  1.00  0.00    -0.410 OA 
BRANCH  12  15
HETATM   15  C   UNL     1     -11.267  13.623  66.247  1.00  0.00    -0.313 A  
HETATM   16  C   UNL     1     -11.025  15.010  66.393  1.00  0.00    -0.336 A  
HETATM   17  C   UNL     1     -10.669  15.821  65.291  1.00  0.00    -0.446 A  
HETATM   18  C   UNL     1     -10.367  17.175  65.427  1.00  0.00    -0.038 A  
HETATM   19  C   UNL     1     -10.417  17.770  66.681  1.00  0.00    -0.300 A  
HETATM   20  C   UNL     1     -10.061  19.221  66.877  1.00  0.00    -0.374 C  
HETATM   21  C   UNL     1     -10.808  16.986  67.780  1.00  0.00    -0.269 A  
HETATM   22  F   UNL     1      -9.011  19.384  67.730  1.00  0.00    -0.315 F  
HETATM   23  C   UNL     1     -11.133  15.606  67.682  1.00  0.00    -0.305 A  
HETATM   24  F   UNL     1     -11.086  19.943  67.407  1.00  0.00    -0.498 F  
HETATM   25  F   UNL     1      -9.709  19.860  65.726  1.00  0.00    -0.439 F  
HETATM   26  C   UNL     1     -11.541  14.814  68.820  1.00  0.00    -0.347 A  
HETATM   27  C   UNL     1     -11.651  15.321  70.142  1.00  0.00    -0.328 A  
HETATM   28  C   UNL     1     -12.035  14.525  71.224  1.00  0.00    -0.333 A  
HETATM   29  C   UNL     1     -12.338  13.192  71.041  1.00  0.00    -0.355 A  
HETATM   30 CL   UNL     1     -12.125  15.208  72.801  1.00  0.00    -0.477 Cl 
HETATM   31  C   UNL     1     -12.253  12.655  69.761  1.00  0.00    -0.143 A  
HETATM   32  C   UNL     1     -11.857  13.446  68.646  1.00  0.00    -0.397 A  
HETATM   33 CL   UNL     1     -12.627  10.961  69.618  1.00  0.00    -0.214 Cl 
HETATM   34  C   UNL     1     -11.736  12.902  67.360  1.00  0.00    -0.428 A  
ENDBRANCH  12  15
ENDBRANCH  11  12
ENDBRANCH  10  11
ENDBRANCH   5  10
ENDBRANCH   4   5
ENDBRANCH   3   4
ENDBRANCH   2   3
TORSDOF 10
ENDMDL
MODEL       53
REMARK 921   NORMALIZED FREE ENERGY PREDICTED BY IDOCK:   -5.15 KCAL/MOL
REMARK 922        TOTAL FREE ENERGY PREDICTED BY IDOCK:  -10.65 KCAL/MOL
REMARK 923 INTER-LIGAND FREE ENERGY PREDICTED BY IDOCK:   -7.98 KCAL/MOL
REMARK 924 INTRA-LIGAND FREE ENERGY PREDICTED BY IDOCK:   -2.67 KCAL/MOL
REMARK 927      BINDING AFFINITY PREDICTED BY RF-SCORE:    0.00 PKD
ROOT
HETATM    1  C   UNL     1     -11.766  13.336  69.522  1.00  0.00    -0.384 C  
HETATM    2  C   UNL     1     -11.946  11.934  68.959  1.00  0.00    -0.321 C  
ENDROOT
BRANCH   2   3
HETATM    3  C   UNL     1     -11.192  10.918  69.816  1.00  0.00    -0.351 C  
BRANCH   3   4
HETATM    4  C   UNL     1     -10.663   9.715  69.027  1.00  0.00    -0.211 C  
BRANCH   4   5
HETATM    5  N   UNL     1      -9.584   8.890  69.626  1.00  0.00    -0.166 NA 
BRANCH   5   6
HETATM    6  C   UNL     1      -8.913   8.065  68.599  1.00  0.00    -0.134 C  
BRANCH   6   7
HETATM    7  C   UNL     1      -9.161   6.546  68.671  1.00  0.00    -0.128 C  
BRANCH   7   8
HETATM    8  C   UNL     1     -10.618   6.141  68.461  1.00  0.00    -0.327 C  
HETATM    9  C   UNL     1     -11.067   6.460  67.038  1.00  0.00    -0.405 C  
ENDBRANCH   7   8
ENDBRANCH   6   7
ENDBRANCH   5   6
BRANCH   5  10
HETATM   10  C   UNL     1      -8.597   9.762  70.320  1.00  0.00    -0.129 C  
BRANCH  10  11
HETATM   11  C   UNL     1      -7.438  10.154  69.406  1.00  0.00    -0.119 C  
BRANCH  11  12
HETATM   12  C   UNL     1      -7.235  11.669  69.268  1.00  0.00    -0.020 C  
HETATM   13  H   UNL     1      -5.728  12.902  69.006  1.00  0.00     0.000 HD 
HETATM   14  O   UNL     1      -5.853  11.964  69.092  1.00  0.00    -0.059 OA 
BRANCH  12  15
HETATM   15  C   UNL     1      -8.032  12.278  68.112  1.00  0.00    -0.155 A  
HETATM   16  C   UNL     1      -8.362  13.653  68.069  1.00  0.00    -0.170 A  
HETATM   17  C   UNL     1      -7.818  14.576  68.993  1.00  0.00    -0.106 A  
HETATM   18  C   UNL     1      -8.181  15.922  69.004  1.00  0.00    -0.234 A  
HETATM   19  C   UNL     1      -9.103  16.395  68.080  1.00  0.00    -0.201 A  
HETATM   20  C   UNL     1      -9.550  17.835  68.083  1.00  0.00    -0.303 C  
HETATM   21  C   UNL     1      -9.621  15.499  67.129  1.00  0.00    -0.228 A  
HETATM   22  F   UNL     1     -10.892  17.958  68.280  1.00  0.00    -0.358 F  
HETATM   23  C   UNL     1      -9.272  14.123  67.078  1.00  0.00    -0.249 A  
HETATM   24  F   UNL     1      -9.287  18.465  66.905  1.00  0.00    -0.262 F  
HETATM   25  F   UNL     1      -8.960  18.590  69.051  1.00  0.00    -0.307 F  
HETATM   26  C   UNL     1      -9.807  13.214  66.090  1.00  0.00    -0.284 A  
HETATM   27  C   UNL     1     -10.736  13.592  65.085  1.00  0.00    -0.349 A  
HETATM   28  C   UNL     1     -11.246  12.685  64.152  1.00  0.00    -0.386 A  
HETATM   29  C   UNL     1     -10.849  11.364  64.169  1.00  0.00    -0.431 A  
HETATM   30 CL   UNL     1     -12.384  13.215  62.976  1.00  0.00    -0.276 Cl 
HETATM   31  C   UNL     1      -9.934  10.951  65.131  1.00  0.00    -0.284 A  
HETATM   32  C   UNL     1      -9.407  11.857  66.095  1.00  0.00    -0.228 A  
HETATM   33 CL   UNL     1      -9.504   9.265  65.102  1.00  0.00    -0.260 Cl 
HETATM   34  C   UNL     1      -8.511  11.439  67.088  1.00  0.00    -0.153 A  
ENDBRANCH  12  15
ENDBRANCH  11  12
ENDBRANCH  10  11
ENDBRANCH   5  10
ENDBRANCH   4   5
ENDBRANCH   3   4
ENDBRANCH   2   3
TORSDOF 10
ENDMDL
MODEL       54
REMARK 921   NORMALIZED FREE ENERGY PREDICTED BY IDOCK:   -5.09 KCAL/MOL
REMARK 922        TOTAL FREE ENERGY PREDICTED BY IDOCK:  -10.56 KCAL/MOL
REMARK 923 INTER-LIGAND FREE ENERGY PREDICTED BY IDOCK:   -8.69 KCAL/MOL
REMARK 924 INTRA-LIGAND FREE ENERGY PREDICTED BY IDOCK:   -1.87 KCAL/MOL
REMARK 927      BINDING AFFINITY PREDICTED BY RF-SCORE:    0.00 PKD
ROOT
HETATM    1  C   UNL     1     -11.580   6.282  71.102  1.00  0.00    -0.339 C  
HETATM    2  C   UNL     1     -11.198   6.250  69.630  1.00  0.00    -0.506 C  
ENDROOT
BRANCH   2   3
HETATM    3  C   UNL     1      -9.907   7.035  69.400  1.00  0.00    -0.160 C  
BRANCH   3   4
HETATM    4  C   UNL     1     -10.076   8.249  68.479  1.00  0.00    -0.197 C  
BRANCH   4   5
HETATM    5  N   UNL     1      -9.688   9.588  68.990  1.00  0.00    -0.165 NA 
BRANCH   5   6
HETATM    6  C   UNL     1     -10.299   9.851  70.310  1.00  0.00    -0.281 C  
BRANCH   6   7
HETATM    7  C   UNL     1     -11.560  10.737  70.318  1.00  0.00    -0.427 C  
BRANCH   7   8
HETATM    8  C   UNL     1     -11.643  11.713  69.146  1.00  0.00    -0.378 C  
HETATM    9  C   UNL     1     -11.728  13.151  69.648  1.00  0.00    -0.370 C  
ENDBRANCH   7   8
ENDBRANCH   6   7
ENDBRANCH   5   6
BRANCH   5  10
HETATM   10  C   UNL     1      -8.205   9.695  69.072  1.00  0.00    -0.113 C  
BRANCH  10  11
HETATM   11  C   UNL     1      -7.552   9.667  67.692  1.00  0.00    -0.091 C  
BRANCH  11  12
HETATM   12  C   UNL     1      -6.840  10.972  67.310  1.00  0.00    -0.088 C  
HETATM   13  H   UNL     1      -5.839  11.669  65.770  1.00  0.00     0.000 HD 
HETATM   14  O   UNL     1      -6.280  10.861  66.006  1.00  0.00    -0.132 OA 
BRANCH  12  15
HETATM   15  C   UNL     1      -7.760  12.195  67.360  1.00  0.00    -0.165 A  
HETATM   16  C   UNL     1      -8.931  12.286  66.571  1.00  0.00    -0.161 A  
HETATM   17  C   UNL     1      -9.417  11.183  65.833  1.00  0.00    -0.241 A  
HETATM   18  C   UNL     1     -10.533  11.274  65.002  1.00  0.00    -0.359 A  
HETATM   19  C   UNL     1     -11.208  12.481  64.884  1.00  0.00    -0.344 A  
HETATM   20  C   UNL     1     -12.396  12.631  63.968  1.00  0.00    -0.443 C  
HETATM   21  C   UNL     1     -10.762  13.577  65.643  1.00  0.00    -0.284 A  
HETATM   22  F   UNL     1     -12.190  13.574  63.007  1.00  0.00    -0.581 F  
HETATM   23  C   UNL     1      -9.635  13.524  66.507  1.00  0.00    -0.284 A  
HETATM   24  F   UNL     1     -13.521  13.013  64.631  1.00  0.00    -0.076 F  
HETATM   25  F   UNL     1     -12.722  11.488  63.303  1.00  0.00    -0.636 F  
HETATM   26  C   UNL     1      -9.191  14.656  67.287  1.00  0.00    -0.212 A  
HETATM   27  C   UNL     1      -9.819  15.930  67.265  1.00  0.00    -0.234 A  
HETATM   28  C   UNL     1      -9.356  17.010  68.021  1.00  0.00    -0.245 A  
HETATM   29  C   UNL     1      -8.255  16.872  68.841  1.00  0.00    -0.218 A  
HETATM   30 CL   UNL     1     -10.158  18.529  67.925  1.00  0.00    -0.372 Cl 
HETATM   31  C   UNL     1      -7.615  15.639  68.901  1.00  0.00    -0.173 A  
HETATM   32  C   UNL     1      -8.065  14.528  68.134  1.00  0.00    -0.137 A  
HETATM   33 CL   UNL     1      -6.220  15.554  69.938  1.00  0.00    -0.157 Cl 
HETATM   34  C   UNL     1      -7.403  13.293  68.164  1.00  0.00    -0.120 A  
ENDBRANCH  12  15
ENDBRANCH  11  12
ENDBRANCH  10  11
ENDBRANCH   5  10
ENDBRANCH   4   5
ENDBRANCH   3   4
ENDBRANCH   2   3
TORSDOF 10
ENDMDL
MODEL       55
REMARK 921   NORMALIZED FREE ENERGY PREDICTED BY IDOCK:   -5.09 KCAL/MOL
REMARK 922        TOTAL FREE ENERGY PREDICTED BY IDOCK:  -10.56 KCAL/MOL
REMARK 923 INTER-LIGAND FREE ENERGY PREDICTED BY IDOCK:   -7.83 KCAL/MOL
REMARK 924 INTRA-LIGAND FREE ENERGY PREDICTED BY IDOCK:   -2.73 KCAL/MOL
REMARK 927      BINDING AFFINITY PREDICTED BY RF-SCORE:    0.00 PKD
ROOT
HETATM    1  C   UNL     1     -12.456   7.519  71.778  1.00  0.00    -0.360 C  
HETATM    2  C   UNL     1     -11.224   7.771  72.635  1.00  0.00    -0.438 C  
ENDROOT
BRANCH   2   3
HETATM    3  C   UNL     1     -10.207   8.614  71.867  1.00  0.00    -0.404 C  
BRANCH   3   4
HETATM    4  C   UNL     1      -9.971   8.140  70.428  1.00  0.00    -0.188 C  
BRANCH   4   5
HETATM    5  N   UNL     1      -9.524   9.131  69.417  1.00  0.00    -0.157 NA 
BRANCH   5   6
HETATM    6  C   UNL     1     -10.672   9.891  68.876  1.00  0.00    -0.221 C  
BRANCH   6   7
HETATM    7  C   UNL     1     -10.878  11.311  69.436  1.00  0.00    -0.239 C  
BRANCH   7   8
HETATM    8  C   UNL     1     -11.878  12.153  68.648  1.00  0.00    -0.358 C  
HETATM    9  C   UNL     1     -12.002  13.550  69.251  1.00  0.00    -0.378 C  
ENDBRANCH   7   8
ENDBRANCH   6   7
ENDBRANCH   5   6
BRANCH   5  10
HETATM   10  C   UNL     1      -8.522  10.056  70.013  1.00  0.00    -0.097 C  
BRANCH  10  11
HETATM   11  C   UNL     1      -7.229  10.099  69.201  1.00  0.00    -0.081 C  
BRANCH  11  12
HETATM   12  C   UNL     1      -6.794  11.512  68.790  1.00  0.00    -0.084 C  
HETATM   13  H   UNL     1      -5.189  12.365  68.045  1.00  0.00     0.000 HD 
HETATM   14  O   UNL     1      -5.458  11.490  68.299  1.00  0.00    -0.043 OA 
BRANCH  12  15
HETATM   15  C   UNL     1      -7.709  12.138  67.734  1.00  0.00    -0.139 A  
HETATM   16  C   UNL     1      -8.119  13.490  67.803  1.00  0.00    -0.177 A  
HETATM   17  C   UNL     1      -7.562  14.389  68.741  1.00  0.00    -0.131 A  
HETATM   18  C   UNL     1      -7.999  15.707  68.863  1.00  0.00    -0.193 A  
HETATM   19  C   UNL     1      -9.013  16.176  68.039  1.00  0.00    -0.185 A  
HETATM   20  C   UNL     1      -9.540  17.583  68.165  1.00  0.00    -0.294 C  
HETATM   21  C   UNL     1      -9.549  15.307  67.073  1.00  0.00    -0.233 A  
HETATM   22  F   UNL     1     -10.868  17.611  68.465  1.00  0.00    -0.327 F  
HETATM   23  C   UNL     1      -9.126  13.960  66.910  1.00  0.00    -0.257 A  
HETATM   24  F   UNL     1      -9.403  18.296  67.013  1.00  0.00    -0.255 F  
HETATM   25  F   UNL     1      -8.923  18.314  69.134  1.00  0.00    -0.225 F  
HETATM   26  C   UNL     1      -9.681  13.079  65.908  1.00  0.00    -0.187 A  
HETATM   27  C   UNL     1     -10.703  13.458  64.997  1.00  0.00    -0.354 A  
HETATM   28  C   UNL     1     -11.228  12.578  64.048  1.00  0.00    -0.403 A  
HETATM   29  C   UNL     1     -10.757  11.285  63.953  1.00  0.00    -0.451 A  
HETATM   30 CL   UNL     1     -12.480  13.105  62.991  1.00  0.00    -0.194 Cl 
HETATM   31  C   UNL     1      -9.750  10.874  64.820  1.00  0.00    -0.271 A  
HETATM   32  C   UNL     1      -9.206  11.752  65.799  1.00  0.00    -0.148 A  
HETATM   33 CL   UNL     1      -9.229   9.222  64.653  1.00  0.00    -0.193 Cl 
HETATM   34  C   UNL     1      -8.215  11.332  66.697  1.00  0.00    -0.164 A  
ENDBRANCH  12  15
ENDBRANCH  11  12
ENDBRANCH  10  11
ENDBRANCH   5  10
ENDBRANCH   4   5
ENDBRANCH   3   4
ENDBRANCH   2   3
TORSDOF 10
ENDMDL
MODEL       56
REMARK 921   NORMALIZED FREE ENERGY PREDICTED BY IDOCK:   -5.04 KCAL/MOL
REMARK 922        TOTAL FREE ENERGY PREDICTED BY IDOCK:  -10.48 KCAL/MOL
REMARK 923 INTER-LIGAND FREE ENERGY PREDICTED BY IDOCK:  -10.14 KCAL/MOL
REMARK 924 INTRA-LIGAND FREE ENERGY PREDICTED BY IDOCK:   -0.34 KCAL/MOL
REMARK 927      BINDING AFFINITY PREDICTED BY RF-SCORE:    0.00 PKD
ROOT
HETATM    1  C   UNL     1      -9.717  19.909  66.280  1.00  0.00    -0.551 C  
HETATM    2  C   UNL     1     -10.408  18.555  66.220  1.00  0.00    -0.459 C  
ENDROOT
BRANCH   2   3
HETATM    3  C   UNL     1      -9.768  17.588  67.214  1.00  0.00    -0.276 C  
BRANCH   3   4
HETATM    4  C   UNL     1     -10.769  16.942  68.180  1.00  0.00    -0.375 C  
BRANCH   4   5
HETATM    5  N   UNL     1     -10.915  15.464  68.168  1.00  0.00    -0.285 NA 
BRANCH   5   6
HETATM    6  C   UNL     1     -12.110  15.043  68.931  1.00  0.00    -0.188 C  
BRANCH   6   7
HETATM    7  C   UNL     1     -11.931  14.884  70.453  1.00  0.00    -0.368 C  
BRANCH   7   8
HETATM    8  C   UNL     1     -13.133  15.344  71.273  1.00  0.00    -0.564 C  
HETATM    9  C   UNL     1     -13.397  14.383  72.429  1.00  0.00    -0.546 C  
ENDBRANCH   7   8
ENDBRANCH   6   7
ENDBRANCH   5   6
BRANCH   5  10
HETATM   10  C   UNL     1     -10.989  14.967  66.767  1.00  0.00    -0.326 C  
BRANCH  10  11
HETATM   11  C   UNL     1     -12.209  14.075  66.541  1.00  0.00    -0.485 C  
BRANCH  11  12
HETATM   12  C   UNL     1     -11.928  12.839  65.676  1.00  0.00    -0.452 C  
HETATM   13  H   UNL     1     -10.989  12.439  63.996  1.00  0.00     0.000 HD 
HETATM   14  O   UNL     1     -11.163  13.205  64.532  1.00  0.00    -0.324 OA 
BRANCH  12  15
HETATM   15  C   UNL     1     -11.199  11.728  66.435  1.00  0.00    -0.382 A  
HETATM   16  C   UNL     1     -10.314  10.832  65.789  1.00  0.00    -0.295 A  
HETATM   17  C   UNL     1      -9.910  11.026  64.448  1.00  0.00    -0.351 A  
HETATM   18  C   UNL     1      -9.090  10.119  63.778  1.00  0.00    -0.293 A  
HETATM   19  C   UNL     1      -8.638   8.982  64.434  1.00  0.00    -0.174 A  
HETATM   20  C   UNL     1      -7.780   7.959  63.734  1.00  0.00    -0.135 C  
HETATM   21  C   UNL     1      -8.997   8.797  65.780  1.00  0.00    -0.253 A  
HETATM   22  F   UNL     1      -8.366   6.730  63.704  1.00  0.00    -0.082 F  
HETATM   23  C   UNL     1      -9.823   9.700  66.502  1.00  0.00    -0.298 A  
HETATM   24  F   UNL     1      -6.576   7.784  64.343  1.00  0.00    -0.053 F  
HETATM   25  F   UNL     1      -7.503   8.272  62.437  1.00  0.00    -0.092 F  
HETATM   26  C   UNL     1     -10.179   9.501  67.889  1.00  0.00    -0.251 A  
HETATM   27  C   UNL     1      -9.755   8.390  68.665  1.00  0.00    -0.171 A  
HETATM   28  C   UNL     1     -10.128   8.218  70.000  1.00  0.00    -0.196 A  
HETATM   29  C   UNL     1     -10.932   9.147  70.629  1.00  0.00    -0.319 A  
HETATM   30 CL   UNL     1      -9.590   6.834  70.869  1.00  0.00    -0.170 Cl 
HETATM   31  C   UNL     1     -11.363  10.256  69.909  1.00  0.00    -0.290 A  
HETATM   32  C   UNL     1     -11.000  10.446  68.546  1.00  0.00    -0.302 A  
HETATM   33 CL   UNL     1     -12.393  11.367  70.765  1.00  0.00    -0.482 Cl 
HETATM   34  C   UNL     1     -11.461  11.544  67.806  1.00  0.00    -0.357 A  
ENDBRANCH  12  15
ENDBRANCH  11  12
ENDBRANCH  10  11
ENDBRANCH   5  10
ENDBRANCH   4   5
ENDBRANCH   3   4
ENDBRANCH   2   3
TORSDOF 10
ENDMDL
MODEL       57
REMARK 921   NORMALIZED FREE ENERGY PREDICTED BY IDOCK:   -5.03 KCAL/MOL
REMARK 922        TOTAL FREE ENERGY PREDICTED BY IDOCK:  -10.47 KCAL/MOL
REMARK 923 INTER-LIGAND FREE ENERGY PREDICTED BY IDOCK:   -8.06 KCAL/MOL
REMARK 924 INTRA-LIGAND FREE ENERGY PREDICTED BY IDOCK:   -2.41 KCAL/MOL
REMARK 927      BINDING AFFINITY PREDICTED BY RF-SCORE:    0.00 PKD
ROOT
HETATM    1  C   UNL     1      -8.567   3.567  69.840  1.00  0.00    -0.104 C  
HETATM    2  C   UNL     1      -8.074   5.006  69.846  1.00  0.00    -0.074 C  
ENDROOT
BRANCH   2   3
HETATM    3  C   UNL     1      -7.226   5.281  68.606  1.00  0.00    -0.062 C  
BRANCH   3   4
HETATM    4  C   UNL     1      -7.735   4.581  67.340  1.00  0.00    -0.089 C  
BRANCH   4   5
HETATM    5  N   UNL     1      -7.693   5.320  66.053  1.00  0.00    -0.090 NA 
BRANCH   5   6
HETATM    6  C   UNL     1      -8.989   5.977  65.776  1.00  0.00    -0.104 C  
BRANCH   6   7
HETATM    7  C   UNL     1     -10.204   5.457  66.568  1.00  0.00    -0.287 C  
BRANCH   7   8
HETATM    8  C   UNL     1     -10.983   6.546  67.301  1.00  0.00    -0.475 C  
HETATM    9  C   UNL     1     -11.151   6.190  68.775  1.00  0.00    -0.398 C  
ENDBRANCH   7   8
ENDBRANCH   6   7
ENDBRANCH   5   6
BRANCH   5  10
HETATM   10  C   UNL     1      -6.595   6.324  66.073  1.00  0.00    -0.048 C  
BRANCH  10  11
HETATM   11  C   UNL     1      -7.054   7.686  65.555  1.00  0.00    -0.063 C  
BRANCH  11  12
HETATM   12  C   UNL     1      -6.910   8.824  66.575  1.00  0.00    -0.072 C  
HETATM   13  H   UNL     1      -6.219  10.663  66.591  1.00  0.00     0.000 HD 
HETATM   14  O   UNL     1      -6.309   9.959  65.960  1.00  0.00    -0.074 OA 
BRANCH  12  15
HETATM   15  C   UNL     1      -8.242   9.239  67.203  1.00  0.00    -0.117 A  
HETATM   16  C   UNL     1      -9.196  10.012  66.500  1.00  0.00    -0.182 A  
HETATM   17  C   UNL     1      -9.057  10.287  65.120  1.00  0.00    -0.234 A  
HETATM   18  C   UNL     1      -9.954  11.098  64.427  1.00  0.00    -0.354 A  
HETATM   19  C   UNL     1     -11.033  11.662  65.095  1.00  0.00    -0.326 A  
HETATM   20  C   UNL     1     -12.003  12.575  64.390  1.00  0.00    -0.404 C  
HETATM   21  C   UNL     1     -11.208  11.365  66.457  1.00  0.00    -0.276 A  
HETATM   22  F   UNL     1     -12.041  13.817  64.948  1.00  0.00    -0.345 F  
HETATM   23  C   UNL     1     -10.322  10.536  67.198  1.00  0.00    -0.285 A  
HETATM   24  F   UNL     1     -13.282  12.109  64.432  1.00  0.00    -0.512 F  
HETATM   25  F   UNL     1     -11.717  12.767  63.072  1.00  0.00    -0.543 F  
HETATM   26  C   UNL     1     -10.518  10.233  68.598  1.00  0.00    -0.215 A  
HETATM   27  C   UNL     1     -11.597  10.733  69.375  1.00  0.00    -0.380 A  
HETATM   28  C   UNL     1     -11.751  10.432  70.730  1.00  0.00    -0.368 A  
HETATM   29  C   UNL     1     -10.846   9.613  71.374  1.00  0.00    -0.294 A  
HETATM   30 CL   UNL     1     -13.074  11.093  71.609  1.00  0.00    -0.560 Cl 
HETATM   31  C   UNL     1      -9.779   9.094  70.650  1.00  0.00    -0.256 A  
HETATM   32  C   UNL     1      -9.599   9.394  69.270  1.00  0.00    -0.171 A  
HETATM   33 CL   UNL     1      -8.669   8.092  71.540  1.00  0.00    -0.166 Cl 
HETATM   34  C   UNL     1      -8.507   8.901  68.544  1.00  0.00    -0.129 A  
ENDBRANCH  12  15
ENDBRANCH  11  12
ENDBRANCH  10  11
ENDBRANCH   5  10
ENDBRANCH   4   5
ENDBRANCH   3   4
ENDBRANCH   2   3
TORSDOF 10
ENDMDL
MODEL       58
REMARK 921   NORMALIZED FREE ENERGY PREDICTED BY IDOCK:   -4.98 KCAL/MOL
REMARK 922        TOTAL FREE ENERGY PREDICTED BY IDOCK:  -10.39 KCAL/MOL
REMARK 923 INTER-LIGAND FREE ENERGY PREDICTED BY IDOCK:   -8.18 KCAL/MOL
REMARK 924 INTRA-LIGAND FREE ENERGY PREDICTED BY IDOCK:   -2.21 KCAL/MOL
REMARK 927      BINDING AFFINITY PREDICTED BY RF-SCORE:    0.00 PKD
ROOT
HETATM    1  C   UNL     1     -11.916  14.791  69.759  1.00  0.00    -0.368 C  
HETATM    2  C   UNL     1     -11.647  13.398  69.209  1.00  0.00    -0.365 C  
ENDROOT
BRANCH   2   3
HETATM    3  C   UNL     1     -11.938  12.342  70.274  1.00  0.00    -0.371 C  
BRANCH   3   4
HETATM    4  C   UNL     1     -11.886  10.903  69.750  1.00  0.00    -0.345 C  
BRANCH   4   5
HETATM    5  N   UNL     1     -11.123   9.891  70.523  1.00  0.00    -0.307 NA 
BRANCH   5   6
HETATM    6  C   UNL     1     -12.033   8.919  71.168  1.00  0.00    -0.293 C  
BRANCH   6   7
HETATM    7  C   UNL     1     -11.745   8.587  72.645  1.00  0.00    -0.301 C  
BRANCH   7   8
HETATM    8  C   UNL     1     -11.014   7.263  72.855  1.00  0.00    -0.381 C  
HETATM    9  C   UNL     1     -11.476   6.224  71.838  1.00  0.00    -0.360 C  
ENDBRANCH   7   8
ENDBRANCH   6   7
ENDBRANCH   5   6
BRANCH   5  10
HETATM   10  C   UNL     1     -10.156   9.189  69.637  1.00  0.00    -0.198 C  
BRANCH  10  11
HETATM   11  C   UNL     1     -10.604   9.199  68.177  1.00  0.00    -0.235 C  
BRANCH  11  12
HETATM   12  C   UNL     1      -9.486   9.536  67.181  1.00  0.00    -0.149 C  
HETATM   13  H   UNL     1      -8.938   8.962  65.384  1.00  0.00     0.000 HD 
HETATM   14  O   UNL     1      -9.630   8.754  66.000  1.00  0.00    -0.245 OA 
BRANCH  12  15
HETATM   15  C   UNL     1      -9.447  11.018  66.802  1.00  0.00    -0.203 A  
HETATM   16  C   UNL     1      -8.591  11.938  67.454  1.00  0.00    -0.164 A  
HETATM   17  C   UNL     1      -7.593  11.510  68.360  1.00  0.00    -0.125 A  
HETATM   18  C   UNL     1      -6.784  12.405  69.057  1.00  0.00    -0.100 A  
HETATM   19  C   UNL     1      -6.943  13.771  68.865  1.00  0.00    -0.111 A  
HETATM   20  C   UNL     1      -6.114  14.774  69.627  1.00  0.00    -0.121 C  
HETATM   21  C   UNL     1      -7.902  14.212  67.937  1.00  0.00    -0.157 A  
HETATM   22  F   UNL     1      -6.880  15.606  70.385  1.00  0.00    -0.035 F  
HETATM   23  C   UNL     1      -8.741  13.332  67.200  1.00  0.00    -0.215 A  
HETATM   24  F   UNL     1      -5.387  15.581  68.806  1.00  0.00    -0.094 F  
HETATM   25  F   UNL     1      -5.220  14.207  70.484  1.00  0.00    -0.095 F  
HETATM   26  C   UNL     1      -9.719  13.798  66.243  1.00  0.00    -0.297 A  
HETATM   27  C   UNL     1      -9.950  15.168  65.949  1.00  0.00    -0.355 A  
HETATM   28  C   UNL     1     -10.913  15.587  65.028  1.00  0.00    -0.440 A  
HETATM   29  C   UNL     1     -11.684  14.665  64.350  1.00  0.00    -0.358 A  
HETATM   30 CL   UNL     1     -11.150  17.267  64.740  1.00  0.00     0.179 Cl 
HETATM   31  C   UNL     1     -11.485  13.311  64.601  1.00  0.00    -0.342 A  
HETATM   32  C   UNL     1     -10.514  12.863  65.540  1.00  0.00    -0.305 A  
HETATM   33 CL   UNL     1     -12.513  12.214  63.725  1.00  0.00    -0.625 Cl 
HETATM   34  C   UNL     1     -10.333  11.502  65.822  1.00  0.00    -0.295 A  
ENDBRANCH  12  15
ENDBRANCH  11  12
ENDBRANCH  10  11
ENDBRANCH   5  10
ENDBRANCH   4   5
ENDBRANCH   3   4
ENDBRANCH   2   3
TORSDOF 10
ENDMDL
MODEL       59
REMARK 921   NORMALIZED FREE ENERGY PREDICTED BY IDOCK:   -4.97 KCAL/MOL
REMARK 922        TOTAL FREE ENERGY PREDICTED BY IDOCK:  -10.37 KCAL/MOL
REMARK 923 INTER-LIGAND FREE ENERGY PREDICTED BY IDOCK:   -8.03 KCAL/MOL
REMARK 924 INTRA-LIGAND FREE ENERGY PREDICTED BY IDOCK:   -2.34 KCAL/MOL
REMARK 927      BINDING AFFINITY PREDICTED BY RF-SCORE:    0.00 PKD
ROOT
HETATM    1  C   UNL     1     -11.640  11.906  69.258  1.00  0.00    -0.376 C  
HETATM    2  C   UNL     1     -10.642  10.784  69.502  1.00  0.00    -0.235 C  
ENDROOT
BRANCH   2   3
HETATM    3  C   UNL     1     -10.911   9.619  68.551  1.00  0.00    -0.202 C  
BRANCH   3   4
HETATM    4  C   UNL     1      -9.703   8.697  68.345  1.00  0.00    -0.162 C  
BRANCH   4   5
HETATM    5  N   UNL     1      -8.682   8.612  69.420  1.00  0.00    -0.137 NA 
BRANCH   5   6
HETATM    6  C   UNL     1      -8.721   7.292  70.086  1.00  0.00    -0.140 C  
BRANCH   6   7
HETATM    7  C   UNL     1      -9.791   7.106  71.179  1.00  0.00    -0.180 C  
BRANCH   7   8
HETATM    8  C   UNL     1      -9.821   8.224  72.218  1.00  0.00    -0.364 C  
HETATM    9  C   UNL     1      -9.365   7.707  73.579  1.00  0.00    -0.339 C  
ENDBRANCH   7   8
ENDBRANCH   6   7
ENDBRANCH   5   6
BRANCH   5  10
HETATM   10  C   UNL     1      -7.327   8.874  68.863  1.00  0.00    -0.075 C  
BRANCH  10  11
HETATM   11  C   UNL     1      -7.358   9.065  67.348  1.00  0.00    -0.084 C  
BRANCH  11  12
HETATM   12  C   UNL     1      -6.789  10.410  66.875  1.00  0.00    -0.088 C  
HETATM   13  H   UNL     1      -6.079  11.166  65.206  1.00  0.00     0.000 HD 
HETATM   14  O   UNL     1      -6.431  10.333  65.499  1.00  0.00    -0.106 OA 
BRANCH  12  15
HETATM   15  C   UNL     1      -7.759  11.576  67.079  1.00  0.00    -0.158 A  
HETATM   16  C   UNL     1      -8.923  11.733  66.290  1.00  0.00    -0.176 A  
HETATM   17  C   UNL     1      -9.355  10.725  65.397  1.00  0.00    -0.243 A  
HETATM   18  C   UNL     1     -10.463  10.889  64.567  1.00  0.00    -0.393 A  
HETATM   19  C   UNL     1     -11.186  12.073  64.607  1.00  0.00    -0.380 A  
HETATM   20  C   UNL     1     -12.367  12.304  63.700  1.00  0.00    -0.562 C  
HETATM   21  C   UNL     1     -10.793  13.069  65.519  1.00  0.00    -0.298 A  
HETATM   22  F   UNL     1     -12.188  13.380  62.884  1.00  0.00    -0.579 F  
HETATM   23  C   UNL     1      -9.676  12.938  66.387  1.00  0.00    -0.263 A  
HETATM   24  F   UNL     1     -13.515  12.546  64.390  1.00  0.00    -0.239 F  
HETATM   25  F   UNL     1     -12.639  11.254  62.876  1.00  0.00    -0.391 F  
HETATM   26  C   UNL     1      -9.288  13.967  67.325  1.00  0.00    -0.230 A  
HETATM   27  C   UNL     1      -9.966  15.206  67.470  1.00  0.00    -0.225 A  
HETATM   28  C   UNL     1      -9.557  16.187  68.377  1.00  0.00    -0.209 A  
HETATM   29  C   UNL     1      -8.462  15.977  69.189  1.00  0.00    -0.247 A  
HETATM   30 CL   UNL     1     -10.420  17.672  68.480  1.00  0.00    -0.358 Cl 
HETATM   31  C   UNL     1      -7.772  14.774  69.088  1.00  0.00    -0.144 A  
HETATM   32  C   UNL     1      -8.168  13.765  68.165  1.00  0.00    -0.160 A  
HETATM   33 CL   UNL     1      -6.388  14.598  70.128  1.00  0.00    -0.167 Cl 
HETATM   34  C   UNL     1      -7.456  12.564  68.035  1.00  0.00    -0.117 A  
ENDBRANCH  12  15
ENDBRANCH  11  12
ENDBRANCH  10  11
ENDBRANCH   5  10
ENDBRANCH   4   5
ENDBRANCH   3   4
ENDBRANCH   2   3
TORSDOF 10
ENDMDL
MODEL       60
REMARK 921   NORMALIZED FREE ENERGY PREDICTED BY IDOCK:   -4.96 KCAL/MOL
REMARK 922        TOTAL FREE ENERGY PREDICTED BY IDOCK:  -10.36 KCAL/MOL
REMARK 923 INTER-LIGAND FREE ENERGY PREDICTED BY IDOCK:   -9.86 KCAL/MOL
REMARK 924 INTRA-LIGAND FREE ENERGY PREDICTED BY IDOCK:   -0.50 KCAL/MOL
REMARK 927      BINDING AFFINITY PREDICTED BY RF-SCORE:    0.00 PKD
ROOT
HETATM    1  C   UNL     1     -13.955  13.640  72.043  1.00  0.00    -0.518 C  
HETATM    2  C   UNL     1     -13.061  14.385  73.022  1.00  0.00    -0.581 C  
ENDROOT
BRANCH   2   3
HETATM    3  C   UNL     1     -12.042  15.238  72.268  1.00  0.00    -0.487 C  
BRANCH   3   4
HETATM    4  C   UNL     1     -11.784  14.767  70.832  1.00  0.00    -0.307 C  
BRANCH   4   5
HETATM    5  N   UNL     1     -11.917  15.750  69.727  1.00  0.00    -0.347 NA 
BRANCH   5   6
HETATM    6  C   UNL     1     -10.749  16.657  69.678  1.00  0.00    -0.286 C  
BRANCH   6   7
HETATM    7  C   UNL     1     -10.429  17.288  68.310  1.00  0.00    -0.385 C  
BRANCH   7   8
HETATM    8  C   UNL     1      -9.580  18.555  68.392  1.00  0.00    -0.383 C  
HETATM    9  C   UNL     1     -10.294  19.727  67.726  1.00  0.00    -0.573 C  
ENDBRANCH   7   8
ENDBRANCH   6   7
ENDBRANCH   5   6
BRANCH   5  10
HETATM   10  C   UNL     1     -12.080  15.042  68.427  1.00  0.00    -0.104 C  
BRANCH  10  11
HETATM   11  C   UNL     1     -11.825  13.542  68.556  1.00  0.00    -0.398 C  
BRANCH  11  12
HETATM   12  C   UNL     1     -10.571  13.055  67.817  1.00  0.00    -0.226 C  
HETATM   13  H   UNL     1      -8.625  13.270  67.984  1.00  0.00     0.000 HD 
HETATM   14  O   UNL     1      -9.401  13.572  68.442  1.00  0.00    -0.203 OA 
BRANCH  12  15
HETATM   15  C   UNL     1     -10.472  11.529  67.745  1.00  0.00    -0.216 A  
HETATM   16  C   UNL     1     -10.947  10.696  68.786  1.00  0.00    -0.292 A  
HETATM   17  C   UNL     1     -11.707  11.212  69.861  1.00  0.00    -0.433 A  
HETATM   18  C   UNL     1     -12.129  10.416  70.925  1.00  0.00    -0.477 A  
HETATM   19  C   UNL     1     -11.809   9.066  70.947  1.00  0.00    -0.302 A  
HETATM   20  C   UNL     1     -12.214   8.180  72.097  1.00  0.00    -0.350 C  
HETATM   21  C   UNL     1     -11.089   8.529  69.865  1.00  0.00    -0.114 A  
HETATM   22  F   UNL     1     -11.140   7.620  72.720  1.00  0.00    -0.302 F  
HETATM   23  C   UNL     1     -10.648   9.303  68.757  1.00  0.00    -0.220 A  
HETATM   24  F   UNL     1     -12.999   7.140  71.703  1.00  0.00    -0.359 F  
HETATM   25  F   UNL     1     -12.912   8.829  73.069  1.00  0.00    -0.413 F  
HETATM   26  C   UNL     1      -9.915   8.737  67.647  1.00  0.00    -0.247 A  
HETATM   27  C   UNL     1      -9.554   7.367  67.551  1.00  0.00    -0.171 A  
HETATM   28  C   UNL     1      -8.833   6.854  66.471  1.00  0.00    -0.140 A  
HETATM   29  C   UNL     1      -8.446   7.675  65.432  1.00  0.00    -0.110 A  
HETATM   30 CL   UNL     1      -8.414   5.185  66.435  1.00  0.00    -0.112 Cl 
HETATM   31  C   UNL     1      -8.786   9.022  65.480  1.00  0.00    -0.181 A  
HETATM   32  C   UNL     1      -9.514   9.568  66.575  1.00  0.00    -0.236 A  
HETATM   33 CL   UNL     1      -8.239   9.995  64.145  1.00  0.00    -0.152 Cl 
HETATM   34  C   UNL     1      -9.830  10.931  66.645  1.00  0.00    -0.237 A  
ENDBRANCH  12  15
ENDBRANCH  11  12
ENDBRANCH  10  11
ENDBRANCH   5  10
ENDBRANCH   4   5
ENDBRANCH   3   4
ENDBRANCH   2   3
TORSDOF 10
ENDMDL
MODEL       61
REMARK 921   NORMALIZED FREE ENERGY PREDICTED BY IDOCK:   -4.95 KCAL/MOL
REMARK 922        TOTAL FREE ENERGY PREDICTED BY IDOCK:  -10.34 KCAL/MOL
REMARK 923 INTER-LIGAND FREE ENERGY PREDICTED BY IDOCK:   -8.24 KCAL/MOL
REMARK 924 INTRA-LIGAND FREE ENERGY PREDICTED BY IDOCK:   -2.11 KCAL/MOL
REMARK 927      BINDING AFFINITY PREDICTED BY RF-SCORE:    0.00 PKD
ROOT
HETATM    1  C   UNL     1      -9.303   7.891  73.239  1.00  0.00    -0.351 C  
HETATM    2  C   UNL     1     -10.758   7.463  73.121  1.00  0.00    -0.436 C  
ENDROOT
BRANCH   2   3
HETATM    3  C   UNL     1     -11.473   8.299  72.060  1.00  0.00    -0.399 C  
BRANCH   3   4
HETATM    4  C   UNL     1     -10.861   8.176  70.660  1.00  0.00    -0.233 C  
BRANCH   4   5
HETATM    5  N   UNL     1     -10.609   9.415  69.882  1.00  0.00    -0.222 NA 
BRANCH   5   6
HETATM    6  C   UNL     1     -11.449  10.530  70.373  1.00  0.00    -0.341 C  
BRANCH   6   7
HETATM    7  C   UNL     1     -11.764  11.647  69.361  1.00  0.00    -0.405 C  
BRANCH   7   8
HETATM    8  C   UNL     1     -11.569  13.059  69.909  1.00  0.00    -0.249 C  
HETATM    9  C   UNL     1     -12.335  14.075  69.068  1.00  0.00    -0.139 C  
ENDBRANCH   7   8
ENDBRANCH   6   7
ENDBRANCH   5   6
BRANCH   5  10
HETATM   10  C   UNL     1      -9.168   9.780  69.951  1.00  0.00    -0.234 C  
BRANCH  10  11
HETATM   11  C   UNL     1      -8.384   9.244  68.755  1.00  0.00    -0.117 C  
BRANCH  11  12
HETATM   12  C   UNL     1      -7.439  10.270  68.115  1.00  0.00    -0.086 C  
HETATM   13  H   UNL     1      -6.403  10.434  66.453  1.00  0.00     0.000 HD 
HETATM   14  O   UNL     1      -6.989   9.798  66.849  1.00  0.00    -0.086 OA 
BRANCH  12  15
HETATM   15  C   UNL     1      -8.079  11.649  67.941  1.00  0.00    -0.138 A  
HETATM   16  C   UNL     1      -9.128  11.879  67.019  1.00  0.00    -0.191 A  
HETATM   17  C   UNL     1      -9.769  10.816  66.343  1.00  0.00    -0.241 A  
HETATM   18  C   UNL     1     -10.760  11.029  65.387  1.00  0.00    -0.222 A  
HETATM   19  C   UNL     1     -11.150  12.325  65.076  1.00  0.00    -0.359 A  
HETATM   20  C   UNL     1     -12.191  12.600  64.020  1.00  0.00    -0.463 C  
HETATM   21  C   UNL     1     -10.551  13.391  65.768  1.00  0.00    -0.286 A  
HETATM   22  F   UNL     1     -11.704  13.361  63.001  1.00  0.00    -0.391 F  
HETATM   23  C   UNL     1      -9.545  13.216  66.756  1.00  0.00    -0.249 A  
HETATM   24  F   UNL     1     -13.265  13.277  64.511  1.00  0.00    -0.126 F  
HETATM   25  F   UNL     1     -12.692  11.475  63.438  1.00  0.00    -0.599 F  
HETATM   26  C   UNL     1      -8.942  14.322  67.466  1.00  0.00    -0.197 A  
HETATM   27  C   UNL     1      -9.280  15.683  67.248  1.00  0.00    -0.214 A  
HETATM   28  C   UNL     1      -8.669  16.731  67.941  1.00  0.00    -0.203 A  
HETATM   29  C   UNL     1      -7.701  16.473  68.890  1.00  0.00    -0.236 A  
HETATM   30 CL   UNL     1      -9.118  18.358  67.607  1.00  0.00    -0.276 Cl 
HETATM   31  C   UNL     1      -7.345  15.153  69.143  1.00  0.00    -0.167 A  
HETATM   32  C   UNL     1      -7.950  14.071  68.442  1.00  0.00    -0.143 A  
HETATM   33 CL   UNL     1      -6.100  14.914  70.334  1.00  0.00    -0.152 Cl 
HETATM   34  C   UNL     1      -7.570  12.741  68.668  1.00  0.00    -0.085 A  
ENDBRANCH  12  15
ENDBRANCH  11  12
ENDBRANCH  10  11
ENDBRANCH   5  10
ENDBRANCH   4   5
ENDBRANCH   3   4
ENDBRANCH   2   3
TORSDOF 10
ENDMDL
MODEL       62
REMARK 921   NORMALIZED FREE ENERGY PREDICTED BY IDOCK:   -4.94 KCAL/MOL
REMARK 922        TOTAL FREE ENERGY PREDICTED BY IDOCK:  -10.32 KCAL/MOL
REMARK 923 INTER-LIGAND FREE ENERGY PREDICTED BY IDOCK:   -7.64 KCAL/MOL
REMARK 924 INTRA-LIGAND FREE ENERGY PREDICTED BY IDOCK:   -2.68 KCAL/MOL
REMARK 927      BINDING AFFINITY PREDICTED BY RF-SCORE:    0.00 PKD
ROOT
HETATM    1  C   UNL     1     -10.654   5.340  66.212  1.00  0.00    -0.308 C  
HETATM    2  C   UNL     1     -10.937   5.999  67.554  1.00  0.00    -0.335 C  
ENDROOT
BRANCH   2   3
HETATM    3  C   UNL     1     -10.162   5.294  68.665  1.00  0.00    -0.223 C  
BRANCH   3   4
HETATM    4  C   UNL     1     -10.219   6.018  70.016  1.00  0.00    -0.205 C  
BRANCH   4   5
HETATM    5  N   UNL     1     -11.439   6.793  70.355  1.00  0.00    -0.345 NA 
BRANCH   5   6
HETATM    6  C   UNL     1     -11.988   6.374  71.663  1.00  0.00    -0.291 C  
BRANCH   6   7
HETATM    7  C   UNL     1     -11.365   5.116  72.296  1.00  0.00    -0.058 C  
BRANCH   7   8
HETATM    8  C   UNL     1     -10.834   5.328  73.712  1.00  0.00    -0.315 C  
HETATM    9  C   UNL     1     -10.335   6.759  73.892  1.00  0.00    -0.397 C  
ENDBRANCH   7   8
ENDBRANCH   6   7
ENDBRANCH   5   6
BRANCH   5  10
HETATM   10  C   UNL     1     -11.137   8.251  70.361  1.00  0.00    -0.235 C  
BRANCH  10  11
HETATM   11  C   UNL     1      -9.712   8.538  70.829  1.00  0.00    -0.221 C  
BRANCH  11  12
HETATM   12  C   UNL     1      -9.054   9.736  70.132  1.00  0.00    -0.197 C  
HETATM   13  H   UNL     1      -7.348  10.706  70.239  1.00  0.00     0.000 HD 
HETATM   14  O   UNL     1      -7.755   9.964  70.671  1.00  0.00    -0.289 OA 
BRANCH  12  15
HETATM   15  C   UNL     1      -8.946   9.564  68.615  1.00  0.00    -0.132 A  
HETATM   16  C   UNL     1      -9.685  10.366  67.713  1.00  0.00    -0.181 A  
HETATM   17  C   UNL     1     -10.418  11.493  68.152  1.00  0.00    -0.216 A  
HETATM   18  C   UNL     1     -11.201  12.256  67.288  1.00  0.00    -0.358 A  
HETATM   19  C   UNL     1     -11.272  11.920  65.942  1.00  0.00    -0.373 A  
HETATM   20  C   UNL     1     -12.136  12.697  64.982  1.00  0.00    -0.444 C  
HETATM   21  C   UNL     1     -10.516  10.828  65.483  1.00  0.00    -0.264 A  
HETATM   22  F   UNL     1     -13.089  11.918  64.400  1.00  0.00    -0.437 F  
HETATM   23  C   UNL     1      -9.699  10.029  66.329  1.00  0.00    -0.272 A  
HETATM   24  F   UNL     1     -11.420  13.239  63.958  1.00  0.00    -0.375 F  
HETATM   25  F   UNL     1     -12.804  13.733  65.562  1.00  0.00    -0.495 F  
HETATM   26  C   UNL     1      -8.921   8.913  65.842  1.00  0.00    -0.244 A  
HETATM   27  C   UNL     1      -8.897   8.494  64.485  1.00  0.00     0.119 A  
HETATM   28  C   UNL     1      -8.145   7.401  64.048  1.00  0.00    -0.031 A  
HETATM   29  C   UNL     1      -7.374   6.680  64.937  1.00  0.00    -0.080 A  
HETATM   30 CL   UNL     1      -8.184   6.942  62.390  1.00  0.00    -0.101 Cl 
HETATM   31  C   UNL     1      -7.360   7.061  66.274  1.00  0.00    -0.076 A  
HETATM   32  C   UNL     1      -8.125   8.167  66.742  1.00  0.00    -0.103 A  
HETATM   33 CL   UNL     1      -6.383   6.086  67.334  1.00  0.00    -0.036 Cl 
HETATM   34  C   UNL     1      -8.141   8.534  68.094  1.00  0.00    -0.119 A  
ENDBRANCH  12  15
ENDBRANCH  11  12
ENDBRANCH  10  11
ENDBRANCH   5  10
ENDBRANCH   4   5
ENDBRANCH   3   4
ENDBRANCH   2   3
TORSDOF 10
ENDMDL
MODEL       63
REMARK 921   NORMALIZED FREE ENERGY PREDICTED BY IDOCK:   -4.92 KCAL/MOL
REMARK 922        TOTAL FREE ENERGY PREDICTED BY IDOCK:  -10.29 KCAL/MOL
REMARK 923 INTER-LIGAND FREE ENERGY PREDICTED BY IDOCK:   -8.48 KCAL/MOL
REMARK 924 INTRA-LIGAND FREE ENERGY PREDICTED BY IDOCK:   -1.81 KCAL/MOL
REMARK 927      BINDING AFFINITY PREDICTED BY RF-SCORE:    0.00 PKD
ROOT
HETATM    1  C   UNL     1     -10.893  16.107  69.589  1.00  0.00    -0.338 C  
HETATM    2  C   UNL     1     -10.972  17.057  68.404  1.00  0.00    -0.263 C  
ENDROOT
BRANCH   2   3
HETATM    3  C   UNL     1      -9.939  18.174  68.550  1.00  0.00    -0.408 C  
BRANCH   3   4
HETATM    4  C   UNL     1      -9.572  18.854  67.227  1.00  0.00    -0.307 C  
BRANCH   4   5
HETATM    5  N   UNL     1      -8.258  18.546  66.609  1.00  0.00    -0.265 NA 
BRANCH   5   6
HETATM    6  C   UNL     1      -7.569  19.782  66.179  1.00  0.00    -0.320 C  
BRANCH   6   7
HETATM    7  C   UNL     1      -7.356  20.859  67.260  1.00  0.00    -0.378 C  
BRANCH   7   8
HETATM    8  C   UNL     1      -5.917  20.964  67.761  1.00  0.00    -0.362 C  
HETATM    9  C   UNL     1      -5.823  20.539  69.223  1.00  0.00    -0.398 C  
ENDBRANCH   7   8
ENDBRANCH   6   7
ENDBRANCH   5   6
BRANCH   5  10
HETATM   10  C   UNL     1      -7.408  17.782  67.564  1.00  0.00    -0.198 C  
BRANCH  10  11
HETATM   11  C   UNL     1      -6.905  16.472  66.962  1.00  0.00    -0.248 C  
BRANCH  11  12
HETATM   12  C   UNL     1      -7.191  15.236  67.825  1.00  0.00    -0.165 C  
HETATM   13  H   UNL     1      -7.716  14.866  69.682  1.00  0.00     0.000 HD 
HETATM   14  O   UNL     1      -7.539  15.632  69.147  1.00  0.00    -0.174 OA 
BRANCH  12  15
HETATM   15  C   UNL     1      -8.301  14.350  67.255  1.00  0.00    -0.228 A  
HETATM   16  C   UNL     1      -8.340  12.954  67.484  1.00  0.00    -0.183 A  
HETATM   17  C   UNL     1      -7.466  12.328  68.401  1.00  0.00    -0.122 A  
HETATM   18  C   UNL     1      -7.449  10.947  68.592  1.00  0.00    -0.105 A  
HETATM   19  C   UNL     1      -8.318  10.140  67.870  1.00  0.00    -0.117 A  
HETATM   20  C   UNL     1      -8.305   8.640  68.019  1.00  0.00    -0.123 C  
HETATM   21  C   UNL     1      -9.221  10.752  66.983  1.00  0.00    -0.166 A  
HETATM   22  F   UNL     1      -8.023   8.007  66.846  1.00  0.00    -0.097 F  
HETATM   23  C   UNL     1      -9.277  12.155  66.766  1.00  0.00    -0.207 A  
HETATM   24  F   UNL     1      -9.506   8.147  68.429  1.00  0.00    -0.141 F  
HETATM   25  F   UNL     1      -7.387   8.187  68.917  1.00  0.00    -0.080 F  
HETATM   26  C   UNL     1     -10.217  12.771  65.857  1.00  0.00    -0.300 A  
HETATM   27  C   UNL     1     -11.165  12.049  65.086  1.00  0.00    -0.368 A  
HETATM   28  C   UNL     1     -12.051  12.674  64.205  1.00  0.00    -0.426 A  
HETATM   29  C   UNL     1     -12.042  14.045  64.057  1.00  0.00    -0.413 A  
HETATM   30 CL   UNL     1     -13.159  11.727  63.289  1.00  0.00    -0.255 Cl 
HETATM   31  C   UNL     1     -11.136  14.794  64.799  1.00  0.00    -0.383 A  
HETATM   32  C   UNL     1     -10.220  14.177  65.697  1.00  0.00    -0.357 A  
HETATM   33 CL   UNL     1     -11.171  16.514  64.537  1.00  0.00    -0.265 Cl 
HETATM   34  C   UNL     1      -9.281  14.923  66.422  1.00  0.00    -0.317 A  
ENDBRANCH  12  15
ENDBRANCH  11  12
ENDBRANCH  10  11
ENDBRANCH   5  10
ENDBRANCH   4   5
ENDBRANCH   3   4
ENDBRANCH   2   3
TORSDOF 10
ENDMDL
MODEL       64
REMARK 921   NORMALIZED FREE ENERGY PREDICTED BY IDOCK:   -4.92 KCAL/MOL
REMARK 922        TOTAL FREE ENERGY PREDICTED BY IDOCK:  -10.29 KCAL/MOL
REMARK 923 INTER-LIGAND FREE ENERGY PREDICTED BY IDOCK:   -7.57 KCAL/MOL
REMARK 924 INTRA-LIGAND FREE ENERGY PREDICTED BY IDOCK:   -2.72 KCAL/MOL
REMARK 927      BINDING AFFINITY PREDICTED BY RF-SCORE:    0.00 PKD
ROOT
HETATM    1  C   UNL     1      -7.234  11.857  66.722  1.00  0.00    -0.007 C  
HETATM    2  C   UNL     1      -5.984  11.055  66.392  1.00  0.00    -0.143 C  
ENDROOT
BRANCH   2   3
HETATM    3  C   UNL     1      -6.196   9.581  66.730  1.00  0.00    -0.065 C  
BRANCH   3   4
HETATM    4  C   UNL     1      -5.131   9.001  67.668  1.00  0.00    -0.034 C  
BRANCH   4   5
HETATM    5  N   UNL     1      -5.447   7.764  68.424  1.00  0.00    -0.027 NA 
BRANCH   5   6
HETATM    6  C   UNL     1      -6.039   8.082  69.742  1.00  0.00    -0.029 C  
BRANCH   6   7
HETATM    7  C   UNL     1      -5.446   9.295  70.484  1.00  0.00    -0.035 C  
BRANCH   7   8
HETATM    8  C   UNL     1      -6.432  10.441  70.693  1.00  0.00    -0.036 C  
HETATM    9  C   UNL     1      -5.823  11.766  70.243  1.00  0.00    -0.163 C  
ENDBRANCH   7   8
ENDBRANCH   6   7
ENDBRANCH   5   6
BRANCH   5  10
HETATM   10  C   UNL     1      -6.368   6.901  67.635  1.00  0.00    -0.048 C  
BRANCH  10  11
HETATM   11  C   UNL     1      -7.741   6.777  68.293  1.00  0.00    -0.106 C  
BRANCH  11  12
HETATM   12  C   UNL     1      -8.916   7.050  67.345  1.00  0.00    -0.117 C  
HETATM   13  H   UNL     1     -10.424   6.039  66.592  1.00  0.00     0.000 HD 
HETATM   14  O   UNL     1      -9.696   5.870  67.180  1.00  0.00    -0.120 OA 
BRANCH  12  15
HETATM   15  C   UNL     1      -9.820   8.189  67.822  1.00  0.00    -0.209 A  
HETATM   16  C   UNL     1     -10.125   9.301  67.001  1.00  0.00    -0.313 A  
HETATM   17  C   UNL     1      -9.767   9.334  65.634  1.00  0.00    -0.302 A  
HETATM   18  C   UNL     1     -10.003  10.446  64.827  1.00  0.00    -0.409 A  
HETATM   19  C   UNL     1     -10.617  11.569  65.364  1.00  0.00    -0.336 A  
HETATM   20  C   UNL     1     -10.857  12.806  64.536  1.00  0.00    -0.347 C  
HETATM   21  C   UNL     1     -11.016  11.537  66.712  1.00  0.00    -0.347 A  
HETATM   22  F   UNL     1     -10.224  13.899  65.045  1.00  0.00    -0.343 F  
HETATM   23  C   UNL     1     -10.801  10.421  67.565  1.00  0.00    -0.358 A  
HETATM   24  F   UNL     1     -12.175  13.138  64.465  1.00  0.00    -0.393 F  
HETATM   25  F   UNL     1     -10.428  12.693  63.248  1.00  0.00    -0.396 F  
HETATM   26  C   UNL     1     -11.223  10.398  68.947  1.00  0.00    -0.290 A  
HETATM   27  C   UNL     1     -11.880  11.478  69.594  1.00  0.00    -0.421 A  
HETATM   28  C   UNL     1     -12.264  11.430  70.937  1.00  0.00    -0.344 A  
HETATM   29  C   UNL     1     -12.021  10.303  71.696  1.00  0.00    -0.246 A  
HETATM   30 CL   UNL     1     -13.038  12.788  71.656  1.00  0.00    -0.474 Cl 
HETATM   31  C   UNL     1     -11.388   9.217  71.100  1.00  0.00    -0.342 A  
HETATM   32  C   UNL     1     -10.983   9.248  69.736  1.00  0.00    -0.213 A  
HETATM   33 CL   UNL     1     -11.096   7.846  72.130  1.00  0.00    -0.323 Cl 
HETATM   34  C   UNL     1     -10.314   8.170  69.140  1.00  0.00    -0.228 A  
ENDBRANCH  12  15
ENDBRANCH  11  12
ENDBRANCH  10  11
ENDBRANCH   5  10
ENDBRANCH   4   5
ENDBRANCH   3   4
ENDBRANCH   2   3
TORSDOF 10
ENDMDL
MODEL       65
REMARK 921   NORMALIZED FREE ENERGY PREDICTED BY IDOCK:   -4.87 KCAL/MOL
REMARK 922        TOTAL FREE ENERGY PREDICTED BY IDOCK:  -10.21 KCAL/MOL
REMARK 923 INTER-LIGAND FREE ENERGY PREDICTED BY IDOCK:   -8.62 KCAL/MOL
REMARK 924 INTRA-LIGAND FREE ENERGY PREDICTED BY IDOCK:   -1.60 KCAL/MOL
REMARK 927      BINDING AFFINITY PREDICTED BY RF-SCORE:    0.00 PKD
ROOT
HETATM    1  C   UNL     1     -11.442  15.948  69.930  1.00  0.00    -0.344 C  
HETATM    2  C   UNL     1     -12.123  14.595  70.075  1.00  0.00    -0.383 C  
ENDROOT
BRANCH   2   3
HETATM    3  C   UNL     1     -11.603  13.624  69.016  1.00  0.00    -0.356 C  
BRANCH   3   4
HETATM    4  C   UNL     1     -10.204  13.969  68.494  1.00  0.00    -0.237 C  
BRANCH   4   5
HETATM    5  N   UNL     1      -9.770  13.398  67.194  1.00  0.00    -0.231 NA 
BRANCH   5   6
HETATM    6  C   UNL     1      -9.584  14.461  66.182  1.00  0.00    -0.283 C  
BRANCH   6   7
HETATM    7  C   UNL     1     -10.837  15.273  65.803  1.00  0.00    -0.363 C  
BRANCH   7   8
HETATM    8  C   UNL     1     -11.694  14.626  64.717  1.00  0.00    -0.429 C  
HETATM    9  C   UNL     1     -12.679  13.633  65.327  1.00  0.00    -0.478 C  
ENDBRANCH   7   8
ENDBRANCH   6   7
ENDBRANCH   5   6
BRANCH   5  10
HETATM   10  C   UNL     1      -8.512  12.621  67.368  1.00  0.00    -0.186 C  
BRANCH  10  11
HETATM   11  C   UNL     1      -8.420  11.454  66.388  1.00  0.00    -0.160 C  
BRANCH  11  12
HETATM   12  C   UNL     1      -9.769  10.790  66.076  1.00  0.00    -0.217 C  
HETATM   13  H   UNL     1     -10.787  10.281  64.474  1.00  0.00     0.000 HD 
HETATM   14  O   UNL     1      -9.952  10.692  64.667  1.00  0.00    -0.287 OA 
BRANCH  12  15
HETATM   15  C   UNL     1      -9.913   9.401  66.701  1.00  0.00    -0.326 A  
HETATM   16  C   UNL     1     -10.497   9.207  67.976  1.00  0.00    -0.276 A  
HETATM   17  C   UNL     1     -11.147  10.258  68.661  1.00  0.00    -0.290 A  
HETATM   18  C   UNL     1     -11.672  10.101  69.943  1.00  0.00    -0.248 A  
HETATM   19  C   UNL     1     -11.569   8.874  70.585  1.00  0.00    -0.251 A  
HETATM   20  C   UNL     1     -12.090   8.673  71.985  1.00  0.00    -0.375 C  
HETATM   21  C   UNL     1     -10.961   7.808  69.900  1.00  0.00    -0.194 A  
HETATM   22  F   UNL     1     -11.108   8.303  72.853  1.00  0.00    -0.417 F  
HETATM   23  C   UNL     1     -10.421   7.924  68.591  1.00  0.00    -0.196 A  
HETATM   24  F   UNL     1     -13.036   7.697  72.054  1.00  0.00    -0.311 F  
HETATM   25  F   UNL     1     -12.661   9.787  72.522  1.00  0.00    -0.391 F  
HETATM   26  C   UNL     1      -9.805   6.817  67.895  1.00  0.00    -0.146 A  
HETATM   27  C   UNL     1      -9.667   5.514  68.443  1.00  0.00    -0.168 A  
HETATM   28  C   UNL     1      -9.053   4.468  67.750  1.00  0.00    -0.123 A  
HETATM   29  C   UNL     1      -8.559   4.664  66.477  1.00  0.00    -0.112 A  
HETATM   30 CL   UNL     1      -8.904   2.921  68.489  1.00  0.00    -0.145 Cl 
HETATM   31  C   UNL     1      -8.681   5.923  65.898  1.00  0.00    -0.150 A  
HETATM   32  C   UNL     1      -9.296   7.004  66.589  1.00  0.00    -0.203 A  
HETATM   33 CL   UNL     1      -8.010   6.095  64.302  1.00  0.00    -0.121 Cl 
HETATM   34  C   UNL     1      -9.391   8.283  66.023  1.00  0.00    -0.217 A  
ENDBRANCH  12  15
ENDBRANCH  11  12
ENDBRANCH  10  11
ENDBRANCH   5  10
ENDBRANCH   4   5
ENDBRANCH   3   4
ENDBRANCH   2   3
TORSDOF 10
ENDMDL
MODEL       66
REMARK 921   NORMALIZED FREE ENERGY PREDICTED BY IDOCK:   -4.87 KCAL/MOL
REMARK 922        TOTAL FREE ENERGY PREDICTED BY IDOCK:  -10.21 KCAL/MOL
REMARK 923 INTER-LIGAND FREE ENERGY PREDICTED BY IDOCK:   -8.54 KCAL/MOL
REMARK 924 INTRA-LIGAND FREE ENERGY PREDICTED BY IDOCK:   -1.67 KCAL/MOL
REMARK 927      BINDING AFFINITY PREDICTED BY RF-SCORE:    0.00 PKD
ROOT
HETATM    1  C   UNL     1      -7.065  12.071  68.283  1.00  0.00    -0.086 C  
HETATM    2  C   UNL     1      -6.995  10.578  68.566  1.00  0.00    -0.066 C  
ENDROOT
BRANCH   2   3
HETATM    3  C   UNL     1      -7.933  10.212  69.715  1.00  0.00    -0.172 C  
BRANCH   3   4
HETATM    4  C   UNL     1      -7.828   8.747  70.157  1.00  0.00    -0.094 C  
BRANCH   4   5
HETATM    5  N   UNL     1      -8.937   8.163  70.951  1.00  0.00    -0.142 NA 
BRANCH   5   6
HETATM    6  C   UNL     1      -8.438   7.586  72.218  1.00  0.00    -0.114 C  
BRANCH   6   7
HETATM    7  C   UNL     1      -9.334   7.776  73.457  1.00  0.00    -0.351 C  
BRANCH   7   8
HETATM    8  C   UNL     1     -10.293   6.617  73.716  1.00  0.00    -0.373 C  
HETATM    9  C   UNL     1      -9.887   5.389  72.907  1.00  0.00    -0.180 C  
ENDBRANCH   7   8
ENDBRANCH   6   7
ENDBRANCH   5   6
BRANCH   5  10
HETATM   10  C   UNL     1      -9.974   9.196  71.223  1.00  0.00    -0.303 C  
BRANCH  10  11
HETATM   11  C   UNL     1     -11.273   8.916  70.471  1.00  0.00    -0.287 C  
BRANCH  11  12
HETATM   12  C   UNL     1     -12.257  10.093  70.460  1.00  0.00    -0.264 C  
HETATM   13  H   UNL     1     -12.948  11.405  71.750  1.00  0.00     0.000 HD 
HETATM   14  O   UNL     1     -12.338  10.676  71.757  1.00  0.00    -0.302 OA 
BRANCH  12  15
HETATM   15  C   UNL     1     -11.885  11.176  69.444  1.00  0.00    -0.415 A  
HETATM   16  C   UNL     1     -11.217  10.873  68.234  1.00  0.00    -0.347 A  
HETATM   17  C   UNL     1     -11.022   9.539  67.808  1.00  0.00    -0.165 A  
HETATM   18  C   UNL     1     -10.312   9.221  66.651  1.00  0.00    -0.292 A  
HETATM   19  C   UNL     1      -9.774  10.236  65.872  1.00  0.00    -0.283 A  
HETATM   20  C   UNL     1      -8.968   9.934  64.634  1.00  0.00    -0.222 C  
HETATM   21  C   UNL     1      -9.995  11.569  66.260  1.00  0.00    -0.252 A  
HETATM   22  F   UNL     1      -7.698  10.419  64.715  1.00  0.00    -0.144 F  
HETATM   23  C   UNL     1     -10.720  11.936  67.426  1.00  0.00    -0.271 A  
HETATM   24  F   UNL     1      -9.508  10.486  63.513  1.00  0.00    -0.226 F  
HETATM   25  F   UNL     1      -8.842   8.603  64.374  1.00  0.00    -0.166 F  
HETATM   26  C   UNL     1     -10.945  13.311  67.809  1.00  0.00    -0.278 A  
HETATM   27  C   UNL     1     -10.465  14.428  67.076  1.00  0.00    -0.268 A  
HETATM   28  C   UNL     1     -10.688  15.746  67.481  1.00  0.00    -0.317 A  
HETATM   29  C   UNL     1     -11.408  16.015  68.627  1.00  0.00    -0.383 A  
HETATM   30 CL   UNL     1     -10.055  17.048  66.550  1.00  0.00    -0.303 Cl 
HETATM   31  C   UNL     1     -11.906  14.951  69.371  1.00  0.00    -0.324 A  
HETATM   32  C   UNL     1     -11.683  13.601  68.980  1.00  0.00    -0.375 A  
HETATM   33 CL   UNL     1     -12.780  15.374  70.815  1.00  0.00    -0.481 Cl 
HETATM   34  C   UNL     1     -12.153  12.524  69.745  1.00  0.00    -0.293 A  
ENDBRANCH  12  15
ENDBRANCH  11  12
ENDBRANCH  10  11
ENDBRANCH   5  10
ENDBRANCH   4   5
ENDBRANCH   3   4
ENDBRANCH   2   3
TORSDOF 10
ENDMDL
MODEL       67
REMARK 921   NORMALIZED FREE ENERGY PREDICTED BY IDOCK:   -4.86 KCAL/MOL
REMARK 922        TOTAL FREE ENERGY PREDICTED BY IDOCK:  -10.20 KCAL/MOL
REMARK 923 INTER-LIGAND FREE ENERGY PREDICTED BY IDOCK:   -8.74 KCAL/MOL
REMARK 924 INTRA-LIGAND FREE ENERGY PREDICTED BY IDOCK:   -1.46 KCAL/MOL
REMARK 927      BINDING AFFINITY PREDICTED BY RF-SCORE:    0.00 PKD
ROOT
HETATM    1  C   UNL     1     -11.860  13.603  69.206  1.00  0.00    -0.395 C  
HETATM    2  C   UNL     1     -11.946  12.159  68.735  1.00  0.00    -0.292 C  
ENDROOT
BRANCH   2   3
HETATM    3  C   UNL     1     -11.347  11.223  69.783  1.00  0.00    -0.348 C  
BRANCH   3   4
HETATM    4  C   UNL     1     -10.454  10.125  69.193  1.00  0.00    -0.222 C  
BRANCH   4   5
HETATM    5  N   UNL     1      -9.152   9.840  69.846  1.00  0.00    -0.222 NA 
BRANCH   5   6
HETATM    6  C   UNL     1      -9.131   8.475  70.416  1.00  0.00    -0.152 C  
BRANCH   6   7
HETATM    7  C   UNL     1     -10.293   8.108  71.359  1.00  0.00    -0.258 C  
BRANCH   7   8
HETATM    8  C   UNL     1     -11.126   6.919  70.887  1.00  0.00    -0.313 C  
HETATM    9  C   UNL     1     -12.505   6.935  71.540  1.00  0.00    -0.420 C  
ENDBRANCH   7   8
ENDBRANCH   6   7
ENDBRANCH   5   6
BRANCH   5  10
HETATM   10  C   UNL     1      -8.040  10.014  68.872  1.00  0.00    -0.111 C  
BRANCH  10  11
HETATM   11  C   UNL     1      -7.241  11.288  69.137  1.00  0.00    -0.115 C  
BRANCH  11  12
HETATM   12  C   UNL     1      -6.911  12.094  67.874  1.00  0.00    -0.099 C  
HETATM   13  H   UNL     1      -6.654  11.732  65.960  1.00  0.00     0.000 HD 
HETATM   14  O   UNL     1      -6.859  11.232  66.742  1.00  0.00    -0.125 OA 
BRANCH  12  15
HETATM   15  C   UNL     1      -7.911  13.221  67.603  1.00  0.00    -0.176 A  
HETATM   16  C   UNL     1      -9.028  13.045  66.752  1.00  0.00    -0.179 A  
HETATM   17  C   UNL     1      -9.389  11.772  66.254  1.00  0.00    -0.235 A  
HETATM   18  C   UNL     1     -10.448  11.592  65.365  1.00  0.00    -0.333 A  
HETATM   19  C   UNL     1     -11.192  12.686  64.947  1.00  0.00    -0.332 A  
HETATM   20  C   UNL     1     -12.321  12.539  63.959  1.00  0.00    -0.469 C  
HETATM   21  C   UNL     1     -10.872  13.953  65.466  1.00  0.00    -0.306 A  
HETATM   22  F   UNL     1     -12.112  13.264  62.825  1.00  0.00    -0.499 F  
HETATM   23  C   UNL     1      -9.807  14.179  66.379  1.00  0.00    -0.308 A  
HETATM   24  F   UNL     1     -13.512  12.965  64.461  1.00  0.00    -0.064 F  
HETATM   25  F   UNL     1     -12.524  11.256  63.548  1.00  0.00    -0.343 F  
HETATM   26  C   UNL     1      -9.493  15.486  66.910  1.00  0.00    -0.244 A  
HETATM   27  C   UNL     1     -10.201  16.670  66.573  1.00  0.00    -0.314 A  
HETATM   28  C   UNL     1      -9.864  17.922  67.093  1.00  0.00    -0.308 A  
HETATM   29  C   UNL     1      -8.815  18.054  67.981  1.00  0.00    -0.278 A  
HETATM   30 CL   UNL     1     -10.756  19.315  66.620  1.00  0.00    -0.523 Cl 
HETATM   31  C   UNL     1      -8.100  16.918  68.346  1.00  0.00    -0.237 A  
HETATM   32  C   UNL     1      -8.422  15.635  67.822  1.00  0.00    -0.158 A  
HETATM   33 CL   UNL     1      -6.778  17.172  69.449  1.00  0.00    -0.230 Cl 
HETATM   34  C   UNL     1      -7.684  14.493  68.161  1.00  0.00    -0.128 A  
ENDBRANCH  12  15
ENDBRANCH  11  12
ENDBRANCH  10  11
ENDBRANCH   5  10
ENDBRANCH   4   5
ENDBRANCH   3   4
ENDBRANCH   2   3
TORSDOF 10
ENDMDL
MODEL       68
REMARK 921   NORMALIZED FREE ENERGY PREDICTED BY IDOCK:   -4.86 KCAL/MOL
REMARK 922        TOTAL FREE ENERGY PREDICTED BY IDOCK:  -10.20 KCAL/MOL
REMARK 923 INTER-LIGAND FREE ENERGY PREDICTED BY IDOCK:   -9.12 KCAL/MOL
REMARK 924 INTRA-LIGAND FREE ENERGY PREDICTED BY IDOCK:   -1.08 KCAL/MOL
REMARK 927      BINDING AFFINITY PREDICTED BY RF-SCORE:    0.00 PKD
ROOT
HETATM    1  C   UNL     1     -11.943  12.817  63.366  1.00  0.00    -0.613 C  
HETATM    2  C   UNL     1     -12.755  12.586  64.632  1.00  0.00    -0.434 C  
ENDROOT
BRANCH   2   3
HETATM    3  C   UNL     1     -12.770  13.850  65.490  1.00  0.00    -0.536 C  
BRANCH   3   4
HETATM    4  C   UNL     1     -11.427  14.589  65.526  1.00  0.00    -0.343 C  
BRANCH   4   5
HETATM    5  N   UNL     1     -10.795  14.852  66.844  1.00  0.00    -0.313 NA 
BRANCH   5   6
HETATM    6  C   UNL     1     -11.698  14.471  67.952  1.00  0.00    -0.351 C  
BRANCH   6   7
HETATM    7  C   UNL     1     -11.256  14.884  69.369  1.00  0.00    -0.302 C  
BRANCH   7   8
HETATM    8  C   UNL     1     -12.396  15.368  70.261  1.00  0.00    -0.425 C  
HETATM    9  C   UNL     1     -12.656  14.374  71.390  1.00  0.00    -0.426 C  
ENDBRANCH   7   8
ENDBRANCH   6   7
ENDBRANCH   5   6
BRANCH   5  10
HETATM   10  C   UNL     1      -9.504  14.119  66.950  1.00  0.00    -0.267 C  
BRANCH  10  11
HETATM   11  C   UNL     1      -9.629  12.670  66.484  1.00  0.00    -0.248 C  
BRANCH  11  12
HETATM   12  C   UNL     1      -8.562  11.732  67.065  1.00  0.00    -0.173 C  
HETATM   13  H   UNL     1      -7.324  11.729  68.592  1.00  0.00     0.000 HD 
HETATM   14  O   UNL     1      -7.985  12.310  68.232  1.00  0.00    -0.149 OA 
BRANCH  12  15
HETATM   15  C   UNL     1      -9.106  10.343  67.407  1.00  0.00    -0.144 A  
HETATM   16  C   UNL     1     -10.052  10.140  68.440  1.00  0.00    -0.184 A  
HETATM   17  C   UNL     1     -10.686  11.224  69.089  1.00  0.00    -0.247 A  
HETATM   18  C   UNL     1     -11.572  11.044  70.150  1.00  0.00    -0.421 A  
HETATM   19  C   UNL     1     -11.861   9.762  70.597  1.00  0.00    -0.360 A  
HETATM   20  C   UNL     1     -12.783   9.525  71.766  1.00  0.00    -0.404 C  
HETATM   21  C   UNL     1     -11.269   8.671  69.936  1.00  0.00    -0.045 A  
HETATM   22  F   UNL     1     -12.164   8.875  72.790  1.00  0.00    -0.395 F  
HETATM   23  C   UNL     1     -10.368   8.812  68.846  1.00  0.00    -0.229 A  
HETATM   24  F   UNL     1     -13.859   8.759  71.434  1.00  0.00    -0.389 F  
HETATM   25  F   UNL     1     -13.290  10.670  72.303  1.00  0.00    -0.544 F  
HETATM   26  C   UNL     1      -9.773   7.681  68.170  1.00  0.00    -0.168 A  
HETATM   27  C   UNL     1     -10.014   6.327  68.525  1.00  0.00    -0.163 A  
HETATM   28  C   UNL     1      -9.412   5.257  67.860  1.00  0.00    -0.125 A  
HETATM   29  C   UNL     1      -8.551   5.481  66.806  1.00  0.00    -0.110 A  
HETATM   30 CL   UNL     1      -9.738   3.643  68.362  1.00  0.00    -0.151 Cl 
HETATM   31  C   UNL     1      -8.293   6.791  66.418  1.00  0.00    -0.121 A  
HETATM   32  C   UNL     1      -8.890   7.897  67.087  1.00  0.00    -0.137 A  
HETATM   33 CL   UNL     1      -7.177   6.989  65.098  1.00  0.00    -0.071 Cl 
HETATM   34  C   UNL     1      -8.607   9.220  66.722  1.00  0.00    -0.134 A  
ENDBRANCH  12  15
ENDBRANCH  11  12
ENDBRANCH  10  11
ENDBRANCH   5  10
ENDBRANCH   4   5
ENDBRANCH   3   4
ENDBRANCH   2   3
TORSDOF 10
ENDMDL
MODEL       69
REMARK 921   NORMALIZED FREE ENERGY PREDICTED BY IDOCK:   -4.84 KCAL/MOL
REMARK 922        TOTAL FREE ENERGY PREDICTED BY IDOCK:  -10.17 KCAL/MOL
REMARK 923 INTER-LIGAND FREE ENERGY PREDICTED BY IDOCK:   -9.32 KCAL/MOL
REMARK 924 INTRA-LIGAND FREE ENERGY PREDICTED BY IDOCK:   -0.84 KCAL/MOL
REMARK 927      BINDING AFFINITY PREDICTED BY RF-SCORE:    0.00 PKD
ROOT
HETATM    1  C   UNL     1     -11.149  16.065  64.641  1.00  0.00    -0.346 C  
HETATM    2  C   UNL     1     -10.275  15.488  65.745  1.00  0.00    -0.390 C  
ENDROOT
BRANCH   2   3
HETATM    3  C   UNL     1      -9.926  16.569  66.765  1.00  0.00    -0.281 C  
BRANCH   3   4
HETATM    4  C   UNL     1     -10.750  16.492  68.056  1.00  0.00    -0.343 C  
BRANCH   4   5
HETATM    5  N   UNL     1     -10.494  15.373  68.996  1.00  0.00    -0.238 NA 
BRANCH   5   6
HETATM    6  C   UNL     1     -10.561  15.832  70.401  1.00  0.00    -0.229 C  
BRANCH   6   7
HETATM    7  C   UNL     1     -11.742  15.307  71.239  1.00  0.00    -0.425 C  
BRANCH   7   8
HETATM    8  C   UNL     1     -12.090  16.180  72.442  1.00  0.00    -0.630 C  
HETATM    9  C   UNL     1     -13.085  15.469  73.354  1.00  0.00    -0.651 C  
ENDBRANCH   7   8
ENDBRANCH   6   7
ENDBRANCH   5   6
BRANCH   5  10
HETATM   10  C   UNL     1     -11.470  14.273  68.762  1.00  0.00    -0.296 C  
BRANCH  10  11
HETATM   11  C   UNL     1     -10.786  12.911  68.666  1.00  0.00    -0.273 C  
BRANCH  11  12
HETATM   12  C   UNL     1     -11.676  11.803  68.087  1.00  0.00    -0.307 C  
HETATM   13  H   UNL     1     -12.704  11.494  66.441  1.00  0.00     0.000 HD 
HETATM   14  O   UNL     1     -12.153  12.181  66.799  1.00  0.00    -0.609 OA 
BRANCH  12  15
HETATM   15  C   UNL     1     -10.963  10.453  67.984  1.00  0.00    -0.347 A  
HETATM   16  C   UNL     1     -10.853   9.575  69.089  1.00  0.00    -0.194 A  
HETATM   17  C   UNL     1     -11.554   9.809  70.295  1.00  0.00    -0.283 A  
HETATM   18  C   UNL     1     -11.409   8.989  71.413  1.00  0.00    -0.394 A  
HETATM   19  C   UNL     1     -10.555   7.895  71.360  1.00  0.00    -0.246 A  
HETATM   20  C   UNL     1     -10.341   7.007  72.558  1.00  0.00    -0.205 C  
HETATM   21  C   UNL     1      -9.883   7.626  70.155  1.00  0.00    -0.184 A  
HETATM   22  F   UNL     1      -9.040   6.985  72.959  1.00  0.00    -0.138 F  
HETATM   23  C   UNL     1     -10.010   8.431  68.991  1.00  0.00    -0.194 A  
HETATM   24  F   UNL     1     -10.677   5.710  72.313  1.00  0.00    -0.233 F  
HETATM   25  F   UNL     1     -11.062   7.379  73.652  1.00  0.00    -0.388 F  
HETATM   26  C   UNL     1      -9.318   8.139  67.756  1.00  0.00    -0.149 A  
HETATM   27  C   UNL     1      -8.441   7.036  67.579  1.00  0.00    -0.122 A  
HETATM   28  C   UNL     1      -7.776   6.788  66.377  1.00  0.00    -0.098 A  
HETATM   29  C   UNL     1      -7.959   7.619  65.290  1.00  0.00    -0.129 A  
HETATM   30 CL   UNL     1      -6.712   5.442  66.247  1.00  0.00    -0.056 Cl 
HETATM   31  C   UNL     1      -8.816   8.706  65.415  1.00  0.00    -0.155 A  
HETATM   32  C   UNL     1      -9.498   8.981  66.634  1.00  0.00    -0.251 A  
HETATM   33 CL   UNL     1      -8.973   9.719  64.008  1.00  0.00    -0.260 Cl 
HETATM   34  C   UNL     1     -10.337  10.095  66.776  1.00  0.00    -0.285 A  
ENDBRANCH  12  15
ENDBRANCH  11  12
ENDBRANCH  10  11
ENDBRANCH   5  10
ENDBRANCH   4   5
ENDBRANCH   3   4
ENDBRANCH   2   3
TORSDOF 10
ENDMDL
MODEL       70
REMARK 921   NORMALIZED FREE ENERGY PREDICTED BY IDOCK:   -4.78 KCAL/MOL
REMARK 922        TOTAL FREE ENERGY PREDICTED BY IDOCK:  -10.07 KCAL/MOL
REMARK 923 INTER-LIGAND FREE ENERGY PREDICTED BY IDOCK:   -9.75 KCAL/MOL
REMARK 924 INTRA-LIGAND FREE ENERGY PREDICTED BY IDOCK:   -0.33 KCAL/MOL
REMARK 927      BINDING AFFINITY PREDICTED BY RF-SCORE:    0.00 PKD
ROOT
HETATM    1  C   UNL     1     -13.685   9.179  72.472  1.00  0.00    -0.499 C  
HETATM    2  C   UNL     1     -12.963   7.928  71.992  1.00  0.00    -0.270 C  
ENDROOT
BRANCH   2   3
HETATM    3  C   UNL     1     -11.452   8.098  72.143  1.00  0.00    -0.412 C  
BRANCH   3   4
HETATM    4  C   UNL     1     -10.638   7.392  71.053  1.00  0.00    -0.224 C  
BRANCH   4   5
HETATM    5  N   UNL     1      -9.884   8.221  70.079  1.00  0.00    -0.180 NA 
BRANCH   5   6
HETATM    6  C   UNL     1      -9.936   7.629  68.724  1.00  0.00    -0.174 C  
BRANCH   6   7
HETATM    7  C   UNL     1      -9.337   6.218  68.569  1.00  0.00    -0.121 C  
BRANCH   7   8
HETATM    8  C   UNL     1     -10.262   5.221  67.875  1.00  0.00    -0.203 C  
HETATM    9  C   UNL     1      -9.496   4.410  66.834  1.00  0.00    -0.194 C  
ENDBRANCH   7   8
ENDBRANCH   6   7
ENDBRANCH   5   6
BRANCH   5  10
HETATM   10  C   UNL     1     -10.421   9.609  70.062  1.00  0.00    -0.261 C  
BRANCH  10  11
HETATM   11  C   UNL     1     -10.724  10.087  68.644  1.00  0.00    -0.256 C  
BRANCH  11  12
HETATM   12  C   UNL     1     -11.958  10.994  68.539  1.00  0.00    -0.135 C  
HETATM   13  H   UNL     1     -13.657  11.230  69.497  1.00  0.00     0.000 HD 
HETATM   14  O   UNL     1     -12.893  10.668  69.562  1.00  0.00    -0.170 OA 
BRANCH  12  15
HETATM   15  C   UNL     1     -11.617  12.484  68.624  1.00  0.00    -0.357 A  
HETATM   16  C   UNL     1     -11.847  13.241  69.797  1.00  0.00    -0.394 A  
HETATM   17  C   UNL     1     -12.228  12.629  71.013  1.00  0.00    -0.195 A  
HETATM   18  C   UNL     1     -12.519  13.366  72.160  1.00  0.00     0.073 A  
HETATM   19  C   UNL     1     -12.431  14.751  72.131  1.00  0.00    -0.409 A  
HETATM   20  C   UNL     1     -12.774  15.586  73.338  1.00  0.00    -0.532 C  
HETATM   21  C   UNL     1     -12.014  15.372  70.941  1.00  0.00    -0.406 A  
HETATM   22  F   UNL     1     -13.799  16.449  73.095  1.00  0.00    -0.602 F  
HETATM   23  C   UNL     1     -11.700  14.658  69.753  1.00  0.00    -0.361 A  
HETATM   24  F   UNL     1     -11.730  16.355  73.753  1.00  0.00    -0.412 F  
HETATM   25  F   UNL     1     -13.154  14.853  74.421  1.00  0.00    -0.104 F  
HETATM   26  C   UNL     1     -11.265  15.309  68.538  1.00  0.00    -0.308 A  
HETATM   27  C   UNL     1     -11.116  16.714  68.400  1.00  0.00    -0.305 A  
HETATM   28  C   UNL     1     -10.707  17.315  67.207  1.00  0.00    -0.215 A  
HETATM   29  C   UNL     1     -10.416  16.546  66.099  1.00  0.00    -0.301 A  
HETATM   30 CL   UNL     1     -10.570  19.027  67.112  1.00  0.00    -0.515 Cl 
HETATM   31  C   UNL     1     -10.540  15.164  66.191  1.00  0.00    -0.313 A  
HETATM   32  C   UNL     1     -10.962  14.533  67.395  1.00  0.00    -0.306 A  
HETATM   33 CL   UNL     1     -10.180  14.268  64.744  1.00  0.00    -0.392 Cl 
HETATM   34  C   UNL     1     -11.121  13.143  67.483  1.00  0.00    -0.296 A  
ENDBRANCH  12  15
ENDBRANCH  11  12
ENDBRANCH  10  11
ENDBRANCH   5  10
ENDBRANCH   4   5
ENDBRANCH   3   4
ENDBRANCH   2   3
TORSDOF 10
ENDMDL
MODEL       71
REMARK 921   NORMALIZED FREE ENERGY PREDICTED BY IDOCK:   -4.75 KCAL/MOL
REMARK 922        TOTAL FREE ENERGY PREDICTED BY IDOCK:  -10.03 KCAL/MOL
REMARK 923 INTER-LIGAND FREE ENERGY PREDICTED BY IDOCK:   -9.29 KCAL/MOL
REMARK 924 INTRA-LIGAND FREE ENERGY PREDICTED BY IDOCK:   -0.74 KCAL/MOL
REMARK 927      BINDING AFFINITY PREDICTED BY RF-SCORE:    0.00 PKD
ROOT
HETATM    1  C   UNL     1      -9.598   5.856  72.770  1.00  0.00    -0.163 C  
HETATM    2  C   UNL     1     -10.321   5.001  71.740  1.00  0.00    -0.268 C  
ENDROOT
BRANCH   2   3
HETATM    3  C   UNL     1      -9.536   4.971  70.430  1.00  0.00    -0.260 C  
BRANCH   3   4
HETATM    4  C   UNL     1     -10.357   5.397  69.207  1.00  0.00    -0.251 C  
BRANCH   4   5
HETATM    5  N   UNL     1      -9.653   6.024  68.061  1.00  0.00    -0.116 NA 
BRANCH   5   6
HETATM    6  C   UNL     1     -10.371   5.773  66.793  1.00  0.00    -0.256 C  
BRANCH   6   7
HETATM    7  C   UNL     1      -9.551   5.135  65.655  1.00  0.00    -0.104 C  
BRANCH   7   8
HETATM    8  C   UNL     1      -8.222   4.534  66.106  1.00  0.00    -0.106 C  
HETATM    9  C   UNL     1      -8.340   3.020  66.261  1.00  0.00    -0.098 C  
ENDBRANCH   7   8
ENDBRANCH   6   7
ENDBRANCH   5   6
BRANCH   5  10
HETATM   10  C   UNL     1      -9.499   7.487  68.291  1.00  0.00    -0.144 C  
BRANCH  10  11
HETATM   11  C   UNL     1     -10.741   8.267  67.864  1.00  0.00    -0.138 C  
BRANCH  11  12
HETATM   12  C   UNL     1     -11.271   9.233  68.932  1.00  0.00     0.193 C  
HETATM   13  H   UNL     1     -10.889   9.650  70.814  1.00  0.00     0.000 HD 
HETATM   14  O   UNL     1     -10.560   9.051  70.153  1.00  0.00    -0.208 OA 
BRANCH  12  15
HETATM   15  C   UNL     1     -11.181  10.701  68.511  1.00  0.00    -0.342 A  
HETATM   16  C   UNL     1     -11.643  11.751  69.340  1.00  0.00    -0.386 A  
HETATM   17  C   UNL     1     -12.041  11.520  70.677  1.00  0.00    -0.450 A  
HETATM   18  C   UNL     1     -12.557  12.530  71.487  1.00  0.00    -0.253 A  
HETATM   19  C   UNL     1     -12.688  13.818  70.984  1.00  0.00    -0.416 A  
HETATM   20  C   UNL     1     -13.277  14.930  71.815  1.00  0.00    -0.349 C  
HETATM   21  C   UNL     1     -12.259  14.072  69.670  1.00  0.00    -0.383 A  
HETATM   22  F   UNL     1     -14.397  15.459  71.249  1.00  0.00    -0.546 F  
HETATM   23  C   UNL     1     -11.720  13.074  68.815  1.00  0.00    -0.363 A  
HETATM   24  F   UNL     1     -12.414  15.970  71.979  1.00  0.00    -0.434 F  
HETATM   25  F   UNL     1     -13.641  14.543  73.069  1.00  0.00    -0.520 F  
HETATM   26  C   UNL     1     -11.275  13.351  67.468  1.00  0.00    -0.309 A  
HETATM   27  C   UNL     1     -11.338  14.632  66.860  1.00  0.00    -0.361 A  
HETATM   28  C   UNL     1     -10.913  14.865  65.550  1.00  0.00    -0.350 A  
HETATM   29  C   UNL     1     -10.396  13.838  64.787  1.00  0.00    -0.422 A  
HETATM   30 CL   UNL     1     -11.040  16.443  64.875  1.00  0.00    -0.338 Cl 
HETATM   31  C   UNL     1     -10.307  12.568  65.346  1.00  0.00    -0.282 A  
HETATM   32  C   UNL     1     -10.741  12.307  66.677  1.00  0.00    -0.276 A  
HETATM   33 CL   UNL     1      -9.667  11.323  64.312  1.00  0.00    -0.279 Cl 
HETATM   34  C   UNL     1     -10.685  11.022  67.233  1.00  0.00    -0.312 A  
ENDBRANCH  12  15
ENDBRANCH  11  12
ENDBRANCH  10  11
ENDBRANCH   5  10
ENDBRANCH   4   5
ENDBRANCH   3   4
ENDBRANCH   2   3
TORSDOF 10
ENDMDL
MODEL       72
REMARK 921   NORMALIZED FREE ENERGY PREDICTED BY IDOCK:   -4.75 KCAL/MOL
REMARK 922        TOTAL FREE ENERGY PREDICTED BY IDOCK:  -10.02 KCAL/MOL
REMARK 923 INTER-LIGAND FREE ENERGY PREDICTED BY IDOCK:   -6.89 KCAL/MOL
REMARK 924 INTRA-LIGAND FREE ENERGY PREDICTED BY IDOCK:   -3.13 KCAL/MOL
REMARK 927      BINDING AFFINITY PREDICTED BY RF-SCORE:    0.00 PKD
ROOT
HETATM    1  C   UNL     1      -6.935   8.547  68.726  1.00  0.00    -0.063 C  
HETATM    2  C   UNL     1      -7.202   7.491  69.788  1.00  0.00    -0.080 C  
ENDROOT
BRANCH   2   3
HETATM    3  C   UNL     1      -7.683   8.149  71.081  1.00  0.00    -0.092 C  
BRANCH   3   4
HETATM    4  C   UNL     1      -7.622   7.227  72.304  1.00  0.00    -0.084 C  
BRANCH   4   5
HETATM    5  N   UNL     1      -8.865   6.545  72.743  1.00  0.00    -0.124 NA 
BRANCH   5   6
HETATM    6  C   UNL     1      -8.556   5.326  73.522  1.00  0.00    -0.112 C  
BRANCH   6   7
HETATM    7  C   UNL     1      -9.703   4.311  73.690  1.00  0.00    -0.144 C  
BRANCH   7   8
HETATM    8  C   UNL     1     -10.282   3.801  72.373  1.00  0.00    -0.219 C  
HETATM    9  C   UNL     1      -9.300   2.861  71.680  1.00  0.00    -0.198 C  
ENDBRANCH   7   8
ENDBRANCH   6   7
ENDBRANCH   5   6
BRANCH   5  10
HETATM   10  C   UNL     1      -9.706   7.475  73.546  1.00  0.00    -0.303 C  
BRANCH  10  11
HETATM   11  C   UNL     1     -10.874   8.034  72.736  1.00  0.00    -0.438 C  
BRANCH  11  12
HETATM   12  C   UNL     1     -11.337   7.120  71.593  1.00  0.00    -0.251 C  
HETATM   13  H   UNL     1     -12.985   6.183  71.076  1.00  0.00     0.000 HD 
HETATM   14  O   UNL     1     -12.698   6.749  71.784  1.00  0.00    -0.362 OA 
BRANCH  12  15
HETATM   15  C   UNL     1     -11.178   7.760  70.212  1.00  0.00    -0.215 A  
HETATM   16  C   UNL     1     -10.674   7.039  69.103  1.00  0.00    -0.240 A  
HETATM   17  C   UNL     1     -10.464   5.642  69.160  1.00  0.00    -0.339 A  
HETATM   18  C   UNL     1      -9.909   4.928  68.099  1.00  0.00    -0.198 A  
HETATM   19  C   UNL     1      -9.549   5.591  66.934  1.00  0.00    -0.149 A  
HETATM   20  C   UNL     1      -8.911   4.861  65.779  1.00  0.00    -0.142 C  
HETATM   21  C   UNL     1      -9.789   6.973  66.847  1.00  0.00    -0.259 A  
HETATM   22  F   UNL     1      -7.673   5.346  65.483  1.00  0.00    -0.084 F  
HETATM   23  C   UNL     1     -10.359   7.737  67.901  1.00  0.00    -0.276 A  
HETATM   24  F   UNL     1      -9.637   4.966  64.632  1.00  0.00    -0.126 F  
HETATM   25  F   UNL     1      -8.747   3.527  65.998  1.00  0.00    -0.107 F  
HETATM   26  C   UNL     1     -10.608   9.157  67.796  1.00  0.00    -0.289 A  
HETATM   27  C   UNL     1     -10.303   9.932  66.646  1.00  0.00    -0.275 A  
HETATM   28  C   UNL     1     -10.542  11.307  66.580  1.00  0.00    -0.266 A  
HETATM   29  C   UNL     1     -11.105  11.973  67.649  1.00  0.00    -0.319 A  
HETATM   30 CL   UNL     1     -10.126  12.182  65.158  1.00  0.00    -0.287 Cl 
HETATM   31  C   UNL     1     -11.429  11.251  68.793  1.00  0.00    -0.293 A  
HETATM   32  C   UNL     1     -11.186   9.851  68.884  1.00  0.00    -0.126 A  
HETATM   33 CL   UNL     1     -12.111  12.167  70.105  1.00  0.00    -0.394 Cl 
HETATM   34  C   UNL     1     -11.479   9.125  70.046  1.00  0.00    -0.034 A  
ENDBRANCH  12  15
ENDBRANCH  11  12
ENDBRANCH  10  11
ENDBRANCH   5  10
ENDBRANCH   4   5
ENDBRANCH   3   4
ENDBRANCH   2   3
TORSDOF 10
ENDMDL
MODEL       73
REMARK 921   NORMALIZED FREE ENERGY PREDICTED BY IDOCK:   -4.72 KCAL/MOL
REMARK 922        TOTAL FREE ENERGY PREDICTED BY IDOCK:   -9.97 KCAL/MOL
REMARK 923 INTER-LIGAND FREE ENERGY PREDICTED BY IDOCK:   -9.00 KCAL/MOL
REMARK 924 INTRA-LIGAND FREE ENERGY PREDICTED BY IDOCK:   -0.97 KCAL/MOL
REMARK 927      BINDING AFFINITY PREDICTED BY RF-SCORE:    0.00 PKD
ROOT
HETATM    1  C   UNL     1     -10.718  17.808  68.372  1.00  0.00    -0.205 C  
HETATM    2  C   UNL     1     -10.454  18.781  67.233  1.00  0.00    -0.489 C  
ENDROOT
BRANCH   2   3
HETATM    3  C   UNL     1      -9.037  19.343  67.334  1.00  0.00    -0.359 C  
BRANCH   3   4
HETATM    4  C   UNL     1      -8.313  19.444  65.986  1.00  0.00    -0.220 C  
BRANCH   4   5
HETATM    5  N   UNL     1      -7.211  18.492  65.698  1.00  0.00    -0.519 NA 
BRANCH   5   6
HETATM    6  C   UNL     1      -6.169  19.124  64.860  1.00  0.00    -0.260 C  
BRANCH   6   7
HETATM    7  C   UNL     1      -6.377  20.610  64.511  1.00  0.00    -0.344 C  
BRANCH   7   8
HETATM    8  C   UNL     1      -5.741  21.036  63.191  1.00  0.00    -0.289 C  
HETATM    9  C   UNL     1      -5.407  19.817  62.335  1.00  0.00    -0.331 C  
ENDBRANCH   7   8
ENDBRANCH   6   7
ENDBRANCH   5   6
BRANCH   5  10
HETATM   10  C   UNL     1      -6.623  17.988  66.969  1.00  0.00    -0.178 C  
BRANCH  10  11
HETATM   11  C   UNL     1      -6.368  16.483  66.924  1.00  0.00    -0.166 C  
BRANCH  11  12
HETATM   12  C   UNL     1      -6.834  15.733  68.179  1.00  0.00    -0.120 C  
HETATM   13  H   UNL     1      -7.957  16.107  69.748  1.00  0.00     0.000 HD 
HETATM   14  O   UNL     1      -7.668  16.572  68.971  1.00  0.00    -0.225 OA 
BRANCH  12  15
HETATM   15  C   UNL     1      -7.582  14.436  67.859  1.00  0.00    -0.158 A  
HETATM   16  C   UNL     1      -8.699  14.409  66.990  1.00  0.00    -0.244 A  
HETATM   17  C   UNL     1      -9.072  15.537  66.224  1.00  0.00    -0.369 A  
HETATM   18  C   UNL     1     -10.204  15.546  65.412  1.00  0.00    -0.409 A  
HETATM   19  C   UNL     1     -11.006  14.415  65.332  1.00  0.00    -0.343 A  
HETATM   20  C   UNL     1     -12.259  14.397  64.495  1.00  0.00    -0.463 C  
HETATM   21  C   UNL     1     -10.626  13.272  66.056  1.00  0.00    -0.292 A  
HETATM   22  F   UNL     1     -13.373  14.150  65.239  1.00  0.00    -0.430 F  
HETATM   23  C   UNL     1      -9.475  13.218  66.888  1.00  0.00    -0.249 A  
HETATM   24  F   UNL     1     -12.231  13.432  63.535  1.00  0.00    -0.519 F  
HETATM   25  F   UNL     1     -12.499  15.569  63.843  1.00  0.00    -0.418 F  
HETATM   26  C   UNL     1      -9.092  12.033  67.621  1.00  0.00    -0.179 A  
HETATM   27  C   UNL     1      -9.821  10.814  67.596  1.00  0.00    -0.193 A  
HETATM   28  C   UNL     1      -9.432   9.689  68.328  1.00  0.00    -0.136 A  
HETATM   29  C   UNL     1      -8.295   9.720  69.110  1.00  0.00    -0.137 A  
HETATM   30 CL   UNL     1     -10.379   8.254  68.262  1.00  0.00    -0.245 Cl 
HETATM   31  C   UNL     1      -7.546  10.890  69.157  1.00  0.00    -0.133 A  
HETATM   32  C   UNL     1      -7.929  12.050  68.425  1.00  0.00    -0.152 A  
HETATM   33 CL   UNL     1      -6.142  10.856  70.185  1.00  0.00    -0.118 Cl 
HETATM   34  C   UNL     1      -7.196  13.242  68.496  1.00  0.00    -0.110 A  
ENDBRANCH  12  15
ENDBRANCH  11  12
ENDBRANCH  10  11
ENDBRANCH   5  10
ENDBRANCH   4   5
ENDBRANCH   3   4
ENDBRANCH   2   3
TORSDOF 10
ENDMDL
MODEL       74
REMARK 921   NORMALIZED FREE ENERGY PREDICTED BY IDOCK:   -4.70 KCAL/MOL
REMARK 922        TOTAL FREE ENERGY PREDICTED BY IDOCK:   -9.95 KCAL/MOL
REMARK 923 INTER-LIGAND FREE ENERGY PREDICTED BY IDOCK:   -7.87 KCAL/MOL
REMARK 924 INTRA-LIGAND FREE ENERGY PREDICTED BY IDOCK:   -2.08 KCAL/MOL
REMARK 927      BINDING AFFINITY PREDICTED BY RF-SCORE:    0.00 PKD
ROOT
HETATM    1  C   UNL     1     -14.383   7.228  71.785  1.00  0.00    -0.560 C  
HETATM    2  C   UNL     1     -14.246   8.728  72.004  1.00  0.00    -0.493 C  
ENDROOT
BRANCH   2   3
HETATM    3  C   UNL     1     -12.806   9.171  71.752  1.00  0.00    -0.448 C  
BRANCH   3   4
HETATM    4  C   UNL     1     -11.765   8.374  72.547  1.00  0.00    -0.359 C  
BRANCH   4   5
HETATM    5  N   UNL     1     -10.618   7.778  71.818  1.00  0.00    -0.213 NA 
BRANCH   5   6
HETATM    6  C   UNL     1     -11.024   7.320  70.471  1.00  0.00    -0.260 C  
BRANCH   6   7
HETATM    7  C   UNL     1     -11.096   5.796  70.259  1.00  0.00    -0.300 C  
BRANCH   7   8
HETATM    8  C   UNL     1     -10.433   5.314  68.971  1.00  0.00    -0.206 C  
HETATM    9  C   UNL     1     -10.901   6.145  67.780  1.00  0.00    -0.413 C  
ENDBRANCH   7   8
ENDBRANCH   6   7
ENDBRANCH   5   6
BRANCH   5  10
HETATM   10  C   UNL     1      -9.505   8.761  71.719  1.00  0.00    -0.293 C  
BRANCH  10  11
HETATM   11  C   UNL     1      -9.623   9.635  70.472  1.00  0.00    -0.261 C  
BRANCH  11  12
HETATM   12  C   UNL     1      -8.284   9.918  69.777  1.00  0.00    -0.180 C  
HETATM   13  H   UNL     1      -6.376   9.650  70.163  1.00  0.00     0.000 HD 
HETATM   14  O   UNL     1      -7.205   9.475  70.593  1.00  0.00    -0.119 OA 
BRANCH  12  15
HETATM   15  C   UNL     1      -8.174   9.262  68.398  1.00  0.00    -0.115 A  
HETATM   16  C   UNL     1      -8.616   9.911  67.220  1.00  0.00    -0.125 A  
HETATM   17  C   UNL     1      -9.011  11.268  67.224  1.00  0.00    -0.149 A  
HETATM   18  C   UNL     1      -9.508  11.904  66.088  1.00  0.00    -0.243 A  
HETATM   19  C   UNL     1      -9.622  11.199  64.897  1.00  0.00    -0.279 A  
HETATM   20  C   UNL     1     -10.190  11.839  63.656  1.00  0.00    -0.428 C  
HETATM   21  C   UNL     1      -9.195   9.860  64.867  1.00  0.00    -0.301 A  
HETATM   22  F   UNL     1     -11.304  11.197  63.208  1.00  0.00    -0.387 F  
HETATM   23  C   UNL     1      -8.675   9.178  66.000  1.00  0.00    -0.176 A  
HETATM   24  F   UNL     1      -9.311  11.830  62.616  1.00  0.00    -0.372 F  
HETATM   25  F   UNL     1     -10.553  13.141  63.828  1.00  0.00    -0.389 F  
HETATM   26  C   UNL     1      -8.233   7.803  65.952  1.00  0.00    -0.128 A  
HETATM   27  C   UNL     1      -8.280   6.994  64.786  1.00  0.00    -0.048 A  
HETATM   28  C   UNL     1      -7.858   5.662  64.776  1.00  0.00    -0.112 A  
HETATM   29  C   UNL     1      -7.360   5.076  65.922  1.00  0.00    -0.077 A  
HETATM   30 CL   UNL     1      -7.965   4.740  63.328  1.00  0.00    -0.080 Cl 
HETATM   31  C   UNL     1      -7.287   5.834  67.086  1.00  0.00    -0.077 A  
HETATM   32  C   UNL     1      -7.719   7.190  67.119  1.00  0.00    -0.108 A  
HETATM   33 CL   UNL     1      -6.672   5.015  68.492  1.00  0.00    -0.049 Cl 
HETATM   34  C   UNL     1      -7.680   7.948  68.297  1.00  0.00    -0.121 A  
ENDBRANCH  12  15
ENDBRANCH  11  12
ENDBRANCH  10  11
ENDBRANCH   5  10
ENDBRANCH   4   5
ENDBRANCH   3   4
ENDBRANCH   2   3
TORSDOF 10
ENDMDL
MODEL       75
REMARK 921   NORMALIZED FREE ENERGY PREDICTED BY IDOCK:   -4.69 KCAL/MOL
REMARK 922        TOTAL FREE ENERGY PREDICTED BY IDOCK:   -9.92 KCAL/MOL
REMARK 923 INTER-LIGAND FREE ENERGY PREDICTED BY IDOCK:   -8.96 KCAL/MOL
REMARK 924 INTRA-LIGAND FREE ENERGY PREDICTED BY IDOCK:   -0.96 KCAL/MOL
REMARK 927      BINDING AFFINITY PREDICTED BY RF-SCORE:    0.00 PKD
ROOT
HETATM    1  C   UNL     1      -7.168   4.525  71.115  1.00  0.00    -0.044 C  
HETATM    2  C   UNL     1      -8.363   3.768  71.676  1.00  0.00    -0.085 C  
ENDROOT
BRANCH   2   3
HETATM    3  C   UNL     1      -9.596   4.669  71.704  1.00  0.00    -0.221 C  
BRANCH   3   4
HETATM    4  C   UNL     1      -9.705   5.606  70.495  1.00  0.00    -0.180 C  
BRANCH   4   5
HETATM    5  N   UNL     1     -11.024   5.759  69.831  1.00  0.00    -0.349 NA 
BRANCH   5   6
HETATM    6  C   UNL     1     -11.749   6.938  70.354  1.00  0.00    -0.325 C  
BRANCH   6   7
HETATM    7  C   UNL     1     -12.653   6.699  71.578  1.00  0.00    -0.287 C  
BRANCH   7   8
HETATM    8  C   UNL     1     -14.034   7.341  71.468  1.00  0.00    -0.486 C  
HETATM    9  C   UNL     1     -13.931   8.861  71.559  1.00  0.00    -0.365 C  
ENDBRANCH   7   8
ENDBRANCH   6   7
ENDBRANCH   5   6
BRANCH   5  10
HETATM   10  C   UNL     1     -10.848   5.868  68.357  1.00  0.00    -0.240 C  
BRANCH  10  11
HETATM   11  C   UNL     1     -11.146   7.276  67.848  1.00  0.00    -0.001 C  
BRANCH  11  12
HETATM   12  C   UNL     1      -9.968   8.251  67.976  1.00  0.00    -0.185 C  
HETATM   13  H   UNL     1      -8.153   8.421  67.242  1.00  0.00     0.000 HD 
HETATM   14  O   UNL     1      -8.883   7.818  67.162  1.00  0.00    -0.122 OA 
BRANCH  12  15
HETATM   15  C   UNL     1     -10.335   9.689  67.603  1.00  0.00    -0.290 A  
HETATM   16  C   UNL     1     -10.891  10.590  68.542  1.00  0.00    -0.275 A  
HETATM   17  C   UNL     1     -10.966  10.275  69.918  1.00  0.00    -0.358 A  
HETATM   18  C   UNL     1     -11.568  11.124  70.846  1.00  0.00     0.086 A  
HETATM   19  C   UNL     1     -12.113  12.330  70.426  1.00  0.00    -0.385 A  
HETATM   20  C   UNL     1     -12.805  13.258  71.390  1.00  0.00    -0.322 C  
HETATM   21  C   UNL     1     -12.010  12.676  69.067  1.00  0.00    -0.282 A  
HETATM   22  F   UNL     1     -14.107  13.475  71.054  1.00  0.00     0.022 F  
HETATM   23  C   UNL     1     -11.398  11.843  68.091  1.00  0.00    -0.350 A  
HETATM   24  F   UNL     1     -12.223  14.488  71.439  1.00  0.00    -0.350 F  
HETATM   25  F   UNL     1     -12.823  12.801  72.673  1.00  0.00    -0.317 F  
HETATM   26  C   UNL     1     -11.292  12.215  66.698  1.00  0.00    -0.405 A  
HETATM   27  C   UNL     1     -11.791  13.431  66.161  1.00  0.00    -0.427 A  
HETATM   28  C   UNL     1     -11.685  13.755  64.807  1.00  0.00    -0.381 A  
HETATM   29  C   UNL     1     -11.070  12.890  63.925  1.00  0.00    -0.454 A  
HETATM   30 CL   UNL     1     -12.333  15.240  64.227  1.00  0.00    -0.315 Cl 
HETATM   31  C   UNL     1     -10.559  11.691  64.409  1.00  0.00    -0.323 A  
HETATM   32  C   UNL     1     -10.662  11.338  65.784  1.00  0.00    -0.284 A  
HETATM   33 CL   UNL     1      -9.822  10.645  63.230  1.00  0.00    -0.373 Cl 
HETATM   34  C   UNL     1     -10.179  10.116  66.271  1.00  0.00    -0.288 A  
ENDBRANCH  12  15
ENDBRANCH  11  12
ENDBRANCH  10  11
ENDBRANCH   5  10
ENDBRANCH   4   5
ENDBRANCH   3   4
ENDBRANCH   2   3
TORSDOF 10
ENDMDL
MODEL       76
REMARK 921   NORMALIZED FREE ENERGY PREDICTED BY IDOCK:   -4.67 KCAL/MOL
REMARK 922        TOTAL FREE ENERGY PREDICTED BY IDOCK:   -9.89 KCAL/MOL
REMARK 923 INTER-LIGAND FREE ENERGY PREDICTED BY IDOCK:   -9.60 KCAL/MOL
REMARK 924 INTRA-LIGAND FREE ENERGY PREDICTED BY IDOCK:   -0.29 KCAL/MOL
REMARK 927      BINDING AFFINITY PREDICTED BY RF-SCORE:    0.00 PKD
ROOT
HETATM    1  C   UNL     1      -8.167  20.631  67.139  1.00  0.00    -0.299 C  
HETATM    2  C   UNL     1      -9.665  20.682  67.398  1.00  0.00    -0.552 C  
ENDROOT
BRANCH   2   3
HETATM    3  C   UNL     1     -10.383  19.616  66.572  1.00  0.00    -0.601 C  
BRANCH   3   4
HETATM    4  C   UNL     1     -10.742  18.355  67.367  1.00  0.00    -0.361 C  
BRANCH   4   5
HETATM    5  N   UNL     1     -10.068  17.079  67.018  1.00  0.00    -0.287 NA 
BRANCH   5   6
HETATM    6  C   UNL     1      -8.652  17.092  67.447  1.00  0.00    -0.197 C  
BRANCH   6   7
HETATM    7  C   UNL     1      -7.604  16.781  66.361  1.00  0.00    -0.325 C  
BRANCH   7   8
HETATM    8  C   UNL     1      -6.191  17.240  66.709  1.00  0.00    -0.235 C  
HETATM    9  C   UNL     1      -6.024  17.375  68.219  1.00  0.00    -0.157 C  
ENDBRANCH   7   8
ENDBRANCH   6   7
ENDBRANCH   5   6
BRANCH   5  10
HETATM   10  C   UNL     1     -10.788  15.932  67.636  1.00  0.00    -0.312 C  
BRANCH  10  11
HETATM   11  C   UNL     1     -10.677  14.665  66.791  1.00  0.00    -0.301 C  
BRANCH  11  12
HETATM   12  C   UNL     1      -9.487  13.769  67.160  1.00  0.00    -0.244 C  
HETATM   13  H   UNL     1      -8.189  13.630  68.629  1.00  0.00     0.000 HD 
HETATM   14  O   UNL     1      -8.926  14.185  68.400  1.00  0.00    -0.183 OA 
BRANCH  12  15
HETATM   15  C   UNL     1      -9.857  12.286  67.247  1.00  0.00    -0.208 A  
HETATM   16  C   UNL     1     -10.662  11.773  68.292  1.00  0.00    -0.246 A  
HETATM   17  C   UNL     1     -11.323  12.624  69.206  1.00  0.00    -0.306 A  
HETATM   18  C   UNL     1     -12.068  12.134  70.278  1.00  0.00    -0.385 A  
HETATM   19  C   UNL     1     -12.183  10.764  70.468  1.00  0.00    -0.457 A  
HETATM   20  C   UNL     1     -12.948  10.194  71.635  1.00  0.00    -0.456 C  
HETATM   21  C   UNL     1     -11.566   9.904  69.543  1.00  0.00    -0.056 A  
HETATM   22  F   UNL     1     -12.163   9.428  72.442  1.00  0.00    -0.398 F  
HETATM   23  C   UNL     1     -10.805  10.362  68.434  1.00  0.00    -0.289 A  
HETATM   24  F   UNL     1     -13.975   9.391  71.243  1.00  0.00    -0.411 F  
HETATM   25  F   UNL     1     -13.500  11.141  72.443  1.00  0.00    -0.538 F  
HETATM   26  C   UNL     1     -10.182   9.466  67.486  1.00  0.00    -0.288 A  
HETATM   27  C   UNL     1     -10.253   8.050  67.567  1.00  0.00    -0.311 A  
HETATM   28  C   UNL     1      -9.628   7.211  66.643  1.00  0.00    -0.170 A  
HETATM   29  C   UNL     1      -8.910   7.739  65.589  1.00  0.00    -0.102 A  
HETATM   30 CL   UNL     1      -9.743   5.503  66.820  1.00  0.00    -0.153 Cl 
HETATM   31  C   UNL     1      -8.821   9.122  65.465  1.00  0.00    -0.191 A  
HETATM   32  C   UNL     1      -9.445   9.995  66.401  1.00  0.00    -0.235 A  
HETATM   33 CL   UNL     1      -7.878   9.708  64.126  1.00  0.00    -0.123 Cl 
HETATM   34  C   UNL     1      -9.330  11.388  66.300  1.00  0.00    -0.228 A  
ENDBRANCH  12  15
ENDBRANCH  11  12
ENDBRANCH  10  11
ENDBRANCH   5  10
ENDBRANCH   4   5
ENDBRANCH   3   4
ENDBRANCH   2   3
TORSDOF 10
ENDMDL
MODEL       77
REMARK 921   NORMALIZED FREE ENERGY PREDICTED BY IDOCK:   -4.61 KCAL/MOL
REMARK 922        TOTAL FREE ENERGY PREDICTED BY IDOCK:   -9.80 KCAL/MOL
REMARK 923 INTER-LIGAND FREE ENERGY PREDICTED BY IDOCK:   -8.21 KCAL/MOL
REMARK 924 INTRA-LIGAND FREE ENERGY PREDICTED BY IDOCK:   -1.59 KCAL/MOL
REMARK 927      BINDING AFFINITY PREDICTED BY RF-SCORE:    0.00 PKD
ROOT
HETATM    1  C   UNL     1      -7.734  13.840  67.219  1.00  0.00    -0.095 C  
HETATM    2  C   UNL     1      -8.236  15.054  67.987  1.00  0.00    -0.138 C  
ENDROOT
BRANCH   2   3
HETATM    3  C   UNL     1      -9.568  15.532  67.411  1.00  0.00    -0.213 C  
BRANCH   3   4
HETATM    4  C   UNL     1     -10.735  15.451  68.402  1.00  0.00    -0.256 C  
BRANCH   4   5
HETATM    5  N   UNL     1     -11.897  14.592  68.063  1.00  0.00    -0.332 NA 
BRANCH   5   6
HETATM    6  C   UNL     1     -11.585  13.700  66.925  1.00  0.00    -0.367 C  
BRANCH   6   7
HETATM    7  C   UNL     1     -12.495  13.823  65.689  1.00  0.00    -0.541 C  
BRANCH   7   8
HETATM    8  C   UNL     1     -11.781  13.580  64.362  1.00  0.00    -0.443 C  
HETATM    9  C   UNL     1     -12.407  12.404  63.618  1.00  0.00    -0.647 C  
ENDBRANCH   7   8
ENDBRANCH   6   7
ENDBRANCH   5   6
BRANCH   5  10
HETATM   10  C   UNL     1     -12.310  13.794  69.251  1.00  0.00    -0.143 C  
BRANCH  10  11
HETATM   11  C   UNL     1     -11.249  12.771  69.650  1.00  0.00    -0.072 C  
BRANCH  11  12
HETATM   12  C   UNL     1     -11.809  11.539  70.374  1.00  0.00    -0.320 C  
HETATM   13  H   UNL     1     -13.579  10.794  70.790  1.00  0.00     0.000 HD 
HETATM   14  O   UNL     1     -13.232  11.557  70.341  1.00  0.00     0.233 OA 
BRANCH  12  15
HETATM   15  C   UNL     1     -11.308  10.218  69.786  1.00  0.00    -0.334 A  
HETATM   16  C   UNL     1     -11.150   9.056  70.577  1.00  0.00    -0.297 A  
HETATM   17  C   UNL     1     -11.621   8.995  71.909  1.00  0.00    -0.441 A  
HETATM   18  C   UNL     1     -11.418   7.880  72.722  1.00  0.00    -0.428 A  
HETATM   19  C   UNL     1     -10.737   6.778  72.223  1.00  0.00    -0.250 A  
HETATM   20  C   UNL     1     -10.464   5.569  73.081  1.00  0.00    -0.222 C  
HETATM   21  C   UNL     1     -10.298   6.807  70.888  1.00  0.00    -0.222 A  
HETATM   22  F   UNL     1      -9.132   5.321  73.215  1.00  0.00    -0.127 F  
HETATM   23  C   UNL     1     -10.492   7.919  70.024  1.00  0.00    -0.231 A  
HETATM   24  F   UNL     1     -11.004   4.431  72.565  1.00  0.00    -0.241 F  
HETATM   25  F   UNL     1     -10.953   5.674  74.348  1.00  0.00    -0.173 F  
HETATM   26  C   UNL     1     -10.043   7.932  68.651  1.00  0.00    -0.210 A  
HETATM   27  C   UNL     1      -9.359   6.854  68.029  1.00  0.00    -0.123 A  
HETATM   28  C   UNL     1      -8.925   6.904  66.702  1.00  0.00    -0.145 A  
HETATM   29  C   UNL     1      -9.158   8.023  65.929  1.00  0.00    -0.159 A  
HETATM   30 CL   UNL     1      -8.084   5.564  66.025  1.00  0.00    -0.106 Cl 
HETATM   31  C   UNL     1      -9.832   9.099  66.495  1.00  0.00    -0.264 A  
HETATM   32  C   UNL     1     -10.277   9.072  67.847  1.00  0.00    -0.272 A  
HETATM   33 CL   UNL     1     -10.065  10.481  65.463  1.00  0.00    -0.342 Cl 
HETATM   34  C   UNL     1     -10.927  10.167  68.432  1.00  0.00    -0.293 A  
ENDBRANCH  12  15
ENDBRANCH  11  12
ENDBRANCH  10  11
ENDBRANCH   5  10
ENDBRANCH   4   5
ENDBRANCH   3   4
ENDBRANCH   2   3
TORSDOF 10
ENDMDL
MODEL       78
REMARK 921   NORMALIZED FREE ENERGY PREDICTED BY IDOCK:   -4.61 KCAL/MOL
REMARK 922        TOTAL FREE ENERGY PREDICTED BY IDOCK:   -9.80 KCAL/MOL
REMARK 923 INTER-LIGAND FREE ENERGY PREDICTED BY IDOCK:   -9.08 KCAL/MOL
REMARK 924 INTRA-LIGAND FREE ENERGY PREDICTED BY IDOCK:   -0.72 KCAL/MOL
REMARK 927      BINDING AFFINITY PREDICTED BY RF-SCORE:    0.00 PKD
ROOT
HETATM    1  C   UNL     1      -5.982   7.827  73.910  1.00  0.00    -0.073 C  
HETATM    2  C   UNL     1      -6.768   7.659  72.618  1.00  0.00    -0.064 C  
ENDROOT
BRANCH   2   3
HETATM    3  C   UNL     1      -8.124   8.354  72.728  1.00  0.00    -0.168 C  
BRANCH   3   4
HETATM    4  C   UNL     1      -9.228   7.691  71.896  1.00  0.00    -0.134 C  
BRANCH   4   5
HETATM    5  N   UNL     1     -10.428   7.168  72.596  1.00  0.00    -0.220 NA 
BRANCH   5   6
HETATM    6  C   UNL     1     -10.140   6.907  74.023  1.00  0.00    -0.348 C  
BRANCH   6   7
HETATM    7  C   UNL     1     -10.099   5.429  74.455  1.00  0.00    -0.278 C  
BRANCH   7   8
HETATM    8  C   UNL     1      -9.256   4.537  73.547  1.00  0.00    -0.115 C  
HETATM    9  C   UNL     1     -10.128   3.493  72.855  1.00  0.00    -0.224 C  
ENDBRANCH   7   8
ENDBRANCH   6   7
ENDBRANCH   5   6
BRANCH   5  10
HETATM   10  C   UNL     1     -11.560   8.126  72.461  1.00  0.00    -0.404 C  
BRANCH  10  11
HETATM   11  C   UNL     1     -11.235   9.264  71.495  1.00  0.00    -0.457 C  
BRANCH  11  12
HETATM   12  C   UNL     1     -12.459  10.073  71.047  1.00  0.00    -0.362 C  
HETATM   13  H   UNL     1     -13.891  11.112  71.903  1.00  0.00     0.000 HD 
HETATM   14  O   UNL     1     -13.133  10.611  72.181  1.00  0.00    -0.460 OA 
BRANCH  12  15
HETATM   15  C   UNL     1     -12.107  11.210  70.085  1.00  0.00    -0.443 A  
HETATM   16  C   UNL     1     -11.466  10.974  68.845  1.00  0.00    -0.364 A  
HETATM   17  C   UNL     1     -11.283   9.665  68.342  1.00  0.00    -0.004 A  
HETATM   18  C   UNL     1     -10.599   9.412  67.154  1.00  0.00    -0.294 A  
HETATM   19  C   UNL     1     -10.077  10.468  66.420  1.00  0.00    -0.285 A  
HETATM   20  C   UNL     1      -9.298  10.234  65.151  1.00  0.00    -0.226 C  
HETATM   21  C   UNL     1     -10.285  11.777  66.886  1.00  0.00    -0.236 A  
HETATM   22  F   UNL     1      -8.026  10.712  65.230  1.00  0.00    -0.150 F  
HETATM   23  C   UNL     1     -10.984  12.079  68.087  1.00  0.00    -0.273 A  
HETATM   24  F   UNL     1      -9.861  10.847  64.074  1.00  0.00    -0.251 F  
HETATM   25  F   UNL     1      -9.181   8.919  64.815  1.00  0.00    -0.217 F  
HETATM   26  C   UNL     1     -11.198  13.431  68.551  1.00  0.00    -0.316 A  
HETATM   27  C   UNL     1     -10.731  14.587  67.871  1.00  0.00    -0.245 A  
HETATM   28  C   UNL     1     -10.942  15.881  68.353  1.00  0.00    -0.331 A  
HETATM   29  C   UNL     1     -11.636  16.087  69.527  1.00  0.00    -0.304 A  
HETATM   30 CL   UNL     1     -10.326  17.231  67.482  1.00  0.00    -0.335 Cl 
HETATM   31  C   UNL     1     -12.120  14.984  70.222  1.00  0.00    -0.329 A  
HETATM   32  C   UNL     1     -11.910  13.657  69.752  1.00  0.00    -0.392 A  
HETATM   33 CL   UNL     1     -12.962  15.327  71.706  1.00  0.00    -0.429 Cl 
HETATM   34  C   UNL     1     -12.365  12.540  70.466  1.00  0.00    -0.345 A  
ENDBRANCH  12  15
ENDBRANCH  11  12
ENDBRANCH  10  11
ENDBRANCH   5  10
ENDBRANCH   4   5
ENDBRANCH   3   4
ENDBRANCH   2   3
TORSDOF 10
ENDMDL
MODEL       79
REMARK 921   NORMALIZED FREE ENERGY PREDICTED BY IDOCK:   -4.60 KCAL/MOL
REMARK 922        TOTAL FREE ENERGY PREDICTED BY IDOCK:   -9.79 KCAL/MOL
REMARK 923 INTER-LIGAND FREE ENERGY PREDICTED BY IDOCK:   -8.22 KCAL/MOL
REMARK 924 INTRA-LIGAND FREE ENERGY PREDICTED BY IDOCK:   -1.57 KCAL/MOL
REMARK 927      BINDING AFFINITY PREDICTED BY RF-SCORE:    0.00 PKD
ROOT
HETATM    1  C   UNL     1     -11.833  11.920  63.606  1.00  0.00    -0.573 C  
HETATM    2  C   UNL     1     -11.088  13.157  64.085  1.00  0.00    -0.426 C  
ENDROOT
BRANCH   2   3
HETATM    3  C   UNL     1     -12.076  14.212  64.580  1.00  0.00    -0.469 C  
BRANCH   3   4
HETATM    4  C   UNL     1     -12.082  14.388  66.104  1.00  0.00    -0.357 C  
BRANCH   4   5
HETATM    5  N   UNL     1     -10.793  14.645  66.794  1.00  0.00    -0.306 NA 
BRANCH   5   6
HETATM    6  C   UNL     1     -10.635  16.083  67.105  1.00  0.00    -0.305 C  
BRANCH   6   7
HETATM    7  C   UNL     1      -9.216  16.550  67.481  1.00  0.00    -0.203 C  
BRANCH   7   8
HETATM    8  C   UNL     1      -8.137  16.132  66.485  1.00  0.00    -0.331 C  
HETATM    9  C   UNL     1      -7.047  17.196  66.392  1.00  0.00    -0.310 C  
ENDBRANCH   7   8
ENDBRANCH   6   7
ENDBRANCH   5   6
BRANCH   5  10
HETATM   10  C   UNL     1     -10.705  13.831  68.037  1.00  0.00    -0.250 C  
BRANCH  10  11
HETATM   11  C   UNL     1      -9.980  12.508  67.804  1.00  0.00    -0.210 C  
BRANCH  11  12
HETATM   12  C   UNL     1     -10.793  11.270  68.206  1.00  0.00    -0.205 C  
HETATM   13  H   UNL     1     -12.661  10.671  68.085  1.00  0.00     0.000 HD 
HETATM   14  O   UNL     1     -12.157  11.438  67.836  1.00  0.00    -0.646 OA 
BRANCH  12  15
HETATM   15  C   UNL     1     -10.259   9.975  67.588  1.00  0.00    -0.249 A  
HETATM   16  C   UNL     1     -10.190   8.766  68.321  1.00  0.00    -0.240 A  
HETATM   17  C   UNL     1     -10.779   8.638  69.600  1.00  0.00    -0.204 A  
HETATM   18  C   UNL     1     -10.666   7.476  70.360  1.00  0.00    -0.248 A  
HETATM   19  C   UNL     1      -9.959   6.390  69.861  1.00  0.00    -0.198 A  
HETATM   20  C   UNL     1      -9.781   5.129  70.667  1.00  0.00    -0.192 C  
HETATM   21  C   UNL     1      -9.401   6.487  68.574  1.00  0.00    -0.123 A  
HETATM   22  F   UNL     1      -8.469   4.849  70.905  1.00  0.00    -0.100 F  
HETATM   23  C   UNL     1      -9.501   7.650  67.763  1.00  0.00    -0.160 A  
HETATM   24  F   UNL     1     -10.288   4.033  70.039  1.00  0.00    -0.170 F  
HETATM   25  F   UNL     1     -10.380   5.172  71.890  1.00  0.00    -0.236 F  
HETATM   26  C   UNL     1      -8.930   7.734  66.438  1.00  0.00    -0.196 A  
HETATM   27  C   UNL     1      -8.208   6.680  65.817  1.00  0.00    -0.135 A  
HETATM   28  C   UNL     1      -7.655   6.797  64.540  1.00  0.00    -0.103 A  
HETATM   29  C   UNL     1      -7.803   7.963  63.816  1.00  0.00    -0.141 A  
HETATM   30 CL   UNL     1      -6.776   5.482  63.862  1.00  0.00    -0.037 Cl 
HETATM   31  C   UNL     1      -8.510   9.018  64.382  1.00  0.00    -0.174 A  
HETATM   32  C   UNL     1      -9.075   8.922  65.685  1.00  0.00    -0.269 A  
HETATM   33 CL   UNL     1      -8.629  10.460  63.416  1.00  0.00    -0.180 Cl 
HETATM   34  C   UNL     1      -9.759   9.994  66.273  1.00  0.00    -0.272 A  
ENDBRANCH  12  15
ENDBRANCH  11  12
ENDBRANCH  10  11
ENDBRANCH   5  10
ENDBRANCH   4   5
ENDBRANCH   3   4
ENDBRANCH   2   3
TORSDOF 10
ENDMDL
MODEL       80
REMARK 921   NORMALIZED FREE ENERGY PREDICTED BY IDOCK:   -4.59 KCAL/MOL
REMARK 922        TOTAL FREE ENERGY PREDICTED BY IDOCK:   -9.77 KCAL/MOL
REMARK 923 INTER-LIGAND FREE ENERGY PREDICTED BY IDOCK:   -8.48 KCAL/MOL
REMARK 924 INTRA-LIGAND FREE ENERGY PREDICTED BY IDOCK:   -1.29 KCAL/MOL
REMARK 927      BINDING AFFINITY PREDICTED BY RF-SCORE:    0.00 PKD
ROOT
HETATM    1  C   UNL     1      -8.072  19.355  68.382  1.00  0.00    -0.378 C  
HETATM    2  C   UNL     1      -9.584  19.193  68.405  1.00  0.00    -0.437 C  
ENDROOT
BRANCH   2   3
HETATM    3  C   UNL     1      -9.984  17.852  67.792  1.00  0.00    -0.331 C  
BRANCH   3   4
HETATM    4  C   UNL     1     -10.881  17.000  68.698  1.00  0.00    -0.284 C  
BRANCH   4   5
HETATM    5  N   UNL     1     -10.485  15.596  68.972  1.00  0.00    -0.217 NA 
BRANCH   5   6
HETATM    6  C   UNL     1      -9.184  15.537  69.672  1.00  0.00    -0.203 C  
BRANCH   6   7
HETATM    7  C   UNL     1      -7.939  15.332  68.788  1.00  0.00    -0.158 C  
BRANCH   7   8
HETATM    8  C   UNL     1      -8.209  14.554  67.502  1.00  0.00    -0.201 C  
HETATM    9  C   UNL     1      -7.441  13.235  67.498  1.00  0.00    -0.163 C  
ENDBRANCH   7   8
ENDBRANCH   6   7
ENDBRANCH   5   6
BRANCH   5  10
HETATM   10  C   UNL     1     -11.538  14.913  69.772  1.00  0.00    -0.303 C  
BRANCH  10  11
HETATM   11  C   UNL     1     -12.150  13.731  69.024  1.00  0.00    -0.359 C  
BRANCH  11  12
HETATM   12  C   UNL     1     -11.645  12.361  69.497  1.00  0.00    -0.286 C  
HETATM   13  H   UNL     1     -12.347  10.847  70.534  1.00  0.00     0.000 HD 
HETATM   14  O   UNL     1     -12.660  11.695  70.240  1.00  0.00    -0.187 OA 
BRANCH  12  15
HETATM   15  C   UNL     1     -11.189  11.460  68.347  1.00  0.00    -0.324 A  
HETATM   16  C   UNL     1     -10.774  10.124  68.559  1.00  0.00    -0.264 A  
HETATM   17  C   UNL     1     -10.932   9.487  69.811  1.00  0.00    -0.245 A  
HETATM   18  C   UNL     1     -10.472   8.194  70.055  1.00  0.00    -0.231 A  
HETATM   19  C   UNL     1      -9.838   7.486  69.043  1.00  0.00    -0.170 A  
HETATM   20  C   UNL     1      -9.293   6.100  69.276  1.00  0.00    -0.134 C  
HETATM   21  C   UNL     1      -9.709   8.089  67.780  1.00  0.00    -0.191 A  
HETATM   22  F   UNL     1      -7.949   6.032  69.065  1.00  0.00    -0.096 F  
HETATM   23  C   UNL     1     -10.172   9.401  67.488  1.00  0.00    -0.288 A  
HETATM   24  F   UNL     1      -9.847   5.175  68.445  1.00  0.00    -0.158 F  
HETATM   25  F   UNL     1      -9.495   5.637  70.541  1.00  0.00    -0.162 F  
HETATM   26  C   UNL     1     -10.040  10.007  66.183  1.00  0.00    -0.317 A  
HETATM   27  C   UNL     1      -9.432   9.369  65.069  1.00  0.00    -0.204 A  
HETATM   28  C   UNL     1      -9.307   9.987  63.823  1.00  0.00    -0.257 A  
HETATM   29  C   UNL     1      -9.789  11.265  63.623  1.00  0.00    -0.377 A  
HETATM   30 CL   UNL     1      -8.540   9.156  62.527  1.00  0.00    -0.213 Cl 
HETATM   31  C   UNL     1     -10.400  11.925  64.684  1.00  0.00    -0.284 A  
HETATM   32  C   UNL     1     -10.531  11.315  65.963  1.00  0.00    -0.310 A  
HETATM   33 CL   UNL     1     -10.957  13.540  64.357  1.00  0.00    -0.395 Cl 
HETATM   34  C   UNL     1     -11.115  11.989  67.045  1.00  0.00    -0.351 A  
ENDBRANCH  12  15
ENDBRANCH  11  12
ENDBRANCH  10  11
ENDBRANCH   5  10
ENDBRANCH   4   5
ENDBRANCH   3   4
ENDBRANCH   2   3
TORSDOF 10
ENDMDL
MODEL       81
REMARK 921   NORMALIZED FREE ENERGY PREDICTED BY IDOCK:   -4.58 KCAL/MOL
REMARK 922        TOTAL FREE ENERGY PREDICTED BY IDOCK:   -9.75 KCAL/MOL
REMARK 923 INTER-LIGAND FREE ENERGY PREDICTED BY IDOCK:   -7.38 KCAL/MOL
REMARK 924 INTRA-LIGAND FREE ENERGY PREDICTED BY IDOCK:   -2.37 KCAL/MOL
REMARK 927      BINDING AFFINITY PREDICTED BY RF-SCORE:    0.00 PKD
ROOT
HETATM    1  C   UNL     1      -6.425   7.718  69.163  1.00  0.00    -0.036 C  
HETATM    2  C   UNL     1      -6.832   7.279  70.561  1.00  0.00    -0.053 C  
ENDROOT
BRANCH   2   3
HETATM    3  C   UNL     1      -7.632   8.382  71.252  1.00  0.00    -0.100 C  
BRANCH   3   4
HETATM    4  C   UNL     1      -8.152   7.993  72.641  1.00  0.00    -0.145 C  
BRANCH   4   5
HETATM    5  N   UNL     1      -9.217   6.964  72.738  1.00  0.00    -0.134 NA 
BRANCH   5   6
HETATM    6  C   UNL     1      -8.711   5.735  73.387  1.00  0.00    -0.120 C  
BRANCH   6   7
HETATM    7  C   UNL     1      -8.719   4.454  72.530  1.00  0.00    -0.116 C  
BRANCH   7   8
HETATM    8  C   UNL     1     -10.116   3.932  72.202  1.00  0.00    -0.225 C  
HETATM    9  C   UNL     1     -10.976   3.868  73.460  1.00  0.00    -0.343 C  
ENDBRANCH   7   8
ENDBRANCH   6   7
ENDBRANCH   5   6
BRANCH   5  10
HETATM   10  C   UNL     1     -10.385   7.503  73.486  1.00  0.00    -0.317 C  
BRANCH  10  11
HETATM   11  C   UNL     1     -11.440   8.093  72.553  1.00  0.00    -0.470 C  
BRANCH  11  12
HETATM   12  C   UNL     1     -11.818   7.180  71.378  1.00  0.00    -0.308 C  
HETATM   13  H   UNL     1     -13.448   6.707  70.388  1.00  0.00     0.000 HD 
HETATM   14  O   UNL     1     -13.214   7.272  71.115  1.00  0.00    -0.337 OA 
BRANCH  12  15
HETATM   15  C   UNL     1     -11.042   7.498  70.098  1.00  0.00    -0.246 A  
HETATM   16  C   UNL     1     -11.105   8.767  69.476  1.00  0.00     0.006 A  
HETATM   17  C   UNL     1     -11.737   9.868  70.099  1.00  0.00    -0.239 A  
HETATM   18  C   UNL     1     -11.863  11.108  69.475  1.00  0.00    -0.423 A  
HETATM   19  C   UNL     1     -11.352  11.292  68.197  1.00  0.00    -0.372 A  
HETATM   20  C   UNL     1     -11.501  12.605  67.472  1.00  0.00    -0.340 C  
HETATM   21  C   UNL     1     -10.685  10.219  67.580  1.00  0.00    -0.339 A  
HETATM   22  F   UNL     1     -12.192  12.475  66.306  1.00  0.00    -0.466 F  
HETATM   23  C   UNL     1     -10.528   8.943  68.185  1.00  0.00    -0.254 A  
HETATM   24  F   UNL     1     -10.302  13.153  67.135  1.00  0.00    -0.240 F  
HETATM   25  F   UNL     1     -12.160  13.556  68.191  1.00  0.00    -0.366 F  
HETATM   26  C   UNL     1      -9.833   7.850  67.543  1.00  0.00    -0.221 A  
HETATM   27  C   UNL     1      -9.250   7.931  66.250  1.00  0.00    -0.231 A  
HETATM   28  C   UNL     1      -8.597   6.852  65.650  1.00  0.00    -0.110 A  
HETATM   29  C   UNL     1      -8.484   5.646  66.310  1.00  0.00    -0.124 A  
HETATM   30 CL   UNL     1      -7.934   7.022  64.072  1.00  0.00    -0.109 Cl 
HETATM   31  C   UNL     1      -9.032   5.524  67.583  1.00  0.00    -0.108 A  
HETATM   32  C   UNL     1      -9.708   6.609  68.209  1.00  0.00    -0.132 A  
HETATM   33 CL   UNL     1      -8.869   3.965  68.337  1.00  0.00    -0.131 Cl 
HETATM   34  C   UNL     1     -10.292   6.481  69.477  1.00  0.00    -0.237 A  
ENDBRANCH  12  15
ENDBRANCH  11  12
ENDBRANCH  10  11
ENDBRANCH   5  10
ENDBRANCH   4   5
ENDBRANCH   3   4
ENDBRANCH   2   3
TORSDOF 10
ENDMDL
MODEL       82
REMARK 921   NORMALIZED FREE ENERGY PREDICTED BY IDOCK:   -4.55 KCAL/MOL
REMARK 922        TOTAL FREE ENERGY PREDICTED BY IDOCK:   -9.71 KCAL/MOL
REMARK 923 INTER-LIGAND FREE ENERGY PREDICTED BY IDOCK:   -8.41 KCAL/MOL
REMARK 924 INTRA-LIGAND FREE ENERGY PREDICTED BY IDOCK:   -1.30 KCAL/MOL
REMARK 927      BINDING AFFINITY PREDICTED BY RF-SCORE:    0.00 PKD
ROOT
HETATM    1  C   UNL     1     -12.029  13.353  69.931  1.00  0.00    -0.408 C  
HETATM    2  C   UNL     1     -11.909  14.672  69.182  1.00  0.00    -0.347 C  
ENDROOT
BRANCH   2   3
HETATM    3  C   UNL     1     -11.944  14.431  67.674  1.00  0.00    -0.378 C  
BRANCH   3   4
HETATM    4  C   UNL     1     -11.650  12.981  67.272  1.00  0.00    -0.356 C  
BRANCH   4   5
HETATM    5  N   UNL     1     -10.682  12.729  66.176  1.00  0.00    -0.271 NA 
BRANCH   5   6
HETATM    6  C   UNL     1     -11.059  13.471  64.953  1.00  0.00    -0.346 C  
BRANCH   6   7
HETATM    7  C   UNL     1     -11.314  12.626  63.690  1.00  0.00    -0.544 C  
BRANCH   7   8
HETATM    8  C   UNL     1     -10.653  11.250  63.716  1.00  0.00    -0.455 C  
HETATM    9  C   UNL     1      -9.367  11.255  62.895  1.00  0.00    -0.376 C  
ENDBRANCH   7   8
ENDBRANCH   6   7
ENDBRANCH   5   6
BRANCH   5  10
HETATM   10  C   UNL     1      -9.307  13.104  66.608  1.00  0.00    -0.239 C  
BRANCH  10  11
HETATM   11  C   UNL     1      -8.980  12.571  68.001  1.00  0.00    -0.192 C  
BRANCH  11  12
HETATM   12  C   UNL     1      -7.969  11.416  68.007  1.00  0.00    -0.127 C  
HETATM   13  H   UNL     1      -6.647  10.665  69.252  1.00  0.00     0.000 HD 
HETATM   14  O   UNL     1      -7.274  11.380  69.249  1.00  0.00    -0.118 OA 
BRANCH  12  15
HETATM   15  C   UNL     1      -8.615  10.052  67.752  1.00  0.00    -0.118 A  
HETATM   16  C   UNL     1      -9.520   9.466  68.669  1.00  0.00    -0.147 A  
HETATM   17  C   UNL     1     -10.022  10.184  69.778  1.00  0.00    -0.258 A  
HETATM   18  C   UNL     1     -10.863   9.603  70.725  1.00  0.00    -0.400 A  
HETATM   19  C   UNL     1     -11.240   8.274  70.589  1.00  0.00    -0.270 A  
HETATM   20  C   UNL     1     -12.118   7.597  71.611  1.00  0.00    -0.306 C  
HETATM   21  C   UNL     1     -10.782   7.557  69.470  1.00  0.00    -0.222 A  
HETATM   22  F   UNL     1     -11.505   6.527  72.190  1.00  0.00    -0.272 F  
HETATM   23  C   UNL     1      -9.931   8.115  68.478  1.00  0.00    -0.204 A  
HETATM   24  F   UNL     1     -13.272   7.118  71.071  1.00  0.00    -0.407 F  
HETATM   25  F   UNL     1     -12.493   8.412  72.636  1.00  0.00    -0.410 F  
HETATM   26  C   UNL     1      -9.473   7.369  67.328  1.00  0.00    -0.179 A  
HETATM   27  C   UNL     1      -9.814   6.014  67.074  1.00  0.00    -0.179 A  
HETATM   28  C   UNL     1      -9.344   5.316  65.959  1.00  0.00    -0.158 A  
HETATM   29  C   UNL     1      -8.522   5.935  65.039  1.00  0.00    -0.111 A  
HETATM   30 CL   UNL     1      -9.784   3.668  65.731  1.00  0.00    -0.141 Cl 
HETATM   31  C   UNL     1      -8.170   7.265  65.243  1.00  0.00    -0.125 A  
HETATM   32  C   UNL     1      -8.632   7.992  66.376  1.00  0.00    -0.155 A  
HETATM   33 CL   UNL     1      -7.112   7.964  64.053  1.00  0.00    -0.072 Cl 
HETATM   34  C   UNL     1      -8.253   9.322  66.605  1.00  0.00    -0.115 A  
ENDBRANCH  12  15
ENDBRANCH  11  12
ENDBRANCH  10  11
ENDBRANCH   5  10
ENDBRANCH   4   5
ENDBRANCH   3   4
ENDBRANCH   2   3
TORSDOF 10
ENDMDL
MODEL       83
REMARK 921   NORMALIZED FREE ENERGY PREDICTED BY IDOCK:   -4.55 KCAL/MOL
REMARK 922        TOTAL FREE ENERGY PREDICTED BY IDOCK:   -9.70 KCAL/MOL
REMARK 923 INTER-LIGAND FREE ENERGY PREDICTED BY IDOCK:   -8.61 KCAL/MOL
REMARK 924 INTRA-LIGAND FREE ENERGY PREDICTED BY IDOCK:   -1.10 KCAL/MOL
REMARK 927      BINDING AFFINITY PREDICTED BY RF-SCORE:    0.00 PKD
ROOT
HETATM    1  C   UNL     1     -12.356  15.418  74.291  1.00  0.00    -0.807 C  
HETATM    2  C   UNL     1     -12.242  15.007  72.831  1.00  0.00    -0.450 C  
ENDROOT
BRANCH   2   3
HETATM    3  C   UNL     1     -13.319  13.981  72.483  1.00  0.00    -0.639 C  
BRANCH   3   4
HETATM    4  C   UNL     1     -13.014  13.167  71.220  1.00  0.00    -0.254 C  
BRANCH   4   5
HETATM    5  N   UNL     1     -12.521  11.775  71.374  1.00  0.00    -0.239 NA 
BRANCH   5   6
HETATM    6  C   UNL     1     -13.487  10.949  72.131  1.00  0.00    -0.100 C  
BRANCH   6   7
HETATM    7  C   UNL     1     -13.189   9.439  72.204  1.00  0.00    -0.541 C  
BRANCH   7   8
HETATM    8  C   UNL     1     -14.389   8.551  71.887  1.00  0.00    -0.536 C  
HETATM    9  C   UNL     1     -13.943   7.116  71.622  1.00  0.00    -0.438 C  
ENDBRANCH   7   8
ENDBRANCH   6   7
ENDBRANCH   5   6
BRANCH   5  10
HETATM   10  C   UNL     1     -12.257  11.173  70.038  1.00  0.00    -0.326 C  
BRANCH  10  11
HETATM   11  C   UNL     1     -10.799  10.749  69.879  1.00  0.00    -0.264 C  
BRANCH  11  12
HETATM   12  C   UNL     1     -10.537   9.854  68.660  1.00  0.00    -0.217 C  
HETATM   13  H   UNL     1      -9.317   9.840  67.119  1.00  0.00     0.000 HD 
HETATM   14  O   UNL     1      -9.479  10.394  67.874  1.00  0.00    -0.138 OA 
BRANCH  12  15
HETATM   15  C   UNL     1     -10.198   8.410  69.037  1.00  0.00    -0.217 A  
HETATM   16  C   UNL     1      -9.904   7.428  68.061  1.00  0.00    -0.172 A  
HETATM   17  C   UNL     1      -9.724   7.765  66.700  1.00  0.00    -0.292 A  
HETATM   18  C   UNL     1      -9.496   6.803  65.717  1.00  0.00     0.231 A  
HETATM   19  C   UNL     1      -9.434   5.461  66.067  1.00  0.00    -0.161 A  
HETATM   20  C   UNL     1      -9.227   4.387  65.029  1.00  0.00    -0.157 C  
HETATM   21  C   UNL     1      -9.571   5.113  67.422  1.00  0.00    -0.154 A  
HETATM   22  F   UNL     1     -10.261   3.500  64.991  1.00  0.00    -0.150 F  
HETATM   23  C   UNL     1      -9.796   6.063  68.455  1.00  0.00    -0.152 A  
HETATM   24  F   UNL     1      -8.109   3.646  65.262  1.00  0.00    -0.093 F  
HETATM   25  F   UNL     1      -9.102   4.868  63.761  1.00  0.00    -0.148 F  
HETATM   26  C   UNL     1      -9.927   5.692  69.846  1.00  0.00    -0.268 A  
HETATM   27  C   UNL     1      -9.857   4.356  70.321  1.00  0.00    -0.284 A  
HETATM   28  C   UNL     1     -10.002   4.029  71.671  1.00  0.00    -0.162 A  
HETATM   29  C   UNL     1     -10.214   5.015  72.613  1.00  0.00    -0.236 A  
HETATM   30 CL   UNL     1      -9.925   2.383  72.168  1.00  0.00    -0.225 Cl 
HETATM   31  C   UNL     1     -10.281   6.339  72.193  1.00  0.00    -0.184 A  
HETATM   32  C   UNL     1     -10.142   6.693  70.822  1.00  0.00    -0.205 A  
HETATM   33 CL   UNL     1     -10.575   7.519  73.438  1.00  0.00    -0.431 Cl 
HETATM   34  C   UNL     1     -10.243   8.023  70.389  1.00  0.00    -0.201 A  
ENDBRANCH  12  15
ENDBRANCH  11  12
ENDBRANCH  10  11
ENDBRANCH   5  10
ENDBRANCH   4   5
ENDBRANCH   3   4
ENDBRANCH   2   3
TORSDOF 10
ENDMDL
MODEL       84
REMARK 921   NORMALIZED FREE ENERGY PREDICTED BY IDOCK:   -4.55 KCAL/MOL
REMARK 922        TOTAL FREE ENERGY PREDICTED BY IDOCK:   -9.70 KCAL/MOL
REMARK 923 INTER-LIGAND FREE ENERGY PREDICTED BY IDOCK:   -8.70 KCAL/MOL
REMARK 924 INTRA-LIGAND FREE ENERGY PREDICTED BY IDOCK:   -1.01 KCAL/MOL
REMARK 927      BINDING AFFINITY PREDICTED BY RF-SCORE:    0.00 PKD
ROOT
HETATM    1  C   UNL     1      -8.438  16.960  67.055  1.00  0.00    -0.228 C  
HETATM    2  C   UNL     1      -9.015  15.693  66.441  1.00  0.00    -0.362 C  
ENDROOT
BRANCH   2   3
HETATM    3  C   UNL     1     -10.240  16.026  65.591  1.00  0.00    -0.412 C  
BRANCH   3   4
HETATM    4  C   UNL     1     -10.732  14.857  64.730  1.00  0.00    -0.341 C  
BRANCH   4   5
HETATM    5  N   UNL     1     -12.043  14.239  65.052  1.00  0.00    -0.407 NA 
BRANCH   5   6
HETATM    6  C   UNL     1     -12.068  12.812  64.663  1.00  0.00    -0.423 C  
BRANCH   6   7
HETATM    7  C   UNL     1     -11.079  12.385  63.561  1.00  0.00    -0.521 C  
BRANCH   7   8
HETATM    8  C   UNL     1     -10.504  10.983  63.749  1.00  0.00    -0.408 C  
HETATM    9  C   UNL     1      -9.645  10.917  65.009  1.00  0.00    -0.299 C  
ENDBRANCH   7   8
ENDBRANCH   6   7
ENDBRANCH   5   6
BRANCH   5  10
HETATM   10  C   UNL     1     -12.338  14.388  66.503  1.00  0.00    -0.243 C  
BRANCH  10  11
HETATM   11  C   UNL     1     -11.949  13.143  67.297  1.00  0.00    -0.389 C  
BRANCH  11  12
HETATM   12  C   UNL     1     -10.699  13.322  68.169  1.00  0.00    -0.249 C  
HETATM   13  H   UNL     1     -10.247  14.177  69.880  1.00  0.00     0.000 HD 
HETATM   14  O   UNL     1     -11.022  14.065  69.341  1.00  0.00    -0.231 OA 
BRANCH  12  15
HETATM   15  C   UNL     1     -10.056  11.995  68.577  1.00  0.00    -0.201 A  
HETATM   16  C   UNL     1     -10.747  11.030  69.348  1.00  0.00    -0.247 A  
HETATM   17  C   UNL     1     -12.128  11.154  69.627  1.00  0.00    -0.406 A  
HETATM   18  C   UNL     1     -12.809  10.247  70.437  1.00  0.00    -0.202 A  
HETATM   19  C   UNL     1     -12.129   9.172  70.994  1.00  0.00    -0.324 A  
HETATM   20  C   UNL     1     -12.820   8.191  71.905  1.00  0.00    -0.335 C  
HETATM   21  C   UNL     1     -10.765   9.013  70.692  1.00  0.00    -0.292 A  
HETATM   22  F   UNL     1     -12.259   8.153  73.145  1.00  0.00    -0.302 F  
HETATM   23  C   UNL     1     -10.036   9.909  69.865  1.00  0.00    -0.292 A  
HETATM   24  F   UNL     1     -12.767   6.915  71.433  1.00  0.00    -0.372 F  
HETATM   25  F   UNL     1     -14.141   8.463  72.102  1.00  0.00    -0.391 F  
HETATM   26  C   UNL     1      -8.635   9.729  69.557  1.00  0.00    -0.186 A  
HETATM   27  C   UNL     1      -7.846   8.656  70.049  1.00  0.00    -0.103 A  
HETATM   28  C   UNL     1      -6.490   8.517  69.745  1.00  0.00    -0.035 A  
HETATM   29  C   UNL     1      -5.858   9.432  68.928  1.00  0.00    -0.039 A  
HETATM   30 CL   UNL     1      -5.595   7.200  70.397  1.00  0.00    -0.023 Cl 
HETATM   31  C   UNL     1      -6.594  10.494  68.415  1.00  0.00    -0.055 A  
HETATM   32  C   UNL     1      -7.975  10.658  68.720  1.00  0.00    -0.135 A  
HETATM   33 CL   UNL     1      -5.718  11.617  67.416  1.00  0.00    -0.074 Cl 
HETATM   34  C   UNL     1      -8.714  11.745  68.234  1.00  0.00    -0.167 A  
ENDBRANCH  12  15
ENDBRANCH  11  12
ENDBRANCH  10  11
ENDBRANCH   5  10
ENDBRANCH   4   5
ENDBRANCH   3   4
ENDBRANCH   2   3
TORSDOF 10
ENDMDL
MODEL       85
REMARK 921   NORMALIZED FREE ENERGY PREDICTED BY IDOCK:   -4.54 KCAL/MOL
REMARK 922        TOTAL FREE ENERGY PREDICTED BY IDOCK:   -9.70 KCAL/MOL
REMARK 923 INTER-LIGAND FREE ENERGY PREDICTED BY IDOCK:   -7.78 KCAL/MOL
REMARK 924 INTRA-LIGAND FREE ENERGY PREDICTED BY IDOCK:   -1.91 KCAL/MOL
REMARK 927      BINDING AFFINITY PREDICTED BY RF-SCORE:    0.00 PKD
ROOT
HETATM    1  C   UNL     1      -6.303   2.037  69.600  1.00  0.00    -0.025 C  
HETATM    2  C   UNL     1      -6.285   3.179  68.594  1.00  0.00    -0.029 C  
ENDROOT
BRANCH   2   3
HETATM    3  C   UNL     1      -7.191   2.854  67.407  1.00  0.00    -0.054 C  
BRANCH   3   4
HETATM    4  C   UNL     1      -8.687   2.963  67.723  1.00  0.00    -0.114 C  
BRANCH   4   5
HETATM    5  N   UNL     1      -9.434   4.148  67.232  1.00  0.00    -0.177 NA 
BRANCH   5   6
HETATM    6  C   UNL     1     -10.077   4.872  68.350  1.00  0.00    -0.078 C  
BRANCH   6   7
HETATM    7  C   UNL     1      -9.698   4.413  69.771  1.00  0.00    -0.291 C  
BRANCH   7   8
HETATM    8  C   UNL     1      -9.096   5.514  70.642  1.00  0.00    -0.168 C  
HETATM    9  C   UNL     1      -7.718   5.917  70.126  1.00  0.00    -0.095 C  
ENDBRANCH   7   8
ENDBRANCH   6   7
ENDBRANCH   5   6
BRANCH   5  10
HETATM   10  C   UNL     1      -8.522   5.054  66.482  1.00  0.00    -0.110 C  
BRANCH  10  11
HETATM   11  C   UNL     1      -9.158   6.417  66.220  1.00  0.00    -0.167 C  
BRANCH  11  12
HETATM   12  C   UNL     1      -8.285   7.607  66.644  1.00  0.00    -0.124 C  
HETATM   13  H   UNL     1      -6.599   8.434  66.066  1.00  0.00     0.000 HD 
HETATM   14  O   UNL     1      -7.140   7.698  65.803  1.00  0.00    -0.059 OA 
BRANCH  12  15
HETATM   15  C   UNL     1      -9.036   8.941  66.618  1.00  0.00    -0.165 A  
HETATM   16  C   UNL     1      -9.795   9.397  67.722  1.00  0.00    -0.207 A  
HETATM   17  C   UNL     1      -9.753   8.741  68.974  1.00  0.00    -0.172 A  
HETATM   18  C   UNL     1     -10.542   9.139  70.052  1.00  0.00    -0.250 A  
HETATM   19  C   UNL     1     -11.401  10.221  69.915  1.00  0.00    -0.354 A  
HETATM   20  C   UNL     1     -12.298  10.660  71.044  1.00  0.00    -0.403 C  
HETATM   21  C   UNL     1     -11.425  10.909  68.689  1.00  0.00    -0.380 A  
HETATM   22  F   UNL     1     -13.617  10.598  70.710  1.00  0.00    -0.261 F  
HETATM   23  C   UNL     1     -10.631  10.540  67.569  1.00  0.00    -0.306 A  
HETATM   24  F   UNL     1     -12.069  11.948  71.421  1.00  0.00    -0.285 F  
HETATM   25  F   UNL     1     -12.164   9.909  72.173  1.00  0.00    -0.419 F  
HETATM   26  C   UNL     1     -10.660  11.262  66.317  1.00  0.00    -0.315 A  
HETATM   27  C   UNL     1     -11.480  12.394  66.072  1.00  0.00    -0.431 A  
HETATM   28  C   UNL     1     -11.495  13.062  64.845  1.00  0.00    -0.316 A  
HETATM   29  C   UNL     1     -10.688  12.641  63.808  1.00  0.00    -0.454 A  
HETATM   30 CL   UNL     1     -12.533  14.415  64.618  1.00  0.00    -0.419 Cl 
HETATM   31  C   UNL     1      -9.861  11.540  64.007  1.00  0.00    -0.274 A  
HETATM   32  C   UNL     1      -9.836  10.842  65.247  1.00  0.00    -0.329 A  
HETATM   33 CL   UNL     1      -8.894  11.058  62.643  1.00  0.00    -0.322 Cl 
HETATM   34  C   UNL     1      -9.030   9.712  65.441  1.00  0.00    -0.231 A  
ENDBRANCH  12  15
ENDBRANCH  11  12
ENDBRANCH  10  11
ENDBRANCH   5  10
ENDBRANCH   4   5
ENDBRANCH   3   4
ENDBRANCH   2   3
TORSDOF 10
ENDMDL
MODEL       86
REMARK 921   NORMALIZED FREE ENERGY PREDICTED BY IDOCK:   -4.48 KCAL/MOL
REMARK 922        TOTAL FREE ENERGY PREDICTED BY IDOCK:   -9.60 KCAL/MOL
REMARK 923 INTER-LIGAND FREE ENERGY PREDICTED BY IDOCK:   -9.42 KCAL/MOL
REMARK 924 INTRA-LIGAND FREE ENERGY PREDICTED BY IDOCK:   -0.18 KCAL/MOL
REMARK 927      BINDING AFFINITY PREDICTED BY RF-SCORE:    0.00 PKD
ROOT
HETATM    1  C   UNL     1      -7.373  17.665  68.579  1.00  0.00    -0.256 C  
HETATM    2  C   UNL     1      -8.729  18.266  68.240  1.00  0.00    -0.302 C  
ENDROOT
BRANCH   2   3
HETATM    3  C   UNL     1      -9.187  17.796  66.860  1.00  0.00    -0.263 C  
BRANCH   3   4
HETATM    4  C   UNL     1     -10.529  17.055  66.873  1.00  0.00    -0.268 C  
BRANCH   4   5
HETATM    5  N   UNL     1     -10.653  15.821  67.689  1.00  0.00    -0.294 NA 
BRANCH   5   6
HETATM    6  C   UNL     1     -11.587  16.022  68.818  1.00  0.00    -0.351 C  
BRANCH   6   7
HETATM    7  C   UNL     1     -11.007  15.826  70.231  1.00  0.00    -0.368 C  
BRANCH   7   8
HETATM    8  C   UNL     1     -12.033  15.382  71.271  1.00  0.00    -0.431 C  
HETATM    9  C   UNL     1     -11.831  16.133  72.583  1.00  0.00    -0.609 C  
ENDBRANCH   7   8
ENDBRANCH   6   7
ENDBRANCH   5   6
BRANCH   5  10
HETATM   10  C   UNL     1     -11.101  14.685  66.838  1.00  0.00    -0.333 C  
BRANCH  10  11
HETATM   11  C   UNL     1      -9.937  14.032  66.097  1.00  0.00    -0.325 C  
BRANCH  11  12
HETATM   12  C   UNL     1      -9.043  13.155  66.984  1.00  0.00    -0.231 C  
HETATM   13  H   UNL     1      -8.348  13.203  68.822  1.00  0.00     0.000 HD 
HETATM   14  O   UNL     1      -8.902  13.745  68.272  1.00  0.00    -0.178 OA 
BRANCH  12  15
HETATM   15  C   UNL     1      -9.568  11.726  67.139  1.00  0.00    -0.189 A  
HETATM   16  C   UNL     1     -10.467  11.364  68.171  1.00  0.00    -0.212 A  
HETATM   17  C   UNL     1     -11.076  12.334  68.999  1.00  0.00    -0.289 A  
HETATM   18  C   UNL     1     -11.914  11.991  70.059  1.00  0.00    -0.400 A  
HETATM   19  C   UNL     1     -12.179  10.654  70.323  1.00  0.00    -0.417 A  
HETATM   20  C   UNL     1     -13.049  10.239  71.482  1.00  0.00    -0.433 C  
HETATM   21  C   UNL     1     -11.614   9.679  69.483  1.00  0.00     0.092 A  
HETATM   22  F   UNL     1     -12.384   9.451  72.371  1.00  0.00    -0.408 F  
HETATM   23  C   UNL     1     -10.762   9.987  68.388  1.00  0.00    -0.271 A  
HETATM   24  F   UNL     1     -14.136   9.520  71.086  1.00  0.00    -0.363 F  
HETATM   25  F   UNL     1     -13.536  11.287  72.204  1.00  0.00    -0.554 F  
HETATM   26  C   UNL     1     -10.193   8.974  67.528  1.00  0.00    -0.302 A  
HETATM   27  C   UNL     1     -10.415   7.581  67.688  1.00  0.00    -0.319 A  
HETATM   28  C   UNL     1      -9.839   6.626  66.847  1.00  0.00    -0.171 A  
HETATM   29  C   UNL     1      -9.025   7.011  65.802  1.00  0.00    -0.037 A  
HETATM   30 CL   UNL     1     -10.139   4.953  67.118  1.00  0.00    -0.226 Cl 
HETATM   31  C   UNL     1      -8.788   8.366  65.602  1.00  0.00    -0.156 A  
HETATM   32  C   UNL     1      -9.359   9.356  66.451  1.00  0.00    -0.241 A  
HETATM   33 CL   UNL     1      -7.731   8.768  64.279  1.00  0.00    -0.118 Cl 
HETATM   34  C   UNL     1      -9.096  10.721  66.275  1.00  0.00    -0.192 A  
ENDBRANCH  12  15
ENDBRANCH  11  12
ENDBRANCH  10  11
ENDBRANCH   5  10
ENDBRANCH   4   5
ENDBRANCH   3   4
ENDBRANCH   2   3
TORSDOF 10
ENDMDL
MODEL       87
REMARK 921   NORMALIZED FREE ENERGY PREDICTED BY IDOCK:   -4.48 KCAL/MOL
REMARK 922        TOTAL FREE ENERGY PREDICTED BY IDOCK:   -9.59 KCAL/MOL
REMARK 923 INTER-LIGAND FREE ENERGY PREDICTED BY IDOCK:   -6.63 KCAL/MOL
REMARK 924 INTRA-LIGAND FREE ENERGY PREDICTED BY IDOCK:   -2.96 KCAL/MOL
REMARK 927      BINDING AFFINITY PREDICTED BY RF-SCORE:    0.00 PKD
ROOT
HETATM    1  C   UNL     1     -10.312  16.521  66.793  1.00  0.00    -0.296 C  
HETATM    2  C   UNL     1     -10.194  15.263  67.641  1.00  0.00    -0.242 C  
ENDROOT
BRANCH   2   3
HETATM    3  C   UNL     1      -9.538  14.141  66.838  1.00  0.00    -0.275 C  
BRANCH   3   4
HETATM    4  C   UNL     1      -8.614  13.244  67.670  1.00  0.00    -0.196 C  
BRANCH   4   5
HETATM    5  N   UNL     1      -7.833  12.190  66.976  1.00  0.00    -0.152 NA 
BRANCH   5   6
HETATM    6  C   UNL     1      -7.135  11.319  67.946  1.00  0.00    -0.078 C  
BRANCH   6   7
HETATM    7  C   UNL     1      -7.650  11.360  69.398  1.00  0.00     0.104 C  
BRANCH   7   8
HETATM    8  C   UNL     1      -7.324  10.109  70.210  1.00  0.00    -0.108 C  
HETATM    9  C   UNL     1      -6.675   9.047  69.328  1.00  0.00    -0.049 C  
ENDBRANCH   7   8
ENDBRANCH   6   7
ENDBRANCH   5   6
BRANCH   5  10
HETATM   10  C   UNL     1      -8.726  11.382  66.101  1.00  0.00    -0.153 C  
BRANCH  10  11
HETATM   11  C   UNL     1      -8.594   9.885  66.374  1.00  0.00    -0.136 C  
BRANCH  11  12
HETATM   12  C   UNL     1      -9.936   9.154  66.514  1.00  0.00    -0.288 C  
HETATM   13  H   UNL     1     -10.729   7.468  65.890  1.00  0.00     0.000 HD 
HETATM   14  O   UNL     1      -9.898   7.921  65.804  1.00  0.00     0.201 OA 
BRANCH  12  15
HETATM   15  C   UNL     1     -10.323   8.885  67.970  1.00  0.00    -0.271 A  
HETATM   16  C   UNL     1     -11.007   9.843  68.755  1.00  0.00    -0.217 A  
HETATM   17  C   UNL     1     -11.535  11.026  68.189  1.00  0.00    -0.374 A  
HETATM   18  C   UNL     1     -12.156  12.009  68.958  1.00  0.00    -0.223 A  
HETATM   19  C   UNL     1     -12.276  11.837  70.331  1.00  0.00    -0.416 A  
HETATM   20  C   UNL     1     -12.907  12.893  71.203  1.00  0.00    -0.238 C  
HETATM   21  C   UNL     1     -11.792  10.648  70.903  1.00  0.00    -0.433 A  
HETATM   22  F   UNL     1     -12.046  13.363  72.147  1.00  0.00     0.018 F  
HETATM   23  C   UNL     1     -11.161   9.619  70.154  1.00  0.00    -0.302 A  
HETATM   24  F   UNL     1     -13.990  12.428  71.884  1.00  0.00    -0.261 F  
HETATM   25  F   UNL     1     -13.338  13.986  70.514  1.00  0.00    -0.290 F  
HETATM   26  C   UNL     1     -10.675   8.397  70.755  1.00  0.00    -0.244 A  
HETATM   27  C   UNL     1     -10.765   8.104  72.141  1.00  0.00    -0.360 A  
HETATM   28  C   UNL     1     -10.273   6.919  72.694  1.00  0.00    -0.188 A  
HETATM   29  C   UNL     1      -9.676   5.967  71.893  1.00  0.00    -0.173 A  
HETATM   30 CL   UNL     1     -10.401   6.645  74.387  1.00  0.00    -0.324 Cl 
HETATM   31  C   UNL     1      -9.574   6.208  70.527  1.00  0.00    -0.168 A  
HETATM   32  C   UNL     1     -10.063   7.412  69.945  1.00  0.00    -0.195 A  
HETATM   33 CL   UNL     1      -8.787   4.971  69.591  1.00  0.00    -0.113 Cl 
HETATM   34  C   UNL     1      -9.932   7.675  68.575  1.00  0.00    -0.190 A  
ENDBRANCH  12  15
ENDBRANCH  11  12
ENDBRANCH  10  11
ENDBRANCH   5  10
ENDBRANCH   4   5
ENDBRANCH   3   4
ENDBRANCH   2   3
TORSDOF 10
ENDMDL
MODEL       88
REMARK 921   NORMALIZED FREE ENERGY PREDICTED BY IDOCK:   -4.44 KCAL/MOL
REMARK 922        TOTAL FREE ENERGY PREDICTED BY IDOCK:   -9.53 KCAL/MOL
REMARK 923 INTER-LIGAND FREE ENERGY PREDICTED BY IDOCK:   -8.40 KCAL/MOL
REMARK 924 INTRA-LIGAND FREE ENERGY PREDICTED BY IDOCK:   -1.14 KCAL/MOL
REMARK 927      BINDING AFFINITY PREDICTED BY RF-SCORE:    0.00 PKD
ROOT
HETATM    1  C   UNL     1      -8.609  19.244  67.878  1.00  0.00    -0.348 C  
HETATM    2  C   UNL     1     -10.086  19.393  68.210  1.00  0.00    -0.531 C  
ENDROOT
BRANCH   2   3
HETATM    3  C   UNL     1     -10.881  18.226  67.626  1.00  0.00    -0.272 C  
BRANCH   3   4
HETATM    4  C   UNL     1     -10.565  16.875  68.279  1.00  0.00    -0.363 C  
BRANCH   4   5
HETATM    5  N   UNL     1     -11.600  15.811  68.246  1.00  0.00    -0.342 NA 
BRANCH   5   6
HETATM    6  C   UNL     1     -11.376  14.887  67.112  1.00  0.00    -0.343 C  
BRANCH   6   7
HETATM    7  C   UNL     1     -10.486  15.410  65.968  1.00  0.00    -0.333 C  
BRANCH   7   8
HETATM    8  C   UNL     1     -11.262  15.883  64.742  1.00  0.00    -0.364 C  
HETATM    9  C   UNL     1     -12.193  14.785  64.236  1.00  0.00    -0.402 C  
ENDBRANCH   7   8
ENDBRANCH   6   7
ENDBRANCH   5   6
BRANCH   5  10
HETATM   10  C   UNL     1     -11.608  15.063  69.533  1.00  0.00    -0.311 C  
BRANCH  10  11
HETATM   11  C   UNL     1     -10.841  13.746  69.434  1.00  0.00    -0.081 C  
BRANCH  11  12
HETATM   12  C   UNL     1     -11.614  12.530  69.963  1.00  0.00    -0.130 C  
HETATM   13  H   UNL     1     -13.492  11.971  70.113  1.00  0.00     0.000 HD 
HETATM   14  O   UNL     1     -13.013  12.724  69.785  1.00  0.00     0.560 OA 
BRANCH  12  15
HETATM   15  C   UNL     1     -11.198  11.218  69.295  1.00  0.00    -0.336 A  
HETATM   16  C   UNL     1     -11.114  10.002  70.014  1.00  0.00    -0.350 A  
HETATM   17  C   UNL     1     -11.587   9.891  71.342  1.00  0.00    -0.428 A  
HETATM   18  C   UNL     1     -11.455   8.719  72.085  1.00  0.00    -0.421 A  
HETATM   19  C   UNL     1     -10.846   7.608  71.519  1.00  0.00    -0.256 A  
HETATM   20  C   UNL     1     -10.650   6.334  72.301  1.00  0.00    -0.213 C  
HETATM   21  C   UNL     1     -10.407   7.689  70.186  1.00  0.00    -0.217 A  
HETATM   22  F   UNL     1      -9.335   5.996  72.414  1.00  0.00    -0.146 F  
HETATM   23  C   UNL     1     -10.530   8.861  69.391  1.00  0.00    -0.228 A  
HETATM   24  F   UNL     1     -11.261   5.266  71.720  1.00  0.00    -0.261 F  
HETATM   25  F   UNL     1     -11.130   6.395  73.575  1.00  0.00    -0.249 F  
HETATM   26  C   UNL     1     -10.081   8.929  68.019  1.00  0.00    -0.239 A  
HETATM   27  C   UNL     1      -9.468   7.849  67.330  1.00  0.00    -0.179 A  
HETATM   28  C   UNL     1      -9.032   7.951  66.007  1.00  0.00    -0.154 A  
HETATM   29  C   UNL     1      -9.194   9.126  65.303  1.00  0.00    -0.243 A  
HETATM   30 CL   UNL     1      -8.278   6.603  65.247  1.00  0.00    -0.137 Cl 
HETATM   31  C   UNL     1      -9.799  10.208  65.936  1.00  0.00    -0.245 A  
HETATM   32  C   UNL     1     -10.243  10.127  67.286  1.00  0.00    -0.273 A  
HETATM   33 CL   UNL     1      -9.943  11.661  64.989  1.00  0.00    -0.284 Cl 
HETATM   34  C   UNL     1     -10.822  11.224  67.938  1.00  0.00    -0.278 A  
ENDBRANCH  12  15
ENDBRANCH  11  12
ENDBRANCH  10  11
ENDBRANCH   5  10
ENDBRANCH   4   5
ENDBRANCH   3   4
ENDBRANCH   2   3
TORSDOF 10
ENDMDL
MODEL       89
REMARK 921   NORMALIZED FREE ENERGY PREDICTED BY IDOCK:   -4.41 KCAL/MOL
REMARK 922        TOTAL FREE ENERGY PREDICTED BY IDOCK:   -9.49 KCAL/MOL
REMARK 923 INTER-LIGAND FREE ENERGY PREDICTED BY IDOCK:   -8.67 KCAL/MOL
REMARK 924 INTRA-LIGAND FREE ENERGY PREDICTED BY IDOCK:   -0.81 KCAL/MOL
REMARK 927      BINDING AFFINITY PREDICTED BY RF-SCORE:    0.00 PKD
ROOT
HETATM    1  C   UNL     1      -5.516   6.547  65.468  1.00  0.00    -0.021 C  
HETATM    2  C   UNL     1      -5.910   8.014  65.556  1.00  0.00    -0.037 C  
ENDROOT
BRANCH   2   3
HETATM    3  C   UNL     1      -6.653   8.440  64.291  1.00  0.00    -0.067 C  
BRANCH   3   4
HETATM    4  C   UNL     1      -8.175   8.510  64.460  1.00  0.00    -0.156 C  
BRANCH   4   5
HETATM    5  N   UNL     1      -8.777   9.771  64.961  1.00  0.00    -0.161 NA 
BRANCH   5   6
HETATM    6  C   UNL     1      -9.369  10.553  63.854  1.00  0.00    -0.275 C  
BRANCH   6   7
HETATM    7  C   UNL     1     -10.776  11.132  64.100  1.00  0.00    -0.415 C  
BRANCH   7   8
HETATM    8  C   UNL     1     -10.983  12.531  63.527  1.00  0.00    -0.472 C  
HETATM    9  C   UNL     1     -11.938  13.337  64.403  1.00  0.00    -0.459 C  
ENDBRANCH   7   8
ENDBRANCH   6   7
ENDBRANCH   5   6
BRANCH   5  10
HETATM   10  C   UNL     1      -9.805   9.474  65.996  1.00  0.00    -0.283 C  
BRANCH  10  11
HETATM   11  C   UNL     1      -9.219   8.712  67.182  1.00  0.00    -0.175 C  
BRANCH  11  12
HETATM   12  C   UNL     1      -8.737   9.612  68.328  1.00  0.00    -0.120 C  
HETATM   13  H   UNL     1      -7.232  10.828  68.670  1.00  0.00     0.000 HD 
HETATM   14  O   UNL     1      -7.530  10.271  67.960  1.00  0.00    -0.086 OA 
BRANCH  12  15
HETATM   15  C   UNL     1      -9.774  10.657  68.746  1.00  0.00    -0.193 A  
HETATM   16  C   UNL     1      -9.757  11.977  68.237  1.00  0.00    -0.205 A  
HETATM   17  C   UNL     1      -8.900  12.353  67.177  1.00  0.00    -0.197 A  
HETATM   18  C   UNL     1      -8.826  13.663  66.707  1.00  0.00    -0.150 A  
HETATM   19  C   UNL     1      -9.618  14.648  67.281  1.00  0.00    -0.221 A  
HETATM   20  C   UNL     1      -9.540  16.084  66.826  1.00  0.00    -0.232 C  
HETATM   21  C   UNL     1     -10.505  14.283  68.308  1.00  0.00    -0.247 A  
HETATM   22  F   UNL     1      -9.170  16.924  67.832  1.00  0.00    -0.221 F  
HETATM   23  C   UNL     1     -10.617  12.958  68.810  1.00  0.00    -0.217 A  
HETATM   24  F   UNL     1     -10.734  16.551  66.369  1.00  0.00    -0.311 F  
HETATM   25  F   UNL     1      -8.646  16.292  65.819  1.00  0.00    -0.345 F  
HETATM   26  C   UNL     1     -11.539  12.594  69.862  1.00  0.00    -0.248 A  
HETATM   27  C   UNL     1     -12.413  13.511  70.504  1.00  0.00    -0.373 A  
HETATM   28  C   UNL     1     -13.283  13.131  71.528  1.00  0.00    -0.282 A  
HETATM   29  C   UNL     1     -13.334  11.819  71.955  1.00  0.00    -0.417 A  
HETATM   30 CL   UNL     1     -14.297  14.305  72.272  1.00  0.00    -0.588 Cl 
HETATM   31  C   UNL     1     -12.502  10.885  71.348  1.00  0.00    -0.355 A  
HETATM   32  C   UNL     1     -11.602  11.253  70.308  1.00  0.00    -0.366 A  
HETATM   33 CL   UNL     1     -12.607   9.260  71.960  1.00  0.00    -0.453 Cl 
HETATM   34  C   UNL     1     -10.738  10.322  69.716  1.00  0.00    -0.328 A  
ENDBRANCH  12  15
ENDBRANCH  11  12
ENDBRANCH  10  11
ENDBRANCH   5  10
ENDBRANCH   4   5
ENDBRANCH   3   4
ENDBRANCH   2   3
TORSDOF 10
ENDMDL
MODEL       90
REMARK 921   NORMALIZED FREE ENERGY PREDICTED BY IDOCK:   -4.40 KCAL/MOL
REMARK 922        TOTAL FREE ENERGY PREDICTED BY IDOCK:   -9.47 KCAL/MOL
REMARK 923 INTER-LIGAND FREE ENERGY PREDICTED BY IDOCK:   -8.44 KCAL/MOL
REMARK 924 INTRA-LIGAND FREE ENERGY PREDICTED BY IDOCK:   -1.03 KCAL/MOL
REMARK 927      BINDING AFFINITY PREDICTED BY RF-SCORE:    0.00 PKD
ROOT
HETATM    1  C   UNL     1     -14.252   8.733  72.414  1.00  0.00    -0.464 C  
HETATM    2  C   UNL     1     -12.987   7.916  72.201  1.00  0.00    -0.200 C  
ENDROOT
BRANCH   2   3
HETATM    3  C   UNL     1     -13.022   7.230  70.837  1.00  0.00    -0.125 C  
BRANCH   3   4
HETATM    4  C   UNL     1     -11.657   6.714  70.368  1.00  0.00    -0.398 C  
BRANCH   4   5
HETATM    5  N   UNL     1     -10.436   7.446  70.792  1.00  0.00    -0.211 NA 
BRANCH   5   6
HETATM    6  C   UNL     1      -9.365   6.507  71.190  1.00  0.00    -0.163 C  
BRANCH   6   7
HETATM    7  C   UNL     1      -8.468   5.971  70.057  1.00  0.00    -0.131 C  
BRANCH   7   8
HETATM    8  C   UNL     1      -8.171   4.476  70.151  1.00  0.00    -0.069 C  
HETATM    9  C   UNL     1      -9.418   3.658  69.828  1.00  0.00    -0.254 C  
ENDBRANCH   7   8
ENDBRANCH   6   7
ENDBRANCH   5   6
BRANCH   5  10
HETATM   10  C   UNL     1      -9.966   8.337  69.696  1.00  0.00    -0.193 C  
BRANCH  10  11
HETATM   11  C   UNL     1     -10.003   9.809  70.101  1.00  0.00    -0.315 C  
BRANCH  11  12
HETATM   12  C   UNL     1     -11.376  10.472  69.928  1.00  0.00    -0.309 C  
HETATM   13  H   UNL     1     -12.770  11.222  71.091  1.00  0.00     0.000 HD 
HETATM   14  O   UNL     1     -11.920  10.812  71.199  1.00  0.00    -0.329 OA 
BRANCH  12  15
HETATM   15  C   UNL     1     -11.331  11.724  69.048  1.00  0.00    -0.338 A  
HETATM   16  C   UNL     1     -11.097  11.655  67.654  1.00  0.00    -0.314 A  
HETATM   17  C   UNL     1     -11.077  10.420  66.965  1.00  0.00    -0.141 A  
HETATM   18  C   UNL     1     -10.785  10.329  65.605  1.00  0.00     0.082 A  
HETATM   19  C   UNL     1     -10.509  11.480  64.881  1.00  0.00    -0.345 A  
HETATM   20  C   UNL     1     -10.152  11.422  63.417  1.00  0.00    -0.405 C  
HETATM   21  C   UNL     1     -10.565  12.719  65.542  1.00  0.00    -0.303 A  
HETATM   22  F   UNL     1      -8.915  11.933  63.167  1.00  0.00    -0.129 F  
HETATM   23  C   UNL     1     -10.866  12.856  66.924  1.00  0.00    -0.278 A  
HETATM   24  F   UNL     1     -11.014  12.135  62.642  1.00  0.00    -0.088 F  
HETATM   25  F   UNL     1     -10.144  10.159  62.906  1.00  0.00    -0.221 F  
HETATM   26  C   UNL     1     -10.928  14.138  67.590  1.00  0.00    -0.278 A  
HETATM   27  C   UNL     1     -10.687  15.380  66.945  1.00  0.00    -0.314 A  
HETATM   28  C   UNL     1     -10.741  16.601  67.621  1.00  0.00    -0.306 A  
HETATM   29  C   UNL     1     -11.046  16.646  68.966  1.00  0.00    -0.234 A  
HETATM   30 CL   UNL     1     -10.417  18.064  66.774  1.00  0.00    -0.354 Cl 
HETATM   31  C   UNL     1     -11.298  15.454  69.636  1.00  0.00    -0.307 A  
HETATM   32  C   UNL     1     -11.241  14.198  68.968  1.00  0.00    -0.303 A  
HETATM   33 CL   UNL     1     -11.650  15.594  71.334  1.00  0.00    -0.449 Cl 
HETATM   34  C   UNL     1     -11.460  12.991  69.646  1.00  0.00    -0.253 A  
ENDBRANCH  12  15
ENDBRANCH  11  12
ENDBRANCH  10  11
ENDBRANCH   5  10
ENDBRANCH   4   5
ENDBRANCH   3   4
ENDBRANCH   2   3
TORSDOF 10
ENDMDL
MODEL       91
REMARK 921   NORMALIZED FREE ENERGY PREDICTED BY IDOCK:   -4.39 KCAL/MOL
REMARK 922        TOTAL FREE ENERGY PREDICTED BY IDOCK:   -9.45 KCAL/MOL
REMARK 923 INTER-LIGAND FREE ENERGY PREDICTED BY IDOCK:   -6.94 KCAL/MOL
REMARK 924 INTRA-LIGAND FREE ENERGY PREDICTED BY IDOCK:   -2.52 KCAL/MOL
REMARK 927      BINDING AFFINITY PREDICTED BY RF-SCORE:    0.00 PKD
ROOT
HETATM    1  C   UNL     1     -11.794  14.223  68.891  1.00  0.00    -0.372 C  
HETATM    2  C   UNL     1     -12.026  12.770  68.504  1.00  0.00    -0.265 C  
ENDROOT
BRANCH   2   3
HETATM    3  C   UNL     1     -11.274  11.841  69.456  1.00  0.00    -0.265 C  
BRANCH   3   4
HETATM    4  C   UNL     1     -10.976  10.458  68.866  1.00  0.00    -0.245 C  
BRANCH   4   5
HETATM    5  N   UNL     1     -10.140   9.515  69.649  1.00  0.00    -0.198 NA 
BRANCH   5   6
HETATM    6  C   UNL     1     -10.783   8.187  69.745  1.00  0.00    -0.229 C  
BRANCH   6   7
HETATM    7  C   UNL     1     -11.108   7.684  71.165  1.00  0.00    -0.269 C  
BRANCH   7   8
HETATM    8  C   UNL     1     -11.670   8.758  72.094  1.00  0.00    -0.433 C  
HETATM    9  C   UNL     1     -13.094   9.128  71.690  1.00  0.00    -0.431 C  
ENDBRANCH   7   8
ENDBRANCH   6   7
ENDBRANCH   5   6
BRANCH   5  10
HETATM   10  C   UNL     1      -8.789   9.395  69.036  1.00  0.00    -0.141 C  
BRANCH  10  11
HETATM   11  C   UNL     1      -7.914  10.611  69.336  1.00  0.00    -0.118 C  
BRANCH  11  12
HETATM   12  C   UNL     1      -7.123  11.126  68.126  1.00  0.00    -0.071 C  
HETATM   13  H   UNL     1      -6.318  10.367  66.502  1.00  0.00     0.000 HD 
HETATM   14  O   UNL     1      -6.809  10.048  67.251  1.00  0.00    -0.080 OA 
BRANCH  12  15
HETATM   15  C   UNL     1      -7.864  12.211  67.342  1.00  0.00    -0.168 A  
HETATM   16  C   UNL     1      -7.686  13.589  67.615  1.00  0.00    -0.180 A  
HETATM   17  C   UNL     1      -6.678  14.047  68.494  1.00  0.00    -0.099 A  
HETATM   18  C   UNL     1      -6.530  15.394  68.821  1.00  0.00    -0.105 A  
HETATM   19  C   UNL     1      -7.387  16.336  68.270  1.00  0.00    -0.146 A  
HETATM   20  C   UNL     1      -7.284  17.797  68.627  1.00  0.00    -0.260 C  
HETATM   21  C   UNL     1      -8.368  15.902  67.362  1.00  0.00    -0.192 A  
HETATM   22  F   UNL     1      -8.427  18.271  69.197  1.00  0.00    -0.231 F  
HETATM   23  C   UNL     1      -8.547  14.540  66.996  1.00  0.00    -0.241 A  
HETATM   24  F   UNL     1      -7.055  18.585  67.541  1.00  0.00    -0.199 F  
HETATM   25  F   UNL     1      -6.285  18.076  69.510  1.00  0.00    -0.221 F  
HETATM   26  C   UNL     1      -9.556  14.107  66.055  1.00  0.00    -0.251 A  
HETATM   27  C   UNL     1     -10.469  14.984  65.412  1.00  0.00    -0.406 A  
HETATM   28  C   UNL     1     -11.442  14.533  64.517  1.00  0.00    -0.343 A  
HETATM   29  C   UNL     1     -11.546  13.191  64.212  1.00  0.00    -0.440 A  
HETATM   30 CL   UNL     1     -12.528  15.654  63.794  1.00  0.00     0.306 Cl 
HETATM   31  C   UNL     1     -10.665  12.297  64.811  1.00  0.00    -0.300 A  
HETATM   32  C   UNL     1      -9.671  12.735  65.731  1.00  0.00    -0.167 A  
HETATM   33 CL   UNL     1     -10.877  10.622  64.393  1.00  0.00    -0.007 Cl 
HETATM   34  C   UNL     1      -8.803  11.835  66.364  1.00  0.00    -0.170 A  
ENDBRANCH  12  15
ENDBRANCH  11  12
ENDBRANCH  10  11
ENDBRANCH   5  10
ENDBRANCH   4   5
ENDBRANCH   3   4
ENDBRANCH   2   3
TORSDOF 10
ENDMDL
MODEL       92
REMARK 921   NORMALIZED FREE ENERGY PREDICTED BY IDOCK:   -4.38 KCAL/MOL
REMARK 922        TOTAL FREE ENERGY PREDICTED BY IDOCK:   -9.44 KCAL/MOL
REMARK 923 INTER-LIGAND FREE ENERGY PREDICTED BY IDOCK:   -6.20 KCAL/MOL
REMARK 924 INTRA-LIGAND FREE ENERGY PREDICTED BY IDOCK:   -3.24 KCAL/MOL
REMARK 927      BINDING AFFINITY PREDICTED BY RF-SCORE:    0.00 PKD
ROOT
HETATM    1  C   UNL     1      -9.008   7.825  73.918  1.00  0.00    -0.317 C  
HETATM    2  C   UNL     1      -8.317   7.932  72.567  1.00  0.00    -0.191 C  
ENDROOT
BRANCH   2   3
HETATM    3  C   UNL     1      -7.731   6.581  72.161  1.00  0.00    -0.097 C  
BRANCH   3   4
HETATM    4  C   UNL     1      -6.619   6.678  71.110  1.00  0.00    -0.053 C  
BRANCH   4   5
HETATM    5  N   UNL     1      -6.904   6.213  69.729  1.00  0.00    -0.065 NA 
BRANCH   5   6
HETATM    6  C   UNL     1      -5.858   6.671  68.789  1.00  0.00    -0.021 C  
BRANCH   6   7
HETATM    7  C   UNL     1      -6.241   7.831  67.850  1.00  0.00    -0.050 C  
BRANCH   7   8
HETATM    8  C   UNL     1      -6.034   9.217  68.454  1.00  0.00    -0.045 C  
HETATM    9  C   UNL     1      -7.326   9.732  69.081  1.00  0.00    -0.079 C  
ENDBRANCH   7   8
ENDBRANCH   6   7
ENDBRANCH   5   6
BRANCH   5  10
HETATM   10  C   UNL     1      -7.017   4.730  69.700  1.00  0.00    -0.053 C  
BRANCH  10  11
HETATM   11  C   UNL     1      -7.642   4.229  68.400  1.00  0.00    -0.064 C  
BRANCH  11  12
HETATM   12  C   UNL     1      -9.167   4.074  68.457  1.00  0.00    -0.150 C  
HETATM   13  H   UNL     1     -10.471   3.022  69.484  1.00  0.00     0.000 HD 
HETATM   14  O   UNL     1      -9.526   3.118  69.449  1.00  0.00    -0.165 OA 
BRANCH  12  15
HETATM   15  C   UNL     1      -9.893   5.391  68.741  1.00  0.00    -0.208 A  
HETATM   16  C   UNL     1      -9.841   6.486  67.846  1.00  0.00    -0.134 A  
HETATM   17  C   UNL     1      -9.273   6.365  66.557  1.00  0.00    -0.174 A  
HETATM   18  C   UNL     1      -9.157   7.448  65.687  1.00  0.00     0.073 A  
HETATM   19  C   UNL     1      -9.614   8.699  66.079  1.00  0.00    -0.265 A  
HETATM   20  C   UNL     1      -9.473   9.903  65.183  1.00  0.00    -0.275 C  
HETATM   21  C   UNL     1     -10.219   8.827  67.341  1.00  0.00    -0.318 A  
HETATM   22  F   UNL     1      -8.725  10.887  65.756  1.00  0.00    -0.171 F  
HETATM   23  C   UNL     1     -10.364   7.747  68.253  1.00  0.00    -0.239 A  
HETATM   24  F   UNL     1     -10.672  10.473  64.883  1.00  0.00    -0.355 F  
HETATM   25  F   UNL     1      -8.878   9.631  63.989  1.00  0.00    -0.182 F  
HETATM   26  C   UNL     1     -10.994   7.892  69.546  1.00  0.00    -0.078 A  
HETATM   27  C   UNL     1     -11.520   9.115  70.040  1.00  0.00    -0.034 A  
HETATM   28  C   UNL     1     -12.111   9.226  71.301  1.00  0.00    -0.337 A  
HETATM   29  C   UNL     1     -12.217   8.124  72.125  1.00  0.00    -0.398 A  
HETATM   30 CL   UNL     1     -12.706  10.748  71.838  1.00  0.00    -0.447 Cl 
HETATM   31  C   UNL     1     -11.724   6.903  71.678  1.00  0.00    -0.304 A  
HETATM   32  C   UNL     1     -11.111   6.770  70.400  1.00  0.00    -0.357 A  
HETATM   33 CL   UNL     1     -11.873   5.569  72.785  1.00  0.00    -0.265 Cl 
HETATM   34  C   UNL     1     -10.582   5.550  69.958  1.00  0.00    -0.384 A  
ENDBRANCH  12  15
ENDBRANCH  11  12
ENDBRANCH  10  11
ENDBRANCH   5  10
ENDBRANCH   4   5
ENDBRANCH   3   4
ENDBRANCH   2   3
TORSDOF 10
ENDMDL
MODEL       93
REMARK 921   NORMALIZED FREE ENERGY PREDICTED BY IDOCK:   -4.38 KCAL/MOL
REMARK 922        TOTAL FREE ENERGY PREDICTED BY IDOCK:   -9.44 KCAL/MOL
REMARK 923 INTER-LIGAND FREE ENERGY PREDICTED BY IDOCK:   -7.79 KCAL/MOL
REMARK 924 INTRA-LIGAND FREE ENERGY PREDICTED BY IDOCK:   -1.65 KCAL/MOL
REMARK 927      BINDING AFFINITY PREDICTED BY RF-SCORE:    0.00 PKD
ROOT
HETATM    1  C   UNL     1     -10.493   5.463  66.585  1.00  0.00    -0.356 C  
HETATM    2  C   UNL     1     -10.599   6.058  67.981  1.00  0.00    -0.330 C  
ENDROOT
BRANCH   2   3
HETATM    3  C   UNL     1     -10.582   7.584  67.910  1.00  0.00    -0.250 C  
BRANCH   3   4
HETATM    4  C   UNL     1      -9.477   8.230  68.755  1.00  0.00    -0.148 C  
BRANCH   4   5
HETATM    5  N   UNL     1      -9.778   9.494  69.472  1.00  0.00    -0.179 NA 
BRANCH   5   6
HETATM    6  C   UNL     1     -10.976   9.348  70.327  1.00  0.00    -0.262 C  
BRANCH   6   7
HETATM    7  C   UNL     1     -10.745   8.763  71.734  1.00  0.00    -0.413 C  
BRANCH   7   8
HETATM    8  C   UNL     1     -11.199   7.314  71.889  1.00  0.00    -0.281 C  
HETATM    9  C   UNL     1     -12.394   7.023  70.987  1.00  0.00    -0.402 C  
ENDBRANCH   7   8
ENDBRANCH   6   7
ENDBRANCH   5   6
BRANCH   5  10
HETATM   10  C   UNL     1      -8.606   9.915  70.286  1.00  0.00    -0.022 C  
BRANCH  10  11
HETATM   11  C   UNL     1      -7.364  10.142  69.426  1.00  0.00    -0.106 C  
BRANCH  11  12
HETATM   12  C   UNL     1      -7.071  11.618  69.127  1.00  0.00    -0.090 C  
HETATM   13  H   UNL     1      -5.517  12.701  68.605  1.00  0.00     0.000 HD 
HETATM   14  O   UNL     1      -5.698  11.787  68.790  1.00  0.00    -0.049 OA 
BRANCH  12  15
HETATM   15  C   UNL     1      -7.939  12.185  68.001  1.00  0.00    -0.152 A  
HETATM   16  C   UNL     1      -8.385  13.528  68.000  1.00  0.00    -0.168 A  
HETATM   17  C   UNL     1      -7.904  14.471  68.937  1.00  0.00    -0.134 A  
HETATM   18  C   UNL     1      -8.379  15.780  68.990  1.00  0.00    -0.236 A  
HETATM   19  C   UNL     1      -9.355  16.196  68.095  1.00  0.00    -0.201 A  
HETATM   20  C   UNL     1      -9.923  17.592  68.143  1.00  0.00    -0.321 C  
HETATM   21  C   UNL     1      -9.815  15.283  67.130  1.00  0.00    -0.225 A  
HETATM   22  F   UNL     1     -11.266  17.595  68.367  1.00  0.00    -0.206 F  
HETATM   23  C   UNL     1      -9.351  13.943  67.037  1.00  0.00    -0.255 A  
HETATM   24  F   UNL     1      -9.737  18.271  66.977  1.00  0.00    -0.273 F  
HETATM   25  F   UNL     1      -9.380  18.370  69.121  1.00  0.00    -0.271 F  
HETATM   26  C   UNL     1      -9.826  13.016  66.035  1.00  0.00    -0.259 A  
HETATM   27  C   UNL     1     -10.802  13.338  65.056  1.00  0.00    -0.335 A  
HETATM   28  C   UNL     1     -11.252  12.415  64.109  1.00  0.00    -0.376 A  
HETATM   29  C   UNL     1     -10.744  11.132  64.085  1.00  0.00    -0.415 A  
HETATM   30 CL   UNL     1     -12.454  12.874  62.967  1.00  0.00    -0.208 Cl 
HETATM   31  C   UNL     1      -9.779  10.775  65.020  1.00  0.00    -0.269 A  
HETATM   32  C   UNL     1      -9.313  11.698  65.998  1.00  0.00    -0.241 A  
HETATM   33 CL   UNL     1      -9.209   9.133  64.939  1.00  0.00    -0.206 Cl 
HETATM   34  C   UNL     1      -8.365  11.334  66.964  1.00  0.00    -0.153 A  
ENDBRANCH  12  15
ENDBRANCH  11  12
ENDBRANCH  10  11
ENDBRANCH   5  10
ENDBRANCH   4   5
ENDBRANCH   3   4
ENDBRANCH   2   3
TORSDOF 10
ENDMDL
MODEL       94
REMARK 921   NORMALIZED FREE ENERGY PREDICTED BY IDOCK:   -4.36 KCAL/MOL
REMARK 922        TOTAL FREE ENERGY PREDICTED BY IDOCK:   -9.40 KCAL/MOL
REMARK 923 INTER-LIGAND FREE ENERGY PREDICTED BY IDOCK:   -7.60 KCAL/MOL
REMARK 924 INTRA-LIGAND FREE ENERGY PREDICTED BY IDOCK:   -1.80 KCAL/MOL
REMARK 927      BINDING AFFINITY PREDICTED BY RF-SCORE:    0.00 PKD
ROOT
HETATM    1  C   UNL     1     -11.697  11.179  69.375  1.00  0.00    -0.402 C  
HETATM    2  C   UNL     1     -11.446  12.661  69.611  1.00  0.00    -0.252 C  
ENDROOT
BRANCH   2   3
HETATM    3  C   UNL     1     -12.029  13.486  68.466  1.00  0.00    -0.379 C  
BRANCH   3   4
HETATM    4  C   UNL     1     -10.972  14.210  67.623  1.00  0.00    -0.267 C  
BRANCH   4   5
HETATM    5  N   UNL     1     -11.378  14.790  66.319  1.00  0.00    -0.345 NA 
BRANCH   5   6
HETATM    6  C   UNL     1     -10.657  16.054  66.052  1.00  0.00    -0.316 C  
BRANCH   6   7
HETATM    7  C   UNL     1      -9.861  16.650  67.229  1.00  0.00    -0.255 C  
BRANCH   7   8
HETATM    8  C   UNL     1      -9.264  18.026  66.944  1.00  0.00    -0.271 C  
HETATM    9  C   UNL     1     -10.324  19.114  67.082  1.00  0.00    -0.511 C  
ENDBRANCH   7   8
ENDBRANCH   6   7
ENDBRANCH   5   6
BRANCH   5  10
HETATM   10  C   UNL     1     -11.136  13.812  65.223  1.00  0.00    -0.313 C  
BRANCH  10  11
HETATM   11  C   UNL     1     -11.531  12.393  65.625  1.00  0.00    -0.412 C  
BRANCH  11  12
HETATM   12  C   UNL     1     -10.522  11.318  65.198  1.00  0.00    -0.291 C  
HETATM   13  H   UNL     1      -9.211  11.065  63.756  1.00  0.00     0.000 HD 
HETATM   14  O   UNL     1      -9.836  11.731  64.021  1.00  0.00    -0.265 OA 
BRANCH  12  15
HETATM   15  C   UNL     1      -9.500  10.988  66.288  1.00  0.00    -0.219 A  
HETATM   16  C   UNL     1      -9.472   9.730  66.936  1.00  0.00    -0.202 A  
HETATM   17  C   UNL     1     -10.261   8.646  66.486  1.00  0.00    -0.295 A  
HETATM   18  C   UNL     1     -10.293   7.421  67.150  1.00  0.00    -0.377 A  
HETATM   19  C   UNL     1      -9.525   7.234  68.291  1.00  0.00    -0.141 A  
HETATM   20  C   UNL     1      -9.560   5.937  69.059  1.00  0.00    -0.129 C  
HETATM   21  C   UNL     1      -8.704   8.288  68.727  1.00  0.00    -0.137 A  
HETATM   22  F   UNL     1      -9.978   6.109  70.343  1.00  0.00    -0.184 F  
HETATM   23  C   UNL     1      -8.636   9.549  68.075  1.00  0.00    -0.120 A  
HETATM   24  F   UNL     1      -8.336   5.347  69.141  1.00  0.00    -0.093 F  
HETATM   25  F   UNL     1     -10.391   5.003  68.518  1.00  0.00    -0.235 F  
HETATM   26  C   UNL     1      -7.781  10.622  68.530  1.00  0.00    -0.107 A  
HETATM   27  C   UNL     1      -6.936  10.536  69.668  1.00  0.00    -0.135 A  
HETATM   28  C   UNL     1      -6.132  11.597  70.090  1.00  0.00    -0.155 A  
HETATM   29  C   UNL     1      -6.121  12.789  69.396  1.00  0.00    -0.107 A  
HETATM   30 CL   UNL     1      -5.150  11.422  71.493  1.00  0.00    -0.069 Cl 
HETATM   31  C   UNL     1      -6.927  12.915  68.269  1.00  0.00    -0.099 A  
HETATM   32  C   UNL     1      -7.760  11.849  67.826  1.00  0.00    -0.136 A  
HETATM   33 CL   UNL     1      -6.876  14.457  67.465  1.00  0.00    -0.200 Cl 
HETATM   34  C   UNL     1      -8.599  11.982  66.711  1.00  0.00    -0.177 A  
ENDBRANCH  12  15
ENDBRANCH  11  12
ENDBRANCH  10  11
ENDBRANCH   5  10
ENDBRANCH   4   5
ENDBRANCH   3   4
ENDBRANCH   2   3
TORSDOF 10
ENDMDL
MODEL       95
REMARK 921   NORMALIZED FREE ENERGY PREDICTED BY IDOCK:   -4.36 KCAL/MOL
REMARK 922        TOTAL FREE ENERGY PREDICTED BY IDOCK:   -9.40 KCAL/MOL
REMARK 923 INTER-LIGAND FREE ENERGY PREDICTED BY IDOCK:   -8.20 KCAL/MOL
REMARK 924 INTRA-LIGAND FREE ENERGY PREDICTED BY IDOCK:   -1.20 KCAL/MOL
REMARK 927      BINDING AFFINITY PREDICTED BY RF-SCORE:    0.00 PKD
ROOT
HETATM    1  C   UNL     1      -6.572   4.007  69.847  1.00  0.00    -0.033 C  
HETATM    2  C   UNL     1      -7.432   2.752  69.827  1.00  0.00    -0.044 C  
ENDROOT
BRANCH   2   3
HETATM    3  C   UNL     1      -8.764   3.035  69.134  1.00  0.00    -0.134 C  
BRANCH   3   4
HETATM    4  C   UNL     1      -9.049   4.526  68.925  1.00  0.00    -0.123 C  
BRANCH   4   5
HETATM    5  N   UNL     1     -10.451   4.957  68.691  1.00  0.00     0.028 NA 
BRANCH   5   6
HETATM    6  C   UNL     1     -10.915   5.862  69.764  1.00  0.00    -0.382 C  
BRANCH   6   7
HETATM    7  C   UNL     1     -10.144   5.798  71.096  1.00  0.00    -0.257 C  
BRANCH   7   8
HETATM    8  C   UNL     1     -10.760   4.856  72.128  1.00  0.00    -0.193 C  
HETATM    9  C   UNL     1      -9.708   3.898  72.679  1.00  0.00    -0.198 C  
ENDBRANCH   7   8
ENDBRANCH   6   7
ENDBRANCH   5   6
BRANCH   5  10
HETATM   10  C   UNL     1     -10.570   5.619  67.363  1.00  0.00    -0.237 C  
BRANCH  10  11
HETATM   11  C   UNL     1     -11.020   7.073  67.487  1.00  0.00    -0.299 C  
BRANCH  11  12
HETATM   12  C   UNL     1      -9.868   8.074  67.646  1.00  0.00    -0.167 C  
HETATM   13  H   UNL     1      -8.060   8.317  66.916  1.00  0.00     0.000 HD 
HETATM   14  O   UNL     1      -8.773   7.696  66.817  1.00  0.00    -0.123 OA 
BRANCH  12  15
HETATM   15  C   UNL     1     -10.274   9.513  67.319  1.00  0.00    -0.295 A  
HETATM   16  C   UNL     1     -10.848  10.370  68.288  1.00  0.00    -0.299 A  
HETATM   17  C   UNL     1     -10.907  10.012  69.654  1.00  0.00    -0.292 A  
HETATM   18  C   UNL     1     -11.525  10.816  70.611  1.00  0.00    -0.314 A  
HETATM   19  C   UNL     1     -12.103  12.019  70.230  1.00  0.00    -0.395 A  
HETATM   20  C   UNL     1     -12.813  12.900  71.227  1.00  0.00    -0.270 C  
HETATM   21  C   UNL     1     -12.017  12.409  68.883  1.00  0.00    -0.289 A  
HETATM   22  F   UNL     1     -14.122  13.093  70.904  1.00  0.00     0.467 F  
HETATM   23  C   UNL     1     -11.390  11.623  67.879  1.00  0.00    -0.369 A  
HETATM   24  F   UNL     1     -12.263  14.142  71.310  1.00  0.00    -0.373 F  
HETATM   25  F   UNL     1     -12.812  12.403  72.495  1.00  0.00    -0.329 F  
HETATM   26  C   UNL     1     -11.302  12.040  66.497  1.00  0.00    -0.413 A  
HETATM   27  C   UNL     1     -11.835  13.258  66.000  1.00  0.00    -0.440 A  
HETATM   28  C   UNL     1     -11.746  13.626  64.656  1.00  0.00    -0.388 A  
HETATM   29  C   UNL     1     -11.114  12.805  63.745  1.00  0.00    -0.475 A  
HETATM   30 CL   UNL     1     -12.435  15.111  64.126  1.00  0.00    -0.244 Cl 
HETATM   31  C   UNL     1     -10.569  11.605  64.189  1.00  0.00    -0.357 A  
HETATM   32  C   UNL     1     -10.655  11.208  65.553  1.00  0.00    -0.289 A  
HETATM   33 CL   UNL     1      -9.812  10.616  62.974  1.00  0.00    -0.356 Cl 
HETATM   34  C   UNL     1     -10.138   9.985  66.000  1.00  0.00    -0.318 A  
ENDBRANCH  12  15
ENDBRANCH  11  12
ENDBRANCH  10  11
ENDBRANCH   5  10
ENDBRANCH   4   5
ENDBRANCH   3   4
ENDBRANCH   2   3
TORSDOF 10
ENDMDL
MODEL       96
REMARK 921   NORMALIZED FREE ENERGY PREDICTED BY IDOCK:   -4.35 KCAL/MOL
REMARK 922        TOTAL FREE ENERGY PREDICTED BY IDOCK:   -9.38 KCAL/MOL
REMARK 923 INTER-LIGAND FREE ENERGY PREDICTED BY IDOCK:   -7.26 KCAL/MOL
REMARK 924 INTRA-LIGAND FREE ENERGY PREDICTED BY IDOCK:   -2.12 KCAL/MOL
REMARK 927      BINDING AFFINITY PREDICTED BY RF-SCORE:    0.00 PKD
ROOT
HETATM    1  C   UNL     1      -7.379  13.052  67.176  1.00  0.00     0.031 C  
HETATM    2  C   UNL     1      -7.420  14.545  67.468  1.00  0.00    -0.216 C  
ENDROOT
BRANCH   2   3
HETATM    3  C   UNL     1      -8.620  15.187  66.775  1.00  0.00    -0.297 C  
BRANCH   3   4
HETATM    4  C   UNL     1      -9.783  15.507  67.721  1.00  0.00    -0.211 C  
BRANCH   4   5
HETATM    5  N   UNL     1     -11.113  14.910  67.441  1.00  0.00    -0.315 NA 
BRANCH   5   6
HETATM    6  C   UNL     1     -11.108  14.185  66.151  1.00  0.00    -0.312 C  
BRANCH   6   7
HETATM    7  C   UNL     1     -12.463  13.628  65.674  1.00  0.00    -0.540 C  
BRANCH   7   8
HETATM    8  C   UNL     1     -12.584  13.495  64.158  1.00  0.00    -0.188 C  
HETATM    9  C   UNL     1     -12.852  12.045  63.764  1.00  0.00    -0.440 C  
ENDBRANCH   7   8
ENDBRANCH   6   7
ENDBRANCH   5   6
BRANCH   5  10
HETATM   10  C   UNL     1     -11.510  13.998  68.549  1.00  0.00    -0.302 C  
BRANCH  10  11
HETATM   11  C   UNL     1     -10.540  12.829  68.703  1.00  0.00    -0.256 C  
BRANCH  11  12
HETATM   12  C   UNL     1     -11.224  11.469  68.898  1.00  0.00    -0.247 C  
HETATM   13  H   UNL     1     -13.049  10.747  68.792  1.00  0.00     0.000 HD 
HETATM   14  O   UNL     1     -12.625  11.589  68.671  1.00  0.00    -0.162 OA 
BRANCH  12  15
HETATM   15  C   UNL     1     -10.658  10.377  67.987  1.00  0.00    -0.259 A  
HETATM   16  C   UNL     1     -10.430   9.058  68.448  1.00  0.00    -0.234 A  
HETATM   17  C   UNL     1     -10.883   8.626  69.716  1.00  0.00    -0.185 A  
HETATM   18  C   UNL     1     -10.612   7.351  70.210  1.00  0.00    -0.241 A  
HETATM   19  C   UNL     1      -9.877   6.456  69.444  1.00  0.00    -0.170 A  
HETATM   20  C   UNL     1      -9.531   5.082  69.958  1.00  0.00    -0.166 C  
HETATM   21  C   UNL     1      -9.455   6.857  68.165  1.00  0.00    -0.122 A  
HETATM   22  F   UNL     1      -8.185   4.882  70.028  1.00  0.00    -0.070 F  
HETATM   23  C   UNL     1      -9.717   8.143  67.620  1.00  0.00    -0.200 A  
HETATM   24  F   UNL     1     -10.014   4.090  69.160  1.00  0.00    -0.247 F  
HETATM   25  F   UNL     1     -10.012   4.826  71.206  1.00  0.00    -0.222 F  
HETATM   26  C   UNL     1      -9.283   8.539  66.300  1.00  0.00    -0.262 A  
HETATM   27  C   UNL     1      -8.548   7.700  65.421  1.00  0.00    -0.074 A  
HETATM   28  C   UNL     1      -8.131   8.118  64.155  1.00  0.00    -0.128 A  
HETATM   29  C   UNL     1      -8.432   9.385  63.700  1.00  0.00    -0.203 A  
HETATM   30 CL   UNL     1      -7.226   7.049  63.155  1.00  0.00    -0.067 Cl 
HETATM   31  C   UNL     1      -9.158  10.238  64.524  1.00  0.00    -0.234 A  
HETATM   32  C   UNL     1      -9.587   9.835  65.820  1.00  0.00    -0.318 A  
HETATM   33 CL   UNL     1      -9.475  11.826  63.888  1.00  0.00    -0.111 Cl 
HETATM   34  C   UNL     1     -10.289  10.702  66.668  1.00  0.00    -0.297 A  
ENDBRANCH  12  15
ENDBRANCH  11  12
ENDBRANCH  10  11
ENDBRANCH   5  10
ENDBRANCH   4   5
ENDBRANCH   3   4
ENDBRANCH   2   3
TORSDOF 10
ENDMDL
MODEL       97
REMARK 921   NORMALIZED FREE ENERGY PREDICTED BY IDOCK:   -4.34 KCAL/MOL
REMARK 922        TOTAL FREE ENERGY PREDICTED BY IDOCK:   -9.38 KCAL/MOL
REMARK 923 INTER-LIGAND FREE ENERGY PREDICTED BY IDOCK:   -6.86 KCAL/MOL
REMARK 924 INTRA-LIGAND FREE ENERGY PREDICTED BY IDOCK:   -2.52 KCAL/MOL
REMARK 927      BINDING AFFINITY PREDICTED BY RF-SCORE:    0.00 PKD
ROOT
HETATM    1  C   UNL     1     -12.442   7.101  71.732  1.00  0.00    -0.385 C  
HETATM    2  C   UNL     1     -11.862   8.413  72.241  1.00  0.00    -0.456 C  
ENDROOT
BRANCH   2   3
HETATM    3  C   UNL     1     -10.344   8.424  72.069  1.00  0.00    -0.374 C  
BRANCH   3   4
HETATM    4  C   UNL     1      -9.868   7.832  70.737  1.00  0.00    -0.180 C  
BRANCH   4   5
HETATM    5  N   UNL     1      -9.436   8.758  69.661  1.00  0.00    -0.167 NA 
BRANCH   5   6
HETATM    6  C   UNL     1     -10.163  10.044  69.743  1.00  0.00    -0.250 C  
BRANCH   6   7
HETATM    7  C   UNL     1     -11.297  10.257  68.723  1.00  0.00    -0.226 C  
BRANCH   7   8
HETATM    8  C   UNL     1     -12.019  11.595  68.863  1.00  0.00    -0.355 C  
HETATM    9  C   UNL     1     -11.113  12.630  69.522  1.00  0.00    -0.054 C  
ENDBRANCH   7   8
ENDBRANCH   6   7
ENDBRANCH   5   6
BRANCH   5  10
HETATM   10  C   UNL     1      -7.967   8.985  69.737  1.00  0.00    -0.099 C  
BRANCH  10  11
HETATM   11  C   UNL     1      -7.625  10.461  69.925  1.00  0.00    -0.112 C  
BRANCH  11  12
HETATM   12  C   UNL     1      -6.763  11.052  68.801  1.00  0.00    -0.065 C  
HETATM   13  H   UNL     1      -5.717  10.376  67.281  1.00  0.00     0.000 HD 
HETATM   14  O   UNL     1      -6.251  10.010  67.977  1.00  0.00    -0.053 OA 
BRANCH  12  15
HETATM   15  C   UNL     1      -7.521  12.057  67.929  1.00  0.00    -0.114 A  
HETATM   16  C   UNL     1      -7.339  13.454  68.062  1.00  0.00    -0.129 A  
HETATM   17  C   UNL     1      -6.314  13.995  68.872  1.00  0.00    -0.092 A  
HETATM   18  C   UNL     1      -6.161  15.367  69.063  1.00  0.00    -0.104 A  
HETATM   19  C   UNL     1      -7.030  16.252  68.439  1.00  0.00    -0.135 A  
HETATM   20  C   UNL     1      -6.921  17.741  68.649  1.00  0.00    -0.247 C  
HETATM   21  C   UNL     1      -8.028  15.731  67.597  1.00  0.00    -0.163 A  
HETATM   22  F   UNL     1      -8.053  18.269  69.192  1.00  0.00    -0.243 F  
HETATM   23  C   UNL     1      -8.213  14.341  67.369  1.00  0.00    -0.217 A  
HETATM   24  F   UNL     1      -6.713  18.418  67.487  1.00  0.00    -0.188 F  
HETATM   25  F   UNL     1      -5.905  18.104  69.481  1.00  0.00    -0.194 F  
HETATM   26  C   UNL     1      -9.239  13.819  66.495  1.00  0.00    -0.210 A  
HETATM   27  C   UNL     1     -10.166  14.629  65.788  1.00  0.00    -0.360 A  
HETATM   28  C   UNL     1     -11.156  14.094  64.961  1.00  0.00    -0.370 A  
HETATM   29  C   UNL     1     -11.264  12.729  64.790  1.00  0.00    -0.339 A  
HETATM   30 CL   UNL     1     -12.257  15.141  64.152  1.00  0.00    -0.339 Cl 
HETATM   31  C   UNL     1     -10.371  11.897  65.457  1.00  0.00    -0.264 A  
HETATM   32  C   UNL     1      -9.360  12.422  66.310  1.00  0.00    -0.189 A  
HETATM   33 CL   UNL     1     -10.590  10.189  65.209  1.00  0.00    -0.023 Cl 
HETATM   34  C   UNL     1      -8.479  11.587  67.011  1.00  0.00    -0.164 A  
ENDBRANCH  12  15
ENDBRANCH  11  12
ENDBRANCH  10  11
ENDBRANCH   5  10
ENDBRANCH   4   5
ENDBRANCH   3   4
ENDBRANCH   2   3
TORSDOF 10
ENDMDL
MODEL       98
REMARK 921   NORMALIZED FREE ENERGY PREDICTED BY IDOCK:   -4.33 KCAL/MOL
REMARK 922        TOTAL FREE ENERGY PREDICTED BY IDOCK:   -9.36 KCAL/MOL
REMARK 923 INTER-LIGAND FREE ENERGY PREDICTED BY IDOCK:   -8.10 KCAL/MOL
REMARK 924 INTRA-LIGAND FREE ENERGY PREDICTED BY IDOCK:   -1.25 KCAL/MOL
REMARK 927      BINDING AFFINITY PREDICTED BY RF-SCORE:    0.00 PKD
ROOT
HETATM    1  C   UNL     1      -7.969   5.979  64.829  1.00  0.00    -0.127 C  
HETATM    2  C   UNL     1      -7.622   4.544  65.195  1.00  0.00    -0.077 C  
ENDROOT
BRANCH   2   3
HETATM    3  C   UNL     1      -6.880   4.503  66.530  1.00  0.00    -0.055 C  
BRANCH   3   4
HETATM    4  C   UNL     1      -7.789   4.242  67.736  1.00  0.00    -0.083 C  
BRANCH   4   5
HETATM    5  N   UNL     1      -7.848   5.259  68.816  1.00  0.00    -0.082 NA 
BRANCH   5   6
HETATM    6  C   UNL     1      -7.077   4.823  70.000  1.00  0.00    -0.050 C  
BRANCH   6   7
HETATM    7  C   UNL     1      -7.770   4.983  71.366  1.00  0.00    -0.100 C  
BRANCH   7   8
HETATM    8  C   UNL     1      -9.277   5.210  71.278  1.00  0.00    -0.182 C  
HETATM    9  C   UNL     1     -10.015   3.881  71.137  1.00  0.00    -0.169 C  
ENDBRANCH   7   8
ENDBRANCH   6   7
ENDBRANCH   5   6
BRANCH   5  10
HETATM   10  C   UNL     1      -7.341   6.567  68.317  1.00  0.00    -0.087 C  
BRANCH  10  11
HETATM   11  C   UNL     1      -8.225   7.730  68.760  1.00  0.00    -0.128 C  
BRANCH  11  12
HETATM   12  C   UNL     1      -9.355   8.067  67.778  1.00  0.00    -0.137 C  
HETATM   13  H   UNL     1     -10.804   7.105  66.863  1.00  0.00     0.000 HD 
HETATM   14  O   UNL     1     -10.104   6.896  67.472  1.00  0.00    -0.149 OA 
BRANCH  12  15
HETATM   15  C   UNL     1     -10.303   9.149  68.302  1.00  0.00    -0.256 A  
HETATM   16  C   UNL     1     -10.547  10.345  67.587  1.00  0.00    -0.304 A  
HETATM   17  C   UNL     1     -10.078  10.529  66.266  1.00  0.00    -0.290 A  
HETATM   18  C   UNL     1     -10.255  11.724  65.571  1.00  0.00    -0.291 A  
HETATM   19  C   UNL     1     -10.918  12.783  66.177  1.00  0.00    -0.310 A  
HETATM   20  C   UNL     1     -11.097  14.104  65.474  1.00  0.00    -0.310 C  
HETATM   21  C   UNL     1     -11.427  12.602  67.475  1.00  0.00    -0.397 A  
HETATM   22  F   UNL     1     -10.516  15.132  66.151  1.00  0.00    -0.273 F  
HETATM   23  C   UNL     1     -11.275  11.397  68.214  1.00  0.00    -0.326 A  
HETATM   24  F   UNL     1     -12.408  14.445  65.331  1.00  0.00    -0.381 F  
HETATM   25  F   UNL     1     -10.564  14.134  64.220  1.00  0.00    -0.390 F  
HETATM   26  C   UNL     1     -11.809  11.222  69.545  1.00  0.00    -0.427 A  
HETATM   27  C   UNL     1     -12.525  12.225  70.252  1.00  0.00    -0.159 A  
HETATM   28  C   UNL     1     -13.017  12.029  71.544  1.00  0.00    -0.304 A  
HETATM   29  C   UNL     1     -12.830  10.825  72.191  1.00  0.00    -0.199 A  
HETATM   30 CL   UNL     1     -13.857  13.301  72.344  1.00  0.00    -0.680 Cl 
HETATM   31  C   UNL     1     -12.142   9.811  71.533  1.00  0.00    -0.409 A  
HETATM   32  C   UNL     1     -11.627   9.992  70.219  1.00  0.00    -0.354 A  
HETATM   33 CL   UNL     1     -11.927   8.333  72.426  1.00  0.00    -0.442 Cl 
HETATM   34  C   UNL     1     -10.904   8.985  69.565  1.00  0.00    -0.177 A  
ENDBRANCH  12  15
ENDBRANCH  11  12
ENDBRANCH  10  11
ENDBRANCH   5  10
ENDBRANCH   4   5
ENDBRANCH   3   4
ENDBRANCH   2   3
TORSDOF 10
ENDMDL
MODEL       99
REMARK 921   NORMALIZED FREE ENERGY PREDICTED BY IDOCK:   -4.33 KCAL/MOL
REMARK 922        TOTAL FREE ENERGY PREDICTED BY IDOCK:   -9.35 KCAL/MOL
REMARK 923 INTER-LIGAND FREE ENERGY PREDICTED BY IDOCK:   -8.43 KCAL/MOL
REMARK 924 INTRA-LIGAND FREE ENERGY PREDICTED BY IDOCK:   -0.92 KCAL/MOL
REMARK 927      BINDING AFFINITY PREDICTED BY RF-SCORE:    0.00 PKD
ROOT
HETATM    1  C   UNL     1     -12.264  14.831  70.980  1.00  0.00    -0.393 C  
HETATM    2  C   UNL     1     -11.400  15.862  70.268  1.00  0.00    -0.381 C  
ENDROOT
BRANCH   2   3
HETATM    3  C   UNL     1     -11.337  15.558  68.772  1.00  0.00    -0.339 C  
BRANCH   3   4
HETATM    4  C   UNL     1     -11.981  14.222  68.384  1.00  0.00    -0.309 C  
BRANCH   4   5
HETATM    5  N   UNL     1     -11.480  13.515  67.179  1.00  0.00    -0.321 NA 
BRANCH   5   6
HETATM    6  C   UNL     1     -10.690  14.423  66.320  1.00  0.00    -0.307 C  
BRANCH   6   7
HETATM    7  C   UNL     1     -11.032  14.416  64.817  1.00  0.00    -0.409 C  
BRANCH   7   8
HETATM    8  C   UNL     1     -10.582  13.156  64.081  1.00  0.00    -0.384 C  
HETATM    9  C   UNL     1     -11.764  12.224  63.834  1.00  0.00    -0.536 C  
ENDBRANCH   7   8
ENDBRANCH   6   7
ENDBRANCH   5   6
BRANCH   5  10
HETATM   10  C   UNL     1     -10.665  12.335  67.578  1.00  0.00    -0.225 C  
BRANCH  10  11
HETATM   11  C   UNL     1     -11.382  11.019  67.288  1.00  0.00    -0.265 C  
BRANCH  11  12
HETATM   12  C   UNL     1     -10.448   9.876  66.869  1.00  0.00    -0.215 C  
HETATM   13  H   UNL     1      -8.574   9.677  66.313  1.00  0.00     0.000 HD 
HETATM   14  O   UNL     1      -9.152  10.386  66.573  1.00  0.00    -0.152 OA 
BRANCH  12  15
HETATM   15  C   UNL     1     -10.327   8.780  67.931  1.00  0.00    -0.281 A  
HETATM   16  C   UNL     1      -9.740   7.523  67.651  1.00  0.00    -0.182 A  
HETATM   17  C   UNL     1      -9.066   7.274  66.433  1.00  0.00    -0.192 A  
HETATM   18  C   UNL     1      -8.537   6.024  66.115  1.00  0.00    -0.142 A  
HETATM   19  C   UNL     1      -8.660   4.974  67.015  1.00  0.00    -0.105 A  
HETATM   20  C   UNL     1      -8.135   3.598  66.694  1.00  0.00    -0.096 C  
HETATM   21  C   UNL     1      -9.292   5.216  68.247  1.00  0.00    -0.152 A  
HETATM   22  F   UNL     1      -9.120   2.657  66.697  1.00  0.00    -0.138 F  
HETATM   23  C   UNL     1      -9.837   6.477  68.613  1.00  0.00    -0.143 A  
HETATM   24  F   UNL     1      -7.208   3.170  67.594  1.00  0.00    -0.051 F  
HETATM   25  F   UNL     1      -7.540   3.510  65.471  1.00  0.00    -0.073 F  
HETATM   26  C   UNL     1     -10.477   6.714  69.887  1.00  0.00    -0.247 A  
HETATM   27  C   UNL     1     -10.638   5.723  70.891  1.00  0.00    -0.329 A  
HETATM   28  C   UNL     1     -11.275   5.981  72.107  1.00  0.00    -0.291 A  
HETATM   29  C   UNL     1     -11.773   7.237  72.386  1.00  0.00    -0.278 A  
HETATM   30 CL   UNL     1     -11.449   4.722  73.267  1.00  0.00    -0.411 Cl 
HETATM   31  C   UNL     1     -11.630   8.241  71.435  1.00  0.00    -0.280 A  
HETATM   32  C   UNL     1     -10.990   7.998  70.186  1.00  0.00    -0.226 A  
HETATM   33 CL   UNL     1     -12.306   9.789  71.852  1.00  0.00    -0.447 Cl 
HETATM   34  C   UNL     1     -10.874   8.997  69.210  1.00  0.00    -0.131 A  
ENDBRANCH  12  15
ENDBRANCH  11  12
ENDBRANCH  10  11
ENDBRANCH   5  10
ENDBRANCH   4   5
ENDBRANCH   3   4
ENDBRANCH   2   3
TORSDOF 10
ENDMDL
MODEL      100
REMARK 921   NORMALIZED FREE ENERGY PREDICTED BY IDOCK:   -4.31 KCAL/MOL
REMARK 922        TOTAL FREE ENERGY PREDICTED BY IDOCK:   -9.32 KCAL/MOL
REMARK 923 INTER-LIGAND FREE ENERGY PREDICTED BY IDOCK:   -8.53 KCAL/MOL
REMARK 924 INTRA-LIGAND FREE ENERGY PREDICTED BY IDOCK:   -0.79 KCAL/MOL
REMARK 927      BINDING AFFINITY PREDICTED BY RF-SCORE:    0.00 PKD
ROOT
HETATM    1  C   UNL     1     -11.343  14.378  69.571  1.00  0.00    -0.318 C  
HETATM    2  C   UNL     1     -11.751  15.732  69.009  1.00  0.00    -0.405 C  
ENDROOT
BRANCH   2   3
HETATM    3  C   UNL     1     -10.655  16.764  69.265  1.00  0.00    -0.336 C  
BRANCH   3   4
HETATM    4  C   UNL     1     -10.692  17.957  68.303  1.00  0.00    -0.220 C  
BRANCH   4   5
HETATM    5  N   UNL     1      -9.408  18.577  67.888  1.00  0.00    -0.288 NA 
BRANCH   5   6
HETATM    6  C   UNL     1      -9.352  20.000  68.285  1.00  0.00    -0.210 C  
BRANCH   6   7
HETATM    7  C   UNL     1      -8.676  20.963  67.290  1.00  0.00    -0.135 C  
BRANCH   7   8
HETATM    8  C   UNL     1      -7.334  20.467  66.757  1.00  0.00    -0.315 C  
HETATM    9  C   UNL     1      -6.180  21.102  67.528  1.00  0.00    -0.429 C  
ENDBRANCH   7   8
ENDBRANCH   6   7
ENDBRANCH   5   6
BRANCH   5  10
HETATM   10  C   UNL     1      -8.263  17.828  68.475  1.00  0.00    -0.296 C  
BRANCH  10  11
HETATM   11  C   UNL     1      -7.483  17.053  67.416  1.00  0.00    -0.184 C  
BRANCH  11  12
HETATM   12  C   UNL     1      -6.735  15.828  67.961  1.00  0.00    -0.132 C  
HETATM   13  H   UNL     1      -5.958  15.260  69.674  1.00  0.00     0.000 HD 
HETATM   14  O   UNL     1      -6.422  16.018  69.337  1.00  0.00    -0.154 OA 
BRANCH  12  15
HETATM   15  C   UNL     1      -7.520  14.525  67.798  1.00  0.00    -0.182 A  
HETATM   16  C   UNL     1      -8.697  14.449  67.016  1.00  0.00    -0.244 A  
HETATM   17  C   UNL     1      -9.112  15.521  66.193  1.00  0.00    -0.359 A  
HETATM   18  C   UNL     1     -10.300  15.488  65.467  1.00  0.00    -0.419 A  
HETATM   19  C   UNL     1     -11.118  14.368  65.533  1.00  0.00    -0.326 A  
HETATM   20  C   UNL     1     -12.430  14.307  64.793  1.00  0.00    -0.374 C  
HETATM   21  C   UNL     1     -10.700  13.277  66.315  1.00  0.00    -0.293 A  
HETATM   22  F   UNL     1     -13.489  14.137  65.632  1.00  0.00    -0.483 F  
HETATM   23  C   UNL     1      -9.492  13.268  67.064  1.00  0.00    -0.243 A  
HETATM   24  F   UNL     1     -12.483  13.271  63.911  1.00  0.00    -0.436 F  
HETATM   25  F   UNL     1     -12.703  15.428  64.070  1.00  0.00    -0.398 F  
HETATM   26  C   UNL     1      -9.070  12.136  67.858  1.00  0.00    -0.185 A  
HETATM   27  C   UNL     1      -9.813  10.932  67.981  1.00  0.00    -0.185 A  
HETATM   28  C   UNL     1      -9.385   9.860  68.768  1.00  0.00    -0.157 A  
HETATM   29  C   UNL     1      -8.194   9.931  69.461  1.00  0.00    -0.163 A  
HETATM   30 CL   UNL     1     -10.351   8.441  68.883  1.00  0.00    -0.230 Cl 
HETATM   31  C   UNL     1      -7.429  11.089  69.363  1.00  0.00    -0.072 A  
HETATM   32  C   UNL     1      -7.851  12.195  68.572  1.00  0.00    -0.122 A  
HETATM   33 CL   UNL     1      -5.955  11.110  70.287  1.00  0.00    -0.132 Cl 
HETATM   34  C   UNL     1      -7.101  13.377  68.497  1.00  0.00    -0.108 A  
ENDBRANCH  12  15
ENDBRANCH  11  12
ENDBRANCH  10  11
ENDBRANCH   5  10
ENDBRANCH   4   5
ENDBRANCH   3   4
ENDBRANCH   2   3
TORSDOF 10
ENDMDL
MODEL      101
REMARK 921   NORMALIZED FREE ENERGY PREDICTED BY IDOCK:   -4.31 KCAL/MOL
REMARK 922        TOTAL FREE ENERGY PREDICTED BY IDOCK:   -9.32 KCAL/MOL
REMARK 923 INTER-LIGAND FREE ENERGY PREDICTED BY IDOCK:   -8.40 KCAL/MOL
REMARK 924 INTRA-LIGAND FREE ENERGY PREDICTED BY IDOCK:   -0.92 KCAL/MOL
REMARK 927      BINDING AFFINITY PREDICTED BY RF-SCORE:    0.00 PKD
ROOT
HETATM    1  C   UNL     1     -12.167  15.761  72.590  1.00  0.00    -0.573 C  
HETATM    2  C   UNL     1     -12.363  15.875  71.085  1.00  0.00    -0.435 C  
ENDROOT
BRANCH   2   3
HETATM    3  C   UNL     1     -12.370  14.488  70.445  1.00  0.00    -0.400 C  
BRANCH   3   4
HETATM    4  C   UNL     1     -11.429  14.356  69.242  1.00  0.00    -0.285 C  
BRANCH   4   5
HETATM    5  N   UNL     1     -11.901  14.827  67.915  1.00  0.00    -0.333 NA 
BRANCH   5   6
HETATM    6  C   UNL     1     -10.874  15.656  67.249  1.00  0.00    -0.298 C  
BRANCH   6   7
HETATM    7  C   UNL     1     -10.205  16.743  68.111  1.00  0.00    -0.301 C  
BRANCH   7   8
HETATM    8  C   UNL     1     -10.017  18.078  67.396  1.00  0.00    -0.328 C  
HETATM    9  C   UNL     1      -9.668  19.180  68.392  1.00  0.00    -0.451 C  
ENDBRANCH   7   8
ENDBRANCH   6   7
ENDBRANCH   5   6
BRANCH   5  10
HETATM   10  C   UNL     1     -12.269  13.665  67.060  1.00  0.00    -0.329 C  
BRANCH  10  11
HETATM   11  C   UNL     1     -11.890  12.335  67.707  1.00  0.00    -0.341 C  
BRANCH  11  12
HETATM   12  C   UNL     1     -10.696  11.635  67.046  1.00  0.00    -0.253 C  
HETATM   13  H   UNL     1      -8.811  12.046  66.672  1.00  0.00     0.000 HD 
HETATM   14  O   UNL     1      -9.551  12.480  67.082  1.00  0.00    -0.199 OA 
BRANCH  12  15
HETATM   15  C   UNL     1     -10.351  10.293  67.697  1.00  0.00    -0.264 A  
HETATM   16  C   UNL     1      -9.673   9.269  66.994  1.00  0.00    -0.241 A  
HETATM   17  C   UNL     1      -9.110   9.493  65.716  1.00  0.00    -0.243 A  
HETATM   18  C   UNL     1      -8.494   8.479  64.984  1.00  0.00    -0.183 A  
HETATM   19  C   UNL     1      -8.413   7.198  65.512  1.00  0.00    -0.114 A  
HETATM   20  C   UNL     1      -7.789   6.066  64.737  1.00  0.00    -0.111 C  
HETATM   21  C   UNL     1      -8.932   6.969  66.799  1.00  0.00    -0.145 A  
HETATM   22  F   UNL     1      -8.667   5.049  64.512  1.00  0.00    -0.141 F  
HETATM   23  C   UNL     1      -9.559   7.976  67.581  1.00  0.00    -0.185 A  
HETATM   24  F   UNL     1      -6.732   5.508  65.389  1.00  0.00    -0.038 F  
HETATM   25  F   UNL     1      -7.322   6.434  63.511  1.00  0.00    -0.047 F  
HETATM   26  C   UNL     1     -10.081   7.728  68.906  1.00  0.00    -0.201 A  
HETATM   27  C   UNL     1     -10.032   6.466  69.555  1.00  0.00    -0.190 A  
HETATM   28  C   UNL     1     -10.559   6.255  70.831  1.00  0.00    -0.241 A  
HETATM   29  C   UNL     1     -11.149   7.290  71.526  1.00  0.00    -0.264 A  
HETATM   30 CL   UNL     1     -10.479   4.690  71.544  1.00  0.00    -0.166 Cl 
HETATM   31  C   UNL     1     -11.211   8.546  70.932  1.00  0.00    -0.266 A  
HETATM   32  C   UNL     1     -10.687   8.781  69.630  1.00  0.00    -0.212 A  
HETATM   33 CL   UNL     1     -11.993   9.792  71.863  1.00  0.00    -0.376 Cl 
HETATM   34  C   UNL     1     -10.778  10.036  69.013  1.00  0.00    -0.244 A  
ENDBRANCH  12  15
ENDBRANCH  11  12
ENDBRANCH  10  11
ENDBRANCH   5  10
ENDBRANCH   4   5
ENDBRANCH   3   4
ENDBRANCH   2   3
TORSDOF 10
ENDMDL
MODEL      102
REMARK 921   NORMALIZED FREE ENERGY PREDICTED BY IDOCK:   -4.21 KCAL/MOL
REMARK 922        TOTAL FREE ENERGY PREDICTED BY IDOCK:   -9.16 KCAL/MOL
REMARK 923 INTER-LIGAND FREE ENERGY PREDICTED BY IDOCK:   -8.83 KCAL/MOL
REMARK 924 INTRA-LIGAND FREE ENERGY PREDICTED BY IDOCK:   -0.34 KCAL/MOL
REMARK 927      BINDING AFFINITY PREDICTED BY RF-SCORE:    0.00 PKD
ROOT
HETATM    1  C   UNL     1      -6.136  11.217  69.170  1.00  0.00    -0.047 C  
HETATM    2  C   UNL     1      -5.777  10.169  70.213  1.00  0.00    -0.060 C  
ENDROOT
BRANCH   2   3
HETATM    3  C   UNL     1      -6.658   8.932  70.047  1.00  0.00    -0.042 C  
BRANCH   3   4
HETATM    4  C   UNL     1      -8.093   9.121  70.554  1.00  0.00    -0.162 C  
BRANCH   4   5
HETATM    5  N   UNL     1      -8.601   8.207  71.608  1.00  0.00    -0.128 NA 
BRANCH   5   6
HETATM    6  C   UNL     1      -7.690   8.181  72.773  1.00  0.00    -0.136 C  
BRANCH   6   7
HETATM    7  C   UNL     1      -7.400   6.798  73.386  1.00  0.00    -0.079 C  
BRANCH   7   8
HETATM    8  C   UNL     1      -7.143   5.701  72.356  1.00  0.00    -0.084 C  
HETATM    9  C   UNL     1      -5.684   5.712  71.910  1.00  0.00    -0.022 C  
ENDBRANCH   7   8
ENDBRANCH   6   7
ENDBRANCH   5   6
BRANCH   5  10
HETATM   10  C   UNL     1      -9.970   8.615  72.026  1.00  0.00    -0.329 C  
BRANCH  10  11
HETATM   11  C   UNL     1     -11.051   7.931  71.192  1.00  0.00    -0.278 C  
BRANCH  11  12
HETATM   12  C   UNL     1     -12.235   8.840  70.835  1.00  0.00    -0.116 C  
HETATM   13  H   UNL     1     -13.661   9.791  71.796  1.00  0.00     0.000 HD 
HETATM   14  O   UNL     1     -12.928   9.228  72.017  1.00  0.00    -0.363 OA 
BRANCH  12  15
HETATM   15  C   UNL     1     -11.817  10.094  70.062  1.00  0.00    -0.253 A  
HETATM   16  C   UNL     1     -12.177  11.394  70.489  1.00  0.00    -0.478 A  
HETATM   17  C   UNL     1     -12.780  11.622  71.747  1.00  0.00    -0.322 A  
HETATM   18  C   UNL     1     -13.197  12.887  72.156  1.00  0.00    -0.552 A  
HETATM   19  C   UNL     1     -13.018  13.978  71.316  1.00  0.00    -0.418 A  
HETATM   20  C   UNL     1     -13.489  15.356  71.705  1.00  0.00    -0.502 C  
HETATM   21  C   UNL     1     -12.384  13.775  70.078  1.00  0.00    -0.364 A  
HETATM   22  F   UNL     1     -14.408  15.853  70.831  1.00  0.00    -0.166 F  
HETATM   23  C   UNL     1     -11.936  12.503  69.628  1.00  0.00    -0.339 A  
HETATM   24  F   UNL     1     -12.476  16.264  71.737  1.00  0.00    -0.491 F  
HETATM   25  F   UNL     1     -14.078  15.407  72.933  1.00  0.00    -0.535 F  
HETATM   26  C   UNL     1     -11.278  12.309  68.355  1.00  0.00    -0.311 A  
HETATM   27  C   UNL     1     -11.021  13.353  67.428  1.00  0.00    -0.287 A  
HETATM   28  C   UNL     1     -10.395  13.131  66.199  1.00  0.00    -0.284 A  
HETATM   29  C   UNL     1      -9.986  11.863  65.839  1.00  0.00    -0.261 A  
HETATM   30 CL   UNL     1     -10.136  14.445  65.118  1.00  0.00    -0.402 Cl 
HETATM   31  C   UNL     1     -10.209  10.812  66.722  1.00  0.00    -0.230 A  
HETATM   32  C   UNL     1     -10.852  11.015  67.975  1.00  0.00    -0.278 A  
HETATM   33 CL   UNL     1      -9.688   9.241  66.184  1.00  0.00    -0.327 Cl 
HETATM   34  C   UNL     1     -11.110   9.954  68.853  1.00  0.00    -0.181 A  
ENDBRANCH  12  15
ENDBRANCH  11  12
ENDBRANCH  10  11
ENDBRANCH   5  10
ENDBRANCH   4   5
ENDBRANCH   3   4
ENDBRANCH   2   3
TORSDOF 10
ENDMDL
MODEL      103
REMARK 921   NORMALIZED FREE ENERGY PREDICTED BY IDOCK:   -4.19 KCAL/MOL
REMARK 922        TOTAL FREE ENERGY PREDICTED BY IDOCK:   -9.14 KCAL/MOL
REMARK 923 INTER-LIGAND FREE ENERGY PREDICTED BY IDOCK:   -8.35 KCAL/MOL
REMARK 924 INTRA-LIGAND FREE ENERGY PREDICTED BY IDOCK:   -0.79 KCAL/MOL
REMARK 927      BINDING AFFINITY PREDICTED BY RF-SCORE:    0.00 PKD
ROOT
HETATM    1  C   UNL     1     -12.242  14.383  64.296  1.00  0.00    -0.450 C  
HETATM    2  C   UNL     1     -11.795  13.180  63.480  1.00  0.00    -0.539 C  
ENDROOT
BRANCH   2   3
HETATM    3  C   UNL     1     -11.463  12.007  64.401  1.00  0.00    -0.413 C  
BRANCH   3   4
HETATM    4  C   UNL     1     -11.523  12.357  65.893  1.00  0.00    -0.374 C  
BRANCH   4   5
HETATM    5  N   UNL     1     -10.248  12.518  66.636  1.00  0.00    -0.227 NA 
BRANCH   5   6
HETATM    6  C   UNL     1     -10.229  13.792  67.387  1.00  0.00    -0.252 C  
BRANCH   6   7
HETATM    7  C   UNL     1     -11.596  14.349  67.828  1.00  0.00    -0.384 C  
BRANCH   7   8
HETATM    8  C   UNL     1     -12.015  13.932  69.236  1.00  0.00    -0.402 C  
HETATM    9  C   UNL     1     -12.140  15.152  70.144  1.00  0.00    -0.384 C  
ENDBRANCH   7   8
ENDBRANCH   6   7
ENDBRANCH   5   6
BRANCH   5  10
HETATM   10  C   UNL     1     -10.042  11.368  67.558  1.00  0.00    -0.183 C  
BRANCH  10  11
HETATM   11  C   UNL     1     -10.945  10.187  67.211  1.00  0.00    -0.250 C  
BRANCH  11  12
HETATM   12  C   UNL     1     -10.187   8.916  66.804  1.00  0.00    -0.278 C  
HETATM   13  H   UNL     1      -8.400   8.461  66.125  1.00  0.00     0.000 HD 
HETATM   14  O   UNL     1      -8.870   9.248  66.377  1.00  0.00    -0.137 OA 
BRANCH  12  15
HETATM   15  C   UNL     1     -10.105   7.881  67.928  1.00  0.00    -0.240 A  
HETATM   16  C   UNL     1      -9.673   6.553  67.697  1.00  0.00    -0.137 A  
HETATM   17  C   UNL     1      -9.117   6.159  66.458  1.00  0.00    -0.156 A  
HETATM   18  C   UNL     1      -8.745   4.842  66.192  1.00  0.00    -0.117 A  
HETATM   19  C   UNL     1      -8.912   3.868  67.167  1.00  0.00    -0.152 A  
HETATM   20  C   UNL     1      -8.558   2.426  66.907  1.00  0.00    -0.112 C  
HETATM   21  C   UNL     1      -9.426   4.252  68.418  1.00  0.00    -0.215 A  
HETATM   22  F   UNL     1      -9.632   1.599  67.037  1.00  0.00    -0.070 F  
HETATM   23  C   UNL     1      -9.809   5.584  68.732  1.00  0.00    -0.206 A  
HETATM   24  F   UNL     1      -7.618   1.956  67.772  1.00  0.00    -0.052 F  
HETATM   25  F   UNL     1      -8.063   2.201  65.658  1.00  0.00    -0.077 F  
HETATM   26  C   UNL     1     -10.330   5.966  70.025  1.00  0.00    -0.309 A  
HETATM   27  C   UNL     1     -10.520   5.061  71.103  1.00  0.00    -0.205 A  
HETATM   28  C   UNL     1     -11.039   5.459  72.337  1.00  0.00    -0.229 A  
HETATM   29  C   UNL     1     -11.382   6.777  72.561  1.00  0.00    -0.292 A  
HETATM   30 CL   UNL     1     -11.261   4.299  73.588  1.00  0.00    -0.351 Cl 
HETATM   31  C   UNL     1     -11.204   7.699  71.537  1.00  0.00    -0.246 A  
HETATM   32  C   UNL     1     -10.684   7.313  70.269  1.00  0.00    -0.252 A  
HETATM   33 CL   UNL     1     -11.684   9.334  71.890  1.00  0.00    -0.443 Cl 
HETATM   34  C   UNL     1     -10.534   8.232  69.222  1.00  0.00    -0.218 A  
ENDBRANCH  12  15
ENDBRANCH  11  12
ENDBRANCH  10  11
ENDBRANCH   5  10
ENDBRANCH   4   5
ENDBRANCH   3   4
ENDBRANCH   2   3
TORSDOF 10
ENDMDL
MODEL      104
REMARK 921   NORMALIZED FREE ENERGY PREDICTED BY IDOCK:   -4.19 KCAL/MOL
REMARK 922        TOTAL FREE ENERGY PREDICTED BY IDOCK:   -9.13 KCAL/MOL
REMARK 923 INTER-LIGAND FREE ENERGY PREDICTED BY IDOCK:   -8.40 KCAL/MOL
REMARK 924 INTRA-LIGAND FREE ENERGY PREDICTED BY IDOCK:   -0.73 KCAL/MOL
REMARK 927      BINDING AFFINITY PREDICTED BY RF-SCORE:    0.00 PKD
ROOT
HETATM    1  C   UNL     1      -7.081   9.048  71.876  1.00  0.00     0.081 C  
HETATM    2  C   UNL     1      -6.294   7.995  71.110  1.00  0.00    -0.034 C  
ENDROOT
BRANCH   2   3
HETATM    3  C   UNL     1      -6.953   6.625  71.263  1.00  0.00    -0.074 C  
BRANCH   3   4
HETATM    4  C   UNL     1      -8.481   6.657  71.148  1.00  0.00    -0.126 C  
BRANCH   4   5
HETATM    5  N   UNL     1      -9.104   6.277  69.855  1.00  0.00    -0.143 NA 
BRANCH   5   6
HETATM    6  C   UNL     1      -9.851   5.007  69.978  1.00  0.00    -0.228 C  
BRANCH   6   7
HETATM    7  C   UNL     1      -9.854   4.346  71.370  1.00  0.00    -0.262 C  
BRANCH   7   8
HETATM    8  C   UNL     1     -10.847   4.964  72.351  1.00  0.00    -0.204 C  
HETATM    9  C   UNL     1     -10.991   4.091  73.595  1.00  0.00    -0.345 C  
ENDBRANCH   7   8
ENDBRANCH   6   7
ENDBRANCH   5   6
BRANCH   5  10
HETATM   10  C   UNL     1     -10.002   7.364  69.379  1.00  0.00    -0.176 C  
BRANCH  10  11
HETATM   11  C   UNL     1      -9.229   8.635  69.033  1.00  0.00    -0.145 C  
BRANCH  11  12
HETATM   12  C   UNL     1      -9.893   9.497  67.951  1.00  0.00    -0.156 C  
HETATM   13  H   UNL     1     -11.164   9.230  66.476  1.00  0.00     0.000 HD 
HETATM   14  O   UNL     1     -10.753   8.696  67.146  1.00  0.00    -0.270 OA 
BRANCH  12  15
HETATM   15  C   UNL     1     -10.690  10.672  68.524  1.00  0.00    -0.252 A  
HETATM   16  C   UNL     1     -10.512  11.997  68.060  1.00  0.00    -0.224 A  
HETATM   17  C   UNL     1      -9.730  12.285  66.918  1.00  0.00    -0.217 A  
HETATM   18  C   UNL     1      -9.494  13.589  66.485  1.00  0.00    -0.265 A  
HETATM   19  C   UNL     1     -10.043  14.657  67.182  1.00  0.00    -0.244 A  
HETATM   20  C   UNL     1      -9.781  16.083  66.769  1.00  0.00    -0.239 C  
HETATM   21  C   UNL     1     -10.856  14.385  68.296  1.00  0.00    -0.250 A  
HETATM   22  F   UNL     1      -9.166  16.800  67.751  1.00  0.00    -0.213 F  
HETATM   23  C   UNL     1     -11.128  13.072  68.764  1.00  0.00    -0.311 A  
HETATM   24  F   UNL     1     -10.925  16.759  66.475  1.00  0.00    -0.212 F  
HETATM   25  F   UNL     1      -8.984  16.197  65.670  1.00  0.00    -0.329 F  
HETATM   26  C   UNL     1     -11.973  12.806  69.907  1.00  0.00    -0.368 A  
HETATM   27  C   UNL     1     -12.605  13.816  70.679  1.00  0.00    -0.386 A  
HETATM   28  C   UNL     1     -13.405  13.527  71.786  1.00  0.00    -0.397 A  
HETATM   29  C   UNL     1     -13.623  12.221  72.173  1.00  0.00    -0.348 A  
HETATM   30 CL   UNL     1     -14.121  14.809  72.685  1.00  0.00    -0.435 Cl 
HETATM   31  C   UNL     1     -13.031  11.198  71.440  1.00  0.00    -0.403 A  
HETATM   32  C   UNL     1     -12.206  11.471  70.312  1.00  0.00    -0.415 A  
HETATM   33 CL   UNL     1     -13.334   9.581  72.006  1.00  0.00    -0.496 Cl 
HETATM   34  C   UNL     1     -11.580  10.446  69.591  1.00  0.00    -0.307 A  
ENDBRANCH  12  15
ENDBRANCH  11  12
ENDBRANCH  10  11
ENDBRANCH   5  10
ENDBRANCH   4   5
ENDBRANCH   3   4
ENDBRANCH   2   3
TORSDOF 10
ENDMDL
MODEL      105
REMARK 921   NORMALIZED FREE ENERGY PREDICTED BY IDOCK:   -4.19 KCAL/MOL
REMARK 922        TOTAL FREE ENERGY PREDICTED BY IDOCK:   -9.13 KCAL/MOL
REMARK 923 INTER-LIGAND FREE ENERGY PREDICTED BY IDOCK:   -8.26 KCAL/MOL
REMARK 924 INTRA-LIGAND FREE ENERGY PREDICTED BY IDOCK:   -0.87 KCAL/MOL
REMARK 927      BINDING AFFINITY PREDICTED BY RF-SCORE:    0.00 PKD
ROOT
HETATM    1  C   UNL     1      -8.733   4.581  70.554  1.00  0.00    -0.127 C  
HETATM    2  C   UNL     1      -9.417   4.350  69.215  1.00  0.00    -0.249 C  
ENDROOT
BRANCH   2   3
HETATM    3  C   UNL     1      -8.442   3.719  68.223  1.00  0.00    -0.108 C  
BRANCH   3   4
HETATM    4  C   UNL     1      -8.816   3.951  66.754  1.00  0.00    -0.126 C  
BRANCH   4   5
HETATM    5  N   UNL     1      -7.733   4.247  65.783  1.00  0.00    -0.089 NA 
BRANCH   5   6
HETATM    6  C   UNL     1      -7.765   3.301  64.647  1.00  0.00    -0.078 C  
BRANCH   6   7
HETATM    7  C   UNL     1      -9.061   2.486  64.470  1.00  0.00    -0.128 C  
BRANCH   7   8
HETATM    8  C   UNL     1      -9.660   2.565  63.068  1.00  0.00    -0.094 C  
HETATM    9  C   UNL     1     -10.367   3.901  62.858  1.00  0.00    -0.186 C  
ENDBRANCH   7   8
ENDBRANCH   6   7
ENDBRANCH   5   6
BRANCH   5  10
HETATM   10  C   UNL     1      -7.850   5.649  65.296  1.00  0.00    -0.100 C  
BRANCH  10  11
HETATM   11  C   UNL     1      -8.927   6.428  66.046  1.00  0.00    -0.143 C  
BRANCH  11  12
HETATM   12  C   UNL     1      -8.378   7.517  66.978  1.00  0.00    -0.121 C  
HETATM   13  H   UNL     1      -7.121   9.022  66.851  1.00  0.00     0.000 HD 
HETATM   14  O   UNL     1      -7.461   8.348  66.273  1.00  0.00    -0.086 OA 
BRANCH  12  15
HETATM   15  C   UNL     1      -9.475   8.387  67.595  1.00  0.00    -0.176 A  
HETATM   16  C   UNL     1     -10.051   9.477  66.899  1.00  0.00    -0.295 A  
HETATM   17  C   UNL     1      -9.781   9.708  65.531  1.00  0.00    -0.372 A  
HETATM   18  C   UNL     1     -10.290  10.811  64.847  1.00  0.00    -0.369 A  
HETATM   19  C   UNL     1     -11.097  11.724  65.512  1.00  0.00    -0.336 A  
HETATM   20  C   UNL     1     -11.636  12.949  64.819  1.00  0.00    -0.331 C  
HETATM   21  C   UNL     1     -11.407  11.486  66.862  1.00  0.00    -0.324 A  
HETATM   22  F   UNL     1     -11.221  14.102  65.413  1.00  0.00    -0.303 F  
HETATM   23  C   UNL     1     -10.917  10.370  67.593  1.00  0.00    -0.374 A  
HETATM   24  F   UNL     1     -12.996  12.995  64.825  1.00  0.00    -0.443 F  
HETATM   25  F   UNL     1     -11.263  13.048  63.512  1.00  0.00    -0.438 F  
HETATM   26  C   UNL     1     -11.250  10.133  68.980  1.00  0.00    -0.223 A  
HETATM   27  C   UNL     1     -12.084  10.984  69.752  1.00  0.00    -0.424 A  
HETATM   28  C   UNL     1     -12.376  10.734  71.095  1.00  0.00    -0.393 A  
HETATM   29  C   UNL     1     -11.862   9.622  71.730  1.00  0.00    -0.391 A  
HETATM   30 CL   UNL     1     -13.379  11.824  71.971  1.00  0.00    -0.543 Cl 
HETATM   31  C   UNL     1     -11.047   8.756  71.009  1.00  0.00    -0.270 A  
HETATM   32  C   UNL     1     -10.731   8.996  69.642  1.00  0.00    -0.228 A  
HETATM   33 CL   UNL     1     -10.418   7.393  71.888  1.00  0.00    -0.218 Cl 
HETATM   34  C   UNL     1      -9.883   8.145  68.920  1.00  0.00    -0.178 A  
ENDBRANCH  12  15
ENDBRANCH  11  12
ENDBRANCH  10  11
ENDBRANCH   5  10
ENDBRANCH   4   5
ENDBRANCH   3   4
ENDBRANCH   2   3
TORSDOF 10
ENDMDL
MODEL      106
REMARK 921   NORMALIZED FREE ENERGY PREDICTED BY IDOCK:   -4.17 KCAL/MOL
REMARK 922        TOTAL FREE ENERGY PREDICTED BY IDOCK:   -9.10 KCAL/MOL
REMARK 923 INTER-LIGAND FREE ENERGY PREDICTED BY IDOCK:   -7.64 KCAL/MOL
REMARK 924 INTRA-LIGAND FREE ENERGY PREDICTED BY IDOCK:   -1.46 KCAL/MOL
REMARK 927      BINDING AFFINITY PREDICTED BY RF-SCORE:    0.00 PKD
ROOT
HETATM    1  C   UNL     1     -12.384  11.904  63.467  1.00  0.00    -0.603 C  
HETATM    2  C   UNL     1     -10.882  11.765  63.660  1.00  0.00    -0.508 C  
ENDROOT
BRANCH   2   3
HETATM    3  C   UNL     1     -10.576  11.178  65.038  1.00  0.00    -0.340 C  
BRANCH   3   4
HETATM    4  C   UNL     1     -11.332  11.862  66.183  1.00  0.00    -0.324 C  
BRANCH   4   5
HETATM    5  N   UNL     1     -10.583  12.227  67.412  1.00  0.00    -0.219 NA 
BRANCH   5   6
HETATM    6  C   UNL     1     -10.153  13.641  67.372  1.00  0.00    -0.241 C  
BRANCH   6   7
HETATM    7  C   UNL     1     -11.174  14.652  66.815  1.00  0.00    -0.344 C  
BRANCH   7   8
HETATM    8  C   UNL     1     -10.639  15.513  65.673  1.00  0.00    -0.389 C  
HETATM    9  C   UNL     1     -11.517  15.369  64.433  1.00  0.00    -0.260 C  
ENDBRANCH   7   8
ENDBRANCH   6   7
ENDBRANCH   5   6
BRANCH   5  10
HETATM   10  C   UNL     1     -11.417  11.970  68.617  1.00  0.00    -0.297 C  
BRANCH  10  11
HETATM   11  C   UNL     1     -10.889  10.797  69.440  1.00  0.00    -0.289 C  
BRANCH  11  12
HETATM   12  C   UNL     1      -9.638  10.132  68.850  1.00  0.00    -0.184 C  
HETATM   13  H   UNL     1      -7.693  10.395  68.929  1.00  0.00     0.000 HD 
HETATM   14  O   UNL     1      -8.467  10.808  69.295  1.00  0.00    -0.135 OA 
BRANCH  12  15
HETATM   15  C   UNL     1      -9.527   8.646  69.201  1.00  0.00    -0.157 A  
HETATM   16  C   UNL     1      -9.392   7.647  68.208  1.00  0.00    -0.145 A  
HETATM   17  C   UNL     1      -9.165   7.975  66.851  1.00  0.00    -0.191 A  
HETATM   18  C   UNL     1      -9.092   7.007  65.852  1.00  0.00    -0.048 A  
HETATM   19  C   UNL     1      -9.239   5.665  66.179  1.00  0.00    -0.169 A  
HETATM   20  C   UNL     1      -9.204   4.590  65.123  1.00  0.00    -0.157 C  
HETATM   21  C   UNL     1      -9.424   5.320  67.529  1.00  0.00    -0.136 A  
HETATM   22  F   UNL     1     -10.362   3.876  65.076  1.00  0.00    -0.196 F  
HETATM   23  C   UNL     1      -9.496   6.275  68.579  1.00  0.00    -0.123 A  
HETATM   24  F   UNL     1      -8.214   3.681  65.337  1.00  0.00    -0.094 F  
HETATM   25  F   UNL     1      -9.009   5.067  63.862  1.00  0.00    -0.146 F  
HETATM   26  C   UNL     1      -9.680   5.906  69.964  1.00  0.00    -0.209 A  
HETATM   27  C   UNL     1      -9.817   4.567  70.417  1.00  0.00    -0.302 A  
HETATM   28  C   UNL     1     -10.007   4.243  71.762  1.00  0.00    -0.184 A  
HETATM   29  C   UNL     1     -10.060   5.234  72.721  1.00  0.00    -0.202 A  
HETATM   30 CL   UNL     1     -10.186   2.597  72.231  1.00  0.00    -0.227 Cl 
HETATM   31  C   UNL     1      -9.922   6.559  72.323  1.00  0.00    -0.163 A  
HETATM   32  C   UNL     1      -9.734   6.911  70.957  1.00  0.00    -0.178 A  
HETATM   33 CL   UNL     1     -10.025   7.749  73.589  1.00  0.00    -0.303 Cl 
HETATM   34  C   UNL     1      -9.628   8.247  70.547  1.00  0.00    -0.180 A  
ENDBRANCH  12  15
ENDBRANCH  11  12
ENDBRANCH  10  11
ENDBRANCH   5  10
ENDBRANCH   4   5
ENDBRANCH   3   4
ENDBRANCH   2   3
TORSDOF 10
ENDMDL
MODEL      107
REMARK 921   NORMALIZED FREE ENERGY PREDICTED BY IDOCK:   -4.17 KCAL/MOL
REMARK 922        TOTAL FREE ENERGY PREDICTED BY IDOCK:   -9.10 KCAL/MOL
REMARK 923 INTER-LIGAND FREE ENERGY PREDICTED BY IDOCK:   -7.90 KCAL/MOL
REMARK 924 INTRA-LIGAND FREE ENERGY PREDICTED BY IDOCK:   -1.20 KCAL/MOL
REMARK 927      BINDING AFFINITY PREDICTED BY RF-SCORE:    0.00 PKD
ROOT
HETATM    1  C   UNL     1     -11.724  15.843  72.160  1.00  0.00    -0.586 C  
HETATM    2  C   UNL     1     -12.448  15.448  70.881  1.00  0.00    -0.474 C  
ENDROOT
BRANCH   2   3
HETATM    3  C   UNL     1     -12.517  13.926  70.760  1.00  0.00    -0.445 C  
BRANCH   3   4
HETATM    4  C   UNL     1     -11.459  13.332  69.823  1.00  0.00    -0.158 C  
BRANCH   4   5
HETATM    5  N   UNL     1     -11.910  12.629  68.596  1.00  0.00    -0.315 NA 
BRANCH   5   6
HETATM    6  C   UNL     1     -10.998  12.898  67.463  1.00  0.00    -0.255 C  
BRANCH   6   7
HETATM    7  C   UNL     1     -11.427  12.346  66.091  1.00  0.00    -0.430 C  
BRANCH   7   8
HETATM    8  C   UNL     1     -10.334  11.570  65.361  1.00  0.00    -0.322 C  
HETATM    9  C   UNL     1     -10.734  11.307  63.912  1.00  0.00    -0.451 C  
ENDBRANCH   7   8
ENDBRANCH   6   7
ENDBRANCH   5   6
BRANCH   5  10
HETATM   10  C   UNL     1     -12.008  11.165  68.848  1.00  0.00    -0.298 C  
BRANCH  10  11
HETATM   11  C   UNL     1     -10.859  10.657  69.716  1.00  0.00    -0.317 C  
BRANCH  11  12
HETATM   12  C   UNL     1      -9.746   9.950  68.930  1.00  0.00    -0.175 C  
HETATM   13  H   UNL     1      -7.805  10.142  68.692  1.00  0.00     0.000 HD 
HETATM   14  O   UNL     1      -8.494  10.580  69.180  1.00  0.00    -0.146 OA 
BRANCH  12  15
HETATM   15  C   UNL     1      -9.634   8.459  69.258  1.00  0.00    -0.164 A  
HETATM   16  C   UNL     1      -9.484   7.477  68.250  1.00  0.00    -0.146 A  
HETATM   17  C   UNL     1      -9.243   7.828  66.902  1.00  0.00    -0.187 A  
HETATM   18  C   UNL     1      -9.155   6.877  65.887  1.00  0.00    -0.045 A  
HETATM   19  C   UNL     1      -9.301   5.530  66.190  1.00  0.00    -0.169 A  
HETATM   20  C   UNL     1      -9.251   4.473  65.116  1.00  0.00    -0.157 C  
HETATM   21  C   UNL     1      -9.501   5.162  67.531  1.00  0.00    -0.146 A  
HETATM   22  F   UNL     1     -10.407   3.756  65.044  1.00  0.00    -0.182 F  
HETATM   23  C   UNL     1      -9.588   6.099  68.596  1.00  0.00    -0.138 A  
HETATM   24  F   UNL     1      -8.261   3.563  65.327  1.00  0.00    -0.094 F  
HETATM   25  F   UNL     1      -9.043   4.971  63.866  1.00  0.00    -0.134 F  
HETATM   26  C   UNL     1      -9.786   5.706  69.973  1.00  0.00    -0.247 A  
HETATM   27  C   UNL     1      -9.924   4.359  70.402  1.00  0.00    -0.253 A  
HETATM   28  C   UNL     1     -10.129   4.012  71.739  1.00  0.00    -0.129 A  
HETATM   29  C   UNL     1     -10.196   4.987  72.714  1.00  0.00    -0.226 A  
HETATM   30 CL   UNL     1     -10.307   2.358  72.178  1.00  0.00    -0.176 Cl 
HETATM   31  C   UNL     1     -10.057   6.319  72.340  1.00  0.00    -0.177 A  
HETATM   32  C   UNL     1      -9.855   6.694  70.982  1.00  0.00    -0.196 A  
HETATM   33 CL   UNL     1     -10.179   7.487  73.624  1.00  0.00    -0.378 Cl 
HETATM   34  C   UNL     1      -9.749   8.037  70.596  1.00  0.00    -0.180 A  
ENDBRANCH  12  15
ENDBRANCH  11  12
ENDBRANCH  10  11
ENDBRANCH   5  10
ENDBRANCH   4   5
ENDBRANCH   3   4
ENDBRANCH   2   3
TORSDOF 10
ENDMDL
MODEL      108
REMARK 921   NORMALIZED FREE ENERGY PREDICTED BY IDOCK:   -4.12 KCAL/MOL
REMARK 922        TOTAL FREE ENERGY PREDICTED BY IDOCK:   -9.03 KCAL/MOL
REMARK 923 INTER-LIGAND FREE ENERGY PREDICTED BY IDOCK:   -7.59 KCAL/MOL
REMARK 924 INTRA-LIGAND FREE ENERGY PREDICTED BY IDOCK:   -1.43 KCAL/MOL
REMARK 927      BINDING AFFINITY PREDICTED BY RF-SCORE:    0.00 PKD
ROOT
HETATM    1  C   UNL     1     -10.709   6.157  66.861  1.00  0.00    -0.413 C  
HETATM    2  C   UNL     1     -10.616   7.049  68.091  1.00  0.00    -0.250 C  
ENDROOT
BRANCH   2   3
HETATM    3  C   UNL     1     -10.262   8.478  67.684  1.00  0.00    -0.297 C  
BRANCH   3   4
HETATM    4  C   UNL     1     -10.731   9.540  68.685  1.00  0.00    -0.184 C  
BRANCH   4   5
HETATM    5  N   UNL     1      -9.818   9.927  69.790  1.00  0.00    -0.226 NA 
BRANCH   5   6
HETATM    6  C   UNL     1     -10.219   9.282  71.060  1.00  0.00    -0.314 C  
BRANCH   6   7
HETATM    7  C   UNL     1     -11.629   8.662  71.098  1.00  0.00    -0.330 C  
BRANCH   7   8
HETATM    8  C   UNL     1     -12.650   9.485  71.880  1.00  0.00    -0.479 C  
HETATM    9  C   UNL     1     -13.963   8.720  72.021  1.00  0.00    -0.511 C  
ENDBRANCH   7   8
ENDBRANCH   6   7
ENDBRANCH   5   6
BRANCH   5  10
HETATM   10  C   UNL     1      -8.415   9.571  69.446  1.00  0.00    -0.146 C  
BRANCH  10  11
HETATM   11  C   UNL     1      -7.474  10.767  69.570  1.00  0.00    -0.113 C  
BRANCH  11  12
HETATM   12  C   UNL     1      -6.796  11.169  68.254  1.00  0.00    -0.068 C  
HETATM   13  H   UNL     1      -6.205  10.276  66.606  1.00  0.00     0.000 HD 
HETATM   14  O   UNL     1      -6.625  10.027  67.421  1.00  0.00    -0.067 OA 
BRANCH  12  15
HETATM   15  C   UNL     1      -7.570  12.242  67.484  1.00  0.00    -0.155 A  
HETATM   16  C   UNL     1      -7.358  13.624  67.704  1.00  0.00    -0.185 A  
HETATM   17  C   UNL     1      -6.293  14.093  68.507  1.00  0.00    -0.093 A  
HETATM   18  C   UNL     1      -6.108  15.447  68.784  1.00  0.00    -0.098 A  
HETATM   19  C   UNL     1      -6.985  16.385  68.258  1.00  0.00    -0.138 A  
HETATM   20  C   UNL     1      -6.842  17.854  68.564  1.00  0.00    -0.236 C  
HETATM   21  C   UNL     1      -8.025  15.938  67.424  1.00  0.00    -0.187 A  
HETATM   22  F   UNL     1      -7.942  18.361  69.187  1.00  0.00    -0.266 F  
HETATM   23  C   UNL     1      -8.243  14.570  67.110  1.00  0.00    -0.214 A  
HETATM   24  F   UNL     1      -6.669  18.606  67.443  1.00  0.00    -0.195 F  
HETATM   25  F   UNL     1      -5.787  18.144  69.377  1.00  0.00    -0.195 F  
HETATM   26  C   UNL     1      -9.312  14.124  66.245  1.00  0.00    -0.215 A  
HETATM   27  C   UNL     1     -10.252  14.995  65.632  1.00  0.00    -0.386 A  
HETATM   28  C   UNL     1     -11.283  14.532  64.812  1.00  0.00    -0.390 A  
HETATM   29  C   UNL     1     -11.422  13.183  64.553  1.00  0.00    -0.390 A  
HETATM   30 CL   UNL     1     -12.396  15.648  64.122  1.00  0.00    -0.113 Cl 
HETATM   31  C   UNL     1     -10.518  12.295  65.125  1.00  0.00    -0.288 A  
HETATM   32  C   UNL     1      -9.464  12.745  65.970  1.00  0.00    -0.127 A  
HETATM   33 CL   UNL     1     -10.776  10.611  64.771  1.00  0.00    -0.196 Cl 
HETATM   34  C   UNL     1      -8.571  11.851  66.576  1.00  0.00    -0.126 A  
ENDBRANCH  12  15
ENDBRANCH  11  12
ENDBRANCH  10  11
ENDBRANCH   5  10
ENDBRANCH   4   5
ENDBRANCH   3   4
ENDBRANCH   2   3
TORSDOF 10
ENDMDL
MODEL      109
REMARK 921   NORMALIZED FREE ENERGY PREDICTED BY IDOCK:   -4.12 KCAL/MOL
REMARK 922        TOTAL FREE ENERGY PREDICTED BY IDOCK:   -9.02 KCAL/MOL
REMARK 923 INTER-LIGAND FREE ENERGY PREDICTED BY IDOCK:   -6.79 KCAL/MOL
REMARK 924 INTRA-LIGAND FREE ENERGY PREDICTED BY IDOCK:   -2.23 KCAL/MOL
REMARK 927      BINDING AFFINITY PREDICTED BY RF-SCORE:    0.00 PKD
ROOT
HETATM    1  C   UNL     1     -12.368  10.925  69.528  1.00  0.00    -0.241 C  
HETATM    2  C   UNL     1     -11.421  11.987  70.064  1.00  0.00    -0.183 C  
ENDROOT
BRANCH   2   3
HETATM    3  C   UNL     1     -12.027  13.378  69.884  1.00  0.00    -0.408 C  
BRANCH   3   4
HETATM    4  C   UNL     1     -11.086  14.379  69.202  1.00  0.00    -0.265 C  
BRANCH   4   5
HETATM    5  N   UNL     1     -11.677  15.558  68.519  1.00  0.00    -0.367 NA 
BRANCH   5   6
HETATM    6  C   UNL     1     -10.984  16.803  68.915  1.00  0.00    -0.259 C  
BRANCH   6   7
HETATM    7  C   UNL     1     -10.265  17.574  67.792  1.00  0.00    -0.349 C  
BRANCH   7   8
HETATM    8  C   UNL     1      -8.745  17.606  67.931  1.00  0.00    -0.245 C  
HETATM    9  C   UNL     1      -8.309  18.765  68.823  1.00  0.00    -0.322 C  
ENDBRANCH   7   8
ENDBRANCH   6   7
ENDBRANCH   5   6
BRANCH   5  10
HETATM   10  C   UNL     1     -11.620  15.378  67.043  1.00  0.00    -0.021 C  
BRANCH  10  11
HETATM   11  C   UNL     1     -11.374  13.923  66.652  1.00  0.00    -0.342 C  
BRANCH  11  12
HETATM   12  C   UNL     1      -9.985  13.663  66.052  1.00  0.00    -0.302 C  
HETATM   13  H   UNL     1      -8.426  14.730  65.513  1.00  0.00     0.000 HD 
HETATM   14  O   UNL     1      -9.286  14.891  65.885  1.00  0.00    -0.254 OA 
BRANCH  12  15
HETATM   15  C   UNL     1      -9.136  12.710  66.896  1.00  0.00    -0.218 A  
HETATM   16  C   UNL     1      -9.427  11.328  66.991  1.00  0.00    -0.186 A  
HETATM   17  C   UNL     1     -10.402  10.716  66.170  1.00  0.00    -0.291 A  
HETATM   18  C   UNL     1     -10.745   9.371  66.295  1.00  0.00     0.195 A  
HETATM   19  C   UNL     1     -10.115   8.584  67.249  1.00  0.00    -0.317 A  
HETATM   20  C   UNL     1     -10.483   7.135  67.441  1.00  0.00    -0.284 C  
HETATM   21  C   UNL     1      -9.114   9.167  68.046  1.00  0.00    -0.136 A  
HETATM   22  F   UNL     1     -10.940   6.881  68.699  1.00  0.00    -0.226 F  
HETATM   23  C   UNL     1      -8.729  10.532  67.945  1.00  0.00    -0.126 A  
HETATM   24  F   UNL     1      -9.426   6.299  67.252  1.00  0.00    -0.117 F  
HETATM   25  F   UNL     1     -11.460   6.702  66.596  1.00  0.00    -0.410 F  
HETATM   26  C   UNL     1      -7.693  11.117  68.766  1.00  0.00    -0.136 A  
HETATM   27  C   UNL     1      -6.966  10.403  69.755  1.00  0.00    -0.138 A  
HETATM   28  C   UNL     1      -5.980  11.001  70.542  1.00  0.00    -0.116 A  
HETATM   29  C   UNL     1      -5.663  12.334  70.376  1.00  0.00    -0.169 A  
HETATM   30 CL   UNL     1      -5.157  10.075  71.736  1.00  0.00    -0.076 Cl 
HETATM   31  C   UNL     1      -6.343  13.070  69.412  1.00  0.00    -0.111 A  
HETATM   32  C   UNL     1      -7.357  12.481  68.605  1.00  0.00    -0.099 A  
HETATM   33 CL   UNL     1      -5.903  14.748  69.283  1.00  0.00    -0.099 Cl 
HETATM   34  C   UNL     1      -8.069  13.226  67.655  1.00  0.00    -0.174 A  
ENDBRANCH  12  15
ENDBRANCH  11  12
ENDBRANCH  10  11
ENDBRANCH   5  10
ENDBRANCH   4   5
ENDBRANCH   3   4
ENDBRANCH   2   3
TORSDOF 10
ENDMDL
MODEL      110
REMARK 921   NORMALIZED FREE ENERGY PREDICTED BY IDOCK:   -4.09 KCAL/MOL
REMARK 922        TOTAL FREE ENERGY PREDICTED BY IDOCK:   -8.98 KCAL/MOL
REMARK 923 INTER-LIGAND FREE ENERGY PREDICTED BY IDOCK:   -8.22 KCAL/MOL
REMARK 924 INTRA-LIGAND FREE ENERGY PREDICTED BY IDOCK:   -0.76 KCAL/MOL
REMARK 927      BINDING AFFINITY PREDICTED BY RF-SCORE:    0.00 PKD
ROOT
HETATM    1  C   UNL     1      -8.271   2.939  70.140  1.00  0.00    -0.068 C  
HETATM    2  C   UNL     1      -9.307   3.595  69.238  1.00  0.00    -0.245 C  
ENDROOT
BRANCH   2   3
HETATM    3  C   UNL     1      -9.387   2.859  67.901  1.00  0.00    -0.256 C  
BRANCH   3   4
HETATM    4  C   UNL     1      -9.575   3.787  66.695  1.00  0.00    -0.174 C  
BRANCH   4   5
HETATM    5  N   UNL     1      -8.372   4.381  66.061  1.00  0.00    -0.113 NA 
BRANCH   5   6
HETATM    6  C   UNL     1      -8.043   3.691  64.795  1.00  0.00    -0.090 C  
BRANCH   6   7
HETATM    7  C   UNL     1      -6.622   3.105  64.682  1.00  0.00    -0.035 C  
BRANCH   7   8
HETATM    8  C   UNL     1      -5.788   3.246  65.953  1.00  0.00    -0.019 C  
HETATM    9  C   UNL     1      -5.947   2.016  66.842  1.00  0.00    -0.019 C  
ENDBRANCH   7   8
ENDBRANCH   6   7
ENDBRANCH   5   6
BRANCH   5  10
HETATM   10  C   UNL     1      -8.583   5.835  65.821  1.00  0.00    -0.149 C  
BRANCH  10  11
HETATM   11  C   UNL     1      -9.682   6.408  66.712  1.00  0.00    -0.199 C  
BRANCH  11  12
HETATM   12  C   UNL     1      -9.163   7.273  67.869  1.00  0.00    -0.131 C  
HETATM   13  H   UNL     1      -7.551   8.323  68.272  1.00  0.00     0.000 HD 
HETATM   14  O   UNL     1      -7.873   7.788  67.555  1.00  0.00    -0.117 OA 
BRANCH  12  15
HETATM   15  C   UNL     1     -10.098   8.434  68.216  1.00  0.00    -0.232 A  
HETATM   16  C   UNL     1     -10.372   9.477  67.300  1.00  0.00    -0.319 A  
HETATM   17  C   UNL     1      -9.951   9.412  65.952  1.00  0.00    -0.327 A  
HETATM   18  C   UNL     1     -10.158  10.457  65.054  1.00  0.00    -0.379 A  
HETATM   19  C   UNL     1     -10.806  11.610  65.475  1.00  0.00    -0.334 A  
HETATM   20  C   UNL     1     -11.016  12.778  64.545  1.00  0.00    -0.341 C  
HETATM   21  C   UNL     1     -11.267  11.675  66.801  1.00  0.00    -0.371 A  
HETATM   22  F   UNL     1     -10.417  13.914  64.999  1.00  0.00    -0.320 F  
HETATM   23  C   UNL     1     -11.084  10.629  67.745  1.00  0.00    -0.385 A  
HETATM   24  F   UNL     1     -12.332  13.089  64.388  1.00  0.00    -0.407 F  
HETATM   25  F   UNL     1     -10.527  12.574  63.290  1.00  0.00    -0.419 F  
HETATM   26  C   UNL     1     -11.570  10.705  69.104  1.00  0.00    -0.342 A  
HETATM   27  C   UNL     1     -12.266  11.823  69.637  1.00  0.00    -0.248 A  
HETATM   28  C   UNL     1     -12.711  11.872  70.960  1.00  0.00    -0.258 A  
HETATM   29  C   UNL     1     -12.496  10.808  71.812  1.00  0.00    -0.283 A  
HETATM   30 CL   UNL     1     -13.529  13.271  71.538  1.00  0.00    -0.327 Cl 
HETATM   31  C   UNL     1     -11.826   9.689  71.330  1.00  0.00    -0.406 A  
HETATM   32  C   UNL     1     -11.358   9.621  69.988  1.00  0.00    -0.239 A  
HETATM   33 CL   UNL     1     -11.572   8.402  72.474  1.00  0.00    -0.450 Cl 
HETATM   34  C   UNL     1     -10.653   8.510  69.507  1.00  0.00    -0.215 A  
ENDBRANCH  12  15
ENDBRANCH  11  12
ENDBRANCH  10  11
ENDBRANCH   5  10
ENDBRANCH   4   5
ENDBRANCH   3   4
ENDBRANCH   2   3
TORSDOF 10
ENDMDL
MODEL      111
REMARK 921   NORMALIZED FREE ENERGY PREDICTED BY IDOCK:   -4.01 KCAL/MOL
REMARK 922        TOTAL FREE ENERGY PREDICTED BY IDOCK:   -8.85 KCAL/MOL
REMARK 923 INTER-LIGAND FREE ENERGY PREDICTED BY IDOCK:   -7.78 KCAL/MOL
REMARK 924 INTRA-LIGAND FREE ENERGY PREDICTED BY IDOCK:   -1.07 KCAL/MOL
REMARK 927      BINDING AFFINITY PREDICTED BY RF-SCORE:    0.00 PKD
ROOT
HETATM    1  C   UNL     1     -12.481  12.140  63.663  1.00  0.00    -0.658 C  
HETATM    2  C   UNL     1     -11.008  11.800  63.490  1.00  0.00    -0.499 C  
ENDROOT
BRANCH   2   3
HETATM    3  C   UNL     1     -10.530  10.912  64.637  1.00  0.00    -0.384 C  
BRANCH   3   4
HETATM    4  C   UNL     1      -9.267  11.429  65.335  1.00  0.00    -0.151 C  
BRANCH   4   5
HETATM    5  N   UNL     1      -9.250  11.493  66.818  1.00  0.00    -0.176 NA 
BRANCH   5   6
HETATM    6  C   UNL     1     -10.495  10.934  67.388  1.00  0.00    -0.224 C  
BRANCH   6   7
HETATM    7  C   UNL     1     -11.343  11.888  68.251  1.00  0.00    -0.335 C  
BRANCH   7   8
HETATM    8  C   UNL     1     -11.830  13.132  67.511  1.00  0.00    -0.409 C  
HETATM    9  C   UNL     1     -11.642  14.379  68.370  1.00  0.00    -0.351 C  
ENDBRANCH   7   8
ENDBRANCH   6   7
ENDBRANCH   5   6
BRANCH   5  10
HETATM   10  C   UNL     1      -8.064  10.769  67.350  1.00  0.00    -0.112 C  
BRANCH  10  11
HETATM   11  C   UNL     1      -7.938  10.911  68.865  1.00  0.00    -0.146 C  
BRANCH  11  12
HETATM   12  C   UNL     1      -7.322   9.689  69.560  1.00  0.00    -0.084 C  
HETATM   13  H   UNL     1      -6.887   9.143  71.396  1.00  0.00     0.000 HD 
HETATM   14  O   UNL     1      -7.268   9.900  70.967  1.00  0.00    -0.330 OA 
BRANCH  12  15
HETATM   15  C   UNL     1      -8.080   8.391  69.273  1.00  0.00    -0.115 A  
HETATM   16  C   UNL     1      -9.369   8.141  69.803  1.00  0.00    -0.159 A  
HETATM   17  C   UNL     1     -10.105   9.148  70.470  1.00  0.00    -0.288 A  
HETATM   18  C   UNL     1     -11.348   8.902  71.051  1.00  0.00    -0.350 A  
HETATM   19  C   UNL     1     -11.903   7.632  70.980  1.00  0.00    -0.306 A  
HETATM   20  C   UNL     1     -13.227   7.315  71.628  1.00  0.00    -0.366 C  
HETATM   21  C   UNL     1     -11.203   6.630  70.285  1.00  0.00    -0.408 A  
HETATM   22  F   UNL     1     -13.119   6.339  72.572  1.00  0.00    -0.095 F  
HETATM   23  C   UNL     1      -9.939   6.842  69.671  1.00  0.00    -0.184 A  
HETATM   24  F   UNL     1     -14.152   6.869  70.734  1.00  0.00    -0.244 F  
HETATM   25  F   UNL     1     -13.797   8.380  72.258  1.00  0.00    -0.353 F  
HETATM   26  C   UNL     1      -9.232   5.805  68.954  1.00  0.00    -0.127 A  
HETATM   27  C   UNL     1      -9.715   4.479  68.796  1.00  0.00    -0.213 A  
HETATM   28  C   UNL     1      -9.001   3.495  68.108  1.00  0.00    -0.134 A  
HETATM   29  C   UNL     1      -7.779   3.786  67.536  1.00  0.00    -0.078 A  
HETATM   30 CL   UNL     1      -9.643   1.904  67.977  1.00  0.00    -0.198 Cl 
HETATM   31  C   UNL     1      -7.272   5.075  67.658  1.00  0.00    -0.070 A  
HETATM   32  C   UNL     1      -7.980   6.090  68.361  1.00  0.00    -0.107 A  
HETATM   33 CL   UNL     1      -5.716   5.353  66.931  1.00  0.00    -0.017 Cl 
HETATM   34  C   UNL     1      -7.458   7.381  68.516  1.00  0.00    -0.105 A  
ENDBRANCH  12  15
ENDBRANCH  11  12
ENDBRANCH  10  11
ENDBRANCH   5  10
ENDBRANCH   4   5
ENDBRANCH   3   4
ENDBRANCH   2   3
TORSDOF 10
ENDMDL
MODEL      112
REMARK 921   NORMALIZED FREE ENERGY PREDICTED BY IDOCK:   -4.00 KCAL/MOL
REMARK 922        TOTAL FREE ENERGY PREDICTED BY IDOCK:   -8.83 KCAL/MOL
REMARK 923 INTER-LIGAND FREE ENERGY PREDICTED BY IDOCK:   -7.53 KCAL/MOL
REMARK 924 INTRA-LIGAND FREE ENERGY PREDICTED BY IDOCK:   -1.30 KCAL/MOL
REMARK 927      BINDING AFFINITY PREDICTED BY RF-SCORE:    0.00 PKD
ROOT
HETATM    1  C   UNL     1      -5.538   6.183  63.591  1.00  0.00    -0.018 C  
HETATM    2  C   UNL     1      -5.817   7.661  63.363  1.00  0.00    -0.053 C  
ENDROOT
BRANCH   2   3
HETATM    3  C   UNL     1      -6.933   7.837  62.334  1.00  0.00    -0.081 C  
BRANCH   3   4
HETATM    4  C   UNL     1      -8.273   8.267  62.943  1.00  0.00    -0.134 C  
BRANCH   4   5
HETATM    5  N   UNL     1      -8.342   9.559  63.670  1.00  0.00    -0.163 NA 
BRANCH   5   6
HETATM    6  C   UNL     1      -9.502  10.360  63.222  1.00  0.00    -0.323 C  
BRANCH   6   7
HETATM    7  C   UNL     1     -10.445  10.876  64.326  1.00  0.00    -0.405 C  
BRANCH   7   8
HETATM    8  C   UNL     1     -11.034  12.257  64.047  1.00  0.00    -0.438 C  
HETATM    9  C   UNL     1     -12.348  12.445  64.800  1.00  0.00    -0.497 C  
ENDBRANCH   7   8
ENDBRANCH   6   7
ENDBRANCH   5   6
BRANCH   5  10
HETATM   10  C   UNL     1      -8.411   9.319  65.138  1.00  0.00    -0.150 C  
BRANCH  10  11
HETATM   11  C   UNL     1      -7.306  10.057  65.891  1.00  0.00    -0.115 C  
BRANCH  11  12
HETATM   12  C   UNL     1      -7.256   9.744  67.392  1.00  0.00    -0.086 C  
HETATM   13  H   UNL     1      -6.276  10.394  68.967  1.00  0.00     0.000 HD 
HETATM   14  O   UNL     1      -6.308  10.588  68.037  1.00  0.00    -0.058 OA 
BRANCH  12  15
HETATM   15  C   UNL     1      -8.614   9.893  68.082  1.00  0.00    -0.118 A  
HETATM   16  C   UNL     1      -9.342  11.106  68.054  1.00  0.00    -0.166 A  
HETATM   17  C   UNL     1      -8.948  12.189  67.234  1.00  0.00    -0.184 A  
HETATM   18  C   UNL     1      -9.617  13.412  67.241  1.00  0.00    -0.234 A  
HETATM   19  C   UNL     1     -10.716  13.592  68.070  1.00  0.00    -0.258 A  
HETATM   20  C   UNL     1     -11.443  14.911  68.136  1.00  0.00    -0.330 C  
HETATM   21  C   UNL     1     -11.144  12.512  68.861  1.00  0.00    -0.309 A  
HETATM   22  F   UNL     1     -11.423  15.450  69.386  1.00  0.00    -0.249 F  
HETATM   23  C   UNL     1     -10.496  11.248  68.877  1.00  0.00    -0.232 A  
HETATM   24  F   UNL     1     -12.758  14.798  67.799  1.00  0.00     0.010 F  
HETATM   25  F   UNL     1     -10.926  15.864  67.311  1.00  0.00    -0.317 F  
HETATM   26  C   UNL     1     -10.952  10.143  69.690  1.00  0.00    -0.305 A  
HETATM   27  C   UNL     1     -12.076  10.205  70.556  1.00  0.00    -0.380 A  
HETATM   28  C   UNL     1     -12.483   9.123  71.340  1.00  0.00    -0.328 A  
HETATM   29  C   UNL     1     -11.799   7.926  71.292  1.00  0.00    -0.321 A  
HETATM   30 CL   UNL     1     -13.844   9.283  72.381  1.00  0.00    -0.512 Cl 
HETATM   31  C   UNL     1     -10.697   7.817  70.450  1.00  0.00    -0.236 A  
HETATM   32  C   UNL     1     -10.261   8.909  69.649  1.00  0.00    -0.209 A  
HETATM   33 CL   UNL     1      -9.874   6.284  70.467  1.00  0.00    -0.198 Cl 
HETATM   34  C   UNL     1      -9.131   8.815  68.825  1.00  0.00    -0.138 A  
ENDBRANCH  12  15
ENDBRANCH  11  12
ENDBRANCH  10  11
ENDBRANCH   5  10
ENDBRANCH   4   5
ENDBRANCH   3   4
ENDBRANCH   2   3
TORSDOF 10
ENDMDL
MODEL      113
REMARK 921   NORMALIZED FREE ENERGY PREDICTED BY IDOCK:   -3.99 KCAL/MOL
REMARK 922        TOTAL FREE ENERGY PREDICTED BY IDOCK:   -8.82 KCAL/MOL
REMARK 923 INTER-LIGAND FREE ENERGY PREDICTED BY IDOCK:   -7.42 KCAL/MOL
REMARK 924 INTRA-LIGAND FREE ENERGY PREDICTED BY IDOCK:   -1.40 KCAL/MOL
REMARK 927      BINDING AFFINITY PREDICTED BY RF-SCORE:    0.00 PKD
ROOT
HETATM    1  C   UNL     1      -8.718  17.348  68.571  1.00  0.00    -0.277 C  
HETATM    2  C   UNL     1      -7.219  17.593  68.482  1.00  0.00    -0.242 C  
ENDROOT
BRANCH   2   3
HETATM    3  C   UNL     1      -6.453  16.319  68.835  1.00  0.00    -0.141 C  
BRANCH   3   4
HETATM    4  C   UNL     1      -7.320  15.055  68.838  1.00  0.00    -0.139 C  
BRANCH   4   5
HETATM    5  N   UNL     1      -6.890  13.896  68.017  1.00  0.00    -0.125 NA 
BRANCH   5   6
HETATM    6  C   UNL     1      -5.894  13.074  68.739  1.00  0.00    -0.074 C  
BRANCH   6   7
HETATM    7  C   UNL     1      -6.395  11.730  69.303  1.00  0.00    -0.103 C  
BRANCH   7   8
HETATM    8  C   UNL     1      -5.644  10.512  68.770  1.00  0.00    -0.041 C  
HETATM    9  C   UNL     1      -6.582   9.315  68.641  1.00  0.00    -0.053 C  
ENDBRANCH   7   8
ENDBRANCH   6   7
ENDBRANCH   5   6
BRANCH   5  10
HETATM   10  C   UNL     1      -8.068  13.070  67.637  1.00  0.00    -0.172 C  
BRANCH  10  11
HETATM   11  C   UNL     1      -9.279  13.930  67.282  1.00  0.00    -0.235 C  
BRANCH  11  12
HETATM   12  C   UNL     1     -10.629  13.272  67.601  1.00  0.00    -0.236 C  
HETATM   13  H   UNL     1     -12.455  13.305  66.875  1.00  0.00     0.000 HD 
HETATM   14  O   UNL     1     -11.619  13.712  66.677  1.00  0.00    -0.332 OA 
BRANCH  12  15
HETATM   15  C   UNL     1     -10.570  11.743  67.586  1.00  0.00    -0.237 A  
HETATM   16  C   UNL     1     -11.036  10.962  68.671  1.00  0.00    -0.305 A  
HETATM   17  C   UNL     1     -11.752  11.538  69.746  1.00  0.00    -0.426 A  
HETATM   18  C   UNL     1     -12.163  10.795  70.851  1.00  0.00    -0.487 A  
HETATM   19  C   UNL     1     -11.876   9.438  70.915  1.00  0.00    -0.365 A  
HETATM   20  C   UNL     1     -12.270   8.607  72.110  1.00  0.00    -0.386 C  
HETATM   21  C   UNL     1     -11.201   8.843  69.836  1.00  0.00    -0.076 A  
HETATM   22  F   UNL     1     -11.193   8.044  72.725  1.00  0.00    -0.377 F  
HETATM   23  C   UNL     1     -10.772   9.562  68.688  1.00  0.00    -0.218 A  
HETATM   24  F   UNL     1     -13.092   7.574  71.777  1.00  0.00    -0.332 F  
HETATM   25  F   UNL     1     -12.925   9.311  73.075  1.00  0.00    -0.362 F  
HETATM   26  C   UNL     1     -10.086   8.936  67.581  1.00  0.00    -0.274 A  
HETATM   27  C   UNL     1      -9.762   7.554  67.527  1.00  0.00    -0.190 A  
HETATM   28  C   UNL     1      -9.084   6.982  66.448  1.00  0.00    -0.160 A  
HETATM   29  C   UNL     1      -8.706   7.753  65.368  1.00  0.00    -0.051 A  
HETATM   30 CL   UNL     1      -8.709   5.302  66.466  1.00  0.00    -0.115 Cl 
HETATM   31  C   UNL     1      -9.011   9.109  65.374  1.00  0.00    -0.207 A  
HETATM   32  C   UNL     1      -9.694   9.714  66.466  1.00  0.00    -0.272 A  
HETATM   33 CL   UNL     1      -8.479  10.016  63.988  1.00  0.00    -0.164 Cl 
HETATM   34  C   UNL     1      -9.974  11.087  66.493  1.00  0.00    -0.253 A  
ENDBRANCH  12  15
ENDBRANCH  11  12
ENDBRANCH  10  11
ENDBRANCH   5  10
ENDBRANCH   4   5
ENDBRANCH   3   4
ENDBRANCH   2   3
TORSDOF 10
ENDMDL
MODEL      114
REMARK 921   NORMALIZED FREE ENERGY PREDICTED BY IDOCK:   -3.97 KCAL/MOL
REMARK 922        TOTAL FREE ENERGY PREDICTED BY IDOCK:   -8.78 KCAL/MOL
REMARK 923 INTER-LIGAND FREE ENERGY PREDICTED BY IDOCK:   -7.44 KCAL/MOL
REMARK 924 INTRA-LIGAND FREE ENERGY PREDICTED BY IDOCK:   -1.34 KCAL/MOL
REMARK 927      BINDING AFFINITY PREDICTED BY RF-SCORE:    0.00 PKD
ROOT
HETATM    1  C   UNL     1     -10.088  16.785  65.709  1.00  0.00    -0.276 C  
HETATM    2  C   UNL     1     -10.323  15.287  65.596  1.00  0.00    -0.389 C  
ENDROOT
BRANCH   2   3
HETATM    3  C   UNL     1     -11.636  14.904  66.277  1.00  0.00    -0.233 C  
BRANCH   3   4
HETATM    4  C   UNL     1     -12.485  13.913  65.471  1.00  0.00    -0.511 C  
BRANCH   4   5
HETATM    5  N   UNL     1     -12.341  12.462  65.750  1.00  0.00    -0.603 NA 
BRANCH   5   6
HETATM    6  C   UNL     1     -11.935  11.726  64.533  1.00  0.00    -0.115 C  
BRANCH   6   7
HETATM    7  C   UNL     1     -10.932  12.436  63.604  1.00  0.00    -0.525 C  
BRANCH   7   8
HETATM    8  C   UNL     1      -9.543  11.803  63.587  1.00  0.00    -0.210 C  
HETATM    9  C   UNL     1      -9.612  10.364  63.085  1.00  0.00    -0.346 C  
ENDBRANCH   7   8
ENDBRANCH   6   7
ENDBRANCH   5   6
BRANCH   5  10
HETATM   10  C   UNL     1     -11.354  12.245  66.843  1.00  0.00    -0.333 C  
BRANCH  10  11
HETATM   11  C   UNL     1     -11.235  10.770  67.221  1.00  0.00    -0.272 C  
BRANCH  11  12
HETATM   12  C   UNL     1      -9.828  10.187  67.028  1.00  0.00    -0.191 C  
HETATM   13  H   UNL     1      -7.974  10.770  67.319  1.00  0.00     0.000 HD 
HETATM   14  O   UNL     1      -8.845  11.131  67.439  1.00  0.00    -0.138 OA 
BRANCH  12  15
HETATM   15  C   UNL     1      -9.614   8.875  67.787  1.00  0.00    -0.176 A  
HETATM   16  C   UNL     1      -9.129   7.708  67.149  1.00  0.00    -0.146 A  
HETATM   17  C   UNL     1      -8.640   7.737  65.823  1.00  0.00    -0.162 A  
HETATM   18  C   UNL     1      -8.218   6.586  65.159  1.00  0.00    -0.126 A  
HETATM   19  C   UNL     1      -8.265   5.359  65.806  1.00  0.00    -0.121 A  
HETATM   20  C   UNL     1      -7.853   4.087  65.111  1.00  0.00    -0.089 C  
HETATM   21  C   UNL     1      -8.711   5.320  67.139  1.00  0.00    -0.107 A  
HETATM   22  F   UNL     1      -8.870   3.183  65.043  1.00  0.00    -0.109 F  
HETATM   23  C   UNL     1      -9.141   6.470  67.854  1.00  0.00    -0.113 A  
HETATM   24  F   UNL     1      -6.832   3.451  65.749  1.00  0.00    -0.047 F  
HETATM   25  F   UNL     1      -7.435   4.274  63.828  1.00  0.00    -0.052 F  
HETATM   26  C   UNL     1      -9.590   6.417  69.227  1.00  0.00    -0.145 A  
HETATM   27  C   UNL     1      -9.657   5.224  69.995  1.00  0.00    -0.238 A  
HETATM   28  C   UNL     1     -10.110   5.204  71.316  1.00  0.00    -0.210 A  
HETATM   29  C   UNL     1     -10.506   6.369  71.940  1.00  0.00    -0.239 A  
HETATM   30 CL   UNL     1     -10.182   3.715  72.175  1.00  0.00    -0.213 Cl 
HETATM   31  C   UNL     1     -10.448   7.563  71.228  1.00  0.00    -0.207 A  
HETATM   32  C   UNL     1      -9.998   7.605  69.879  1.00  0.00    -0.190 A  
HETATM   33 CL   UNL     1     -10.989   8.983  72.077  1.00  0.00    -0.417 Cl 
HETATM   34  C   UNL     1      -9.970   8.799  69.147  1.00  0.00    -0.193 A  
ENDBRANCH  12  15
ENDBRANCH  11  12
ENDBRANCH  10  11
ENDBRANCH   5  10
ENDBRANCH   4   5
ENDBRANCH   3   4
ENDBRANCH   2   3
TORSDOF 10
ENDMDL
MODEL      115
REMARK 921   NORMALIZED FREE ENERGY PREDICTED BY IDOCK:   -3.95 KCAL/MOL
REMARK 922        TOTAL FREE ENERGY PREDICTED BY IDOCK:   -8.75 KCAL/MOL
REMARK 923 INTER-LIGAND FREE ENERGY PREDICTED BY IDOCK:   -8.22 KCAL/MOL
REMARK 924 INTRA-LIGAND FREE ENERGY PREDICTED BY IDOCK:   -0.53 KCAL/MOL
REMARK 927      BINDING AFFINITY PREDICTED BY RF-SCORE:    0.00 PKD
ROOT
HETATM    1  C   UNL     1      -5.220   1.823  69.996  1.00  0.00    -0.004 C  
HETATM    2  C   UNL     1      -5.306   3.243  69.456  1.00  0.00    -0.012 C  
ENDROOT
BRANCH   2   3
HETATM    3  C   UNL     1      -6.021   3.254  68.106  1.00  0.00    -0.027 C  
BRANCH   3   4
HETATM    4  C   UNL     1      -7.098   4.338  67.986  1.00  0.00    -0.060 C  
BRANCH   4   5
HETATM    5  N   UNL     1      -8.180   4.157  66.986  1.00  0.00    -0.100 NA 
BRANCH   5   6
HETATM    6  C   UNL     1      -9.465   3.834  67.645  1.00  0.00    -0.185 C  
BRANCH   6   7
HETATM    7  C   UNL     1      -9.403   2.827  68.809  1.00  0.00    -0.234 C  
BRANCH   7   8
HETATM    8  C   UNL     1      -9.323   3.474  70.189  1.00  0.00    -0.244 C  
HETATM    9  C   UNL     1     -10.123   4.773  70.223  1.00  0.00    -0.304 C  
ENDBRANCH   7   8
ENDBRANCH   6   7
ENDBRANCH   5   6
BRANCH   5  10
HETATM   10  C   UNL     1      -8.318   5.381  66.150  1.00  0.00    -0.117 C  
BRANCH  10  11
HETATM   11  C   UNL     1      -9.342   6.356  66.727  1.00  0.00    -0.167 C  
BRANCH  11  12
HETATM   12  C   UNL     1      -8.724   7.530  67.497  1.00  0.00    -0.125 C  
HETATM   13  H   UNL     1      -7.331   8.882  67.188  1.00  0.00     0.000 HD 
HETATM   14  O   UNL     1      -7.714   8.154  66.711  1.00  0.00    -0.092 OA 
BRANCH  12  15
HETATM   15  C   UNL     1      -9.755   8.580  67.919  1.00  0.00    -0.193 A  
HETATM   16  C   UNL     1     -10.194   9.598  67.039  1.00  0.00    -0.308 A  
HETATM   17  C   UNL     1      -9.849   9.593  65.668  1.00  0.00    -0.369 A  
HETATM   18  C   UNL     1     -10.220  10.620  64.802  1.00  0.00    -0.401 A  
HETATM   19  C   UNL     1     -10.961  11.692  65.280  1.00  0.00    -0.327 A  
HETATM   20  C   UNL     1     -11.350  12.841  64.385  1.00  0.00    -0.347 C  
HETATM   21  C   UNL     1     -11.346  11.692  66.632  1.00  0.00    -0.338 A  
HETATM   22  F   UNL     1     -10.849  14.029  64.823  1.00  0.00    -0.339 F  
HETATM   23  C   UNL     1     -10.996  10.661  67.546  1.00  0.00    -0.371 A  
HETATM   24  F   UNL     1     -12.698  13.010  64.311  1.00  0.00    -0.402 F  
HETATM   25  F   UNL     1     -10.917  12.705  63.100  1.00  0.00    -0.473 F  
HETATM   26  C   UNL     1     -11.405  10.669  68.932  1.00  0.00    -0.337 A  
HETATM   27  C   UNL     1     -12.183  11.700  69.524  1.00  0.00    -0.257 A  
HETATM   28  C   UNL     1     -12.551  11.686  70.871  1.00  0.00    -0.313 A  
HETATM   29  C   UNL     1     -12.172  10.642  71.690  1.00  0.00    -0.243 A  
HETATM   30 CL   UNL     1     -13.477  12.982  71.520  1.00  0.00    -0.277 Cl 
HETATM   31  C   UNL     1     -11.417   9.606  71.151  1.00  0.00    -0.384 A  
HETATM   32  C   UNL     1     -11.026   9.605  69.782  1.00  0.00    -0.266 A  
HETATM   33 CL   UNL     1     -10.959   8.342  72.255  1.00  0.00    -0.391 Cl 
HETATM   34  C   UNL     1     -10.236   8.581  69.242  1.00  0.00    -0.211 A  
ENDBRANCH  12  15
ENDBRANCH  11  12
ENDBRANCH  10  11
ENDBRANCH   5  10
ENDBRANCH   4   5
ENDBRANCH   3   4
ENDBRANCH   2   3
TORSDOF 10
ENDMDL
MODEL      116
REMARK 921   NORMALIZED FREE ENERGY PREDICTED BY IDOCK:   -3.92 KCAL/MOL
REMARK 922        TOTAL FREE ENERGY PREDICTED BY IDOCK:   -8.71 KCAL/MOL
REMARK 923 INTER-LIGAND FREE ENERGY PREDICTED BY IDOCK:   -8.30 KCAL/MOL
REMARK 924 INTRA-LIGAND FREE ENERGY PREDICTED BY IDOCK:   -0.41 KCAL/MOL
REMARK 927      BINDING AFFINITY PREDICTED BY RF-SCORE:    0.00 PKD
ROOT
HETATM    1  C   UNL     1     -10.150   5.469  71.311  1.00  0.00    -0.266 C  
HETATM    2  C   UNL     1     -10.630   5.260  69.882  1.00  0.00    -0.292 C  
ENDROOT
BRANCH   2   3
HETATM    3  C   UNL     1      -9.442   5.019  68.954  1.00  0.00    -0.195 C  
BRANCH   3   4
HETATM    4  C   UNL     1      -9.662   5.523  67.523  1.00  0.00    -0.128 C  
BRANCH   4   5
HETATM    5  N   UNL     1      -8.516   6.128  66.798  1.00  0.00    -0.110 NA 
BRANCH   5   6
HETATM    6  C   UNL     1      -7.913   5.161  65.856  1.00  0.00    -0.108 C  
BRANCH   6   7
HETATM    7  C   UNL     1      -8.504   3.738  65.863  1.00  0.00    -0.110 C  
BRANCH   7   8
HETATM    8  C   UNL     1      -8.992   3.259  64.498  1.00  0.00    -0.123 C  
HETATM    9  C   UNL     1     -10.293   3.958  64.114  1.00  0.00    -0.238 C  
ENDBRANCH   7   8
ENDBRANCH   6   7
ENDBRANCH   5   6
BRANCH   5  10
HETATM   10  C   UNL     1      -8.955   7.353  66.076  1.00  0.00    -0.121 C  
BRANCH  10  11
HETATM   11  C   UNL     1     -10.013   8.130  66.856  1.00  0.00    -0.343 C  
BRANCH  11  12
HETATM   12  C   UNL     1      -9.476   8.833  68.110  1.00  0.00    -0.140 C  
HETATM   13  H   UNL     1      -7.834   9.773  68.642  1.00  0.00     0.000 HD 
HETATM   14  O   UNL     1      -8.167   9.338  67.865  1.00  0.00    -0.114 OA 
BRANCH  12  15
HETATM   15  C   UNL     1     -10.375   9.975  68.589  1.00  0.00    -0.211 A  
HETATM   16  C   UNL     1     -10.348  11.256  67.986  1.00  0.00    -0.204 A  
HETATM   17  C   UNL     1      -9.630  11.500  66.793  1.00  0.00    -0.203 A  
HETATM   18  C   UNL     1      -9.541  12.768  66.221  1.00  0.00    -0.242 A  
HETATM   19  C   UNL     1     -10.180  13.843  66.825  1.00  0.00    -0.268 A  
HETATM   20  C   UNL     1     -10.078  15.236  66.259  1.00  0.00    -0.281 C  
HETATM   21  C   UNL     1     -10.932  13.609  67.989  1.00  0.00    -0.270 A  
HETATM   22  F   UNL     1      -9.517  16.111  67.140  1.00  0.00    -0.215 F  
HETATM   23  C   UNL     1     -11.055  12.331  68.599  1.00  0.00    -0.291 A  
HETATM   24  F   UNL     1     -11.294  15.759  65.939  1.00  0.00    -0.234 F  
HETATM   25  F   UNL     1      -9.326  15.314  65.126  1.00  0.00    -0.192 F  
HETATM   26  C   UNL     1     -11.838  12.103  69.792  1.00  0.00    -0.397 A  
HETATM   27  C   UNL     1     -12.552  13.120  70.479  1.00  0.00    -0.237 A  
HETATM   28  C   UNL     1     -13.289  12.870  71.639  1.00  0.00    -0.269 A  
HETATM   29  C   UNL     1     -13.359  11.596  72.164  1.00  0.00    -0.310 A  
HETATM   30 CL   UNL     1     -14.110  14.160  72.427  1.00  0.00    -0.603 Cl 
HETATM   31  C   UNL     1     -12.683  10.567  71.518  1.00  0.00    -0.452 A  
HETATM   32  C   UNL     1     -11.920  10.801  70.340  1.00  0.00    -0.448 A  
HETATM   33 CL   UNL     1     -12.801   8.996  72.257  1.00  0.00    -0.467 Cl 
HETATM   34  C   UNL     1     -11.209   9.774  69.704  1.00  0.00    -0.216 A  
ENDBRANCH  12  15
ENDBRANCH  11  12
ENDBRANCH  10  11
ENDBRANCH   5  10
ENDBRANCH   4   5
ENDBRANCH   3   4
ENDBRANCH   2   3
TORSDOF 10
ENDMDL
MODEL      117
REMARK 921   NORMALIZED FREE ENERGY PREDICTED BY IDOCK:   -3.91 KCAL/MOL
REMARK 922        TOTAL FREE ENERGY PREDICTED BY IDOCK:   -8.70 KCAL/MOL
REMARK 923 INTER-LIGAND FREE ENERGY PREDICTED BY IDOCK:   -7.27 KCAL/MOL
REMARK 924 INTRA-LIGAND FREE ENERGY PREDICTED BY IDOCK:   -1.42 KCAL/MOL
REMARK 927      BINDING AFFINITY PREDICTED BY RF-SCORE:    0.00 PKD
ROOT
HETATM    1  C   UNL     1      -6.907   5.426  62.432  1.00  0.00    -0.029 C  
HETATM    2  C   UNL     1      -5.722   6.247  62.918  1.00  0.00    -0.026 C  
ENDROOT
BRANCH   2   3
HETATM    3  C   UNL     1      -6.025   7.740  62.795  1.00  0.00    -0.067 C  
BRANCH   3   4
HETATM    4  C   UNL     1      -7.425   8.129  63.286  1.00  0.00    -0.120 C  
BRANCH   4   5
HETATM    5  N   UNL     1      -7.634   8.340  64.741  1.00  0.00    -0.097 NA 
BRANCH   5   6
HETATM    6  C   UNL     1      -8.174   7.121  65.382  1.00  0.00    -0.137 C  
BRANCH   6   7
HETATM    7  C   UNL     1      -8.684   7.276  66.827  1.00  0.00    -0.132 C  
BRANCH   7   8
HETATM    8  C   UNL     1     -10.201   7.171  66.968  1.00  0.00    -0.339 C  
HETATM    9  C   UNL     1     -10.661   5.728  66.782  1.00  0.00    -0.369 C  
ENDBRANCH   7   8
ENDBRANCH   6   7
ENDBRANCH   5   6
BRANCH   5  10
HETATM   10  C   UNL     1      -6.358   8.747  65.390  1.00  0.00    -0.062 C  
BRANCH  10  11
HETATM   11  C   UNL     1      -6.184  10.264  65.407  1.00  0.00    -0.124 C  
BRANCH  11  12
HETATM   12  C   UNL     1      -6.397  10.903  66.786  1.00  0.00    -0.097 C  
HETATM   13  H   UNL     1      -6.250  12.693  67.583  1.00  0.00     0.000 HD 
HETATM   14  O   UNL     1      -6.118  12.298  66.729  1.00  0.00    -0.222 OA 
BRANCH  12  15
HETATM   15  C   UNL     1      -7.813  10.695  67.331  1.00  0.00    -0.110 A  
HETATM   16  C   UNL     1      -8.959  11.149  66.637  1.00  0.00    -0.175 A  
HETATM   17  C   UNL     1      -8.878  11.651  65.318  1.00  0.00     0.231 A  
HETATM   18  C   UNL     1      -9.986  12.160  64.643  1.00  0.00    -0.227 A  
HETATM   19  C   UNL     1     -11.226  12.177  65.268  1.00  0.00    -0.381 A  
HETATM   20  C   UNL     1     -12.441  12.753  64.588  1.00  0.00    -0.456 C  
HETATM   21  C   UNL     1     -11.331  11.644  66.564  1.00  0.00    -0.331 A  
HETATM   22  F   UNL     1     -12.975  13.797  65.281  1.00  0.00    -0.481 F  
HETATM   23  C   UNL     1     -10.229  11.108  67.283  1.00  0.00    -0.227 A  
HETATM   24  F   UNL     1     -13.445  11.843  64.455  1.00  0.00    -0.303 F  
HETATM   25  F   UNL     1     -12.195  13.226  63.334  1.00  0.00    -0.547 F  
HETATM   26  C   UNL     1     -10.353  10.556  68.613  1.00  0.00    -0.201 A  
HETATM   27  C   UNL     1     -11.572  10.499  69.338  1.00  0.00    -0.318 A  
HETATM   28  C   UNL     1     -11.657   9.971  70.628  1.00  0.00    -0.340 A  
HETATM   29  C   UNL     1     -10.536   9.465  71.254  1.00  0.00    -0.385 A  
HETATM   30 CL   UNL     1     -13.168   9.955  71.451  1.00  0.00    -0.475 Cl 
HETATM   31  C   UNL     1      -9.321   9.493  70.577  1.00  0.00    -0.237 A  
HETATM   32  C   UNL     1      -9.212  10.033  69.265  1.00  0.00    -0.212 A  
HETATM   33 CL   UNL     1      -7.951   8.860  71.444  1.00  0.00    -0.172 Cl 
HETATM   34  C   UNL     1      -7.984  10.094  68.592  1.00  0.00    -0.103 A  
ENDBRANCH  12  15
ENDBRANCH  11  12
ENDBRANCH  10  11
ENDBRANCH   5  10
ENDBRANCH   4   5
ENDBRANCH   3   4
ENDBRANCH   2   3
TORSDOF 10
ENDMDL
MODEL      118
REMARK 921   NORMALIZED FREE ENERGY PREDICTED BY IDOCK:   -3.90 KCAL/MOL
REMARK 922        TOTAL FREE ENERGY PREDICTED BY IDOCK:   -8.68 KCAL/MOL
REMARK 923 INTER-LIGAND FREE ENERGY PREDICTED BY IDOCK:   -7.41 KCAL/MOL
REMARK 924 INTRA-LIGAND FREE ENERGY PREDICTED BY IDOCK:   -1.27 KCAL/MOL
REMARK 927      BINDING AFFINITY PREDICTED BY RF-SCORE:    0.00 PKD
ROOT
HETATM    1  C   UNL     1     -11.133   7.064  67.179  1.00  0.00    -0.298 C  
HETATM    2  C   UNL     1     -10.241   7.473  68.342  1.00  0.00    -0.211 C  
ENDROOT
BRANCH   2   3
HETATM    3  C   UNL     1      -8.856   6.845  68.194  1.00  0.00    -0.125 C  
BRANCH   3   4
HETATM    4  C   UNL     1      -7.704   7.846  68.331  1.00  0.00    -0.114 C  
BRANCH   4   5
HETATM    5  N   UNL     1      -6.800   8.053  67.171  1.00  0.00    -0.072 NA 
BRANCH   5   6
HETATM    6  C   UNL     1      -6.931   6.951  66.193  1.00  0.00    -0.068 C  
BRANCH   6   7
HETATM    7  C   UNL     1      -5.618   6.388  65.616  1.00  0.00    -0.017 C  
BRANCH   7   8
HETATM    8  C   UNL     1      -5.636   4.879  65.385  1.00  0.00    -0.014 C  
HETATM    9  C   UNL     1      -5.896   4.136  66.692  1.00  0.00    -0.023 C  
ENDBRANCH   7   8
ENDBRANCH   6   7
ENDBRANCH   5   6
BRANCH   5  10
HETATM   10  C   UNL     1      -7.086   9.361  66.523  1.00  0.00    -0.085 C  
BRANCH  10  11
HETATM   11  C   UNL     1      -7.858  10.301  67.447  1.00  0.00    -0.102 C  
BRANCH  11  12
HETATM   12  C   UNL     1      -8.512  11.489  66.727  1.00  0.00    -0.168 C  
HETATM   13  H   UNL     1      -9.553  11.784  65.087  1.00  0.00     0.000 HD 
HETATM   14  O   UNL     1      -9.148  11.048  65.533  1.00  0.00    -0.202 OA 
BRANCH  12  15
HETATM   15  C   UNL     1      -9.530  12.230  67.597  1.00  0.00    -0.188 A  
HETATM   16  C   UNL     1      -9.640  13.641  67.587  1.00  0.00    -0.221 A  
HETATM   17  C   UNL     1      -8.949  14.433  66.641  1.00  0.00    -0.232 A  
HETATM   18  C   UNL     1      -8.996  15.826  66.657  1.00  0.00    -0.313 A  
HETATM   19  C   UNL     1      -9.749  16.480  67.624  1.00  0.00    -0.239 A  
HETATM   20  C   UNL     1      -9.797  17.984  67.699  1.00  0.00    -0.305 C  
HETATM   21  C   UNL     1     -10.475  15.706  68.546  1.00  0.00    -0.236 A  
HETATM   22  F   UNL     1      -9.335  18.457  68.890  1.00  0.00    -0.324 F  
HETATM   23  C   UNL     1     -10.460  14.285  68.559  1.00  0.00    -0.253 A  
HETATM   24  F   UNL     1     -11.061  18.473  67.569  1.00  0.00    -0.442 F  
HETATM   25  F   UNL     1      -9.054  18.604  66.739  1.00  0.00    -0.266 F  
HETATM   26  C   UNL     1     -11.217  13.501  69.508  1.00  0.00    -0.194 A  
HETATM   27  C   UNL     1     -12.038  14.060  70.523  1.00  0.00    -0.424 A  
HETATM   28  C   UNL     1     -12.747  13.275  71.435  1.00  0.00    -0.309 A  
HETATM   29  C   UNL     1     -12.681  11.898  71.375  1.00  0.00    -0.395 A  
HETATM   30 CL   UNL     1     -13.705  14.027  72.651  1.00  0.00    -0.620 Cl 
HETATM   31  C   UNL     1     -11.896  11.307  70.391  1.00  0.00    -0.350 A  
HETATM   32  C   UNL     1     -11.160  12.089  69.457  1.00  0.00    -0.140 A  
HETATM   33 CL   UNL     1     -11.846   9.568  70.399  1.00  0.00    -0.230 Cl 
HETATM   34  C   UNL     1     -10.340  11.499  68.485  1.00  0.00    -0.224 A  
ENDBRANCH  12  15
ENDBRANCH  11  12
ENDBRANCH  10  11
ENDBRANCH   5  10
ENDBRANCH   4   5
ENDBRANCH   3   4
ENDBRANCH   2   3
TORSDOF 10
ENDMDL
MODEL      119
REMARK 921   NORMALIZED FREE ENERGY PREDICTED BY IDOCK:   -3.89 KCAL/MOL
REMARK 922        TOTAL FREE ENERGY PREDICTED BY IDOCK:   -8.65 KCAL/MOL
REMARK 923 INTER-LIGAND FREE ENERGY PREDICTED BY IDOCK:   -8.60 KCAL/MOL
REMARK 924 INTRA-LIGAND FREE ENERGY PREDICTED BY IDOCK:   -0.05 KCAL/MOL
REMARK 927      BINDING AFFINITY PREDICTED BY RF-SCORE:    0.00 PKD
ROOT
HETATM    1  C   UNL     1      -8.176  16.406  68.747  1.00  0.00    -0.234 C  
HETATM    2  C   UNL     1      -9.554  16.335  69.387  1.00  0.00    -0.173 C  
ENDROOT
BRANCH   2   3
HETATM    3  C   UNL     1     -10.641  16.429  68.318  1.00  0.00    -0.318 C  
BRANCH   3   4
HETATM    4  C   UNL     1     -11.775  15.412  68.496  1.00  0.00    -0.338 C  
BRANCH   4   5
HETATM    5  N   UNL     1     -11.761  14.535  69.694  1.00  0.00    -0.289 NA 
BRANCH   5   6
HETATM    6  C   UNL     1     -12.922  14.810  70.568  1.00  0.00    -0.286 C  
BRANCH   6   7
HETATM    7  C   UNL     1     -12.739  15.917  71.623  1.00  0.00    -0.448 C  
BRANCH   7   8
HETATM    8  C   UNL     1     -13.409  15.619  72.962  1.00  0.00    -0.668 C  
HETATM    9  C   UNL     1     -12.477  15.963  74.120  1.00  0.00    -0.776 C  
ENDBRANCH   7   8
ENDBRANCH   6   7
ENDBRANCH   5   6
BRANCH   5  10
HETATM   10  C   UNL     1     -11.746  13.105  69.283  1.00  0.00    -0.321 C  
BRANCH  10  11
HETATM   11  C   UNL     1     -11.647  12.946  67.767  1.00  0.00    -0.391 C  
BRANCH  11  12
HETATM   12  C   UNL     1     -10.218  12.722  67.253  1.00  0.00    -0.232 C  
HETATM   13  H   UNL     1      -8.394  12.844  67.972  1.00  0.00     0.000 HD 
HETATM   14  O   UNL     1      -9.278  12.982  68.291  1.00  0.00    -0.207 OA 
BRANCH  12  15
HETATM   15  C   UNL     1      -9.990  11.310  66.709  1.00  0.00    -0.238 A  
HETATM   16  C   UNL     1     -10.092  10.163  67.532  1.00  0.00    -0.244 A  
HETATM   17  C   UNL     1     -10.590  10.238  68.853  1.00  0.00    -0.242 A  
HETATM   18  C   UNL     1     -10.638   9.129  69.696  1.00  0.00    -0.237 A  
HETATM   19  C   UNL     1     -10.191   7.896  69.241  1.00  0.00    -0.216 A  
HETATM   20  C   UNL     1     -10.191   6.682  70.134  1.00  0.00    -0.187 C  
HETATM   21  C   UNL     1      -9.731   7.796  67.917  1.00  0.00    -0.181 A  
HETATM   22  F   UNL     1      -8.941   6.168  70.307  1.00  0.00    -0.143 F  
HETATM   23  C   UNL     1      -9.674   8.899  67.022  1.00  0.00    -0.249 A  
HETATM   24  F   UNL     1     -10.945   5.666  69.632  1.00  0.00    -0.382 F  
HETATM   25  F   UNL     1     -10.671   6.922  71.386  1.00  0.00    -0.229 F  
HETATM   26  C   UNL     1      -9.205   8.781  65.660  1.00  0.00    -0.244 A  
HETATM   27  C   UNL     1      -8.748   7.568  65.081  1.00  0.00     0.106 A  
HETATM   28  C   UNL     1      -8.287   7.489  63.765  1.00  0.00     0.166 A  
HETATM   29  C   UNL     1      -8.269   8.609  62.960  1.00  0.00    -0.179 A  
HETATM   30 CL   UNL     1      -7.730   5.985  63.140  1.00  0.00    -0.089 Cl 
HETATM   31  C   UNL     1      -8.717   9.817  63.483  1.00  0.00    -0.222 A  
HETATM   32  C   UNL     1      -9.183   9.921  64.824  1.00  0.00    -0.309 A  
HETATM   33 CL   UNL     1      -8.638  11.187  62.413  1.00  0.00    -0.336 Cl 
HETATM   34  C   UNL     1      -9.603  11.143  65.367  1.00  0.00    -0.266 A  
ENDBRANCH  12  15
ENDBRANCH  11  12
ENDBRANCH  10  11
ENDBRANCH   5  10
ENDBRANCH   4   5
ENDBRANCH   3   4
ENDBRANCH   2   3
TORSDOF 10
ENDMDL
MODEL      120
REMARK 921   NORMALIZED FREE ENERGY PREDICTED BY IDOCK:   -3.88 KCAL/MOL
REMARK 922        TOTAL FREE ENERGY PREDICTED BY IDOCK:   -8.64 KCAL/MOL
REMARK 923 INTER-LIGAND FREE ENERGY PREDICTED BY IDOCK:   -7.80 KCAL/MOL
REMARK 924 INTRA-LIGAND FREE ENERGY PREDICTED BY IDOCK:   -0.83 KCAL/MOL
REMARK 927      BINDING AFFINITY PREDICTED BY RF-SCORE:    0.00 PKD
ROOT
HETATM    1  C   UNL     1     -10.775   6.175  70.948  1.00  0.00    -0.316 C  
HETATM    2  C   UNL     1     -11.093   6.195  69.461  1.00  0.00    -0.490 C  
ENDROOT
BRANCH   2   3
HETATM    3  C   UNL     1      -9.915   6.767  68.674  1.00  0.00    -0.147 C  
BRANCH   3   4
HETATM    4  C   UNL     1      -9.957   8.291  68.518  1.00  0.00    -0.190 C  
BRANCH   4   5
HETATM    5  N   UNL     1      -8.789   9.085  68.975  1.00  0.00    -0.135 NA 
BRANCH   5   6
HETATM    6  C   UNL     1      -8.729   9.140  70.452  1.00  0.00    -0.215 C  
BRANCH   6   7
HETATM    7  C   UNL     1      -7.712   8.204  71.132  1.00  0.00    -0.092 C  
BRANCH   7   8
HETATM    8  C   UNL     1      -7.299   8.644  72.534  1.00  0.00    -0.006 C  
HETATM    9  C   UNL     1      -8.279   8.114  73.577  1.00  0.00    -0.276 C  
ENDBRANCH   7   8
ENDBRANCH   6   7
ENDBRANCH   5   6
BRANCH   5  10
HETATM   10  C   UNL     1      -7.530   8.512  68.425  1.00  0.00    -0.095 C  
BRANCH  10  11
HETATM   11  C   UNL     1      -7.346   8.850  66.947  1.00  0.00    -0.083 C  
BRANCH  11  12
HETATM   12  C   UNL     1      -6.699  10.218  66.694  1.00  0.00    -0.082 C  
HETATM   13  H   UNL     1      -5.846  11.152  65.190  1.00  0.00     0.000 HD 
HETATM   14  O   UNL     1      -6.247  10.305  65.346  1.00  0.00    -0.106 OA 
BRANCH  12  15
HETATM   15  C   UNL     1      -7.639  11.390  66.986  1.00  0.00    -0.151 A  
HETATM   16  C   UNL     1      -8.826  11.603  66.246  1.00  0.00    -0.164 A  
HETATM   17  C   UNL     1      -9.307  10.646  65.322  1.00  0.00    -0.256 A  
HETATM   18  C   UNL     1     -10.439  10.868  64.539  1.00  0.00    -0.393 A  
HETATM   19  C   UNL     1     -11.138  12.061  64.660  1.00  0.00    -0.375 A  
HETATM   20  C   UNL     1     -12.345  12.355  63.806  1.00  0.00    -0.528 C  
HETATM   21  C   UNL     1     -10.697  13.005  65.603  1.00  0.00    -0.293 A  
HETATM   22  F   UNL     1     -12.174  13.466  63.036  1.00  0.00    -0.608 F  
HETATM   23  C   UNL     1      -9.554  12.815  66.426  1.00  0.00    -0.254 A  
HETATM   24  F   UNL     1     -13.464  12.583  64.546  1.00  0.00    -0.283 F  
HETATM   25  F   UNL     1     -12.663  11.350  62.943  1.00  0.00    -0.519 F  
HETATM   26  C   UNL     1      -9.115  13.791  67.398  1.00  0.00    -0.221 A  
HETATM   27  C   UNL     1      -9.766  15.033  67.624  1.00  0.00    -0.215 A  
HETATM   28  C   UNL     1      -9.309  15.962  68.562  1.00  0.00    -0.206 A  
HETATM   29  C   UNL     1      -8.190  15.696  69.325  1.00  0.00    -0.253 A  
HETATM   30 CL   UNL     1     -10.140  17.455  68.764  1.00  0.00    -0.330 Cl 
HETATM   31  C   UNL     1      -7.527  14.487  69.143  1.00  0.00    -0.118 A  
HETATM   32  C   UNL     1      -7.972  13.530  68.188  1.00  0.00    -0.149 A  
HETATM   33 CL   UNL     1      -6.112  14.239  70.125  1.00  0.00    -0.148 Cl 
HETATM   34  C   UNL     1      -7.287  12.326  67.976  1.00  0.00    -0.105 A  
ENDBRANCH  12  15
ENDBRANCH  11  12
ENDBRANCH  10  11
ENDBRANCH   5  10
ENDBRANCH   4   5
ENDBRANCH   3   4
ENDBRANCH   2   3
TORSDOF 10
ENDMDL
MODEL      121
REMARK 921   NORMALIZED FREE ENERGY PREDICTED BY IDOCK:   -3.88 KCAL/MOL
REMARK 922        TOTAL FREE ENERGY PREDICTED BY IDOCK:   -8.64 KCAL/MOL
REMARK 923 INTER-LIGAND FREE ENERGY PREDICTED BY IDOCK:   -7.52 KCAL/MOL
REMARK 924 INTRA-LIGAND FREE ENERGY PREDICTED BY IDOCK:   -1.11 KCAL/MOL
REMARK 927      BINDING AFFINITY PREDICTED BY RF-SCORE:    0.00 PKD
ROOT
HETATM    1  C   UNL     1      -6.761   8.537  72.527  1.00  0.00    -0.084 C  
HETATM    2  C   UNL     1      -6.158   7.258  73.089  1.00  0.00    -0.056 C  
ENDROOT
BRANCH   2   3
HETATM    3  C   UNL     1      -7.256   6.235  73.374  1.00  0.00    -0.087 C  
BRANCH   3   4
HETATM    4  C   UNL     1      -8.367   6.210  72.319  1.00  0.00    -0.113 C  
BRANCH   4   5
HETATM    5  N   UNL     1      -8.096   5.553  71.015  1.00  0.00    -0.116 NA 
BRANCH   5   6
HETATM    6  C   UNL     1      -7.976   4.088  71.173  1.00  0.00    -0.067 C  
BRANCH   6   7
HETATM    7  C   UNL     1      -7.094   3.357  70.142  1.00  0.00    -0.041 C  
BRANCH   7   8
HETATM    8  C   UNL     1      -7.709   2.070  69.597  1.00  0.00    -0.045 C  
HETATM    9  C   UNL     1      -9.228   2.192  69.513  1.00  0.00    -0.179 C  
ENDBRANCH   7   8
ENDBRANCH   6   7
ENDBRANCH   5   6
BRANCH   5  10
HETATM   10  C   UNL     1      -9.169   5.885  70.039  1.00  0.00    -0.148 C  
BRANCH  10  11
HETATM   11  C   UNL     1      -8.767   7.031  69.113  1.00  0.00    -0.132 C  
BRANCH  11  12
HETATM   12  C   UNL     1      -9.836   7.403  68.077  1.00  0.00    -0.148 C  
HETATM   13  H   UNL     1     -11.452   6.583  67.316  1.00  0.00     0.000 HD 
HETATM   14  O   UNL     1     -10.790   6.352  67.958  1.00  0.00    -0.263 OA 
BRANCH  12  15
HETATM   15  C   UNL     1     -10.564   8.708  68.408  1.00  0.00    -0.169 A  
HETATM   16  C   UNL     1     -10.598   9.798  67.506  1.00  0.00    -0.335 A  
HETATM   17  C   UNL     1     -10.126   9.679  66.179  1.00  0.00    -0.328 A  
HETATM   18  C   UNL     1     -10.095  10.759  65.298  1.00  0.00    -0.353 A  
HETATM   19  C   UNL     1     -10.545  12.003  65.716  1.00  0.00    -0.301 A  
HETATM   20  C   UNL     1     -10.494  13.205  64.807  1.00  0.00    -0.372 C  
HETATM   21  C   UNL     1     -11.056  12.129  67.020  1.00  0.00    -0.347 A  
HETATM   22  F   UNL     1      -9.724  14.206  65.318  1.00  0.00    -0.313 F  
HETATM   23  C   UNL     1     -11.113  11.052  67.945  1.00  0.00    -0.347 A  
HETATM   24  F   UNL     1     -11.722  13.751  64.594  1.00  0.00    -0.340 F  
HETATM   25  F   UNL     1      -9.984  12.936  63.573  1.00  0.00    -0.296 F  
HETATM   26  C   UNL     1     -11.649  11.193  69.281  1.00  0.00    -0.388 A  
HETATM   27  C   UNL     1     -12.158  12.410  69.807  1.00  0.00    -0.292 A  
HETATM   28  C   UNL     1     -12.656  12.517  71.107  1.00  0.00    -0.253 A  
HETATM   29  C   UNL     1     -12.680  11.419  71.942  1.00  0.00    -0.266 A  
HETATM   30 CL   UNL     1     -13.238  14.032  71.680  1.00  0.00    -0.419 Cl 
HETATM   31  C   UNL     1     -12.199  10.204  71.465  1.00  0.00    -0.380 A  
HETATM   32  C   UNL     1     -11.681  10.075  70.146  1.00  0.00    -0.285 A  
HETATM   33 CL   UNL     1     -12.240   8.875  72.587  1.00  0.00    -0.296 Cl 
HETATM   34  C   UNL     1     -11.163   8.862  69.672  1.00  0.00     0.035 A  
ENDBRANCH  12  15
ENDBRANCH  11  12
ENDBRANCH  10  11
ENDBRANCH   5  10
ENDBRANCH   4   5
ENDBRANCH   3   4
ENDBRANCH   2   3
TORSDOF 10
ENDMDL
MODEL      122
REMARK 921   NORMALIZED FREE ENERGY PREDICTED BY IDOCK:   -3.85 KCAL/MOL
REMARK 922        TOTAL FREE ENERGY PREDICTED BY IDOCK:   -8.60 KCAL/MOL
REMARK 923 INTER-LIGAND FREE ENERGY PREDICTED BY IDOCK:   -7.75 KCAL/MOL
REMARK 924 INTRA-LIGAND FREE ENERGY PREDICTED BY IDOCK:   -0.84 KCAL/MOL
REMARK 927      BINDING AFFINITY PREDICTED BY RF-SCORE:    0.00 PKD
ROOT
HETATM    1  C   UNL     1     -13.152  12.709  71.644  1.00  0.00    -0.421 C  
HETATM    2  C   UNL     1     -12.429  14.007  71.315  1.00  0.00    -0.448 C  
ENDROOT
BRANCH   2   3
HETATM    3  C   UNL     1     -12.283  14.164  69.802  1.00  0.00    -0.397 C  
BRANCH   3   4
HETATM    4  C   UNL     1     -11.410  13.086  69.150  1.00  0.00    -0.273 C  
BRANCH   4   5
HETATM    5  N   UNL     1     -11.365  13.009  67.668  1.00  0.00    -0.283 NA 
BRANCH   5   6
HETATM    6  C   UNL     1     -11.745  14.301  67.057  1.00  0.00    -0.403 C  
BRANCH   6   7
HETATM    7  C   UNL     1     -10.599  15.136  66.454  1.00  0.00    -0.305 C  
BRANCH   7   8
HETATM    8  C   UNL     1     -10.892  16.633  66.379  1.00  0.00    -0.012 C  
HETATM    9  C   UNL     1     -10.453  17.333  67.662  1.00  0.00    -0.363 C  
ENDBRANCH   7   8
ENDBRANCH   6   7
ENDBRANCH   5   6
BRANCH   5  10
HETATM   10  C   UNL     1     -10.007  12.598  67.216  1.00  0.00    -0.212 C  
BRANCH  10  11
HETATM   11  C   UNL     1      -9.037  12.443  68.385  1.00  0.00    -0.141 C  
BRANCH  11  12
HETATM   12  C   UNL     1      -8.022  11.306  68.209  1.00  0.00    -0.134 C  
HETATM   13  H   UNL     1      -6.574  10.492  69.259  1.00  0.00     0.000 HD 
HETATM   14  O   UNL     1      -7.203  11.196  69.369  1.00  0.00    -0.123 OA 
BRANCH  12  15
HETATM   15  C   UNL     1      -8.679   9.953  67.927  1.00  0.00    -0.129 A  
HETATM   16  C   UNL     1      -9.586   9.354  68.833  1.00  0.00    -0.155 A  
HETATM   17  C   UNL     1     -10.080  10.053  69.959  1.00  0.00    -0.289 A  
HETATM   18  C   UNL     1     -10.924   9.458  70.895  1.00  0.00    -0.391 A  
HETATM   19  C   UNL     1     -11.312   8.135  70.731  1.00  0.00    -0.283 A  
HETATM   20  C   UNL     1     -12.193   7.443  71.740  1.00  0.00    -0.326 C  
HETATM   21  C   UNL     1     -10.862   7.439  69.596  1.00  0.00    -0.222 A  
HETATM   22  F   UNL     1     -11.587   6.357  72.295  1.00  0.00    -0.292 F  
HETATM   23  C   UNL     1     -10.008   8.011  68.614  1.00  0.00    -0.200 A  
HETATM   24  F   UNL     1     -13.352   6.985  71.193  1.00  0.00    -0.415 F  
HETATM   25  F   UNL     1     -12.559   8.239  72.784  1.00  0.00    -0.352 F  
HETATM   26  C   UNL     1      -9.559   7.286  67.447  1.00  0.00    -0.176 A  
HETATM   27  C   UNL     1      -9.910   5.940  67.165  1.00  0.00    -0.162 A  
HETATM   28  C   UNL     1      -9.448   5.262  66.035  1.00  0.00    -0.156 A  
HETATM   29  C   UNL     1      -8.624   5.894  65.126  1.00  0.00    -0.094 A  
HETATM   30 CL   UNL     1      -9.902   3.623  65.773  1.00  0.00    -0.099 Cl 
HETATM   31  C   UNL     1      -8.261   7.217  65.358  1.00  0.00    -0.137 A  
HETATM   32  C   UNL     1      -8.715   7.923  66.507  1.00  0.00    -0.162 A  
HETATM   33 CL   UNL     1      -7.199   7.933  64.180  1.00  0.00    -0.075 Cl 
HETATM   34  C   UNL     1      -8.325   9.244  66.763  1.00  0.00    -0.123 A  
ENDBRANCH  12  15
ENDBRANCH  11  12
ENDBRANCH  10  11
ENDBRANCH   5  10
ENDBRANCH   4   5
ENDBRANCH   3   4
ENDBRANCH   2   3
TORSDOF 10
ENDMDL
MODEL      123
REMARK 921   NORMALIZED FREE ENERGY PREDICTED BY IDOCK:   -3.85 KCAL/MOL
REMARK 922        TOTAL FREE ENERGY PREDICTED BY IDOCK:   -8.59 KCAL/MOL
REMARK 923 INTER-LIGAND FREE ENERGY PREDICTED BY IDOCK:   -6.09 KCAL/MOL
REMARK 924 INTRA-LIGAND FREE ENERGY PREDICTED BY IDOCK:   -2.51 KCAL/MOL
REMARK 927      BINDING AFFINITY PREDICTED BY RF-SCORE:    0.00 PKD
ROOT
HETATM    1  C   UNL     1      -7.672   4.432  72.563  1.00  0.00    -0.084 C  
HETATM    2  C   UNL     1      -7.668   4.024  71.097  1.00  0.00    -0.059 C  
ENDROOT
BRANCH   2   3
HETATM    3  C   UNL     1      -6.605   4.809  70.331  1.00  0.00    -0.035 C  
BRANCH   3   4
HETATM    4  C   UNL     1      -7.055   6.212  69.909  1.00  0.00    -0.072 C  
BRANCH   4   5
HETATM    5  N   UNL     1      -6.615   6.734  68.591  1.00  0.00    -0.049 NA 
BRANCH   5   6
HETATM    6  C   UNL     1      -7.667   6.551  67.568  1.00  0.00    -0.106 C  
BRANCH   6   7
HETATM    7  C   UNL     1      -9.122   6.726  68.042  1.00  0.00    -0.119 C  
BRANCH   7   8
HETATM    8  C   UNL     1     -10.075   7.225  66.959  1.00  0.00    -0.316 C  
HETATM    9  C   UNL     1      -9.469   8.410  66.212  1.00  0.00    -0.292 C  
ENDBRANCH   7   8
ENDBRANCH   6   7
ENDBRANCH   5   6
BRANCH   5  10
HETATM   10  C   UNL     1      -6.246   8.172  68.705  1.00  0.00    -0.044 C  
BRANCH  10  11
HETATM   11  C   UNL     1      -5.528   8.476  70.019  1.00  0.00    -0.025 C  
BRANCH  11  12
HETATM   12  C   UNL     1      -6.290   9.437  70.940  1.00  0.00    -0.078 C  
HETATM   13  H   UNL     1      -5.937  11.140  71.855  1.00  0.00     0.000 HD 
HETATM   14  O   UNL     1      -5.464  10.545  71.284  1.00  0.00    -0.162 OA 
BRANCH  12  15
HETATM   15  C   UNL     1      -7.593   9.952  70.324  1.00  0.00    -0.172 A  
HETATM   16  C   UNL     1      -8.846   9.361  70.613  1.00  0.00    -0.275 A  
HETATM   17  C   UNL     1      -8.991   8.386  71.627  1.00  0.00    -0.261 A  
HETATM   18  C   UNL     1     -10.204   7.749  71.882  1.00  0.00    -0.250 A  
HETATM   19  C   UNL     1     -11.325   8.073  71.130  1.00  0.00    -0.292 A  
HETATM   20  C   UNL     1     -12.646   7.381  71.348  1.00  0.00    -0.370 C  
HETATM   21  C   UNL     1     -11.207   9.070  70.146  1.00  0.00    -0.191 A  
HETATM   22  F   UNL     1     -13.078   6.730  70.233  1.00  0.00    -0.111 F  
HETATM   23  C   UNL     1      -9.992   9.749  69.860  1.00  0.00    -0.282 A  
HETATM   24  F   UNL     1     -13.640   8.249  71.683  1.00  0.00    -0.338 F  
HETATM   25  F   UNL     1     -12.617   6.445  72.338  1.00  0.00    -0.266 F  
HETATM   26  C   UNL     1      -9.887  10.778  68.850  1.00  0.00    -0.209 A  
HETATM   27  C   UNL     1     -10.971  11.208  68.039  1.00  0.00    -0.307 A  
HETATM   28  C   UNL     1     -10.833  12.196  67.062  1.00  0.00    -0.247 A  
HETATM   29  C   UNL     1      -9.616  12.810  66.851  1.00  0.00    -0.235 A  
HETATM   30 CL   UNL     1     -12.189  12.648  66.104  1.00  0.00    -0.391 Cl 
HETATM   31  C   UNL     1      -8.529  12.427  67.629  1.00  0.00    -0.169 A  
HETATM   32  C   UNL     1      -8.645  11.417  68.626  1.00  0.00    -0.126 A  
HETATM   33 CL   UNL     1      -7.024  13.230  67.285  1.00  0.00    -0.097 Cl 
HETATM   34  C   UNL     1      -7.545  11.003  69.389  1.00  0.00    -0.058 A  
ENDBRANCH  12  15
ENDBRANCH  11  12
ENDBRANCH  10  11
ENDBRANCH   5  10
ENDBRANCH   4   5
ENDBRANCH   3   4
ENDBRANCH   2   3
TORSDOF 10
ENDMDL
MODEL      124
REMARK 921   NORMALIZED FREE ENERGY PREDICTED BY IDOCK:   -3.80 KCAL/MOL
REMARK 922        TOTAL FREE ENERGY PREDICTED BY IDOCK:   -8.51 KCAL/MOL
REMARK 923 INTER-LIGAND FREE ENERGY PREDICTED BY IDOCK:   -6.80 KCAL/MOL
REMARK 924 INTRA-LIGAND FREE ENERGY PREDICTED BY IDOCK:   -1.72 KCAL/MOL
REMARK 927      BINDING AFFINITY PREDICTED BY RF-SCORE:    0.00 PKD
ROOT
HETATM    1  C   UNL     1     -11.845  10.152  70.768  1.00  0.00    -0.443 C  
HETATM    2  C   UNL     1     -12.364  11.578  70.664  1.00  0.00    -0.457 C  
ENDROOT
BRANCH   2   3
HETATM    3  C   UNL     1     -11.772  12.269  69.437  1.00  0.00    -0.392 C  
BRANCH   3   4
HETATM    4  C   UNL     1     -11.740  11.385  68.185  1.00  0.00    -0.284 C  
BRANCH   4   5
HETATM    5  N   UNL     1     -10.483  11.315  67.397  1.00  0.00    -0.203 NA 
BRANCH   5   6
HETATM    6  C   UNL     1     -10.685  11.834  66.027  1.00  0.00    -0.279 C  
BRANCH   6   7
HETATM    7  C   UNL     1     -12.069  12.438  65.720  1.00  0.00    -0.381 C  
BRANCH   7   8
HETATM    8  C   UNL     1     -12.056  13.950  65.510  1.00  0.00    -0.425 C  
HETATM    9  C   UNL     1     -10.801  14.379  64.755  1.00  0.00    -0.415 C  
ENDBRANCH   7   8
ENDBRANCH   6   7
ENDBRANCH   5   6
BRANCH   5  10
HETATM   10  C   UNL     1      -9.402  12.071  68.086  1.00  0.00    -0.199 C  
BRANCH  10  11
HETATM   11  C   UNL     1      -8.381  11.143  68.739  1.00  0.00    -0.136 C  
BRANCH  11  12
HETATM   12  C   UNL     1      -7.934   9.977  67.847  1.00  0.00    -0.105 C  
HETATM   13  H   UNL     1      -6.250   9.311  67.084  1.00  0.00     0.000 HD 
HETATM   14  O   UNL     1      -6.526  10.033  67.637  1.00  0.00    -0.062 OA 
BRANCH  12  15
HETATM   15  C   UNL     1      -8.304   8.607  68.420  1.00  0.00    -0.127 A  
HETATM   16  C   UNL     1      -8.562   7.491  67.590  1.00  0.00    -0.119 A  
HETATM   17  C   UNL     1      -8.312   7.526  66.198  1.00  0.00    -0.138 A  
HETATM   18  C   UNL     1      -8.619   6.458  65.358  1.00  0.00    -0.088 A  
HETATM   19  C   UNL     1      -9.185   5.306  65.885  1.00  0.00    -0.166 A  
HETATM   20  C   UNL     1      -9.567   4.143  65.005  1.00  0.00    -0.180 C  
HETATM   21  C   UNL     1      -9.402   5.239  67.272  1.00  0.00    -0.123 A  
HETATM   22  F   UNL     1     -10.898   3.861  65.070  1.00  0.00    -0.181 F  
HETATM   23  C   UNL     1      -9.096   6.301  68.165  1.00  0.00    -0.112 A  
HETATM   24  F   UNL     1      -8.925   2.994  65.352  1.00  0.00    -0.120 F  
HETATM   25  F   UNL     1      -9.292   4.342  63.685  1.00  0.00    -0.138 F  
HETATM   26  C   UNL     1      -9.317   6.216  69.591  1.00  0.00    -0.156 A  
HETATM   27  C   UNL     1      -9.867   5.081  70.242  1.00  0.00    -0.304 A  
HETATM   28  C   UNL     1     -10.082   5.035  71.621  1.00  0.00    -0.196 A  
HETATM   29  C   UNL     1      -9.751   6.111  72.419  1.00  0.00    -0.169 A  
HETATM   30 CL   UNL     1     -10.772   3.630  72.335  1.00  0.00    -0.036 Cl 
HETATM   31  C   UNL     1      -9.201   7.242  71.824  1.00  0.00    -0.142 A  
HETATM   32  C   UNL     1      -8.981   7.312  70.420  1.00  0.00    -0.151 A  
HETATM   33 CL   UNL     1      -8.836   8.564  72.894  1.00  0.00    -0.242 Cl 
HETATM   34  C   UNL     1      -8.459   8.461  69.811  1.00  0.00    -0.127 A  
ENDBRANCH  12  15
ENDBRANCH  11  12
ENDBRANCH  10  11
ENDBRANCH   5  10
ENDBRANCH   4   5
ENDBRANCH   3   4
ENDBRANCH   2   3
TORSDOF 10
ENDMDL
MODEL      125
REMARK 921   NORMALIZED FREE ENERGY PREDICTED BY IDOCK:   -3.74 KCAL/MOL
REMARK 922        TOTAL FREE ENERGY PREDICTED BY IDOCK:   -8.42 KCAL/MOL
REMARK 923 INTER-LIGAND FREE ENERGY PREDICTED BY IDOCK:   -7.30 KCAL/MOL
REMARK 924 INTRA-LIGAND FREE ENERGY PREDICTED BY IDOCK:   -1.12 KCAL/MOL
REMARK 927      BINDING AFFINITY PREDICTED BY RF-SCORE:    0.00 PKD
ROOT
HETATM    1  C   UNL     1      -6.953  10.608  69.505  1.00  0.00    -0.121 C  
HETATM    2  C   UNL     1      -7.572   9.218  69.509  1.00  0.00    -0.081 C  
ENDROOT
BRANCH   2   3
HETATM    3  C   UNL     1      -7.864   8.772  70.940  1.00  0.00    -0.137 C  
BRANCH   3   4
HETATM    4  C   UNL     1      -7.509   7.306  71.216  1.00  0.00    -0.079 C  
BRANCH   4   5
HETATM    5  N   UNL     1      -8.393   6.516  72.109  1.00  0.00    -0.107 NA 
BRANCH   5   6
HETATM    6  C   UNL     1      -7.848   6.461  73.483  1.00  0.00    -0.092 C  
BRANCH   6   7
HETATM    7  C   UNL     1      -7.381   5.079  73.980  1.00  0.00    -0.083 C  
BRANCH   7   8
HETATM    8  C   UNL     1      -8.488   4.029  74.033  1.00  0.00    -0.091 C  
HETATM    9  C   UNL     1      -7.896   2.622  74.045  1.00  0.00    -0.055 C  
ENDBRANCH   7   8
ENDBRANCH   6   7
ENDBRANCH   5   6
BRANCH   5  10
HETATM   10  C   UNL     1      -9.765   7.095  72.117  1.00  0.00    -0.146 C  
BRANCH  10  11
HETATM   11  C   UNL     1     -10.793   6.139  71.516  1.00  0.00    -0.313 C  
BRANCH  11  12
HETATM   12  C   UNL     1     -11.943   6.839  70.780  1.00  0.00    -0.378 C  
HETATM   13  H   UNL     1     -13.650   7.690  71.254  1.00  0.00     0.000 HD 
HETATM   14  O   UNL     1     -12.937   7.257  71.710  1.00  0.00    -0.345 OA 
BRANCH  12  15
HETATM   15  C   UNL     1     -11.483   8.046  69.958  1.00  0.00     0.065 A  
HETATM   16  C   UNL     1     -11.769   9.375  70.351  1.00  0.00    -0.195 A  
HETATM   17  C   UNL     1     -12.331   9.671  71.615  1.00  0.00    -0.489 A  
HETATM   18  C   UNL     1     -12.676  10.968  71.992  1.00  0.00    -0.177 A  
HETATM   19  C   UNL     1     -12.464  12.022  71.113  1.00  0.00    -0.353 A  
HETATM   20  C   UNL     1     -12.859  13.433  71.468  1.00  0.00    -0.337 C  
HETATM   21  C   UNL     1     -11.869  11.749  69.869  1.00  0.00    -0.423 A  
HETATM   22  F   UNL     1     -13.772  13.948  70.599  1.00  0.00    -0.122 F  
HETATM   23  C   UNL     1     -11.495  10.444  69.450  1.00  0.00    -0.292 A  
HETATM   24  F   UNL     1     -11.801  14.290  71.449  1.00  0.00    -0.377 F  
HETATM   25  F   UNL     1     -13.415  13.551  72.706  1.00  0.00    -0.588 F  
HETATM   26  C   UNL     1     -10.877  10.179  68.170  1.00  0.00    -0.310 A  
HETATM   27  C   UNL     1     -10.591  11.180  67.204  1.00  0.00    -0.286 A  
HETATM   28  C   UNL     1     -10.005  10.889  65.970  1.00  0.00    -0.240 A  
HETATM   29  C   UNL     1      -9.667   9.592  65.642  1.00  0.00    -0.361 A  
HETATM   30 CL   UNL     1      -9.708  12.154  64.843  1.00  0.00    -0.154 Cl 
HETATM   31  C   UNL     1      -9.921   8.580  66.563  1.00  0.00    -0.280 A  
HETATM   32  C   UNL     1     -10.523   8.854  67.823  1.00  0.00    -0.300 A  
HETATM   33 CL   UNL     1      -9.489   6.970  66.064  1.00  0.00    -0.046 Cl 
HETATM   34  C   UNL     1     -10.812   7.834  68.739  1.00  0.00    -0.006 A  
ENDBRANCH  12  15
ENDBRANCH  11  12
ENDBRANCH  10  11
ENDBRANCH   5  10
ENDBRANCH   4   5
ENDBRANCH   3   4
ENDBRANCH   2   3
TORSDOF 10
ENDMDL
MODEL      126
REMARK 921   NORMALIZED FREE ENERGY PREDICTED BY IDOCK:   -3.74 KCAL/MOL
REMARK 922        TOTAL FREE ENERGY PREDICTED BY IDOCK:   -8.42 KCAL/MOL
REMARK 923 INTER-LIGAND FREE ENERGY PREDICTED BY IDOCK:   -6.74 KCAL/MOL
REMARK 924 INTRA-LIGAND FREE ENERGY PREDICTED BY IDOCK:   -1.67 KCAL/MOL
REMARK 927      BINDING AFFINITY PREDICTED BY RF-SCORE:    0.00 PKD
ROOT
HETATM    1  C   UNL     1     -10.459   3.739  64.205  1.00  0.00    -0.252 C  
HETATM    2  C   UNL     1     -10.585   4.526  65.501  1.00  0.00    -0.218 C  
ENDROOT
BRANCH   2   3
HETATM    3  C   UNL     1      -9.275   5.247  65.814  1.00  0.00    -0.159 C  
BRANCH   3   4
HETATM    4  C   UNL     1      -9.281   5.985  67.158  1.00  0.00    -0.117 C  
BRANCH   4   5
HETATM    5  N   UNL     1     -10.095   5.433  68.269  1.00  0.00    -0.167 NA 
BRANCH   5   6
HETATM    6  C   UNL     1      -9.232   4.890  69.341  1.00  0.00    -0.109 C  
BRANCH   6   7
HETATM    7  C   UNL     1      -9.333   3.374  69.599  1.00  0.00    -0.241 C  
BRANCH   7   8
HETATM    8  C   UNL     1      -9.329   2.524  68.331  1.00  0.00    -0.259 C  
HETATM    9  C   UNL     1      -7.925   2.440  67.741  1.00  0.00    -0.061 C  
ENDBRANCH   7   8
ENDBRANCH   6   7
ENDBRANCH   5   6
BRANCH   5  10
HETATM   10  C   UNL     1     -11.001   6.481  68.812  1.00  0.00    -0.305 C  
BRANCH  10  11
HETATM   11  C   UNL     1     -10.366   7.242  69.974  1.00  0.00    -0.222 C  
BRANCH  11  12
HETATM   12  C   UNL     1     -10.559   8.763  69.906  1.00  0.00    -0.224 C  
HETATM   13  H   UNL     1     -10.358  10.295  71.120  1.00  0.00     0.000 HD 
HETATM   14  O   UNL     1     -10.238   9.353  71.162  1.00  0.00    -0.304 OA 
BRANCH  12  15
HETATM   15  C   UNL     1      -9.722   9.425  68.809  1.00  0.00    -0.161 A  
HETATM   16  C   UNL     1     -10.238  10.461  67.993  1.00  0.00    -0.199 A  
HETATM   17  C   UNL     1     -11.485  11.069  68.266  1.00  0.00    -0.374 A  
HETATM   18  C   UNL     1     -12.035  12.045  67.437  1.00  0.00    -0.125 A  
HETATM   19  C   UNL     1     -11.348  12.454  66.302  1.00  0.00    -0.388 A  
HETATM   20  C   UNL     1     -11.926  13.480  65.360  1.00  0.00    -0.379 C  
HETATM   21  C   UNL     1     -10.088  11.889  66.040  1.00  0.00    -0.261 A  
HETATM   22  F   UNL     1     -12.093  12.988  64.101  1.00  0.00    -0.395 F  
HETATM   23  C   UNL     1      -9.488  10.898  66.863  1.00  0.00    -0.198 A  
HETATM   24  F   UNL     1     -11.128  14.575  65.230  1.00  0.00    -0.299 F  
HETATM   25  F   UNL     1     -13.147  13.948  65.742  1.00  0.00    -0.521 F  
HETATM   26  C   UNL     1      -8.188  10.330  66.586  1.00  0.00    -0.125 A  
HETATM   27  C   UNL     1      -7.387  10.690  65.470  1.00  0.00    -0.056 A  
HETATM   28  C   UNL     1      -6.140  10.112  65.222  1.00  0.00    -0.117 A  
HETATM   29  C   UNL     1      -5.626   9.157  66.076  1.00  0.00    -0.045 A  
HETATM   30 CL   UNL     1      -5.236  10.585  63.837  1.00  0.00    -0.151 Cl 
HETATM   31  C   UNL     1      -6.374   8.781  67.187  1.00  0.00    -0.060 A  
HETATM   32  C   UNL     1      -7.650   9.352  67.454  1.00  0.00    -0.095 A  
HETATM   33 CL   UNL     1      -5.669   7.554  68.200  1.00  0.00    -0.026 Cl 
HETATM   34  C   UNL     1      -8.422   8.952  68.553  1.00  0.00    -0.129 A  
ENDBRANCH  12  15
ENDBRANCH  11  12
ENDBRANCH  10  11
ENDBRANCH   5  10
ENDBRANCH   4   5
ENDBRANCH   3   4
ENDBRANCH   2   3
TORSDOF 10
ENDMDL
MODEL      127
REMARK 921   NORMALIZED FREE ENERGY PREDICTED BY IDOCK:   -3.73 KCAL/MOL
REMARK 922        TOTAL FREE ENERGY PREDICTED BY IDOCK:   -8.40 KCAL/MOL
REMARK 923 INTER-LIGAND FREE ENERGY PREDICTED BY IDOCK:   -7.46 KCAL/MOL
REMARK 924 INTRA-LIGAND FREE ENERGY PREDICTED BY IDOCK:   -0.94 KCAL/MOL
REMARK 927      BINDING AFFINITY PREDICTED BY RF-SCORE:    0.00 PKD
ROOT
HETATM    1  C   UNL     1     -12.630   8.905  71.490  1.00  0.00    -0.385 C  
HETATM    2  C   UNL     1     -12.907   7.409  71.505  1.00  0.00    -0.416 C  
ENDROOT
BRANCH   2   3
HETATM    3  C   UNL     1     -11.781   6.655  70.799  1.00  0.00    -0.445 C  
BRANCH   3   4
HETATM    4  C   UNL     1     -10.831   7.561  70.007  1.00  0.00    -0.249 C  
BRANCH   4   5
HETATM    5  N   UNL     1      -9.861   6.933  69.076  1.00  0.00    -0.150 NA 
BRANCH   5   6
HETATM    6  C   UNL     1      -9.497   5.572  69.526  1.00  0.00    -0.141 C  
BRANCH   6   7
HETATM    7  C   UNL     1     -10.126   4.401  68.747  1.00  0.00     0.034 C  
BRANCH   7   8
HETATM    8  C   UNL     1      -9.129   3.321  68.333  1.00  0.00    -0.210 C  
HETATM    9  C   UNL     1      -9.282   2.986  66.852  1.00  0.00    -0.177 C  
ENDBRANCH   7   8
ENDBRANCH   6   7
ENDBRANCH   5   6
BRANCH   5  10
HETATM   10  C   UNL     1     -10.424   6.891  67.699  1.00  0.00    -0.228 C  
BRANCH  10  11
HETATM   11  C   UNL     1     -10.546   8.286  67.088  1.00  0.00    -0.340 C  
BRANCH  11  12
HETATM   12  C   UNL     1      -9.210   8.892  66.638  1.00  0.00    -0.170 C  
HETATM   13  H   UNL     1      -7.906   8.594  65.199  1.00  0.00     0.000 HD 
HETATM   14  O   UNL     1      -8.733   8.219  65.477  1.00  0.00    -0.166 OA 
BRANCH  12  15
HETATM   15  C   UNL     1      -9.298  10.392  66.351  1.00  0.00    -0.197 A  
HETATM   16  C   UNL     1      -8.534  11.341  67.070  1.00  0.00    -0.150 A  
HETATM   17  C   UNL     1      -7.511  10.947  67.964  1.00  0.00    -0.090 A  
HETATM   18  C   UNL     1      -6.792  11.866  68.726  1.00  0.00    -0.093 A  
HETATM   19  C   UNL     1      -7.069  13.222  68.616  1.00  0.00    -0.103 A  
HETATM   20  C   UNL     1      -6.341  14.244  69.450  1.00  0.00    -0.120 C  
HETATM   21  C   UNL     1      -8.055  13.633  67.702  1.00  0.00    -0.179 A  
HETATM   22  F   UNL     1      -7.185  14.957  70.246  1.00  0.00    -0.169 F  
HETATM   23  C   UNL     1      -8.804  12.730  66.900  1.00  0.00    -0.194 A  
HETATM   24  F   UNL     1      -5.680  15.161  68.691  1.00  0.00    -0.083 F  
HETATM   25  F   UNL     1      -5.408  13.705  70.284  1.00  0.00    -0.090 F  
HETATM   26  C   UNL     1      -9.810  13.167  65.958  1.00  0.00    -0.266 A  
HETATM   27  C   UNL     1     -10.160  14.526  65.744  1.00  0.00    -0.365 A  
HETATM   28  C   UNL     1     -11.147  14.916  64.836  1.00  0.00    -0.414 A  
HETATM   29  C   UNL     1     -11.826  13.973  64.091  1.00  0.00    -0.393 A  
HETATM   30 CL   UNL     1     -11.529  16.583  64.647  1.00  0.00    -0.179 Cl 
HETATM   31  C   UNL     1     -11.510  12.630  64.262  1.00  0.00    -0.363 A  
HETATM   32  C   UNL     1     -10.512  12.211  65.187  1.00  0.00    -0.317 A  
HETATM   33 CL   UNL     1     -12.428  11.503  63.305  1.00  0.00    -0.312 Cl 
HETATM   34  C   UNL     1     -10.214  10.857  65.388  1.00  0.00    -0.339 A  
ENDBRANCH  12  15
ENDBRANCH  11  12
ENDBRANCH  10  11
ENDBRANCH   5  10
ENDBRANCH   4   5
ENDBRANCH   3   4
ENDBRANCH   2   3
TORSDOF 10
ENDMDL
MODEL      128
REMARK 921   NORMALIZED FREE ENERGY PREDICTED BY IDOCK:   -3.68 KCAL/MOL
REMARK 922        TOTAL FREE ENERGY PREDICTED BY IDOCK:   -8.33 KCAL/MOL
REMARK 923 INTER-LIGAND FREE ENERGY PREDICTED BY IDOCK:   -6.54 KCAL/MOL
REMARK 924 INTRA-LIGAND FREE ENERGY PREDICTED BY IDOCK:   -1.79 KCAL/MOL
REMARK 927      BINDING AFFINITY PREDICTED BY RF-SCORE:    0.00 PKD
ROOT
HETATM    1  C   UNL     1     -11.440  12.380  69.156  1.00  0.00    -0.358 C  
HETATM    2  C   UNL     1     -11.175  10.931  68.777  1.00  0.00    -0.329 C  
ENDROOT
BRANCH   2   3
HETATM    3  C   UNL     1     -10.452  10.210  69.912  1.00  0.00    -0.322 C  
BRANCH   3   4
HETATM    4  C   UNL     1      -9.091   9.628  69.509  1.00  0.00    -0.199 C  
BRANCH   4   5
HETATM    5  N   UNL     1      -7.900   9.976  70.324  1.00  0.00    -0.201 NA 
BRANCH   5   6
HETATM    6  C   UNL     1      -7.222   8.759  70.820  1.00  0.00    -0.073 C  
BRANCH   6   7
HETATM    7  C   UNL     1      -6.750   8.788  72.287  1.00  0.00    -0.023 C  
BRANCH   7   8
HETATM    8  C   UNL     1      -7.177   7.570  73.103  1.00  0.00    -0.089 C  
HETATM    9  C   UNL     1      -8.320   7.929  74.049  1.00  0.00    -0.310 C  
ENDBRANCH   7   8
ENDBRANCH   6   7
ENDBRANCH   5   6
BRANCH   5  10
HETATM   10  C   UNL     1      -6.958  10.808  69.526  1.00  0.00    -0.130 C  
BRANCH  10  11
HETATM   11  C   UNL     1      -7.273  12.298  69.640  1.00  0.00     0.448 C  
BRANCH  11  12
HETATM   12  C   UNL     1      -6.693  13.149  68.502  1.00  0.00    -0.092 C  
HETATM   13  H   UNL     1      -5.232  13.005  67.195  1.00  0.00     0.000 HD 
HETATM   14  O   UNL     1      -5.591  12.477  67.900  1.00  0.00    -0.073 OA 
BRANCH  12  15
HETATM   15  C   UNL     1      -7.724  13.491  67.424  1.00  0.00    -0.149 A  
HETATM   16  C   UNL     1      -8.230  14.802  67.256  1.00  0.00    -0.237 A  
HETATM   17  C   UNL     1      -7.677  15.905  67.948  1.00  0.00    -0.146 A  
HETATM   18  C   UNL     1      -8.202  17.191  67.843  1.00  0.00    -0.202 A  
HETATM   19  C   UNL     1      -9.304  17.422  67.030  1.00  0.00    -0.265 A  
HETATM   20  C   UNL     1      -9.925  18.791  66.918  1.00  0.00    -0.346 C  
HETATM   21  C   UNL     1      -9.840  16.345  66.304  1.00  0.00    -0.336 A  
HETATM   22  F   UNL     1     -11.228  18.801  67.317  1.00  0.00    -0.436 F  
HETATM   23  C   UNL     1      -9.329  15.020  66.377  1.00  0.00    -0.334 A  
HETATM   24  F   UNL     1      -9.923  19.262  65.641  1.00  0.00    -0.336 F  
HETATM   25  F   UNL     1      -9.299  19.740  67.668  1.00  0.00    -0.362 F  
HETATM   26  C   UNL     1      -9.885  13.922  65.619  1.00  0.00    -0.231 A  
HETATM   27  C   UNL     1     -10.994  14.046  64.740  1.00  0.00    -0.410 A  
HETATM   28  C   UNL     1     -11.517  12.962  64.032  1.00  0.00    -0.422 A  
HETATM   29  C   UNL     1     -10.958  11.707  64.156  1.00  0.00    -0.442 A  
HETATM   30 CL   UNL     1     -12.877  13.187  63.001  1.00  0.00     0.284 Cl 
HETATM   31  C   UNL     1      -9.864  11.541  64.999  1.00  0.00    -0.257 A  
HETATM   32  C   UNL     1      -9.320  12.631  65.735  1.00  0.00     0.044 A  
HETATM   33 CL   UNL     1      -9.233   9.925  65.120  1.00  0.00    -0.262 Cl 
HETATM   34  C   UNL     1      -8.240  12.463  66.613  1.00  0.00     0.054 A  
ENDBRANCH  12  15
ENDBRANCH  11  12
ENDBRANCH  10  11
ENDBRANCH   5  10
ENDBRANCH   4   5
ENDBRANCH   3   4
ENDBRANCH   2   3
TORSDOF 10
ENDMDL
MODEL      129
REMARK 921   NORMALIZED FREE ENERGY PREDICTED BY IDOCK:   -3.63 KCAL/MOL
REMARK 922        TOTAL FREE ENERGY PREDICTED BY IDOCK:   -8.25 KCAL/MOL
REMARK 923 INTER-LIGAND FREE ENERGY PREDICTED BY IDOCK:   -7.14 KCAL/MOL
REMARK 924 INTRA-LIGAND FREE ENERGY PREDICTED BY IDOCK:   -1.11 KCAL/MOL
REMARK 927      BINDING AFFINITY PREDICTED BY RF-SCORE:    0.00 PKD
ROOT
HETATM    1  C   UNL     1     -12.166   6.743  71.846  1.00  0.00    -0.377 C  
HETATM    2  C   UNL     1     -11.446   7.869  72.573  1.00  0.00    -0.455 C  
ENDROOT
BRANCH   2   3
HETATM    3  C   UNL     1     -10.451   8.553  71.638  1.00  0.00    -0.345 C  
BRANCH   3   4
HETATM    4  C   UNL     1      -8.993   8.447  72.101  1.00  0.00    -0.223 C  
BRANCH   4   5
HETATM    5  N   UNL     1      -7.933   8.268  71.077  1.00  0.00    -0.093 NA 
BRANCH   5   6
HETATM    6  C   UNL     1      -8.502   7.776  69.803  1.00  0.00    -0.133 C  
BRANCH   6   7
HETATM    7  C   UNL     1      -7.660   6.741  69.032  1.00  0.00    -0.101 C  
BRANCH   7   8
HETATM    8  C   UNL     1      -7.614   6.975  67.524  1.00  0.00    -0.109 C  
HETATM    9  C   UNL     1      -6.200   7.333  67.077  1.00  0.00    -0.046 C  
ENDBRANCH   7   8
ENDBRANCH   6   7
ENDBRANCH   5   6
BRANCH   5  10
HETATM   10  C   UNL     1      -7.207   9.550  70.860  1.00  0.00    -0.044 C  
BRANCH  10  11
HETATM   11  C   UNL     1      -7.379  10.072  69.436  1.00  0.00    -0.100 C  
BRANCH  11  12
HETATM   12  C   UNL     1      -7.119  11.577  69.285  1.00  0.00    -0.077 C  
HETATM   13  H   UNL     1      -5.568  12.750  69.008  1.00  0.00     0.000 HD 
HETATM   14  O   UNL     1      -5.728  11.818  69.101  1.00  0.00    -0.054 OA 
BRANCH  12  15
HETATM   15  C   UNL     1      -7.897  12.207  68.128  1.00  0.00    -0.147 A  
HETATM   16  C   UNL     1      -8.213  13.586  68.097  1.00  0.00    -0.162 A  
HETATM   17  C   UNL     1      -7.670  14.493  69.037  1.00  0.00    -0.113 A  
HETATM   18  C   UNL     1      -8.019  15.842  69.059  1.00  0.00    -0.214 A  
HETATM   19  C   UNL     1      -8.926  16.335  68.131  1.00  0.00    -0.187 A  
HETATM   20  C   UNL     1      -9.359  17.779  68.146  1.00  0.00    -0.281 C  
HETATM   21  C   UNL     1      -9.444  15.455  67.165  1.00  0.00    -0.221 A  
HETATM   22  F   UNL     1     -10.701  17.914  68.331  1.00  0.00    -0.350 F  
HETATM   23  C   UNL     1      -9.107  14.076  67.102  1.00  0.00    -0.239 A  
HETATM   24  F   UNL     1      -9.077  18.420  66.978  1.00  0.00    -0.255 F  
HETATM   25  F   UNL     1      -8.771  18.517  69.129  1.00  0.00    -0.249 F  
HETATM   26  C   UNL     1      -9.642  13.184  66.098  1.00  0.00    -0.209 A  
HETATM   27  C   UNL     1     -10.555  13.582  65.087  1.00  0.00    -0.364 A  
HETATM   28  C   UNL     1     -11.065  12.692  64.139  1.00  0.00    -0.382 A  
HETATM   29  C   UNL     1     -10.682  11.366  64.146  1.00  0.00    -0.434 A  
HETATM   30 CL   UNL     1     -12.185  13.247  62.957  1.00  0.00    -0.285 Cl 
HETATM   31  C   UNL     1      -9.781  10.934  65.113  1.00  0.00    -0.262 A  
HETATM   32  C   UNL     1      -9.256  11.823  66.092  1.00  0.00    -0.218 A  
HETATM   33 CL   UNL     1      -9.369   9.244  65.068  1.00  0.00    -0.260 Cl 
HETATM   34  C   UNL     1      -8.374  11.385  67.090  1.00  0.00    -0.155 A  
ENDBRANCH  12  15
ENDBRANCH  11  12
ENDBRANCH  10  11
ENDBRANCH   5  10
ENDBRANCH   4   5
ENDBRANCH   3   4
ENDBRANCH   2   3
TORSDOF 10
ENDMDL
MODEL      130
REMARK 921   NORMALIZED FREE ENERGY PREDICTED BY IDOCK:   -3.63 KCAL/MOL
REMARK 922        TOTAL FREE ENERGY PREDICTED BY IDOCK:   -8.24 KCAL/MOL
REMARK 923 INTER-LIGAND FREE ENERGY PREDICTED BY IDOCK:   -8.52 KCAL/MOL
REMARK 924 INTRA-LIGAND FREE ENERGY PREDICTED BY IDOCK:    0.28 KCAL/MOL
REMARK 927      BINDING AFFINITY PREDICTED BY RF-SCORE:    0.00 PKD
ROOT
HETATM    1  C   UNL     1      -5.711   7.313  72.733  1.00  0.00    -0.041 C  
HETATM    2  C   UNL     1      -6.862   6.741  71.919  1.00  0.00    -0.063 C  
ENDROOT
BRANCH   2   3
HETATM    3  C   UNL     1      -8.200   7.134  72.545  1.00  0.00    -0.118 C  
BRANCH   3   4
HETATM    4  C   UNL     1      -9.419   6.694  71.726  1.00  0.00    -0.151 C  
BRANCH   4   5
HETATM    5  N   UNL     1     -10.614   6.189  72.447  1.00  0.00    -0.203 NA 
BRANCH   5   6
HETATM    6  C   UNL     1     -10.264   5.750  73.815  1.00  0.00    -0.235 C  
BRANCH   6   7
HETATM    7  C   UNL     1      -9.683   4.329  73.951  1.00  0.00    -0.149 C  
BRANCH   7   8
HETATM    8  C   UNL     1     -10.706   3.215  73.740  1.00  0.00    -0.292 C  
HETATM    9  C   UNL     1     -10.286   2.309  72.586  1.00  0.00    -0.231 C  
ENDBRANCH   7   8
ENDBRANCH   6   7
ENDBRANCH   5   6
BRANCH   5  10
HETATM   10  C   UNL     1     -11.668   7.239  72.492  1.00  0.00    -0.204 C  
BRANCH  10  11
HETATM   11  C   UNL     1     -11.317   8.440  71.618  1.00  0.00    -0.349 C  
BRANCH  11  12
HETATM   12  C   UNL     1     -12.531   9.270  71.176  1.00  0.00    -0.272 C  
HETATM   13  H   UNL     1     -14.039  10.187  72.040  1.00  0.00     0.000 HD 
HETATM   14  O   UNL     1     -13.287   9.673  72.313  1.00  0.00    -0.438 OA 
BRANCH  12  15
HETATM   15  C   UNL     1     -12.147  10.507  70.361  1.00  0.00    -0.418 A  
HETATM   16  C   UNL     1     -12.329  11.820  70.858  1.00  0.00    -0.420 A  
HETATM   17  C   UNL     1     -12.699  12.061  72.201  1.00  0.00     0.071 A  
HETATM   18  C   UNL     1     -12.943  13.343  72.689  1.00  0.00    -0.217 A  
HETATM   19  C   UNL     1     -12.818  14.438  71.845  1.00  0.00    -0.426 A  
HETATM   20  C   UNL     1     -13.110  15.837  72.324  1.00  0.00    -0.447 C  
HETATM   21  C   UNL     1     -12.412  14.219  70.517  1.00  0.00    -0.428 A  
HETATM   22  F   UNL     1     -14.116  16.425  71.619  1.00  0.00     0.427 F  
HETATM   23  C   UNL     1     -12.145  12.929  69.983  1.00  0.00    -0.357 A  
HETATM   24  F   UNL     1     -12.036  16.665  72.200  1.00  0.00    -0.488 F  
HETATM   25  F   UNL     1     -13.484  15.902  73.632  1.00  0.00    -0.578 F  
HETATM   26  C   UNL     1     -11.721  12.719  68.617  1.00  0.00    -0.360 A  
HETATM   27  C   UNL     1     -11.537  13.764  67.673  1.00  0.00    -0.381 A  
HETATM   28  C   UNL     1     -11.139  13.526  66.356  1.00  0.00    -0.302 A  
HETATM   29  C   UNL     1     -10.895  12.240  65.918  1.00  0.00    -0.306 A  
HETATM   30 CL   UNL     1     -10.957  14.844  65.264  1.00  0.00    -0.361 Cl 
HETATM   31  C   UNL     1     -11.054  11.187  66.811  1.00  0.00    -0.214 A  
HETATM   32  C   UNL     1     -11.465  11.406  68.156  1.00  0.00    -0.375 A  
HETATM   33 CL   UNL     1     -10.752   9.596  66.175  1.00  0.00     0.030 Cl 
HETATM   34  C   UNL     1     -11.660  10.345  69.051  1.00  0.00    -0.220 A  
ENDBRANCH  12  15
ENDBRANCH  11  12
ENDBRANCH  10  11
ENDBRANCH   5  10
ENDBRANCH   4   5
ENDBRANCH   3   4
ENDBRANCH   2   3
TORSDOF 10
ENDMDL
MODEL      131
REMARK 921   NORMALIZED FREE ENERGY PREDICTED BY IDOCK:   -3.62 KCAL/MOL
REMARK 922        TOTAL FREE ENERGY PREDICTED BY IDOCK:   -8.22 KCAL/MOL
REMARK 923 INTER-LIGAND FREE ENERGY PREDICTED BY IDOCK:   -7.02 KCAL/MOL
REMARK 924 INTRA-LIGAND FREE ENERGY PREDICTED BY IDOCK:   -1.21 KCAL/MOL
REMARK 927      BINDING AFFINITY PREDICTED BY RF-SCORE:    0.00 PKD
ROOT
HETATM    1  C   UNL     1      -7.764   6.851  74.541  1.00  0.00    -0.132 C  
HETATM    2  C   UNL     1      -7.175   7.570  73.336  1.00  0.00    -0.098 C  
ENDROOT
BRANCH   2   3
HETATM    3  C   UNL     1      -6.318   6.610  72.513  1.00  0.00    -0.054 C  
BRANCH   3   4
HETATM    4  C   UNL     1      -6.125   7.047  71.056  1.00  0.00    -0.036 C  
BRANCH   4   5
HETATM    5  N   UNL     1      -7.299   7.559  70.306  1.00  0.00    -0.075 NA 
BRANCH   5   6
HETATM    6  C   UNL     1      -6.977   7.740  68.874  1.00  0.00    -0.066 C  
BRANCH   6   7
HETATM    7  C   UNL     1      -6.742   9.187  68.401  1.00  0.00    -0.059 C  
BRANCH   7   8
HETATM    8  C   UNL     1      -7.414  10.244  69.272  1.00  0.00    -0.112 C  
HETATM    9  C   UNL     1      -6.420  10.836  70.268  1.00  0.00    -0.128 C  
ENDBRANCH   7   8
ENDBRANCH   6   7
ENDBRANCH   5   6
BRANCH   5  10
HETATM   10  C   UNL     1      -8.454   6.635  70.467  1.00  0.00    -0.138 C  
BRANCH  10  11
HETATM   11  C   UNL     1      -9.587   6.959  69.496  1.00  0.00    -0.148 C  
BRANCH  11  12
HETATM   12  C   UNL     1     -10.762   7.712  70.133  1.00  0.00    -0.240 C  
HETATM   13  H   UNL     1     -11.259   8.358  71.921  1.00  0.00     0.000 HD 
HETATM   14  O   UNL     1     -10.531   7.892  71.527  1.00  0.00    -0.205 OA 
BRANCH  12  15
HETATM   15  C   UNL     1     -11.024   9.074  69.486  1.00  0.00    -0.118 A  
HETATM   16  C   UNL     1     -10.659   9.353  68.148  1.00  0.00    -0.261 A  
HETATM   17  C   UNL     1     -10.204   8.337  67.276  1.00  0.00    -0.344 A  
HETATM   18  C   UNL     1      -9.782   8.605  65.975  1.00  0.00    -0.238 A  
HETATM   19  C   UNL     1      -9.806   9.907  65.495  1.00  0.00    -0.381 A  
HETATM   20  C   UNL     1      -9.323  10.244  64.108  1.00  0.00    -0.287 C  
HETATM   21  C   UNL     1     -10.294  10.923  66.336  1.00  0.00    -0.306 A  
HETATM   22  F   UNL     1      -8.283  11.123  64.123  1.00  0.00     0.062 F  
HETATM   23  C   UNL     1     -10.742  10.691  67.665  1.00  0.00    -0.315 A  
HETATM   24  F   UNL     1     -10.290  10.824  63.345  1.00  0.00    -0.377 F  
HETATM   25  F   UNL     1      -8.887   9.163  63.402  1.00  0.00    -0.215 F  
HETATM   26  C   UNL     1     -11.248  11.744  68.517  1.00  0.00    -0.306 A  
HETATM   27  C   UNL     1     -11.341  13.105  68.125  1.00  0.00    -0.328 A  
HETATM   28  C   UNL     1     -11.822  14.102  68.977  1.00  0.00    -0.348 A  
HETATM   29  C   UNL     1     -12.243  13.791  70.254  1.00  0.00    -0.429 A  
HETATM   30 CL   UNL     1     -11.886  15.735  68.437  1.00  0.00    -0.280 Cl 
HETATM   31  C   UNL     1     -12.177  12.467  70.677  1.00  0.00    -0.276 A  
HETATM   32  C   UNL     1     -11.684  11.438  69.827  1.00  0.00    -0.418 A  
HETATM   33 CL   UNL     1     -12.702  12.161  72.308  1.00  0.00     0.020 Cl 
HETATM   34  C   UNL     1     -11.584  10.108  70.260  1.00  0.00    -0.379 A  
ENDBRANCH  12  15
ENDBRANCH  11  12
ENDBRANCH  10  11
ENDBRANCH   5  10
ENDBRANCH   4   5
ENDBRANCH   3   4
ENDBRANCH   2   3
TORSDOF 10
ENDMDL
MODEL      132
REMARK 921   NORMALIZED FREE ENERGY PREDICTED BY IDOCK:   -3.61 KCAL/MOL
REMARK 922        TOTAL FREE ENERGY PREDICTED BY IDOCK:   -8.22 KCAL/MOL
REMARK 923 INTER-LIGAND FREE ENERGY PREDICTED BY IDOCK:   -7.33 KCAL/MOL
REMARK 924 INTRA-LIGAND FREE ENERGY PREDICTED BY IDOCK:   -0.90 KCAL/MOL
REMARK 927      BINDING AFFINITY PREDICTED BY RF-SCORE:    0.00 PKD
ROOT
HETATM    1  C   UNL     1     -12.826  13.629  71.148  1.00  0.00    -0.399 C  
HETATM    2  C   UNL     1     -12.448  14.743  72.113  1.00  0.00    -0.409 C  
ENDROOT
BRANCH   2   3
HETATM    3  C   UNL     1     -12.275  16.061  71.360  1.00  0.00    -0.439 C  
BRANCH   3   4
HETATM    4  C   UNL     1     -11.036  16.099  70.457  1.00  0.00    -0.322 C  
BRANCH   4   5
HETATM    5  N   UNL     1     -11.029  17.029  69.300  1.00  0.00    -0.128 NA 
BRANCH   5   6
HETATM    6  C   UNL     1      -9.802  17.854  69.289  1.00  0.00    -0.043 C  
BRANCH   6   7
HETATM    7  C   UNL     1     -10.003  19.379  69.188  1.00  0.00    -0.412 C  
BRANCH   7   8
HETATM    8  C   UNL     1      -9.208  20.039  68.064  1.00  0.00    -0.376 C  
HETATM    9  C   UNL     1      -7.727  19.689  68.172  1.00  0.00    -0.344 C  
ENDBRANCH   7   8
ENDBRANCH   6   7
ENDBRANCH   5   6
BRANCH   5  10
HETATM   10  C   UNL     1     -11.153  16.265  68.028  1.00  0.00    -0.299 C  
BRANCH  10  11
HETATM   11  C   UNL     1     -10.901  17.145  66.805  1.00  0.00     0.022 C  
BRANCH  11  12
HETATM   12  C   UNL     1      -9.689  16.718  65.966  1.00  0.00    -0.259 C  
HETATM   13  H   UNL     1      -8.101  17.575  65.188  1.00  0.00     0.000 HD 
HETATM   14  O   UNL     1      -8.851  17.840  65.708  1.00  0.00    -0.501 OA 
BRANCH  12  15
HETATM   15  C   UNL     1      -8.861  15.613  66.627  1.00  0.00    -0.327 A  
HETATM   16  C   UNL     1      -9.074  14.243  66.344  1.00  0.00    -0.171 A  
HETATM   17  C   UNL     1      -9.932  13.825  65.301  1.00  0.00    -0.245 A  
HETATM   18  C   UNL     1     -10.202  12.481  65.050  1.00  0.00    -0.301 A  
HETATM   19  C   UNL     1      -9.612  11.500  65.836  1.00  0.00    -0.254 A  
HETATM   20  C   UNL     1      -9.907  10.038  65.621  1.00  0.00    -0.295 C  
HETATM   21  C   UNL     1      -8.725  11.898  66.851  1.00  0.00    -0.191 A  
HETATM   22  F   UNL     1     -10.458   9.455  66.722  1.00  0.00    -0.305 F  
HETATM   23  C   UNL     1      -8.417  13.256  67.135  1.00  0.00    -0.182 A  
HETATM   24  F   UNL     1      -8.788   9.317  65.338  1.00  0.00    -0.156 F  
HETATM   25  F   UNL     1     -10.776   9.798  64.600  1.00  0.00     0.264 F  
HETATM   26  C   UNL     1      -7.497  13.650  68.177  1.00  0.00    -0.125 A  
HETATM   27  C   UNL     1      -6.819  12.735  69.025  1.00  0.00    -0.081 A  
HETATM   28  C   UNL     1      -5.945  13.149  70.034  1.00  0.00    -0.135 A  
HETATM   29  C   UNL     1      -5.697  14.491  70.240  1.00  0.00    -0.133 A  
HETATM   30 CL   UNL     1      -5.177  11.980  71.035  1.00  0.00    -0.138 Cl 
HETATM   31  C   UNL     1      -6.333  15.422  69.426  1.00  0.00    -0.134 A  
HETATM   32  C   UNL     1      -7.232  15.022  68.397  1.00  0.00    -0.111 A  
HETATM   33 CL   UNL     1      -5.986  17.093  69.766  1.00  0.00    -0.233 Cl 
HETATM   34  C   UNL     1      -7.901  15.958  67.597  1.00  0.00    -0.164 A  
ENDBRANCH  12  15
ENDBRANCH  11  12
ENDBRANCH  10  11
ENDBRANCH   5  10
ENDBRANCH   4   5
ENDBRANCH   3   4
ENDBRANCH   2   3
TORSDOF 10
ENDMDL
MODEL      133
REMARK 921   NORMALIZED FREE ENERGY PREDICTED BY IDOCK:   -3.60 KCAL/MOL
REMARK 922        TOTAL FREE ENERGY PREDICTED BY IDOCK:   -8.19 KCAL/MOL
REMARK 923 INTER-LIGAND FREE ENERGY PREDICTED BY IDOCK:   -7.28 KCAL/MOL
REMARK 924 INTRA-LIGAND FREE ENERGY PREDICTED BY IDOCK:   -0.91 KCAL/MOL
REMARK 927      BINDING AFFINITY PREDICTED BY RF-SCORE:    0.00 PKD
ROOT
HETATM    1  C   UNL     1      -6.673   5.016  66.117  1.00  0.00    -0.053 C  
HETATM    2  C   UNL     1      -7.944   4.414  66.696  1.00  0.00    -0.099 C  
ENDROOT
BRANCH   2   3
HETATM    3  C   UNL     1      -7.690   3.903  68.114  1.00  0.00    -0.066 C  
BRANCH   3   4
HETATM    4  C   UNL     1      -8.079   4.900  69.210  1.00  0.00    -0.078 C  
BRANCH   4   5
HETATM    5  N   UNL     1      -9.123   4.509  70.190  1.00  0.00    -0.093 NA 
BRANCH   5   6
HETATM    6  C   UNL     1      -8.754   3.258  70.889  1.00  0.00    -0.075 C  
BRANCH   6   7
HETATM    7  C   UNL     1      -9.896   2.259  71.154  1.00  0.00    -0.106 C  
BRANCH   7   8
HETATM    8  C   UNL     1      -9.988   1.787  72.603  1.00  0.00    -0.187 C  
HETATM    9  C   UNL     1      -9.630   2.918  73.562  1.00  0.00    -0.130 C  
ENDBRANCH   7   8
ENDBRANCH   6   7
ENDBRANCH   5   6
BRANCH   5  10
HETATM   10  C   UNL     1      -9.346   5.606  71.170  1.00  0.00    -0.153 C  
BRANCH  10  11
HETATM   11  C   UNL     1      -9.515   6.960  70.485  1.00  0.00    -0.169 C  
BRANCH  11  12
HETATM   12  C   UNL     1     -10.968   7.451  70.420  1.00  0.00    -0.251 C  
HETATM   13  H   UNL     1     -12.393   7.905  71.694  1.00  0.00     0.000 HD 
HETATM   14  O   UNL     1     -11.494   7.601  71.735  1.00  0.00    -0.251 OA 
BRANCH  12  15
HETATM   15  C   UNL     1     -11.121   8.773  69.663  1.00  0.00    -0.038 A  
HETATM   16  C   UNL     1     -10.632   8.945  68.346  1.00  0.00    -0.190 A  
HETATM   17  C   UNL     1     -10.141   7.857  67.588  1.00  0.00    -0.262 A  
HETATM   18  C   UNL     1      -9.598   8.019  66.315  1.00  0.00    -0.223 A  
HETATM   19  C   UNL     1      -9.532   9.286  65.750  1.00  0.00    -0.329 A  
HETATM   20  C   UNL     1      -8.918   9.509  64.391  1.00  0.00    -0.212 C  
HETATM   21  C   UNL     1     -10.053  10.372  66.474  1.00  0.00    -0.285 A  
HETATM   22  F   UNL     1      -7.851  10.354  64.440  1.00  0.00    -0.155 F  
HETATM   23  C   UNL     1     -10.622  10.248  67.770  1.00  0.00    -0.296 A  
HETATM   24  F   UNL     1      -9.793  10.064  63.508  1.00  0.00    -0.330 F  
HETATM   25  F   UNL     1      -8.463   8.368  63.801  1.00  0.00    -0.164 F  
HETATM   26  C   UNL     1     -11.161  11.373  68.501  1.00  0.00    -0.287 A  
HETATM   27  C   UNL     1     -11.169  12.706  68.012  1.00  0.00    -0.308 A  
HETATM   28  C   UNL     1     -11.685  13.775  68.749  1.00  0.00    -0.356 A  
HETATM   29  C   UNL     1     -12.226  13.567  70.002  1.00  0.00    -0.381 A  
HETATM   30 CL   UNL     1     -11.641  15.366  68.097  1.00  0.00    -0.355 Cl 
HETATM   31  C   UNL     1     -12.247  12.275  70.516  1.00  0.00    -0.300 A  
HETATM   32  C   UNL     1     -11.720  11.173  69.784  1.00  0.00    -0.419 A  
HETATM   33 CL   UNL     1     -12.922  12.100  72.110  1.00  0.00    -0.396 Cl 
HETATM   34  C   UNL     1     -11.707   9.875  70.312  1.00  0.00    -0.286 A  
ENDBRANCH  12  15
ENDBRANCH  11  12
ENDBRANCH  10  11
ENDBRANCH   5  10
ENDBRANCH   4   5
ENDBRANCH   3   4
ENDBRANCH   2   3
TORSDOF 10
ENDMDL
MODEL      134
REMARK 921   NORMALIZED FREE ENERGY PREDICTED BY IDOCK:   -3.56 KCAL/MOL
REMARK 922        TOTAL FREE ENERGY PREDICTED BY IDOCK:   -8.14 KCAL/MOL
REMARK 923 INTER-LIGAND FREE ENERGY PREDICTED BY IDOCK:   -6.65 KCAL/MOL
REMARK 924 INTRA-LIGAND FREE ENERGY PREDICTED BY IDOCK:   -1.49 KCAL/MOL
REMARK 927      BINDING AFFINITY PREDICTED BY RF-SCORE:    0.00 PKD
ROOT
HETATM    1  C   UNL     1     -11.759  15.809  69.072  1.00  0.00    -0.405 C  
HETATM    2  C   UNL     1     -11.339  15.245  67.723  1.00  0.00    -0.331 C  
ENDROOT
BRANCH   2   3
HETATM    3  C   UNL     1     -12.031  13.907  67.469  1.00  0.00    -0.421 C  
BRANCH   3   4
HETATM    4  C   UNL     1     -11.086  12.701  67.524  1.00  0.00    -0.272 C  
BRANCH   4   5
HETATM    5  N   UNL     1     -10.815  12.070  68.840  1.00  0.00    -0.223 NA 
BRANCH   5   6
HETATM    6  C   UNL     1     -12.003  12.141  69.718  1.00  0.00    -0.302 C  
BRANCH   6   7
HETATM    7  C   UNL     1     -12.641  10.797  70.118  1.00  0.00    -0.309 C  
BRANCH   7   8
HETATM    8  C   UNL     1     -12.565  10.491  71.612  1.00  0.00    -0.498 C  
HETATM    9  C   UNL     1     -11.963   9.110  71.850  1.00  0.00    -0.443 C  
ENDBRANCH   7   8
ENDBRANCH   6   7
ENDBRANCH   5   6
BRANCH   5  10
HETATM   10  C   UNL     1     -10.391  10.655  68.653  1.00  0.00    -0.186 C  
BRANCH  10  11
HETATM   11  C   UNL     1      -9.064  10.359  69.348  1.00  0.00    -0.170 C  
BRANCH  11  12
HETATM   12  C   UNL     1      -8.166   9.373  68.589  1.00  0.00    -0.112 C  
HETATM   13  H   UNL     1      -6.240   9.103  68.305  1.00  0.00     0.000 HD 
HETATM   14  O   UNL     1      -6.796   9.714  68.775  1.00  0.00    -0.051 OA 
BRANCH  12  15
HETATM   15  C   UNL     1      -8.385   7.917  69.009  1.00  0.00    -0.130 A  
HETATM   16  C   UNL     1      -8.436   6.863  68.067  1.00  0.00    -0.124 A  
HETATM   17  C   UNL     1      -8.104   7.065  66.708  1.00  0.00    -0.109 A  
HETATM   18  C   UNL     1      -8.209   6.053  65.755  1.00  0.00    -0.136 A  
HETATM   19  C   UNL     1      -8.648   4.792  66.134  1.00  0.00    -0.115 A  
HETATM   20  C   UNL     1      -8.812   3.681  65.129  1.00  0.00    -0.120 C  
HETATM   21  C   UNL     1      -8.943   4.564  67.489  1.00  0.00    -0.126 A  
HETATM   22  F   UNL     1     -10.094   3.227  65.066  1.00  0.00    -0.132 F  
HETATM   23  C   UNL     1      -8.841   5.565  68.493  1.00  0.00    -0.104 A  
HETATM   24  F   UNL     1      -8.045   2.595  65.422  1.00  0.00    -0.082 F  
HETATM   25  F   UNL     1      -8.482   4.041  63.857  1.00  0.00    -0.089 F  
HETATM   26  C   UNL     1      -9.141   5.314  69.884  1.00  0.00    -0.165 A  
HETATM   27  C   UNL     1      -9.573   4.060  70.389  1.00  0.00    -0.265 A  
HETATM   28  C   UNL     1      -9.869   3.853  71.739  1.00  0.00    -0.179 A  
HETATM   29  C   UNL     1      -9.738   4.880  72.651  1.00  0.00    -0.184 A  
HETATM   30 CL   UNL     1     -10.408   2.308  72.272  1.00  0.00    -0.208 Cl 
HETATM   31  C   UNL     1      -9.308   6.124  72.202  1.00  0.00    -0.151 A  
HETATM   32  C   UNL     1      -9.009   6.358  70.830  1.00  0.00    -0.144 A  
HETATM   33 CL   UNL     1      -9.194   7.372  73.408  1.00  0.00    -0.223 Cl 
HETATM   34  C   UNL     1      -8.608   7.618  70.366  1.00  0.00    -0.138 A  
ENDBRANCH  12  15
ENDBRANCH  11  12
ENDBRANCH  10  11
ENDBRANCH   5  10
ENDBRANCH   4   5
ENDBRANCH   3   4
ENDBRANCH   2   3
TORSDOF 10
ENDMDL
MODEL      135
REMARK 921   NORMALIZED FREE ENERGY PREDICTED BY IDOCK:   -3.56 KCAL/MOL
REMARK 922        TOTAL FREE ENERGY PREDICTED BY IDOCK:   -8.13 KCAL/MOL
REMARK 923 INTER-LIGAND FREE ENERGY PREDICTED BY IDOCK:   -6.43 KCAL/MOL
REMARK 924 INTRA-LIGAND FREE ENERGY PREDICTED BY IDOCK:   -1.70 KCAL/MOL
REMARK 927      BINDING AFFINITY PREDICTED BY RF-SCORE:    0.00 PKD
ROOT
HETATM    1  C   UNL     1     -10.196  15.315  68.039  1.00  0.00    -0.230 C  
HETATM    2  C   UNL     1     -10.503  14.552  66.758  1.00  0.00    -0.270 C  
ENDROOT
BRANCH   2   3
HETATM    3  C   UNL     1      -9.256  13.820  66.266  1.00  0.00    -0.095 C  
BRANCH   3   4
HETATM    4  C   UNL     1      -8.492  13.084  67.373  1.00  0.00    -0.200 C  
BRANCH   4   5
HETATM    5  N   UNL     1      -7.392  12.165  66.988  1.00  0.00    -0.113 NA 
BRANCH   5   6
HETATM    6  C   UNL     1      -6.072  12.787  67.227  1.00  0.00    -0.035 C  
BRANCH   6   7
HETATM    7  C   UNL     1      -6.060  14.059  68.097  1.00  0.00    -0.129 C  
BRANCH   7   8
HETATM    8  C   UNL     1      -5.611  13.824  69.537  1.00  0.00    -0.090 C  
HETATM    9  C   UNL     1      -5.775  15.094  70.367  1.00  0.00    -0.139 C  
ENDBRANCH   7   8
ENDBRANCH   6   7
ENDBRANCH   5   6
BRANCH   5  10
HETATM   10  C   UNL     1      -7.507  10.884  67.738  1.00  0.00    -0.094 C  
BRANCH  10  11
HETATM   11  C   UNL     1      -8.154   9.785  66.899  1.00  0.00    -0.113 C  
BRANCH  11  12
HETATM   12  C   UNL     1      -9.684   9.736  67.006  1.00  0.00    -0.183 C  
HETATM   13  H   UNL     1     -11.164   8.832  66.082  1.00  0.00     0.000 HD 
HETATM   14  O   UNL     1     -10.217   8.862  66.016  1.00  0.00    -0.199 OA 
BRANCH  12  15
HETATM   15  C   UNL     1     -10.176   9.293  68.386  1.00  0.00    -0.231 A  
HETATM   16  C   UNL     1     -10.985  10.123  69.198  1.00  0.00    -0.270 A  
HETATM   17  C   UNL     1     -11.538  11.328  68.708  1.00  0.00    -0.383 A  
HETATM   18  C   UNL     1     -12.285  12.187  69.512  1.00  0.00    -0.169 A  
HETATM   19  C   UNL     1     -12.509  11.865  70.844  1.00  0.00    -0.397 A  
HETATM   20  C   UNL     1     -13.279  12.785  71.757  1.00  0.00    -0.374 C  
HETATM   21  C   UNL     1     -12.000  10.651  71.335  1.00  0.00    -0.261 A  
HETATM   22  F   UNL     1     -12.534  13.200  72.819  1.00  0.00     0.018 F  
HETATM   23  C   UNL     1     -11.242   9.743  70.547  1.00  0.00    -0.381 A  
HETATM   24  F   UNL     1     -14.383  12.191  72.286  1.00  0.00    -0.021 F  
HETATM   25  F   UNL     1     -13.720  13.920  71.145  1.00  0.00    -0.334 F  
HETATM   26  C   UNL     1     -10.731   8.494  71.063  1.00  0.00    -0.278 A  
HETATM   27  C   UNL     1     -10.919   8.050  72.399  1.00  0.00    -0.402 A  
HETATM   28  C   UNL     1     -10.400   6.843  72.872  1.00  0.00    -0.226 A  
HETATM   29  C   UNL     1      -9.677   6.015  72.037  1.00  0.00    -0.174 A  
HETATM   30 CL   UNL     1     -10.654   6.384  74.511  1.00  0.00    -0.044 Cl 
HETATM   31  C   UNL     1      -9.475   6.406  70.717  1.00  0.00    -0.169 A  
HETATM   32  C   UNL     1      -9.990   7.635  70.218  1.00  0.00    -0.189 A  
HETATM   33 CL   UNL     1      -8.533   5.320  69.737  1.00  0.00    -0.097 Cl 
HETATM   34  C   UNL     1      -9.760   8.049  68.898  1.00  0.00    -0.159 A  
ENDBRANCH  12  15
ENDBRANCH  11  12
ENDBRANCH  10  11
ENDBRANCH   5  10
ENDBRANCH   4   5
ENDBRANCH   3   4
ENDBRANCH   2   3
TORSDOF 10
ENDMDL
MODEL      136
REMARK 921   NORMALIZED FREE ENERGY PREDICTED BY IDOCK:   -3.55 KCAL/MOL
REMARK 922        TOTAL FREE ENERGY PREDICTED BY IDOCK:   -8.13 KCAL/MOL
REMARK 923 INTER-LIGAND FREE ENERGY PREDICTED BY IDOCK:   -5.53 KCAL/MOL
REMARK 924 INTRA-LIGAND FREE ENERGY PREDICTED BY IDOCK:   -2.60 KCAL/MOL
REMARK 927      BINDING AFFINITY PREDICTED BY RF-SCORE:    0.00 PKD
ROOT
HETATM    1  C   UNL     1     -14.332   7.585  71.564  1.00  0.00    -0.603 C  
HETATM    2  C   UNL     1     -13.822   9.018  71.609  1.00  0.00    -0.422 C  
ENDROOT
BRANCH   2   3
HETATM    3  C   UNL     1     -12.298   9.042  71.508  1.00  0.00    -0.397 C  
BRANCH   3   4
HETATM    4  C   UNL     1     -11.599   8.068  72.464  1.00  0.00    -0.403 C  
BRANCH   4   5
HETATM    5  N   UNL     1     -10.786   6.968  71.888  1.00  0.00    -0.215 NA 
BRANCH   5   6
HETATM    6  C   UNL     1     -10.637   7.126  70.425  1.00  0.00    -0.224 C  
BRANCH   6   7
HETATM    7  C   UNL     1     -10.788   5.848  69.578  1.00  0.00    -0.442 C  
BRANCH   7   8
HETATM    8  C   UNL     1     -10.986   6.108  68.087  1.00  0.00    -0.398 C  
HETATM    9  C   UNL     1     -11.139   7.602  67.815  1.00  0.00     0.143 C  
ENDBRANCH   7   8
ENDBRANCH   6   7
ENDBRANCH   5   6
BRANCH   5  10
HETATM   10  C   UNL     1      -9.451   6.918  72.544  1.00  0.00    -0.138 C  
BRANCH  10  11
HETATM   11  C   UNL     1      -8.677   8.223  72.366  1.00  0.00    -0.279 C  
BRANCH  11  12
HETATM   12  C   UNL     1      -7.223   8.031  71.912  1.00  0.00    -0.080 C  
HETATM   13  H   UNL     1      -5.649   7.019  72.512  1.00  0.00     0.000 HD 
HETATM   14  O   UNL     1      -6.549   7.137  72.793  1.00  0.00    -0.062 OA 
BRANCH  12  15
HETATM   15  C   UNL     1      -7.106   7.509  70.478  1.00  0.00    -0.056 A  
HETATM   16  C   UNL     1      -7.486   8.290  69.361  1.00  0.00    -0.090 A  
HETATM   17  C   UNL     1      -7.817   9.659  69.491  1.00  0.00    -0.117 A  
HETATM   18  C   UNL     1      -8.253  10.426  68.412  1.00  0.00    -0.114 A  
HETATM   19  C   UNL     1      -8.367   9.848  67.155  1.00  0.00    -0.121 A  
HETATM   20  C   UNL     1      -8.871  10.633  65.971  1.00  0.00    -0.175 C  
HETATM   21  C   UNL     1      -8.003   8.499  67.002  1.00  0.00    -0.100 A  
HETATM   22  F   UNL     1     -10.001  10.093  65.437  1.00  0.00    -0.304 F  
HETATM   23  C   UNL     1      -7.546   7.684  68.073  1.00  0.00    -0.110 A  
HETATM   24  F   UNL     1      -7.965  10.683  64.955  1.00  0.00    -0.156 F  
HETATM   25  F   UNL     1      -9.178  11.928  66.263  1.00  0.00    -0.206 F  
HETATM   26  C   UNL     1      -7.167   6.300  67.899  1.00  0.00    -0.087 A  
HETATM   27  C   UNL     1      -7.219   5.613  66.658  1.00  0.00    -0.074 A  
HETATM   28  C   UNL     1      -6.859   4.270  66.526  1.00  0.00    -0.055 A  
HETATM   29  C   UNL     1      -6.420   3.550  67.619  1.00  0.00    -0.037 A  
HETATM   30 CL   UNL     1      -6.970   3.500  64.991  1.00  0.00    -0.055 Cl 
HETATM   31  C   UNL     1      -6.344   4.187  68.853  1.00  0.00    -0.032 A  
HETATM   32  C   UNL     1      -6.713   5.552  69.011  1.00  0.00    -0.053 A  
HETATM   33 CL   UNL     1      -5.806   3.205  70.185  1.00  0.00    -0.018 Cl 
HETATM   34  C   UNL     1      -6.671   6.189  70.259  1.00  0.00    -0.050 A  
ENDBRANCH  12  15
ENDBRANCH  11  12
ENDBRANCH  10  11
ENDBRANCH   5  10
ENDBRANCH   4   5
ENDBRANCH   3   4
ENDBRANCH   2   3
TORSDOF 10
ENDMDL
MODEL      137
REMARK 921   NORMALIZED FREE ENERGY PREDICTED BY IDOCK:   -3.47 KCAL/MOL
REMARK 922        TOTAL FREE ENERGY PREDICTED BY IDOCK:   -7.99 KCAL/MOL
REMARK 923 INTER-LIGAND FREE ENERGY PREDICTED BY IDOCK:   -6.76 KCAL/MOL
REMARK 924 INTRA-LIGAND FREE ENERGY PREDICTED BY IDOCK:   -1.23 KCAL/MOL
REMARK 927      BINDING AFFINITY PREDICTED BY RF-SCORE:    0.00 PKD
ROOT
HETATM    1  C   UNL     1      -7.244   3.447  66.114  1.00  0.00    -0.067 C  
HETATM    2  C   UNL     1      -7.054   4.843  66.687  1.00  0.00    -0.068 C  
ENDROOT
BRANCH   2   3
HETATM    3  C   UNL     1      -6.146   5.670  65.778  1.00  0.00    -0.029 C  
BRANCH   3   4
HETATM    4  C   UNL     1      -6.821   6.918  65.199  1.00  0.00    -0.051 C  
BRANCH   4   5
HETATM    5  N   UNL     1      -7.355   7.938  66.137  1.00  0.00    -0.073 NA 
BRANCH   5   6
HETATM    6  C   UNL     1      -6.339   8.973  66.430  1.00  0.00    -0.065 C  
BRANCH   6   7
HETATM    7  C   UNL     1      -5.996   9.195  67.915  1.00  0.00    -0.049 C  
BRANCH   7   8
HETATM    8  C   UNL     1      -7.071   9.942  68.700  1.00  0.00    -0.071 C  
HETATM    9  C   UNL     1      -7.154  11.398  68.249  1.00  0.00    -0.078 C  
ENDBRANCH   7   8
ENDBRANCH   6   7
ENDBRANCH   5   6
BRANCH   5  10
HETATM   10  C   UNL     1      -8.584   8.560  65.575  1.00  0.00    -0.180 C  
BRANCH  10  11
HETATM   11  C   UNL     1      -8.381  10.038  65.249  1.00  0.00    -0.157 C  
BRANCH  11  12
HETATM   12  C   UNL     1      -9.647  10.892  65.395  1.00  0.00    -0.225 C  
HETATM   13  H   UNL     1     -11.352  11.116  64.443  1.00  0.00     0.000 HD 
HETATM   14  O   UNL     1     -10.567  10.587  64.352  1.00  0.00    -0.235 OA 
BRANCH  12  15
HETATM   15  C   UNL     1     -10.341  10.709  66.748  1.00  0.00    -0.299 A  
HETATM   16  C   UNL     1     -10.842  11.806  67.489  1.00  0.00    -0.286 A  
HETATM   17  C   UNL     1     -10.899  13.108  66.941  1.00  0.00    -0.278 A  
HETATM   18  C   UNL     1     -11.331  14.209  67.678  1.00  0.00    -0.342 A  
HETATM   19  C   UNL     1     -11.730  14.042  68.998  1.00  0.00    -0.368 A  
HETATM   20  C   UNL     1     -12.168  15.213  69.840  1.00  0.00    -0.314 C  
HETATM   21  C   UNL     1     -11.718  12.747  69.544  1.00  0.00    -0.383 A  
HETATM   22  F   UNL     1     -11.384  15.378  70.942  1.00  0.00    -0.280 F  
HETATM   23  C   UNL     1     -11.293  11.598  68.824  1.00  0.00    -0.324 A  
HETATM   24  F   UNL     1     -13.440  15.073  70.306  1.00  0.00    -0.225 F  
HETATM   25  F   UNL     1     -12.139  16.404  69.180  1.00  0.00    -0.215 F  
HETATM   26  C   UNL     1     -11.292  10.270  69.396  1.00  0.00    -0.279 A  
HETATM   27  C   UNL     1     -11.701   9.978  70.724  1.00  0.00    -0.437 A  
HETATM   28  C   UNL     1     -11.676   8.686  71.253  1.00  0.00    -0.289 A  
HETATM   29  C   UNL     1     -11.253   7.622  70.483  1.00  0.00    -0.275 A  
HETATM   30 CL   UNL     1     -12.168   8.414  72.879  1.00  0.00    -0.168 Cl 
HETATM   31  C   UNL     1     -10.851   7.860  69.173  1.00  0.00    -0.038 A  
HETATM   32  C   UNL     1     -10.863   9.171  68.617  1.00  0.00    -0.092 A  
HETATM   33 CL   UNL     1     -10.308   6.471  68.277  1.00  0.00    -0.191 Cl 
HETATM   34  C   UNL     1     -10.427   9.422  67.309  1.00  0.00    -0.332 A  
ENDBRANCH  12  15
ENDBRANCH  11  12
ENDBRANCH  10  11
ENDBRANCH   5  10
ENDBRANCH   4   5
ENDBRANCH   3   4
ENDBRANCH   2   3
TORSDOF 10
ENDMDL
MODEL      138
REMARK 921   NORMALIZED FREE ENERGY PREDICTED BY IDOCK:   -3.45 KCAL/MOL
REMARK 922        TOTAL FREE ENERGY PREDICTED BY IDOCK:   -7.97 KCAL/MOL
REMARK 923 INTER-LIGAND FREE ENERGY PREDICTED BY IDOCK:   -7.56 KCAL/MOL
REMARK 924 INTRA-LIGAND FREE ENERGY PREDICTED BY IDOCK:   -0.41 KCAL/MOL
REMARK 927      BINDING AFFINITY PREDICTED BY RF-SCORE:    0.00 PKD
ROOT
HETATM    1  C   UNL     1     -11.375  11.764  63.052  1.00  0.00    -0.008 C  
HETATM    2  C   UNL     1      -9.865  11.584  63.109  1.00  0.00    -0.413 C  
ENDROOT
BRANCH   2   3
HETATM    3  C   UNL     1      -9.517  10.167  63.561  1.00  0.00    -0.310 C  
BRANCH   3   4
HETATM    4  C   UNL     1      -8.495  10.115  64.702  1.00  0.00    -0.173 C  
BRANCH   4   5
HETATM    5  N   UNL     1      -8.935   9.617  66.030  1.00  0.00    -0.154 NA 
BRANCH   5   6
HETATM    6  C   UNL     1      -7.911   8.739  66.635  1.00  0.00    -0.100 C  
BRANCH   6   7
HETATM    7  C   UNL     1      -8.328   7.279  66.897  1.00  0.00    -0.118 C  
BRANCH   7   8
HETATM    8  C   UNL     1      -9.427   7.124  67.945  1.00  0.00    -0.135 C  
HETATM    9  C   UNL     1      -9.227   8.115  69.088  1.00  0.00    -0.151 C  
ENDBRANCH   7   8
ENDBRANCH   6   7
ENDBRANCH   5   6
BRANCH   5  10
HETATM   10  C   UNL     1      -9.238  10.762  66.932  1.00  0.00    -0.156 C  
BRANCH  10  11
HETATM   11  C   UNL     1     -10.733  11.074  66.979  1.00  0.00    -0.319 C  
BRANCH  11  12
HETATM   12  C   UNL     1     -11.105  12.441  66.390  1.00  0.00    -0.301 C  
HETATM   13  H   UNL     1     -12.697  13.287  65.608  1.00  0.00     0.000 HD 
HETATM   14  O   UNL     1     -12.467  12.440  65.973  1.00  0.00    -0.551 OA 
BRANCH  12  15
HETATM   15  C   UNL     1     -10.879  13.597  67.368  1.00  0.00    -0.282 A  
HETATM   16  C   UNL     1     -11.454  13.610  68.662  1.00  0.00    -0.342 A  
HETATM   17  C   UNL     1     -12.112  12.477  69.193  1.00  0.00    -0.187 A  
HETATM   18  C   UNL     1     -12.737  12.493  70.438  1.00  0.00     0.024 A  
HETATM   19  C   UNL     1     -12.719  13.651  71.204  1.00  0.00    -0.432 A  
HETATM   20  C   UNL     1     -13.415  13.721  72.540  1.00  0.00    -0.578 C  
HETATM   21  C   UNL     1     -12.033  14.773  70.708  1.00  0.00    -0.371 A  
HETATM   22  F   UNL     1     -14.382  14.680  72.567  1.00  0.00    -0.506 F  
HETATM   23  C   UNL     1     -11.376  14.795  69.448  1.00  0.00    -0.312 A  
HETATM   24  F   UNL     1     -12.562  14.023  73.557  1.00  0.00    -0.399 F  
HETATM   25  F   UNL     1     -14.030  12.560  72.899  1.00  0.00    -0.279 F  
HETATM   26  C   UNL     1     -10.668  15.954  68.953  1.00  0.00    -0.254 A  
HETATM   27  C   UNL     1     -10.563  17.181  69.660  1.00  0.00     0.008 A  
HETATM   28  C   UNL     1      -9.883  18.289  69.147  1.00  0.00    -0.153 A  
HETATM   29  C   UNL     1      -9.266  18.225  67.914  1.00  0.00    -0.284 A  
HETATM   30 CL   UNL     1      -9.816  19.749  70.055  1.00  0.00     0.173 Cl 
HETATM   31  C   UNL     1      -9.336  17.039  67.191  1.00  0.00    -0.236 A  
HETATM   32  C   UNL     1     -10.031  15.901  67.692  1.00  0.00    -0.237 A  
HETATM   33 CL   UNL     1      -8.556  17.047  65.636  1.00  0.00     0.232 Cl 
HETATM   34  C   UNL     1     -10.133  14.715  66.952  1.00  0.00    -0.255 A  
ENDBRANCH  12  15
ENDBRANCH  11  12
ENDBRANCH  10  11
ENDBRANCH   5  10
ENDBRANCH   4   5
ENDBRANCH   3   4
ENDBRANCH   2   3
TORSDOF 10
ENDMDL
MODEL      139
REMARK 921   NORMALIZED FREE ENERGY PREDICTED BY IDOCK:   -3.43 KCAL/MOL
REMARK 922        TOTAL FREE ENERGY PREDICTED BY IDOCK:   -7.92 KCAL/MOL
REMARK 923 INTER-LIGAND FREE ENERGY PREDICTED BY IDOCK:   -7.68 KCAL/MOL
REMARK 924 INTRA-LIGAND FREE ENERGY PREDICTED BY IDOCK:   -0.24 KCAL/MOL
REMARK 927      BINDING AFFINITY PREDICTED BY RF-SCORE:    0.00 PKD
ROOT
HETATM    1  C   UNL     1     -12.828   8.230  72.204  1.00  0.00    -0.348 C  
HETATM    2  C   UNL     1     -11.827   9.328  71.879  1.00  0.00    -0.426 C  
ENDROOT
BRANCH   2   3
HETATM    3  C   UNL     1     -11.132   9.035  70.550  1.00  0.00    -0.297 C  
BRANCH   3   4
HETATM    4  C   UNL     1     -10.375   7.702  70.529  1.00  0.00    -0.211 C  
BRANCH   4   5
HETATM    5  N   UNL     1      -9.115   7.612  69.749  1.00  0.00    -0.147 NA 
BRANCH   5   6
HETATM    6  C   UNL     1      -9.089   6.387  68.921  1.00  0.00    -0.129 C  
BRANCH   6   7
HETATM    7  C   UNL     1     -10.102   6.322  67.761  1.00  0.00    -0.174 C  
BRANCH   7   8
HETATM    8  C   UNL     1      -9.483   5.970  66.411  1.00  0.00    -0.174 C  
HETATM    9  C   UNL     1      -9.510   4.461  66.182  1.00  0.00    -0.175 C  
ENDBRANCH   7   8
ENDBRANCH   6   7
ENDBRANCH   5   6
BRANCH   5  10
HETATM   10  C   UNL     1      -8.953   8.820  68.895  1.00  0.00    -0.134 C  
BRANCH  10  11
HETATM   11  C   UNL     1      -7.487   9.224  68.748  1.00  0.00    -0.076 C  
BRANCH  11  12
HETATM   12  C   UNL     1      -7.211  10.153  67.558  1.00  0.00    -0.088 C  
HETATM   13  H   UNL     1      -7.350  10.066  65.600  1.00  0.00     0.000 HD 
HETATM   14  O   UNL     1      -7.521   9.491  66.337  1.00  0.00    -0.095 OA 
BRANCH  12  15
HETATM   15  C   UNL     1      -7.990  11.468  67.630  1.00  0.00    -0.126 A  
HETATM   16  C   UNL     1      -9.108  11.726  66.801  1.00  0.00    -0.194 A  
HETATM   17  C   UNL     1      -9.682  10.716  65.994  1.00  0.00    -0.258 A  
HETATM   18  C   UNL     1     -10.742  10.968  65.125  1.00  0.00    -0.253 A  
HETATM   19  C   UNL     1     -11.274  12.248  65.039  1.00  0.00    -0.367 A  
HETATM   20  C   UNL     1     -12.395  12.570  64.085  1.00  0.00    -0.462 C  
HETATM   21  C   UNL     1     -10.741  13.253  65.864  1.00  0.00    -0.284 A  
HETATM   22  F   UNL     1     -12.044  13.524  63.178  1.00  0.00    -0.547 F  
HETATM   23  C   UNL     1      -9.667  13.036  66.769  1.00  0.00    -0.248 A  
HETATM   24  F   UNL     1     -13.499  13.049  64.721  1.00  0.00    -0.164 F  
HETATM   25  F   UNL     1     -12.818  11.500  63.354  1.00  0.00    -0.602 F  
HETATM   26  C   UNL     1      -9.134  14.077  67.618  1.00  0.00    -0.192 A  
HETATM   27  C   UNL     1      -9.614  15.414  67.631  1.00  0.00    -0.210 A  
HETATM   28  C   UNL     1      -9.068  16.401  68.454  1.00  0.00    -0.214 A  
HETATM   29  C   UNL     1      -8.026  16.105  69.309  1.00  0.00    -0.194 A  
HETATM   30 CL   UNL     1      -9.691  18.004  68.399  1.00  0.00    -0.327 Cl 
HETATM   31  C   UNL     1      -7.530  14.806  69.335  1.00  0.00    -0.147 A  
HETATM   32  C   UNL     1      -8.067  13.786  68.500  1.00  0.00    -0.128 A  
HETATM   33 CL   UNL     1      -6.201  14.520  70.421  1.00  0.00    -0.174 Cl 
HETATM   34  C   UNL     1      -7.549  12.484  68.498  1.00  0.00    -0.119 A  
ENDBRANCH  12  15
ENDBRANCH  11  12
ENDBRANCH  10  11
ENDBRANCH   5  10
ENDBRANCH   4   5
ENDBRANCH   3   4
ENDBRANCH   2   3
TORSDOF 10
ENDMDL
MODEL      140
REMARK 921   NORMALIZED FREE ENERGY PREDICTED BY IDOCK:   -3.42 KCAL/MOL
REMARK 922        TOTAL FREE ENERGY PREDICTED BY IDOCK:   -7.91 KCAL/MOL
REMARK 923 INTER-LIGAND FREE ENERGY PREDICTED BY IDOCK:   -6.79 KCAL/MOL
REMARK 924 INTRA-LIGAND FREE ENERGY PREDICTED BY IDOCK:   -1.12 KCAL/MOL
REMARK 927      BINDING AFFINITY PREDICTED BY RF-SCORE:    0.00 PKD
ROOT
HETATM    1  C   UNL     1     -11.950  15.558  71.890  1.00  0.00    -0.506 C  
HETATM    2  C   UNL     1     -12.697  14.960  70.707  1.00  0.00    -0.421 C  
ENDROOT
BRANCH   2   3
HETATM    3  C   UNL     1     -12.506  13.445  70.670  1.00  0.00    -0.385 C  
BRANCH   3   4
HETATM    4  C   UNL     1     -11.572  12.967  69.552  1.00  0.00    -0.282 C  
BRANCH   4   5
HETATM    5  N   UNL     1     -12.141  12.147  68.453  1.00  0.00    -0.356 NA 
BRANCH   5   6
HETATM    6  C   UNL     1     -11.692  12.642  67.133  1.00  0.00    -0.371 C  
BRANCH   6   7
HETATM    7  C   UNL     1     -11.091  14.060  67.102  1.00  0.00    -0.313 C  
BRANCH   7   8
HETATM    8  C   UNL     1     -11.182  14.747  65.741  1.00  0.00    -0.337 C  
HETATM    9  C   UNL     1     -12.424  14.282  64.986  1.00  0.00    -0.409 C  
ENDBRANCH   7   8
ENDBRANCH   6   7
ENDBRANCH   5   6
BRANCH   5  10
HETATM   10  C   UNL     1     -11.761  10.718  68.628  1.00  0.00    -0.219 C  
BRANCH  10  11
HETATM   11  C   UNL     1     -10.489  10.562  69.459  1.00  0.00    -0.265 C  
BRANCH  11  12
HETATM   12  C   UNL     1      -9.245  10.200  68.636  1.00  0.00    -0.157 C  
HETATM   13  H   UNL     1      -7.311  10.539  68.724  1.00  0.00     0.000 HD 
HETATM   14  O   UNL     1      -8.082  10.763  69.234  1.00  0.00    -0.150 OA 
BRANCH  12  15
HETATM   15  C   UNL     1      -9.049   8.691  68.478  1.00  0.00    -0.138 A  
HETATM   16  C   UNL     1      -8.724   8.102  67.232  1.00  0.00    -0.125 A  
HETATM   17  C   UNL     1      -8.379   8.887  66.108  1.00  0.00    -0.125 A  
HETATM   18  C   UNL     1      -8.118   8.327  64.859  1.00  0.00    -0.150 A  
HETATM   19  C   UNL     1      -8.186   6.950  64.692  1.00  0.00    -0.026 A  
HETATM   20  C   UNL     1      -7.948   6.308  63.349  1.00  0.00    -0.095 C  
HETATM   21  C   UNL     1      -8.488   6.153  65.810  1.00  0.00    -0.147 A  
HETATM   22  F   UNL     1      -9.031   5.607  62.913  1.00  0.00    -0.031 F  
HETATM   23  C   UNL     1      -8.753   6.684  67.101  1.00  0.00    -0.111 A  
HETATM   24  F   UNL     1      -6.914   5.422  63.371  1.00  0.00    -0.038 F  
HETATM   25  F   UNL     1      -7.658   7.199  62.360  1.00  0.00    -0.078 F  
HETATM   26  C   UNL     1      -9.054   5.852  68.244  1.00  0.00    -0.118 A  
HETATM   27  C   UNL     1      -9.127   4.434  68.197  1.00  0.00    -0.161 A  
HETATM   28  C   UNL     1      -9.435   3.659  69.317  1.00  0.00    -0.174 A  
HETATM   29  C   UNL     1      -9.674   4.254  70.538  1.00  0.00    -0.282 A  
HETATM   30 CL   UNL     1      -9.525   1.946  69.175  1.00  0.00    -0.176 Cl 
HETATM   31  C   UNL     1      -9.604   5.640  70.633  1.00  0.00    -0.168 A  
HETATM   32  C   UNL     1      -9.300   6.449  69.502  1.00  0.00    -0.146 A  
HETATM   33 CL   UNL     1      -9.944   6.315  72.200  1.00  0.00    -0.181 Cl 
HETATM   34  C   UNL     1      -9.261   7.848  69.585  1.00  0.00    -0.153 A  
ENDBRANCH  12  15
ENDBRANCH  11  12
ENDBRANCH  10  11
ENDBRANCH   5  10
ENDBRANCH   4   5
ENDBRANCH   3   4
ENDBRANCH   2   3
TORSDOF 10
ENDMDL
MODEL      141
REMARK 921   NORMALIZED FREE ENERGY PREDICTED BY IDOCK:   -3.39 KCAL/MOL
REMARK 922        TOTAL FREE ENERGY PREDICTED BY IDOCK:   -7.86 KCAL/MOL
REMARK 923 INTER-LIGAND FREE ENERGY PREDICTED BY IDOCK:   -5.93 KCAL/MOL
REMARK 924 INTRA-LIGAND FREE ENERGY PREDICTED BY IDOCK:   -1.93 KCAL/MOL
REMARK 927      BINDING AFFINITY PREDICTED BY RF-SCORE:    0.00 PKD
ROOT
HETATM    1  C   UNL     1     -11.414  10.871  68.795  1.00  0.00    -0.376 C  
HETATM    2  C   UNL     1     -11.377  12.383  68.953  1.00  0.00    -0.342 C  
ENDROOT
BRANCH   2   3
HETATM    3  C   UNL     1     -11.989  13.059  67.727  1.00  0.00    -0.344 C  
BRANCH   3   4
HETATM    4  C   UNL     1     -11.070  13.064  66.499  1.00  0.00    -0.288 C  
BRANCH   4   5
HETATM    5  N   UNL     1     -11.604  13.579  65.214  1.00  0.00    -0.305 NA 
BRANCH   5   6
HETATM    6  C   UNL     1     -11.280  15.012  65.040  1.00  0.00    -0.409 C  
BRANCH   6   7
HETATM    7  C   UNL     1     -10.023  15.524  65.768  1.00  0.00    -0.391 C  
BRANCH   7   8
HETATM    8  C   UNL     1     -10.299  16.627  66.787  1.00  0.00    -0.295 C  
HETATM    9  C   UNL     1      -9.463  16.419  68.047  1.00  0.00    -0.217 C  
ENDBRANCH   7   8
ENDBRANCH   6   7
ENDBRANCH   5   6
BRANCH   5  10
HETATM   10  C   UNL     1     -11.065  12.783  64.078  1.00  0.00    -0.414 C  
BRANCH  10  11
HETATM   11  C   UNL     1     -10.936  11.302  64.427  1.00  0.00    -0.331 C  
BRANCH  11  12
HETATM   12  C   UNL     1      -9.654  10.643  63.899  1.00  0.00    -0.306 C  
HETATM   13  H   UNL     1      -8.155  11.141  62.730  1.00  0.00     0.000 HD 
HETATM   14  O   UNL     1      -8.949  11.550  63.057  1.00  0.00    -0.182 OA 
BRANCH  12  15
HETATM   15  C   UNL     1      -8.723  10.163  65.015  1.00  0.00    -0.190 A  
HETATM   16  C   UNL     1      -8.180   8.857  65.030  1.00  0.00    -0.154 A  
HETATM   17  C   UNL     1      -8.314   7.984  63.925  1.00  0.00     0.036 A  
HETATM   18  C   UNL     1      -7.840   6.674  63.947  1.00  0.00    -0.109 A  
HETATM   19  C   UNL     1      -7.205   6.189  65.083  1.00  0.00    -0.070 A  
HETATM   20  C   UNL     1      -6.712   4.767  65.161  1.00  0.00    -0.048 C  
HETATM   21  C   UNL     1      -7.027   7.057  66.174  1.00  0.00    -0.065 A  
HETATM   22  F   UNL     1      -7.300   4.072  66.174  1.00  0.00    -0.067 F  
HETATM   23  C   UNL     1      -7.487   8.401  66.189  1.00  0.00    -0.088 A  
HETATM   24  F   UNL     1      -5.371   4.692  65.387  1.00  0.00    -0.011 F  
HETATM   25  F   UNL     1      -6.943   4.044  64.030  1.00  0.00    -0.042 F  
HETATM   26  C   UNL     1      -7.291   9.285  67.315  1.00  0.00    -0.091 A  
HETATM   27  C   UNL     1      -6.635   8.907  68.516  1.00  0.00    -0.059 A  
HETATM   28  C   UNL     1      -6.474   9.781  69.594  1.00  0.00    -0.049 A  
HETATM   29  C   UNL     1      -6.947  11.075  69.524  1.00  0.00    -0.126 A  
HETATM   30 CL   UNL     1      -5.685   9.241  71.025  1.00  0.00    -0.049 Cl 
HETATM   31  C   UNL     1      -7.589  11.492  68.362  1.00  0.00    -0.125 A  
HETATM   32  C   UNL     1      -7.770  10.615  67.256  1.00  0.00    -0.108 A  
HETATM   33 CL   UNL     1      -8.179  13.129  68.363  1.00  0.00    -0.151 Cl 
HETATM   34  C   UNL     1      -8.446  11.019  66.097  1.00  0.00    -0.168 A  
ENDBRANCH  12  15
ENDBRANCH  11  12
ENDBRANCH  10  11
ENDBRANCH   5  10
ENDBRANCH   4   5
ENDBRANCH   3   4
ENDBRANCH   2   3
TORSDOF 10
ENDMDL
MODEL      142
REMARK 921   NORMALIZED FREE ENERGY PREDICTED BY IDOCK:   -3.38 KCAL/MOL
REMARK 922        TOTAL FREE ENERGY PREDICTED BY IDOCK:   -7.85 KCAL/MOL
REMARK 923 INTER-LIGAND FREE ENERGY PREDICTED BY IDOCK:   -7.59 KCAL/MOL
REMARK 924 INTRA-LIGAND FREE ENERGY PREDICTED BY IDOCK:   -0.26 KCAL/MOL
REMARK 927      BINDING AFFINITY PREDICTED BY RF-SCORE:    0.00 PKD
ROOT
HETATM    1  C   UNL     1     -12.074  13.492  63.703  1.00  0.00    -0.459 C  
HETATM    2  C   UNL     1     -11.714  12.015  63.660  1.00  0.00    -0.587 C  
ENDROOT
BRANCH   2   3
HETATM    3  C   UNL     1     -10.950  11.618  64.922  1.00  0.00    -0.345 C  
BRANCH   3   4
HETATM    4  C   UNL     1     -11.339  12.433  66.162  1.00  0.00    -0.352 C  
BRANCH   4   5
HETATM    5  N   UNL     1     -10.333  13.351  66.752  1.00  0.00    -0.260 NA 
BRANCH   5   6
HETATM    6  C   UNL     1     -10.976  14.573  67.282  1.00  0.00    -0.305 C  
BRANCH   6   7
HETATM    7  C   UNL     1     -10.055  15.570  68.013  1.00  0.00    -0.223 C  
BRANCH   7   8
HETATM    8  C   UNL     1     -10.067  16.977  67.421  1.00  0.00    -0.291 C  
HETATM    9  C   UNL     1     -10.411  16.936  65.936  1.00  0.00    -0.327 C  
ENDBRANCH   7   8
ENDBRANCH   6   7
ENDBRANCH   5   6
BRANCH   5  10
HETATM   10  C   UNL     1      -9.572  12.656  67.826  1.00  0.00    -0.197 C  
BRANCH  10  11
HETATM   11  C   UNL     1      -8.198  12.193  67.347  1.00  0.00    -0.175 C  
BRANCH  11  12
HETATM   12  C   UNL     1      -7.624  11.011  68.139  1.00  0.00    -0.095 C  
HETATM   13  H   UNL     1      -7.322  10.551  70.025  1.00  0.00     0.000 HD 
HETATM   14  O   UNL     1      -7.678  11.284  69.535  1.00  0.00     0.007 OA 
BRANCH  12  15
HETATM   15  C   UNL     1      -8.347   9.692  67.855  1.00  0.00    -0.117 A  
HETATM   16  C   UNL     1      -9.275   9.133  68.766  1.00  0.00    -0.136 A  
HETATM   17  C   UNL     1      -9.727   9.849  69.899  1.00  0.00    -0.274 A  
HETATM   18  C   UNL     1     -10.591   9.290  70.839  1.00  0.00    -0.366 A  
HETATM   19  C   UNL     1     -11.042   7.988  70.673  1.00  0.00    -0.266 A  
HETATM   20  C   UNL     1     -11.947   7.334  71.685  1.00  0.00    -0.308 C  
HETATM   21  C   UNL     1     -10.635   7.277  69.531  1.00  0.00    -0.244 A  
HETATM   22  F   UNL     1     -11.390   6.217  72.231  1.00  0.00    -0.271 F  
HETATM   23  C   UNL     1      -9.762   7.812  68.545  1.00  0.00    -0.165 A  
HETATM   24  F   UNL     1     -13.131   6.934  71.145  1.00  0.00    -0.403 F  
HETATM   25  F   UNL     1     -12.268   8.141  72.735  1.00  0.00    -0.394 F  
HETATM   26  C   UNL     1      -9.357   7.072  67.371  1.00  0.00    -0.141 A  
HETATM   27  C   UNL     1      -9.774   5.745  67.086  1.00  0.00    -0.147 A  
HETATM   28  C   UNL     1      -9.353   5.052  65.949  1.00  0.00    -0.159 A  
HETATM   29  C   UNL     1      -8.506   5.648  65.037  1.00  0.00    -0.135 A  
HETATM   30 CL   UNL     1      -9.886   3.438  65.683  1.00  0.00    -0.015 Cl 
HETATM   31  C   UNL     1      -8.079   6.951  65.272  1.00  0.00    -0.134 A  
HETATM   32  C   UNL     1      -8.491   7.673  66.428  1.00  0.00    -0.137 A  
HETATM   33 CL   UNL     1      -6.994   7.622  64.089  1.00  0.00    -0.059 Cl 
HETATM   34  C   UNL     1      -8.036   8.973  66.686  1.00  0.00    -0.107 A  
ENDBRANCH  12  15
ENDBRANCH  11  12
ENDBRANCH  10  11
ENDBRANCH   5  10
ENDBRANCH   4   5
ENDBRANCH   3   4
ENDBRANCH   2   3
TORSDOF 10
ENDMDL
MODEL      143
REMARK 921   NORMALIZED FREE ENERGY PREDICTED BY IDOCK:   -3.38 KCAL/MOL
REMARK 922        TOTAL FREE ENERGY PREDICTED BY IDOCK:   -7.85 KCAL/MOL
REMARK 923 INTER-LIGAND FREE ENERGY PREDICTED BY IDOCK:   -7.91 KCAL/MOL
REMARK 924 INTRA-LIGAND FREE ENERGY PREDICTED BY IDOCK:    0.06 KCAL/MOL
REMARK 927      BINDING AFFINITY PREDICTED BY RF-SCORE:    0.00 PKD
ROOT
HETATM    1  C   UNL     1     -12.946  11.764  63.461  1.00  0.00    -0.215 C  
HETATM    2  C   UNL     1     -11.532  12.051  62.980  1.00  0.00    -0.061 C  
ENDROOT
BRANCH   2   3
HETATM    3  C   UNL     1     -10.595  10.911  63.376  1.00  0.00    -0.126 C  
BRANCH   3   4
HETATM    4  C   UNL     1      -9.648  11.261  64.530  1.00  0.00    -0.227 C  
BRANCH   4   5
HETATM    5  N   UNL     1     -10.172  12.070  65.659  1.00  0.00    -0.244 NA 
BRANCH   5   6
HETATM    6  C   UNL     1      -9.697  11.542  66.957  1.00  0.00    -0.184 C  
BRANCH   6   7
HETATM    7  C   UNL     1     -10.708  11.570  68.119  1.00  0.00    -0.242 C  
BRANCH   7   8
HETATM    8  C   UNL     1     -11.243  10.196  68.514  1.00  0.00    -0.226 C  
HETATM    9  C   UNL     1     -10.710   9.119  67.573  1.00  0.00    -0.255 C  
ENDBRANCH   7   8
ENDBRANCH   6   7
ENDBRANCH   5   6
BRANCH   5  10
HETATM   10  C   UNL     1      -9.772  13.495  65.500  1.00  0.00    -0.047 C  
BRANCH  10  11
HETATM   11  C   UNL     1     -10.937  14.369  65.041  1.00  0.00    -0.398 C  
BRANCH  11  12
HETATM   12  C   UNL     1     -10.595  15.861  64.931  1.00  0.00    -0.254 C  
HETATM   13  H   UNL     1     -11.570  17.547  64.672  1.00  0.00     0.000 HD 
HETATM   14  O   UNL     1     -11.782  16.623  64.740  1.00  0.00    -0.104 OA 
BRANCH  12  15
HETATM   15  C   UNL     1      -9.844  16.396  66.153  1.00  0.00    -0.362 A  
HETATM   16  C   UNL     1     -10.296  16.163  67.474  1.00  0.00    -0.286 A  
HETATM   17  C   UNL     1     -11.358  15.269  67.749  1.00  0.00    -0.331 A  
HETATM   18  C   UNL     1     -11.856  15.076  69.036  1.00  0.00    -0.330 A  
HETATM   19  C   UNL     1     -11.301  15.771  70.102  1.00  0.00    -0.361 A  
HETATM   20  C   UNL     1     -11.836  15.619  71.503  1.00  0.00    -0.425 C  
HETATM   21  C   UNL     1     -10.219  16.632  69.851  1.00  0.00     0.077 A  
HETATM   22  F   UNL     1     -12.288  16.798  72.014  1.00  0.00    -0.250 F  
HETATM   23  C   UNL     1      -9.675  16.850  68.557  1.00  0.00    -0.264 A  
HETATM   24  F   UNL     1     -10.891  15.172  72.376  1.00  0.00    -0.397 F  
HETATM   25  F   UNL     1     -12.878  14.747  71.600  1.00  0.00    -0.334 F  
HETATM   26  C   UNL     1      -8.557  17.733  68.314  1.00  0.00    -0.277 A  
HETATM   27  C   UNL     1      -7.896  18.475  69.329  1.00  0.00     0.070 A  
HETATM   28  C   UNL     1      -6.826  19.331  69.060  1.00  0.00    -0.337 A  
HETATM   29  C   UNL     1      -6.356  19.483  67.772  1.00  0.00    -0.236 A  
HETATM   30 CL   UNL     1      -6.090  20.212  70.342  1.00  0.00    -0.386 Cl 
HETATM   31  C   UNL     1      -6.967  18.769  66.747  1.00  0.00    -0.200 A  
HETATM   32  C   UNL     1      -8.064  17.896  66.998  1.00  0.00    -0.238 A  
HETATM   33 CL   UNL     1      -6.333  19.034  65.149  1.00  0.00    -0.320 Cl 
HETATM   34  C   UNL     1      -8.706  17.201  65.965  1.00  0.00    -0.141 A  
ENDBRANCH  12  15
ENDBRANCH  11  12
ENDBRANCH  10  11
ENDBRANCH   5  10
ENDBRANCH   4   5
ENDBRANCH   3   4
ENDBRANCH   2   3
TORSDOF 10
ENDMDL
MODEL      144
REMARK 921   NORMALIZED FREE ENERGY PREDICTED BY IDOCK:   -3.37 KCAL/MOL
REMARK 922        TOTAL FREE ENERGY PREDICTED BY IDOCK:   -7.84 KCAL/MOL
REMARK 923 INTER-LIGAND FREE ENERGY PREDICTED BY IDOCK:   -7.44 KCAL/MOL
REMARK 924 INTRA-LIGAND FREE ENERGY PREDICTED BY IDOCK:   -0.40 KCAL/MOL
REMARK 927      BINDING AFFINITY PREDICTED BY RF-SCORE:    0.00 PKD
ROOT
HETATM    1  C   UNL     1     -12.107  13.192  63.745  1.00  0.00    -0.563 C  
HETATM    2  C   UNL     1     -11.308  11.897  63.758  1.00  0.00    -0.532 C  
ENDROOT
BRANCH   2   3
HETATM    3  C   UNL     1     -10.521  11.773  65.061  1.00  0.00    -0.332 C  
BRANCH   3   4
HETATM    4  C   UNL     1     -11.300  12.230  66.300  1.00  0.00    -0.345 C  
BRANCH   4   5
HETATM    5  N   UNL     1     -10.749  13.340  67.117  1.00  0.00    -0.258 NA 
BRANCH   5   6
HETATM    6  C   UNL     1     -11.833  14.144  67.721  1.00  0.00    -0.379 C  
BRANCH   6   7
HETATM    7  C   UNL     1     -12.087  13.932  69.226  1.00  0.00    -0.383 C  
BRANCH   7   8
HETATM    8  C   UNL     1     -12.301  15.224  70.011  1.00  0.00    -0.366 C  
HETATM    9  C   UNL     1     -13.296  15.006  71.147  1.00  0.00    -0.510 C  
ENDBRANCH   7   8
ENDBRANCH   6   7
ENDBRANCH   5   6
BRANCH   5  10
HETATM   10  C   UNL     1      -9.849  12.803  68.174  1.00  0.00    -0.226 C  
BRANCH  10  11
HETATM   11  C   UNL     1      -8.389  13.173  67.925  1.00  0.00    -0.170 C  
BRANCH  11  12
HETATM   12  C   UNL     1      -7.407  12.009  68.113  1.00  0.00    -0.094 C  
HETATM   13  H   UNL     1      -6.607  11.027  69.615  1.00  0.00     0.000 HD 
HETATM   14  O   UNL     1      -7.215  11.748  69.499  1.00  0.00     0.004 OA 
BRANCH  12  15
HETATM   15  C   UNL     1      -7.860  10.723  67.417  1.00  0.00    -0.111 A  
HETATM   16  C   UNL     1      -8.610   9.729  68.090  1.00  0.00    -0.118 A  
HETATM   17  C   UNL     1      -9.142   9.948  69.381  1.00  0.00    -0.216 A  
HETATM   18  C   UNL     1      -9.828   8.958  70.083  1.00  0.00    -0.199 A  
HETATM   19  C   UNL     1     -10.014   7.708  69.508  1.00  0.00    -0.182 A  
HETATM   20  C   UNL     1     -10.717   6.599  70.248  1.00  0.00    -0.246 C  
HETATM   21  C   UNL     1      -9.527   7.488  68.208  1.00  0.00    -0.146 A  
HETATM   22  F   UNL     1      -9.920   5.509  70.425  1.00  0.00    -0.212 F  
HETATM   23  C   UNL     1      -8.830   8.472  67.456  1.00  0.00    -0.139 A  
HETATM   24  F   UNL     1     -11.820   6.150  69.589  1.00  0.00    -0.482 F  
HETATM   25  F   UNL     1     -11.143   6.955  71.493  1.00  0.00    -0.249 F  
HETATM   26  C   UNL     1      -8.341   8.235  66.117  1.00  0.00    -0.125 A  
HETATM   27  C   UNL     1      -8.494   7.006  65.422  1.00  0.00    -0.093 A  
HETATM   28  C   UNL     1      -7.997   6.803  64.133  1.00  0.00    -0.085 A  
HETATM   29  C   UNL     1      -7.335   7.815  63.469  1.00  0.00    -0.097 A  
HETATM   30 CL   UNL     1      -8.205   5.277  63.364  1.00  0.00    -0.115 Cl 
HETATM   31  C   UNL     1      -7.169   9.039  64.108  1.00  0.00    -0.095 A  
HETATM   32  C   UNL     1      -7.661   9.264  65.425  1.00  0.00    -0.099 A  
HETATM   33 CL   UNL     1      -6.301  10.254  63.215  1.00  0.00    -0.140 Cl 
HETATM   34  C   UNL     1      -7.468  10.484  66.087  1.00  0.00    -0.136 A  
ENDBRANCH  12  15
ENDBRANCH  11  12
ENDBRANCH  10  11
ENDBRANCH   5  10
ENDBRANCH   4   5
ENDBRANCH   3   4
ENDBRANCH   2   3
TORSDOF 10
ENDMDL
MODEL      145
REMARK 921   NORMALIZED FREE ENERGY PREDICTED BY IDOCK:   -3.33 KCAL/MOL
REMARK 922        TOTAL FREE ENERGY PREDICTED BY IDOCK:   -7.77 KCAL/MOL
REMARK 923 INTER-LIGAND FREE ENERGY PREDICTED BY IDOCK:   -7.20 KCAL/MOL
REMARK 924 INTRA-LIGAND FREE ENERGY PREDICTED BY IDOCK:   -0.57 KCAL/MOL
REMARK 927      BINDING AFFINITY PREDICTED BY RF-SCORE:    0.00 PKD
ROOT
HETATM    1  C   UNL     1     -10.841  11.723  63.522  1.00  0.00    -0.496 C  
HETATM    2  C   UNL     1      -9.636  10.795  63.490  1.00  0.00    -0.359 C  
ENDROOT
BRANCH   2   3
HETATM    3  C   UNL     1      -9.656   9.858  64.697  1.00  0.00    -0.320 C  
BRANCH   3   4
HETATM    4  C   UNL     1      -8.269   9.576  65.285  1.00  0.00    -0.130 C  
BRANCH   4   5
HETATM    5  N   UNL     1      -7.814  10.378  66.449  1.00  0.00    -0.122 NA 
BRANCH   5   6
HETATM    6  C   UNL     1      -8.918  11.198  66.994  1.00  0.00    -0.154 C  
BRANCH   6   7
HETATM    7  C   UNL     1      -8.767  12.725  66.863  1.00  0.00    -0.169 C  
BRANCH   7   8
HETATM    8  C   UNL     1      -8.519  13.443  68.188  1.00  0.00    -0.172 C  
HETATM    9  C   UNL     1      -8.124  14.897  67.948  1.00  0.00    -0.148 C  
ENDBRANCH   7   8
ENDBRANCH   6   7
ENDBRANCH   5   6
BRANCH   5  10
HETATM   10  C   UNL     1      -7.259   9.486  67.503  1.00  0.00    -0.090 C  
BRANCH  10  11
HETATM   11  C   UNL     1      -7.394  10.093  68.897  1.00  0.00    -0.083 C  
BRANCH  11  12
HETATM   12  C   UNL     1      -6.872   9.194  70.025  1.00  0.00    -0.049 C  
HETATM   13  H   UNL     1      -6.237   9.420  71.871  1.00  0.00     0.000 HD 
HETATM   14  O   UNL     1      -6.561   9.977  71.173  1.00  0.00    -0.325 OA 
BRANCH  12  15
HETATM   15  C   UNL     1      -7.858   8.092  70.420  1.00  0.00    -0.091 A  
HETATM   16  C   UNL     1      -9.220   8.365  70.691  1.00  0.00    -0.177 A  
HETATM   17  C   UNL     1      -9.789   9.633  70.432  1.00  0.00    -0.315 A  
HETATM   18  C   UNL     1     -11.111   9.937  70.750  1.00  0.00    -0.417 A  
HETATM   19  C   UNL     1     -11.918   8.972  71.338  1.00  0.00    -0.400 A  
HETATM   20  C   UNL     1     -13.342   9.272  71.732  1.00  0.00    -0.409 C  
HETATM   21  C   UNL     1     -11.380   7.694  71.564  1.00  0.00    -0.286 A  
HETATM   22  F   UNL     1     -13.553   9.108  73.068  1.00  0.00    -0.454 F  
HETATM   23  C   UNL     1     -10.040   7.341  71.246  1.00  0.00    -0.195 A  
HETATM   24  F   UNL     1     -14.238   8.457  71.111  1.00  0.00    -0.381 F  
HETATM   25  F   UNL     1     -13.733  10.545  71.447  1.00  0.00    -0.282 F  
HETATM   26  C   UNL     1      -9.501   6.020  71.478  1.00  0.00    -0.164 A  
HETATM   27  C   UNL     1     -10.240   4.950  72.049  1.00  0.00    -0.263 A  
HETATM   28  C   UNL     1      -9.686   3.687  72.273  1.00  0.00    -0.157 A  
HETATM   29  C   UNL     1      -8.375   3.426  71.930  1.00  0.00    -0.073 A  
HETATM   30 CL   UNL     1     -10.640   2.447  72.989  1.00  0.00    -0.241 Cl 
HETATM   31  C   UNL     1      -7.617   4.442  71.359  1.00  0.00    -0.072 A  
HETATM   32  C   UNL     1      -8.160   5.738  71.129  1.00  0.00    -0.117 A  
HETATM   33 CL   UNL     1      -5.967   4.040  70.979  1.00  0.00    -0.013 Cl 
HETATM   34  C   UNL     1      -7.390   6.775  70.586  1.00  0.00    -0.075 A  
ENDBRANCH  12  15
ENDBRANCH  11  12
ENDBRANCH  10  11
ENDBRANCH   5  10
ENDBRANCH   4   5
ENDBRANCH   3   4
ENDBRANCH   2   3
TORSDOF 10
ENDMDL
MODEL      146
REMARK 921   NORMALIZED FREE ENERGY PREDICTED BY IDOCK:   -3.29 KCAL/MOL
REMARK 922        TOTAL FREE ENERGY PREDICTED BY IDOCK:   -7.70 KCAL/MOL
REMARK 923 INTER-LIGAND FREE ENERGY PREDICTED BY IDOCK:   -8.07 KCAL/MOL
REMARK 924 INTRA-LIGAND FREE ENERGY PREDICTED BY IDOCK:    0.37 KCAL/MOL
REMARK 927      BINDING AFFINITY PREDICTED BY RF-SCORE:    0.00 PKD
ROOT
HETATM    1  C   UNL     1      -7.723  18.826  68.511  1.00  0.00    -0.357 C  
HETATM    2  C   UNL     1      -9.162  19.301  68.648  1.00  0.00    -0.436 C  
ENDROOT
BRANCH   2   3
HETATM    3  C   UNL     1     -10.109  18.331  67.943  1.00  0.00    -0.376 C  
BRANCH   3   4
HETATM    4  C   UNL     1     -10.251  16.979  68.651  1.00  0.00    -0.321 C  
BRANCH   4   5
HETATM    5  N   UNL     1     -11.521  16.226  68.499  1.00  0.00    -0.340 NA 
BRANCH   5   6
HETATM    6  C   UNL     1     -11.743  15.838  67.089  1.00  0.00     0.334 C  
BRANCH   6   7
HETATM    7  C   UNL     1     -10.614  16.181  66.098  1.00  0.00    -0.288 C  
BRANCH   7   8
HETATM    8  C   UNL     1     -10.968  15.922  64.636  1.00  0.00    -0.323 C  
HETATM    9  C   UNL     1     -11.803  14.652  64.500  1.00  0.00    -0.442 C  
ENDBRANCH   7   8
ENDBRANCH   6   7
ENDBRANCH   5   6
BRANCH   5  10
HETATM   10  C   UNL     1     -11.513  15.022  69.374  1.00  0.00    -0.300 C  
BRANCH  10  11
HETATM   11  C   UNL     1     -10.887  13.814  68.681  1.00  0.00    -0.280 C  
BRANCH  11  12
HETATM   12  C   UNL     1     -11.763  12.555  68.704  1.00  0.00    -0.325 C  
HETATM   13  H   UNL     1     -12.533  11.311  67.393  1.00  0.00     0.000 HD 
HETATM   14  O   UNL     1     -11.990  12.091  67.378  1.00  0.00    -0.583 OA 
BRANCH  12  15
HETATM   15  C   UNL     1     -11.163  11.421  69.539  1.00  0.00    -0.322 A  
HETATM   16  C   UNL     1      -9.850  10.940  69.318  1.00  0.00    -0.113 A  
HETATM   17  C   UNL     1      -8.955  11.599  68.444  1.00  0.00    -0.176 A  
HETATM   18  C   UNL     1      -7.682  11.104  68.168  1.00  0.00    -0.107 A  
HETATM   19  C   UNL     1      -7.255   9.926  68.766  1.00  0.00    -0.076 A  
HETATM   20  C   UNL     1      -5.901   9.337  68.465  1.00  0.00    -0.041 C  
HETATM   21  C   UNL     1      -8.118   9.281  69.669  1.00  0.00    -0.116 A  
HETATM   22  F   UNL     1      -5.989   8.088  67.929  1.00  0.00    -0.037 F  
HETATM   23  C   UNL     1      -9.419   9.757  69.985  1.00  0.00    -0.278 A  
HETATM   24  F   UNL     1      -5.127   9.211  69.578  1.00  0.00    -0.033 F  
HETATM   25  F   UNL     1      -5.169  10.071  67.581  1.00  0.00    -0.035 F  
HETATM   26  C   UNL     1     -10.294   9.087  70.921  1.00  0.00    -0.323 A  
HETATM   27  C   UNL     1      -9.954   7.892  71.608  1.00  0.00    -0.227 A  
HETATM   28  C   UNL     1     -10.827   7.261  72.497  1.00  0.00    -0.272 A  
HETATM   29  C   UNL     1     -12.075   7.793  72.752  1.00  0.00    -0.103 A  
HETATM   30 CL   UNL     1     -10.351   5.803  73.277  1.00  0.00    -0.216 Cl 
HETATM   31  C   UNL     1     -12.446   8.968  72.107  1.00  0.00    -0.380 A  
HETATM   32  C   UNL     1     -11.574   9.623  71.192  1.00  0.00    -0.456 A  
HETATM   33 CL   UNL     1     -14.043   9.560  72.462  1.00  0.00    -0.267 Cl 
HETATM   34  C   UNL     1     -11.956  10.788  70.514  1.00  0.00    -0.456 A  
ENDBRANCH  12  15
ENDBRANCH  11  12
ENDBRANCH  10  11
ENDBRANCH   5  10
ENDBRANCH   4   5
ENDBRANCH   3   4
ENDBRANCH   2   3
TORSDOF 10
ENDMDL
MODEL      147
REMARK 921   NORMALIZED FREE ENERGY PREDICTED BY IDOCK:   -3.25 KCAL/MOL
REMARK 922        TOTAL FREE ENERGY PREDICTED BY IDOCK:   -7.65 KCAL/MOL
REMARK 923 INTER-LIGAND FREE ENERGY PREDICTED BY IDOCK:   -6.49 KCAL/MOL
REMARK 924 INTRA-LIGAND FREE ENERGY PREDICTED BY IDOCK:   -1.16 KCAL/MOL
REMARK 927      BINDING AFFINITY PREDICTED BY RF-SCORE:    0.00 PKD
ROOT
HETATM    1  C   UNL     1     -14.234  15.491  71.896  1.00  0.00    -0.586 C  
HETATM    2  C   UNL     1     -14.309  13.972  71.844  1.00  0.00    -0.468 C  
ENDROOT
BRANCH   2   3
HETATM    3  C   UNL     1     -12.912  13.368  71.969  1.00  0.00    -0.409 C  
BRANCH   3   4
HETATM    4  C   UNL     1     -11.938  13.829  70.878  1.00  0.00    -0.192 C  
BRANCH   4   5
HETATM    5  N   UNL     1     -12.263  13.527  69.462  1.00  0.00    -0.280 NA 
BRANCH   5   6
HETATM    6  C   UNL     1     -12.140  14.737  68.619  1.00  0.00    -0.188 C  
BRANCH   6   7
HETATM    7  C   UNL     1     -11.476  15.963  69.274  1.00  0.00    -0.374 C  
BRANCH   7   8
HETATM    8  C   UNL     1     -10.984  17.011  68.279  1.00  0.00    -0.269 C  
HETATM    9  C   UNL     1     -10.017  17.981  68.951  1.00  0.00    -0.347 C  
ENDBRANCH   7   8
ENDBRANCH   6   7
ENDBRANCH   5   6
BRANCH   5  10
HETATM   10  C   UNL     1     -11.378  12.445  68.950  1.00  0.00    -0.294 C  
BRANCH  10  11
HETATM   11  C   UNL     1     -10.215  12.997  68.129  1.00  0.00    -0.239 C  
BRANCH  11  12
HETATM   12  C   UNL     1      -9.584  11.976  67.174  1.00  0.00    -0.192 C  
HETATM   13  H   UNL     1      -8.335  12.003  65.657  1.00  0.00     0.000 HD 
HETATM   14  O   UNL     1      -8.725  12.636  66.249  1.00  0.00     0.000 OA 
BRANCH  12  15
HETATM   15  C   UNL     1      -8.797  10.882  67.899  1.00  0.00    -0.134 A  
HETATM   16  C   UNL     1      -9.097   9.508  67.739  1.00  0.00    -0.133 A  
HETATM   17  C   UNL     1     -10.014   9.058  66.760  1.00  0.00    -0.332 A  
HETATM   18  C   UNL     1     -10.368   7.716  66.631  1.00  0.00    -0.258 A  
HETATM   19  C   UNL     1      -9.807   6.770  67.478  1.00  0.00    -0.164 A  
HETATM   20  C   UNL     1     -10.191   5.315  67.396  1.00  0.00    -0.191 C  
HETATM   21  C   UNL     1      -8.863   7.196  68.429  1.00  0.00    -0.127 A  
HETATM   22  F   UNL     1     -10.735   4.858  68.558  1.00  0.00    -0.108 F  
HETATM   23  C   UNL     1      -8.469   8.552  68.588  1.00  0.00    -0.131 A  
HETATM   24  F   UNL     1      -9.125   4.508  67.140  1.00  0.00    -0.113 F  
HETATM   25  F   UNL     1     -11.108   5.045  66.425  1.00  0.00    -0.284 F  
HETATM   26  C   UNL     1      -7.492   8.975  69.565  1.00  0.00    -0.076 A  
HETATM   27  C   UNL     1      -6.837   8.094  70.466  1.00  0.00    -0.037 A  
HETATM   28  C   UNL     1      -5.906   8.536  71.409  1.00  0.00    -0.040 A  
HETATM   29  C   UNL     1      -5.576   9.873  71.494  1.00  0.00    -0.032 A  
HETATM   30 CL   UNL     1      -5.170   7.409  72.481  1.00  0.00    -0.037 Cl 
HETATM   31  C   UNL     1      -6.186  10.771  70.625  1.00  0.00    -0.028 A  
HETATM   32  C   UNL     1      -7.142  10.342  69.662  1.00  0.00    -0.135 A  
HETATM   33 CL   UNL     1      -5.734  12.441  70.813  1.00  0.00    -0.154 Cl 
HETATM   34  C   UNL     1      -7.785  11.247  68.807  1.00  0.00    -0.138 A  
ENDBRANCH  12  15
ENDBRANCH  11  12
ENDBRANCH  10  11
ENDBRANCH   5  10
ENDBRANCH   4   5
ENDBRANCH   3   4
ENDBRANCH   2   3
TORSDOF 10
ENDMDL
MODEL      148
REMARK 921   NORMALIZED FREE ENERGY PREDICTED BY IDOCK:   -3.24 KCAL/MOL
REMARK 922        TOTAL FREE ENERGY PREDICTED BY IDOCK:   -7.63 KCAL/MOL
REMARK 923 INTER-LIGAND FREE ENERGY PREDICTED BY IDOCK:   -6.61 KCAL/MOL
REMARK 924 INTRA-LIGAND FREE ENERGY PREDICTED BY IDOCK:   -1.02 KCAL/MOL
REMARK 927      BINDING AFFINITY PREDICTED BY RF-SCORE:    0.00 PKD
ROOT
HETATM    1  C   UNL     1      -9.930  15.687  69.260  1.00  0.00    -0.265 C  
HETATM    2  C   UNL     1      -9.626  16.247  67.879  1.00  0.00    -0.227 C  
ENDROOT
BRANCH   2   3
HETATM    3  C   UNL     1      -8.905  15.201  67.030  1.00  0.00    -0.258 C  
BRANCH   3   4
HETATM    4  C   UNL     1      -9.348  13.761  67.313  1.00  0.00    -0.239 C  
BRANCH   4   5
HETATM    5  N   UNL     1     -10.233  13.084  66.333  1.00  0.00    -0.273 NA 
BRANCH   5   6
HETATM    6  C   UNL     1     -10.432  13.921  65.130  1.00  0.00    -0.393 C  
BRANCH   6   7
HETATM    7  C   UNL     1     -11.892  14.198  64.721  1.00  0.00    -0.425 C  
BRANCH   7   8
HETATM    8  C   UNL     1     -12.783  12.958  64.716  1.00  0.00    -0.442 C  
HETATM    9  C   UNL     1     -12.348  11.985  63.624  1.00  0.00    -0.648 C  
ENDBRANCH   7   8
ENDBRANCH   6   7
ENDBRANCH   5   6
BRANCH   5  10
HETATM   10  C   UNL     1      -9.667  11.760  65.958  1.00  0.00    -0.232 C  
BRANCH  10  11
HETATM   11  C   UNL     1     -10.454  10.605  66.573  1.00  0.00    -0.285 C  
BRANCH  11  12
HETATM   12  C   UNL     1      -9.884   9.217  66.251  1.00  0.00    -0.291 C  
HETATM   13  H   UNL     1      -8.806   8.397  64.827  1.00  0.00     0.000 HD 
HETATM   14  O   UNL     1      -9.159   9.257  65.026  1.00  0.00    -0.217 OA 
BRANCH  12  15
HETATM   15  C   UNL     1      -8.976   8.670  67.356  1.00  0.00    -0.144 A  
HETATM   16  C   UNL     1      -8.973   7.302  67.716  1.00  0.00    -0.126 A  
HETATM   17  C   UNL     1      -9.667   6.332  66.956  1.00  0.00    -0.173 A  
HETATM   18  C   UNL     1      -9.725   4.991  67.332  1.00  0.00    -0.183 A  
HETATM   19  C   UNL     1      -9.081   4.570  68.488  1.00  0.00    -0.161 A  
HETATM   20  C   UNL     1      -9.152   3.137  68.949  1.00  0.00    -0.148 C  
HETATM   21  C   UNL     1      -8.354   5.514  69.233  1.00  0.00    -0.101 A  
HETATM   22  F   UNL     1      -9.716   3.019  70.184  1.00  0.00    -0.235 F  
HETATM   23  C   UNL     1      -8.262   6.888  68.879  1.00  0.00    -0.121 A  
HETATM   24  F   UNL     1      -7.923   2.559  69.044  1.00  0.00    -0.049 F  
HETATM   25  F   UNL     1      -9.882   2.332  68.128  1.00  0.00    -0.254 F  
HETATM   26  C   UNL     1      -7.503   7.847  69.650  1.00  0.00    -0.092 A  
HETATM   27  C   UNL     1      -6.787   7.525  70.834  1.00  0.00    -0.047 A  
HETATM   28  C   UNL     1      -6.075   8.478  71.565  1.00  0.00    -0.048 A  
HETATM   29  C   UNL     1      -6.032   9.793  71.149  1.00  0.00    -0.058 A  
HETATM   30 CL   UNL     1      -5.248   8.015  73.001  1.00  0.00    -0.040 Cl 
HETATM   31  C   UNL     1      -6.713  10.152  69.990  1.00  0.00    -0.127 A  
HETATM   32  C   UNL     1      -7.450   9.197  69.234  1.00  0.00    -0.075 A  
HETATM   33 CL   UNL     1      -6.631  11.833  69.547  1.00  0.00    -0.117 Cl 
HETATM   34  C   UNL     1      -8.166   9.560  68.085  1.00  0.00    -0.114 A  
ENDBRANCH  12  15
ENDBRANCH  11  12
ENDBRANCH  10  11
ENDBRANCH   5  10
ENDBRANCH   4   5
ENDBRANCH   3   4
ENDBRANCH   2   3
TORSDOF 10
ENDMDL
MODEL      149
REMARK 921   NORMALIZED FREE ENERGY PREDICTED BY IDOCK:   -3.20 KCAL/MOL
REMARK 922        TOTAL FREE ENERGY PREDICTED BY IDOCK:   -7.56 KCAL/MOL
REMARK 923 INTER-LIGAND FREE ENERGY PREDICTED BY IDOCK:   -6.21 KCAL/MOL
REMARK 924 INTRA-LIGAND FREE ENERGY PREDICTED BY IDOCK:   -1.35 KCAL/MOL
REMARK 927      BINDING AFFINITY PREDICTED BY RF-SCORE:    0.00 PKD
ROOT
HETATM    1  C   UNL     1     -11.432  14.425  68.778  1.00  0.00    -0.319 C  
HETATM    2  C   UNL     1     -10.782  14.107  67.439  1.00  0.00    -0.284 C  
ENDROOT
BRANCH   2   3
HETATM    3  C   UNL     1      -9.264  14.242  67.542  1.00  0.00    -0.197 C  
BRANCH   3   4
HETATM    4  C   UNL     1      -8.570  13.003  68.120  1.00  0.00    -0.188 C  
BRANCH   4   5
HETATM    5  N   UNL     1      -7.337  12.506  67.459  1.00  0.00    -0.139 NA 
BRANCH   5   6
HETATM    6  C   UNL     1      -6.201  12.476  68.407  1.00  0.00    -0.058 C  
BRANCH   6   7
HETATM    7  C   UNL     1      -5.750  11.084  68.891  1.00  0.00    -0.039 C  
BRANCH   7   8
HETATM    8  C   UNL     1      -6.258  10.714  70.282  1.00  0.00    -0.139 C  
HETATM    9  C   UNL     1      -7.435   9.748  70.187  1.00  0.00    -0.170 C  
ENDBRANCH   7   8
ENDBRANCH   6   7
ENDBRANCH   5   6
BRANCH   5  10
HETATM   10  C   UNL     1      -7.571  11.153  66.885  1.00  0.00    -0.145 C  
BRANCH  10  11
HETATM   11  C   UNL     1      -8.458  11.204  65.643  1.00  0.00    -0.043 C  
BRANCH  11  12
HETATM   12  C   UNL     1      -9.901  10.740  65.884  1.00  0.00    -0.239 C  
HETATM   13  H   UNL     1     -11.354   9.944  64.827  1.00  0.00     0.000 HD 
HETATM   14  O   UNL     1     -10.460  10.231  64.678  1.00  0.00    -0.185 OA 
BRANCH  12  15
HETATM   15  C   UNL     1     -10.013   9.676  66.979  1.00  0.00    -0.263 A  
HETATM   16  C   UNL     1      -9.590   8.341  66.775  1.00  0.00    -0.288 A  
HETATM   17  C   UNL     1      -8.870   7.958  65.620  1.00  0.00    -0.121 A  
HETATM   18  C   UNL     1      -8.500   6.637  65.375  1.00  0.00    -0.112 A  
HETATM   19  C   UNL     1      -8.836   5.646  66.287  1.00  0.00    -0.137 A  
HETATM   20  C   UNL     1      -8.488   4.200  66.041  1.00  0.00    -0.109 C  
HETATM   21  C   UNL     1      -9.515   6.016  67.461  1.00  0.00    -0.113 A  
HETATM   22  F   UNL     1      -9.592   3.405  65.992  1.00  0.00    -0.171 F  
HETATM   23  C   UNL     1      -9.903   7.352  67.753  1.00  0.00    -0.187 A  
HETATM   24  F   UNL     1      -7.698   3.680  67.020  1.00  0.00    -0.076 F  
HETATM   25  F   UNL     1      -7.823   3.988  64.871  1.00  0.00    -0.084 F  
HETATM   26  C   UNL     1     -10.595   7.721  68.967  1.00  0.00    -0.179 A  
HETATM   27  C   UNL     1     -10.966   6.797  69.980  1.00  0.00    -0.344 A  
HETATM   28  C   UNL     1     -11.648   7.183  71.137  1.00  0.00    -0.301 A  
HETATM   29  C   UNL     1     -11.983   8.505  71.345  1.00  0.00    -0.345 A  
HETATM   30 CL   UNL     1     -12.082   6.001  72.310  1.00  0.00    -0.294 Cl 
HETATM   31  C   UNL     1     -11.631   9.445  70.383  1.00  0.00    -0.192 A  
HETATM   32  C   UNL     1     -10.942   9.073  69.194  1.00  0.00    -0.025 A  
HETATM   33 CL   UNL     1     -12.111  11.086  70.709  1.00  0.00    -0.457 Cl 
HETATM   34  C   UNL     1     -10.616  10.011  68.206  1.00  0.00    -0.264 A  
ENDBRANCH  12  15
ENDBRANCH  11  12
ENDBRANCH  10  11
ENDBRANCH   5  10
ENDBRANCH   4   5
ENDBRANCH   3   4
ENDBRANCH   2   3
TORSDOF 10
ENDMDL
MODEL      150
REMARK 921   NORMALIZED FREE ENERGY PREDICTED BY IDOCK:   -3.18 KCAL/MOL
REMARK 922        TOTAL FREE ENERGY PREDICTED BY IDOCK:   -7.53 KCAL/MOL
REMARK 923 INTER-LIGAND FREE ENERGY PREDICTED BY IDOCK:   -6.56 KCAL/MOL
REMARK 924 INTRA-LIGAND FREE ENERGY PREDICTED BY IDOCK:   -0.97 KCAL/MOL
REMARK 927      BINDING AFFINITY PREDICTED BY RF-SCORE:    0.00 PKD
ROOT
HETATM    1  C   UNL     1     -11.338   5.689  72.100  1.00  0.00    -0.277 C  
HETATM    2  C   UNL     1     -10.212   6.526  72.688  1.00  0.00    -0.205 C  
ENDROOT
BRANCH   2   3
HETATM    3  C   UNL     1      -9.937   7.741  71.804  1.00  0.00    -0.219 C  
BRANCH   3   4
HETATM    4  C   UNL     1      -8.455   7.932  71.458  1.00  0.00    -0.114 C  
BRANCH   4   5
HETATM    5  N   UNL     1      -8.101   8.463  70.118  1.00  0.00    -0.105 NA 
BRANCH   5   6
HETATM    6  C   UNL     1      -9.257   8.395  69.197  1.00  0.00    -0.150 C  
BRANCH   6   7
HETATM    7  C   UNL     1      -9.266   7.226  68.194  1.00  0.00    -0.132 C  
BRANCH   7   8
HETATM    8  C   UNL     1     -10.660   6.829  67.713  1.00  0.00    -0.307 C  
HETATM    9  C   UNL     1     -10.574   5.719  66.669  1.00  0.00    -0.347 C  
ENDBRANCH   7   8
ENDBRANCH   6   7
ENDBRANCH   5   6
BRANCH   5  10
HETATM   10  C   UNL     1      -7.609   9.863  70.233  1.00  0.00    -0.158 C  
BRANCH  10  11
HETATM   11  C   UNL     1      -8.051  10.724  69.052  1.00  0.00    -0.140 C  
BRANCH  11  12
HETATM   12  C   UNL     1      -7.263  12.032  68.902  1.00  0.00    -0.089 C  
HETATM   13  H   UNL     1      -5.470  12.574  68.309  1.00  0.00     0.000 HD 
HETATM   14  O   UNL     1      -5.958  11.763  68.402  1.00  0.00    -0.049 OA 
BRANCH  12  15
HETATM   15  C   UNL     1      -7.954  13.047  67.988  1.00  0.00    -0.155 A  
HETATM   16  C   UNL     1      -7.744  14.441  68.120  1.00  0.00    -0.131 A  
HETATM   17  C   UNL     1      -6.747  14.964  68.974  1.00  0.00    -0.117 A  
HETATM   18  C   UNL     1      -6.569  16.334  69.163  1.00  0.00    -0.185 A  
HETATM   19  C   UNL     1      -7.386  17.234  68.492  1.00  0.00    -0.235 A  
HETATM   20  C   UNL     1      -7.251  18.721  68.696  1.00  0.00    -0.303 C  
HETATM   21  C   UNL     1      -8.355  16.730  67.607  1.00  0.00    -0.191 A  
HETATM   22  F   UNL     1      -8.395  19.281  69.180  1.00  0.00    -0.376 F  
HETATM   23  C   UNL     1      -8.563  15.343  67.380  1.00  0.00    -0.197 A  
HETATM   24  F   UNL     1      -6.972  19.384  67.540  1.00  0.00    -0.210 F  
HETATM   25  F   UNL     1      -6.267  19.067  69.573  1.00  0.00    -0.247 F  
HETATM   26  C   UNL     1      -9.558  14.839  66.462  1.00  0.00    -0.304 A  
HETATM   27  C   UNL     1     -10.431  15.665  65.705  1.00  0.00    -0.402 A  
HETATM   28  C   UNL     1     -11.393  15.146  64.835  1.00  0.00    -0.399 A  
HETATM   29  C   UNL     1     -11.526  13.783  64.669  1.00  0.00    -0.385 A  
HETATM   30 CL   UNL     1     -12.428  16.212  63.968  1.00  0.00     0.606 Cl 
HETATM   31  C   UNL     1     -10.686  12.936  65.384  1.00  0.00    -0.285 A  
HETATM   32  C   UNL     1      -9.704  13.444  66.281  1.00  0.00    -0.280 A  
HETATM   33 CL   UNL     1     -10.934  11.231  65.138  1.00  0.00    -0.267 Cl 
HETATM   34  C   UNL     1      -8.878  12.594  67.029  1.00  0.00    -0.212 A  
ENDBRANCH  12  15
ENDBRANCH  11  12
ENDBRANCH  10  11
ENDBRANCH   5  10
ENDBRANCH   4   5
ENDBRANCH   3   4
ENDBRANCH   2   3
TORSDOF 10
ENDMDL
MODEL      151
REMARK 921   NORMALIZED FREE ENERGY PREDICTED BY IDOCK:   -3.10 KCAL/MOL
REMARK 922        TOTAL FREE ENERGY PREDICTED BY IDOCK:   -7.41 KCAL/MOL
REMARK 923 INTER-LIGAND FREE ENERGY PREDICTED BY IDOCK:   -6.68 KCAL/MOL
REMARK 924 INTRA-LIGAND FREE ENERGY PREDICTED BY IDOCK:   -0.74 KCAL/MOL
REMARK 927      BINDING AFFINITY PREDICTED BY RF-SCORE:    0.00 PKD
ROOT
HETATM    1  C   UNL     1      -6.488  10.511  70.191  1.00  0.00    -0.144 C  
HETATM    2  C   UNL     1      -7.482   9.370  70.030  1.00  0.00    -0.107 C  
ENDROOT
BRANCH   2   3
HETATM    3  C   UNL     1      -7.666   8.636  71.358  1.00  0.00    -0.150 C  
BRANCH   3   4
HETATM    4  C   UNL     1      -8.033   7.156  71.201  1.00  0.00    -0.102 C  
BRANCH   4   5
HETATM    5  N   UNL     1      -9.237   6.644  71.903  1.00  0.00    -0.147 NA 
BRANCH   5   6
HETATM    6  C   UNL     1      -8.867   5.949  73.155  1.00  0.00    -0.121 C  
BRANCH   6   7
HETATM    7  C   UNL     1      -8.559   4.444  73.037  1.00  0.00    -0.101 C  
BRANCH   7   8
HETATM    8  C   UNL     1      -7.109   4.078  73.344  1.00  0.00    -0.063 C  
HETATM    9  C   UNL     1      -6.602   4.852  74.557  1.00  0.00    -0.070 C  
ENDBRANCH   7   8
ENDBRANCH   6   7
ENDBRANCH   5   6
BRANCH   5  10
HETATM   10  C   UNL     1     -10.179   7.761  72.187  1.00  0.00    -0.213 C  
BRANCH  10  11
HETATM   11  C   UNL     1     -11.579   7.480  71.646  1.00  0.00    -0.299 C  
BRANCH  11  12
HETATM   12  C   UNL     1     -12.231   8.679  70.944  1.00  0.00    -0.100 C  
HETATM   13  H   UNL     1     -12.767  10.509  71.419  1.00  0.00     0.000 HD 
HETATM   14  O   UNL     1     -12.363   9.766  71.854  1.00  0.00    -0.377 OA 
BRANCH  12  15
HETATM   15  C   UNL     1     -11.456   9.146  69.710  1.00  0.00     0.106 A  
HETATM   16  C   UNL     1     -11.509  10.484  69.251  1.00  0.00    -0.323 A  
HETATM   17  C   UNL     1     -12.127  11.505  70.010  1.00  0.00    -0.408 A  
HETATM   18  C   UNL     1     -12.242  12.813  69.545  1.00  0.00    -0.161 A  
HETATM   19  C   UNL     1     -11.733  13.150  68.298  1.00  0.00    -0.384 A  
HETATM   20  C   UNL     1     -11.871  14.545  67.743  1.00  0.00    -0.357 C  
HETATM   21  C   UNL     1     -11.080  12.156  67.549  1.00  0.00    -0.328 A  
HETATM   22  F   UNL     1     -12.568  14.568  66.573  1.00  0.00    -0.411 F  
HETATM   23  C   UNL     1     -10.934  10.813  67.990  1.00  0.00    -0.336 A  
HETATM   24  F   UNL     1     -10.667  15.119  67.472  1.00  0.00    -0.260 F  
HETATM   25  F   UNL     1     -12.517  15.405  68.578  1.00  0.00    -0.136 F  
HETATM   26  C   UNL     1     -10.253   9.802  67.213  1.00  0.00    -0.289 A  
HETATM   27  C   UNL     1      -9.673  10.038  65.938  1.00  0.00    -0.309 A  
HETATM   28  C   UNL     1      -9.034   9.036  65.205  1.00  0.00    -0.165 A  
HETATM   29  C   UNL     1      -8.931   7.755  65.709  1.00  0.00    -0.109 A  
HETATM   30 CL   UNL     1      -8.374   9.394  63.657  1.00  0.00    -0.172 Cl 
HETATM   31  C   UNL     1      -9.476   7.481  66.959  1.00  0.00    -0.162 A  
HETATM   32  C   UNL     1     -10.138   8.486  67.719  1.00  0.00    -0.266 A  
HETATM   33 CL   UNL     1      -9.327   5.838  67.512  1.00  0.00    -0.111 Cl 
HETATM   34  C   UNL     1     -10.719   8.208  68.963  1.00  0.00    -0.099 A  
ENDBRANCH  12  15
ENDBRANCH  11  12
ENDBRANCH  10  11
ENDBRANCH   5  10
ENDBRANCH   4   5
ENDBRANCH   3   4
ENDBRANCH   2   3
TORSDOF 10
ENDMDL
MODEL      152
REMARK 921   NORMALIZED FREE ENERGY PREDICTED BY IDOCK:   -3.09 KCAL/MOL
REMARK 922        TOTAL FREE ENERGY PREDICTED BY IDOCK:   -7.40 KCAL/MOL
REMARK 923 INTER-LIGAND FREE ENERGY PREDICTED BY IDOCK:   -7.72 KCAL/MOL
REMARK 924 INTRA-LIGAND FREE ENERGY PREDICTED BY IDOCK:    0.32 KCAL/MOL
REMARK 927      BINDING AFFINITY PREDICTED BY RF-SCORE:    0.00 PKD
ROOT
HETATM    1  C   UNL     1      -7.846   2.089  66.273  1.00  0.00    -0.076 C  
HETATM    2  C   UNL     1      -8.111   3.534  66.668  1.00  0.00    -0.092 C  
ENDROOT
BRANCH   2   3
HETATM    3  C   UNL     1      -9.466   3.653  67.365  1.00  0.00    -0.238 C  
BRANCH   3   4
HETATM    4  C   UNL     1      -9.366   3.999  68.855  1.00  0.00    -0.164 C  
BRANCH   4   5
HETATM    5  N   UNL     1      -8.928   5.364  69.240  1.00  0.00    -0.103 NA 
BRANCH   5   6
HETATM    6  C   UNL     1      -7.503   5.578  68.910  1.00  0.00    -0.082 C  
BRANCH   6   7
HETATM    7  C   UNL     1      -6.475   5.027  69.917  1.00  0.00    -0.035 C  
BRANCH   7   8
HETATM    8  C   UNL     1      -5.916   6.077  70.874  1.00  0.00    -0.026 C  
HETATM    9  C   UNL     1      -6.369   7.475  70.465  1.00  0.00    -0.038 C  
ENDBRANCH   7   8
ENDBRANCH   6   7
ENDBRANCH   5   6
BRANCH   5  10
HETATM   10  C   UNL     1      -9.777   6.384  68.568  1.00  0.00    -0.132 C  
BRANCH  10  11
HETATM   11  C   UNL     1     -11.203   6.395  69.115  1.00  0.00    -0.421 C  
BRANCH  11  12
HETATM   12  C   UNL     1     -11.503   7.570  70.055  1.00  0.00    -0.029 C  
HETATM   13  H   UNL     1     -10.918   8.182  71.829  1.00  0.00     0.000 HD 
HETATM   14  O   UNL     1     -10.732   7.454  71.247  1.00  0.00    -0.221 OA 
BRANCH  12  15
HETATM   15  C   UNL     1     -11.237   8.934  69.414  1.00  0.00     0.138 A  
HETATM   16  C   UNL     1     -11.700  10.140  69.994  1.00  0.00    -0.294 A  
HETATM   17  C   UNL     1     -12.269  10.171  71.288  1.00  0.00    -0.496 A  
HETATM   18  C   UNL     1     -12.787  11.338  71.847  1.00  0.00    -0.386 A  
HETATM   19  C   UNL     1     -12.746  12.525  71.128  1.00  0.00    -0.340 A  
HETATM   20  C   UNL     1     -13.328  13.800  71.682  1.00  0.00    -0.354 C  
HETATM   21  C   UNL     1     -12.146  12.519  69.857  1.00  0.00    -0.322 A  
HETATM   22  F   UNL     1     -14.324  14.296  70.897  1.00  0.00    -0.220 F  
HETATM   23  C   UNL     1     -11.600  11.354  69.254  1.00  0.00    -0.384 A  
HETATM   24  F   UNL     1     -12.404  14.794  71.784  1.00  0.00    -0.337 F  
HETATM   25  F   UNL     1     -13.868  13.661  72.925  1.00  0.00    -0.567 F  
HETATM   26  C   UNL     1     -10.979  11.364  67.949  1.00  0.00    -0.295 A  
HETATM   27  C   UNL     1     -10.859  12.522  67.136  1.00  0.00    -0.282 A  
HETATM   28  C   UNL     1     -10.266  12.495  65.872  1.00  0.00    -0.261 A  
HETATM   29  C   UNL     1      -9.755  11.320  65.361  1.00  0.00    -0.271 A  
HETATM   30 CL   UNL     1     -10.177  13.937  64.937  1.00  0.00    -0.413 Cl 
HETATM   31  C   UNL     1      -9.842  10.163  66.127  1.00  0.00    -0.237 A  
HETATM   32  C   UNL     1     -10.449  10.166  67.415  1.00  0.00    -0.310 A  
HETATM   33 CL   UNL     1      -9.197   8.718  65.402  1.00  0.00    -0.206 Cl 
HETATM   34  C   UNL     1     -10.570   8.996  68.176  1.00  0.00    -0.225 A  
ENDBRANCH  12  15
ENDBRANCH  11  12
ENDBRANCH  10  11
ENDBRANCH   5  10
ENDBRANCH   4   5
ENDBRANCH   3   4
ENDBRANCH   2   3
TORSDOF 10
ENDMDL
MODEL      153
REMARK 921   NORMALIZED FREE ENERGY PREDICTED BY IDOCK:   -3.09 KCAL/MOL
REMARK 922        TOTAL FREE ENERGY PREDICTED BY IDOCK:   -7.39 KCAL/MOL
REMARK 923 INTER-LIGAND FREE ENERGY PREDICTED BY IDOCK:   -8.11 KCAL/MOL
REMARK 924 INTRA-LIGAND FREE ENERGY PREDICTED BY IDOCK:    0.72 KCAL/MOL
REMARK 927      BINDING AFFINITY PREDICTED BY RF-SCORE:    0.00 PKD
ROOT
HETATM    1  C   UNL     1      -5.270  10.979  64.871  1.00  0.00     0.076 C  
HETATM    2  C   UNL     1      -5.494  10.026  63.707  1.00  0.00    -0.108 C  
ENDROOT
BRANCH   2   3
HETATM    3  C   UNL     1      -6.506  10.616  62.726  1.00  0.00    -0.055 C  
BRANCH   3   4
HETATM    4  C   UNL     1      -7.921  10.046  62.878  1.00  0.00    -0.139 C  
BRANCH   4   5
HETATM    5  N   UNL     1      -8.886  10.761  63.749  1.00  0.00    -0.159 NA 
BRANCH   5   6
HETATM    6  C   UNL     1      -9.854  11.538  62.945  1.00  0.00    -0.249 C  
BRANCH   6   7
HETATM    7  C   UNL     1     -11.319  11.512  63.421  1.00  0.00    -0.303 C  
BRANCH   7   8
HETATM    8  C   UNL     1     -11.641  12.541  64.502  1.00  0.00    -0.406 C  
HETATM    9  C   UNL     1     -10.641  13.693  64.465  1.00  0.00    -0.428 C  
ENDBRANCH   7   8
ENDBRANCH   6   7
ENDBRANCH   5   6
BRANCH   5  10
HETATM   10  C   UNL     1      -9.599   9.795  64.629  1.00  0.00    -0.174 C  
BRANCH  10  11
HETATM   11  C   UNL     1     -10.299  10.490  65.795  1.00  0.00    -0.270 C  
BRANCH  11  12
HETATM   12  C   UNL     1      -9.355  10.915  66.928  1.00  0.00    -0.168 C  
HETATM   13  H   UNL     1      -7.858  12.166  67.162  1.00  0.00     0.000 HD 
HETATM   14  O   UNL     1      -8.443  11.903  66.460  1.00  0.00    -0.173 OA 
BRANCH  12  15
HETATM   15  C   UNL     1     -10.095  11.452  68.155  1.00  0.00    -0.200 A  
HETATM   16  C   UNL     1     -10.775  10.598  69.055  1.00  0.00    -0.257 A  
HETATM   17  C   UNL     1     -10.655   9.192  68.979  1.00  0.00    -0.219 A  
HETATM   18  C   UNL     1     -11.367   8.336  69.817  1.00  0.00     0.134 A  
HETATM   19  C   UNL     1     -12.226   8.862  70.773  1.00  0.00    -0.084 A  
HETATM   20  C   UNL     1     -13.042   7.970  71.673  1.00  0.00    -0.329 C  
HETATM   21  C   UNL     1     -12.325  10.259  70.889  1.00  0.00    -0.471 A  
HETATM   22  F   UNL     1     -14.381   8.172  71.524  1.00  0.00    -0.420 F  
HETATM   23  C   UNL     1     -11.611  11.167  70.060  1.00  0.00    -0.421 A  
HETATM   24  F   UNL     1     -12.778   8.179  72.992  1.00  0.00    -0.156 F  
HETATM   25  F   UNL     1     -12.839   6.641  71.457  1.00  0.00    -0.379 F  
HETATM   26  C   UNL     1     -11.717  12.602  70.195  1.00  0.00    -0.247 A  
HETATM   27  C   UNL     1     -12.543  13.250  71.151  1.00  0.00    -0.412 A  
HETATM   28  C   UNL     1     -12.634  14.641  71.247  1.00  0.00    -0.333 A  
HETATM   29  C   UNL     1     -11.901  15.451  70.405  1.00  0.00    -0.366 A  
HETATM   30 CL   UNL     1     -13.673  15.353  72.419  1.00  0.00    -0.586 Cl 
HETATM   31  C   UNL     1     -11.071  14.859  69.459  1.00  0.00    -0.281 A  
HETATM   32  C   UNL     1     -10.969  13.444  69.340  1.00  0.00    -0.079 A  
HETATM   33 CL   UNL     1     -10.201  15.949  68.419  1.00  0.00    -0.222 Cl 
HETATM   34  C   UNL     1     -10.161  12.842  68.366  1.00  0.00    -0.227 A  
ENDBRANCH  12  15
ENDBRANCH  11  12
ENDBRANCH  10  11
ENDBRANCH   5  10
ENDBRANCH   4   5
ENDBRANCH   3   4
ENDBRANCH   2   3
TORSDOF 10
ENDMDL
MODEL      154
REMARK 921   NORMALIZED FREE ENERGY PREDICTED BY IDOCK:   -3.09 KCAL/MOL
REMARK 922        TOTAL FREE ENERGY PREDICTED BY IDOCK:   -7.39 KCAL/MOL
REMARK 923 INTER-LIGAND FREE ENERGY PREDICTED BY IDOCK:   -5.09 KCAL/MOL
REMARK 924 INTRA-LIGAND FREE ENERGY PREDICTED BY IDOCK:   -2.30 KCAL/MOL
REMARK 927      BINDING AFFINITY PREDICTED BY RF-SCORE:    0.00 PKD
ROOT
HETATM    1  C   UNL     1     -12.400   6.752  70.670  1.00  0.00    -0.231 C  
HETATM    2  C   UNL     1     -12.688   7.656  71.860  1.00  0.00    -0.320 C  
ENDROOT
BRANCH   2   3
HETATM    3  C   UNL     1     -11.381   8.128  72.494  1.00  0.00    -0.469 C  
BRANCH   3   4
HETATM    4  C   UNL     1     -10.174   7.246  72.156  1.00  0.00    -0.190 C  
BRANCH   4   5
HETATM    5  N   UNL     1      -9.406   7.535  70.919  1.00  0.00    -0.154 NA 
BRANCH   5   6
HETATM    6  C   UNL     1      -8.861   8.910  70.942  1.00  0.00    -0.219 C  
BRANCH   6   7
HETATM    7  C   UNL     1      -9.562   9.941  70.037  1.00  0.00    -0.260 C  
BRANCH   7   8
HETATM    8  C   UNL     1     -10.457   9.322  68.965  1.00  0.00    -0.233 C  
HETATM    9  C   UNL     1     -11.296  10.396  68.278  1.00  0.00    -0.292 C  
ENDBRANCH   7   8
ENDBRANCH   6   7
ENDBRANCH   5   6
BRANCH   5  10
HETATM   10  C   UNL     1      -8.309   6.543  70.751  1.00  0.00    -0.130 C  
BRANCH  10  11
HETATM   11  C   UNL     1      -6.930   7.193  70.848  1.00  0.00    -0.057 C  
BRANCH  11  12
HETATM   12  C   UNL     1      -6.009   6.887  69.659  1.00  0.00    -0.023 C  
HETATM   13  H   UNL     1      -4.556   5.629  69.249  1.00  0.00     0.000 HD 
HETATM   14  O   UNL     1      -5.127   5.818  69.986  1.00  0.00    -0.004 OA 
BRANCH  12  15
HETATM   15  C   UNL     1      -6.775   6.535  68.382  1.00  0.00    -0.068 A  
HETATM   16  C   UNL     1      -7.309   7.529  67.528  1.00  0.00    -0.102 A  
HETATM   17  C   UNL     1      -7.006   8.899  67.704  1.00  0.00    -0.075 A  
HETATM   18  C   UNL     1      -7.572   9.896  66.911  1.00  0.00    -0.095 A  
HETATM   19  C   UNL     1      -8.462   9.553  65.903  1.00  0.00    -0.133 A  
HETATM   20  C   UNL     1      -9.125  10.604  65.048  1.00  0.00    -0.202 C  
HETATM   21  C   UNL     1      -8.742   8.193  65.688  1.00  0.00    -0.176 A  
HETATM   22  F   UNL     1     -10.482  10.574  65.154  1.00  0.00    -0.360 F  
HETATM   23  C   UNL     1      -8.180   7.146  66.468  1.00  0.00    -0.117 A  
HETATM   24  F   UNL     1      -8.851  10.448  63.724  1.00  0.00    -0.163 F  
HETATM   25  F   UNL     1      -8.755  11.877  65.360  1.00  0.00     0.013 F  
HETATM   26  C   UNL     1      -8.471   5.750  66.232  1.00  0.00    -0.126 A  
HETATM   27  C   UNL     1      -9.346   5.282  65.216  1.00  0.00    -0.004 A  
HETATM   28  C   UNL     1      -9.617   3.926  65.022  1.00  0.00    -0.181 A  
HETATM   29  C   UNL     1      -9.025   2.970  65.822  1.00  0.00    -0.144 A  
HETATM   30 CL   UNL     1     -10.706   3.438  63.781  1.00  0.00    -0.266 Cl 
HETATM   31  C   UNL     1      -8.154   3.383  66.825  1.00  0.00    -0.088 A  
HETATM   32  C   UNL     1      -7.869   4.760  67.044  1.00  0.00    -0.098 A  
HETATM   33 CL   UNL     1      -7.468   2.120  67.806  1.00  0.00    -0.055 Cl 
HETATM   34  C   UNL     1      -7.019   5.183  68.074  1.00  0.00    -0.061 A  
ENDBRANCH  12  15
ENDBRANCH  11  12
ENDBRANCH  10  11
ENDBRANCH   5  10
ENDBRANCH   4   5
ENDBRANCH   3   4
ENDBRANCH   2   3
TORSDOF 10
ENDMDL
MODEL      155
REMARK 921   NORMALIZED FREE ENERGY PREDICTED BY IDOCK:   -3.08 KCAL/MOL
REMARK 922        TOTAL FREE ENERGY PREDICTED BY IDOCK:   -7.38 KCAL/MOL
REMARK 923 INTER-LIGAND FREE ENERGY PREDICTED BY IDOCK:   -6.37 KCAL/MOL
REMARK 924 INTRA-LIGAND FREE ENERGY PREDICTED BY IDOCK:   -1.01 KCAL/MOL
REMARK 927      BINDING AFFINITY PREDICTED BY RF-SCORE:    0.00 PKD
ROOT
HETATM    1  C   UNL     1      -6.501   8.618  73.059  1.00  0.00    -0.056 C  
HETATM    2  C   UNL     1      -5.992   7.465  73.910  1.00  0.00    -0.064 C  
ENDROOT
BRANCH   2   3
HETATM    3  C   UNL     1      -7.162   6.723  74.553  1.00  0.00    -0.099 C  
BRANCH   3   4
HETATM    4  C   UNL     1      -8.406   6.637  73.661  1.00  0.00    -0.114 C  
BRANCH   4   5
HETATM    5  N   UNL     1      -8.596   5.429  72.820  1.00  0.00    -0.120 NA 
BRANCH   5   6
HETATM    6  C   UNL     1      -8.886   4.242  73.654  1.00  0.00    -0.093 C  
BRANCH   6   7
HETATM    7  C   UNL     1      -9.622   3.080  72.959  1.00  0.00    -0.144 C  
BRANCH   7   8
HETATM    8  C   UNL     1     -10.263   2.084  73.921  1.00  0.00    -0.166 C  
HETATM    9  C   UNL     1     -11.676   1.728  73.467  1.00  0.00    -0.296 C  
ENDBRANCH   7   8
ENDBRANCH   6   7
ENDBRANCH   5   6
BRANCH   5  10
HETATM   10  C   UNL     1      -9.690   5.654  71.837  1.00  0.00    -0.160 C  
BRANCH  10  11
HETATM   11  C   UNL     1      -9.154   6.071  70.469  1.00  0.00    -0.157 C  
BRANCH  11  12
HETATM   12  C   UNL     1     -10.223   6.132  69.370  1.00  0.00    -0.197 C  
HETATM   13  H   UNL     1     -12.071   5.511  69.121  1.00  0.00     0.000 HD 
HETATM   14  O   UNL     1     -11.409   5.473  69.802  1.00  0.00     0.018 OA 
BRANCH  12  15
HETATM   15  C   UNL     1     -10.568   7.563  68.948  1.00  0.00    -0.184 A  
HETATM   16  C   UNL     1     -10.148   8.102  67.709  1.00  0.00    -0.260 A  
HETATM   17  C   UNL     1      -9.549   7.296  66.713  1.00  0.00    -0.240 A  
HETATM   18  C   UNL     1      -9.073   7.823  65.514  1.00  0.00     0.094 A  
HETATM   19  C   UNL     1      -9.187   9.184  65.264  1.00  0.00    -0.243 A  
HETATM   20  C   UNL     1      -8.651   9.798  63.996  1.00  0.00    -0.197 C  
HETATM   21  C   UNL     1      -9.817   9.992  66.226  1.00  0.00    -0.297 A  
HETATM   22  F   UNL     1      -7.699  10.741  64.242  1.00  0.00    -0.061 F  
HETATM   23  C   UNL     1     -10.323   9.494  67.457  1.00  0.00    -0.306 A  
HETATM   24  F   UNL     1      -9.618  10.426  63.272  1.00  0.00    -0.275 F  
HETATM   25  F   UNL     1      -8.075   8.898  63.152  1.00  0.00    -0.137 F  
HETATM   26  C   UNL     1     -10.975  10.335  68.435  1.00  0.00    -0.308 A  
HETATM   27  C   UNL     1     -11.169  11.733  68.277  1.00  0.00    -0.313 A  
HETATM   28  C   UNL     1     -11.791  12.521  69.247  1.00  0.00    -0.304 A  
HETATM   29  C   UNL     1     -12.259  11.956  70.416  1.00  0.00    -0.399 A  
HETATM   30 CL   UNL     1     -11.970  14.213  68.991  1.00  0.00    -0.376 Cl 
HETATM   31  C   UNL     1     -12.099  10.588  70.609  1.00  0.00    -0.356 A  
HETATM   32  C   UNL     1     -11.461   9.768  69.636  1.00  0.00    -0.103 A  
HETATM   33 CL   UNL     1     -12.693   9.957  72.118  1.00  0.00    -0.428 Cl 
HETATM   34  C   UNL     1     -11.267   8.395  69.841  1.00  0.00    -0.029 A  
ENDBRANCH  12  15
ENDBRANCH  11  12
ENDBRANCH  10  11
ENDBRANCH   5  10
ENDBRANCH   4   5
ENDBRANCH   3   4
ENDBRANCH   2   3
TORSDOF 10
ENDMDL
MODEL      156
REMARK 921   NORMALIZED FREE ENERGY PREDICTED BY IDOCK:   -3.05 KCAL/MOL
REMARK 922        TOTAL FREE ENERGY PREDICTED BY IDOCK:   -7.32 KCAL/MOL
REMARK 923 INTER-LIGAND FREE ENERGY PREDICTED BY IDOCK:   -5.89 KCAL/MOL
REMARK 924 INTRA-LIGAND FREE ENERGY PREDICTED BY IDOCK:   -1.43 KCAL/MOL
REMARK 927      BINDING AFFINITY PREDICTED BY RF-SCORE:    0.00 PKD
ROOT
HETATM    1  C   UNL     1      -8.024  16.425  67.883  1.00  0.00    -0.161 C  
HETATM    2  C   UNL     1      -6.915  15.927  68.798  1.00  0.00    -0.132 C  
ENDROOT
BRANCH   2   3
HETATM    3  C   UNL     1      -7.211  14.502  69.263  1.00  0.00    -0.131 C  
BRANCH   3   4
HETATM    4  C   UNL     1      -8.142  13.726  68.324  1.00  0.00    -0.150 C  
BRANCH   4   5
HETATM    5  N   UNL     1      -7.613  12.523  67.633  1.00  0.00    -0.132 NA 
BRANCH   5   6
HETATM    6  C   UNL     1      -6.531  11.891  68.420  1.00  0.00    -0.054 C  
BRANCH   6   7
HETATM    7  C   UNL     1      -6.471  10.352  68.390  1.00  0.00    -0.055 C  
BRANCH   7   8
HETATM    8  C   UNL     1      -6.619   9.696  69.760  1.00  0.00    -0.055 C  
HETATM    9  C   UNL     1      -5.876   8.364  69.803  1.00  0.00    -0.025 C  
ENDBRANCH   7   8
ENDBRANCH   6   7
ENDBRANCH   5   6
BRANCH   5  10
HETATM   10  C   UNL     1      -8.711  11.550  67.384  1.00  0.00    -0.147 C  
BRANCH  10  11
HETATM   11  C   UNL     1     -10.067  12.088  67.836  1.00  0.00    -0.199 C  
BRANCH  11  12
HETATM   12  C   UNL     1     -10.851  11.128  68.740  1.00  0.00    -0.213 C  
HETATM   13  H   UNL     1     -12.723  10.575  68.974  1.00  0.00     0.000 HD 
HETATM   14  O   UNL     1     -12.237  11.170  68.414  1.00  0.00    -0.610 OA 
BRANCH  12  15
HETATM   15  C   UNL     1     -10.357   9.682  68.652  1.00  0.00    -0.226 A  
HETATM   16  C   UNL     1     -10.356   8.819  69.774  1.00  0.00    -0.214 A  
HETATM   17  C   UNL     1     -10.981   9.180  70.989  1.00  0.00    -0.375 A  
HETATM   18  C   UNL     1     -10.935   8.370  72.122  1.00  0.00    -0.411 A  
HETATM   19  C   UNL     1     -10.262   7.156  72.075  1.00  0.00    -0.209 A  
HETATM   20  C   UNL     1     -10.157   6.268  73.288  1.00  0.00    -0.195 C  
HETATM   21  C   UNL     1      -9.669   6.764  70.862  1.00  0.00    -0.186 A  
HETATM   22  F   UNL     1      -8.864   6.054  73.661  1.00  0.00    -0.125 F  
HETATM   23  C   UNL     1      -9.701   7.557  69.683  1.00  0.00    -0.167 A  
HETATM   24  F   UNL     1     -10.693   5.035  73.080  1.00  0.00    -0.217 F  
HETATM   25  F   UNL     1     -10.783   6.768  74.390  1.00  0.00    -0.316 F  
HETATM   26  C   UNL     1      -9.093   7.138  68.440  1.00  0.00    -0.127 A  
HETATM   27  C   UNL     1      -8.401   5.910  68.269  1.00  0.00    -0.112 A  
HETATM   28  C   UNL     1      -7.813   5.540  67.058  1.00  0.00    -0.101 A  
HETATM   29  C   UNL     1      -7.894   6.368  65.957  1.00  0.00    -0.103 A  
HETATM   30 CL   UNL     1      -6.972   4.043  66.935  1.00  0.00    -0.058 Cl 
HETATM   31  C   UNL     1      -8.570   7.577  66.076  1.00  0.00    -0.151 A  
HETATM   32  C   UNL     1      -9.171   7.976  67.304  1.00  0.00    -0.164 A  
HETATM   33 CL   UNL     1      -8.605   8.574  64.651  1.00  0.00    -0.132 Cl 
HETATM   34  C   UNL     1      -9.824   9.209  67.439  1.00  0.00    -0.237 A  
ENDBRANCH  12  15
ENDBRANCH  11  12
ENDBRANCH  10  11
ENDBRANCH   5  10
ENDBRANCH   4   5
ENDBRANCH   3   4
ENDBRANCH   2   3
TORSDOF 10
ENDMDL
MODEL      157
REMARK 921   NORMALIZED FREE ENERGY PREDICTED BY IDOCK:   -2.96 KCAL/MOL
REMARK 922        TOTAL FREE ENERGY PREDICTED BY IDOCK:   -7.18 KCAL/MOL
REMARK 923 INTER-LIGAND FREE ENERGY PREDICTED BY IDOCK:   -6.25 KCAL/MOL
REMARK 924 INTRA-LIGAND FREE ENERGY PREDICTED BY IDOCK:   -0.93 KCAL/MOL
REMARK 927      BINDING AFFINITY PREDICTED BY RF-SCORE:    0.00 PKD
ROOT
HETATM    1  C   UNL     1     -12.521  15.401  72.889  1.00  0.00    -0.523 C  
HETATM    2  C   UNL     1     -11.812  15.874  71.628  1.00  0.00    -0.565 C  
ENDROOT
BRANCH   2   3
HETATM    3  C   UNL     1     -12.496  15.299  70.389  1.00  0.00    -0.426 C  
BRANCH   3   4
HETATM    4  C   UNL     1     -11.531  14.632  69.403  1.00  0.00    -0.296 C  
BRANCH   4   5
HETATM    5  N   UNL     1     -11.145  13.217  69.633  1.00  0.00    -0.025 NA 
BRANCH   5   6
HETATM    6  C   UNL     1     -12.327  12.390  69.957  1.00  0.00    -0.085 C  
BRANCH   6   7
HETATM    7  C   UNL     1     -12.046  10.975  70.499  1.00  0.00    -0.470 C  
BRANCH   7   8
HETATM    8  C   UNL     1     -13.297  10.208  70.919  1.00  0.00    -0.272 C  
HETATM    9  C   UNL     1     -13.182   9.741  72.367  1.00  0.00    -0.363 C  
ENDBRANCH   7   8
ENDBRANCH   6   7
ENDBRANCH   5   6
BRANCH   5  10
HETATM   10  C   UNL     1     -10.442  12.676  68.437  1.00  0.00    -0.238 C  
BRANCH  10  11
HETATM   11  C   UNL     1      -9.232  11.826  68.821  1.00  0.00    -0.009 C  
BRANCH  11  12
HETATM   12  C   UNL     1      -8.636  11.025  67.655  1.00  0.00    -0.125 C  
HETATM   13  H   UNL     1      -6.969  11.022  66.614  1.00  0.00     0.000 HD 
HETATM   14  O   UNL     1      -7.339  11.518  67.335  1.00  0.00    -0.107 OA 
BRANCH  12  15
HETATM   15  C   UNL     1      -8.548   9.524  67.942  1.00  0.00    -0.119 A  
HETATM   16  C   UNL     1      -8.313   8.577  66.917  1.00  0.00    -0.109 A  
HETATM   17  C   UNL     1      -7.961   8.972  65.606  1.00  0.00    -0.104 A  
HETATM   18  C   UNL     1      -7.787   8.055  64.571  1.00  0.00    -0.138 A  
HETATM   19  C   UNL     1      -7.955   6.699  64.816  1.00  0.00    -0.118 A  
HETATM   20  C   UNL     1      -7.814   5.678  63.716  1.00  0.00    -0.108 C  
HETATM   21  C   UNL     1      -8.265   6.286  66.124  1.00  0.00    -0.121 A  
HETATM   22  F   UNL     1      -8.958   4.964  63.524  1.00  0.00    -0.143 F  
HETATM   23  C   UNL     1      -8.442   7.188  67.208  1.00  0.00    -0.122 A  
HETATM   24  F   UNL     1      -6.842   4.761  63.978  1.00  0.00    -0.040 F  
HETATM   25  F   UNL     1      -7.504   6.218  62.504  1.00  0.00    -0.046 F  
HETATM   26  C   UNL     1      -8.753   6.749  68.550  1.00  0.00    -0.124 A  
HETATM   27  C   UNL     1      -8.923   5.389  68.921  1.00  0.00    -0.130 A  
HETATM   28  C   UNL     1      -9.237   4.998  70.224  1.00  0.00    -0.139 A  
HETATM   29  C   UNL     1      -9.387   5.940  71.222  1.00  0.00    -0.172 A  
HETATM   30 CL   UNL     1      -9.448   3.330  70.592  1.00  0.00    -0.233 Cl 
HETATM   31  C   UNL     1      -9.221   7.283  70.906  1.00  0.00    -0.155 A  
HETATM   32  C   UNL     1      -8.907   7.704  69.582  1.00  0.00    -0.140 A  
HETATM   33 CL   UNL     1      -9.452   8.408  72.213  1.00  0.00    -0.342 Cl 
HETATM   34  C   UNL     1      -8.772   9.059  69.251  1.00  0.00    -0.138 A  
ENDBRANCH  12  15
ENDBRANCH  11  12
ENDBRANCH  10  11
ENDBRANCH   5  10
ENDBRANCH   4   5
ENDBRANCH   3   4
ENDBRANCH   2   3
TORSDOF 10
ENDMDL
MODEL      158
REMARK 921   NORMALIZED FREE ENERGY PREDICTED BY IDOCK:   -2.92 KCAL/MOL
REMARK 922        TOTAL FREE ENERGY PREDICTED BY IDOCK:   -7.13 KCAL/MOL
REMARK 923 INTER-LIGAND FREE ENERGY PREDICTED BY IDOCK:   -6.77 KCAL/MOL
REMARK 924 INTRA-LIGAND FREE ENERGY PREDICTED BY IDOCK:   -0.36 KCAL/MOL
REMARK 927      BINDING AFFINITY PREDICTED BY RF-SCORE:    0.00 PKD
ROOT
HETATM    1  C   UNL     1     -10.844  15.638  68.611  1.00  0.00    -0.273 C  
HETATM    2  C   UNL     1     -10.871  15.000  67.230  1.00  0.00    -0.310 C  
ENDROOT
BRANCH   2   3
HETATM    3  C   UNL     1      -9.450  14.695  66.759  1.00  0.00    -0.275 C  
BRANCH   3   4
HETATM    4  C   UNL     1      -8.557  14.083  67.844  1.00  0.00    -0.181 C  
BRANCH   4   5
HETATM    5  N   UNL     1      -7.156  13.734  67.498  1.00  0.00    -0.177 NA 
BRANCH   5   6
HETATM    6  C   UNL     1      -6.221  14.795  67.933  1.00  0.00    -0.157 C  
BRANCH   6   7
HETATM    7  C   UNL     1      -6.829  16.193  68.159  1.00  0.00    -0.132 C  
BRANCH   7   8
HETATM    8  C   UNL     1      -6.255  16.935  69.363  1.00  0.00    -0.226 C  
HETATM    9  C   UNL     1      -5.586  15.961  70.328  1.00  0.00    -0.163 C  
ENDBRANCH   7   8
ENDBRANCH   6   7
ENDBRANCH   5   6
BRANCH   5  10
HETATM   10  C   UNL     1      -6.784  12.430  68.113  1.00  0.00    -0.075 C  
BRANCH  10  11
HETATM   11  C   UNL     1      -6.902  11.276  67.121  1.00  0.00    -0.114 C  
BRANCH  11  12
HETATM   12  C   UNL     1      -8.347  10.863  66.809  1.00  0.00    -0.138 C  
HETATM   13  H   UNL     1      -9.264   9.678  65.538  1.00  0.00     0.000 HD 
HETATM   14  O   UNL     1      -8.369   9.933  65.731  1.00  0.00    -0.122 OA 
BRANCH  12  15
HETATM   15  C   UNL     1      -9.070  10.255  68.013  1.00  0.00    -0.132 A  
HETATM   16  C   UNL     1      -8.859   8.916  68.420  1.00  0.00    -0.134 A  
HETATM   17  C   UNL     1      -7.834   8.122  67.855  1.00  0.00    -0.122 A  
HETATM   18  C   UNL     1      -7.653   6.784  68.198  1.00  0.00    -0.107 A  
HETATM   19  C   UNL     1      -8.494   6.190  69.130  1.00  0.00    -0.119 A  
HETATM   20  C   UNL     1      -8.355   4.736  69.501  1.00  0.00    -0.082 C  
HETATM   21  C   UNL     1      -9.491   6.978  69.731  1.00  0.00    -0.145 A  
HETATM   22  F   UNL     1      -9.482   4.023  69.225  1.00  0.00    -0.194 F  
HETATM   23  C   UNL     1      -9.704   8.347  69.416  1.00  0.00    -0.177 A  
HETATM   24  F   UNL     1      -8.117   4.557  70.829  1.00  0.00    -0.064 F  
HETATM   25  F   UNL     1      -7.342   4.099  68.849  1.00  0.00    -0.053 F  
HETATM   26  C   UNL     1     -10.729   9.147  70.047  1.00  0.00    -0.254 A  
HETATM   27  C   UNL     1     -11.628   8.654  71.029  1.00  0.00    -0.325 A  
HETATM   28  C   UNL     1     -12.618   9.450  71.610  1.00  0.00    -0.375 A  
HETATM   29  C   UNL     1     -12.754  10.775  71.250  1.00  0.00    -0.546 A  
HETATM   30 CL   UNL     1     -13.685   8.774  72.779  1.00  0.00    -0.343 Cl 
HETATM   31  C   UNL     1     -11.889  11.302  70.298  1.00  0.00    -0.357 A  
HETATM   32  C   UNL     1     -10.878  10.507  69.688  1.00  0.00    -0.320 A  
HETATM   33 CL   UNL     1     -12.142  12.973  69.880  1.00  0.00    -0.371 Cl 
HETATM   34  C   UNL     1     -10.025  11.025  68.704  1.00  0.00    -0.205 A  
ENDBRANCH  12  15
ENDBRANCH  11  12
ENDBRANCH  10  11
ENDBRANCH   5  10
ENDBRANCH   4   5
ENDBRANCH   3   4
ENDBRANCH   2   3
TORSDOF 10
ENDMDL
MODEL      159
REMARK 921   NORMALIZED FREE ENERGY PREDICTED BY IDOCK:   -2.85 KCAL/MOL
REMARK 922        TOTAL FREE ENERGY PREDICTED BY IDOCK:   -7.01 KCAL/MOL
REMARK 923 INTER-LIGAND FREE ENERGY PREDICTED BY IDOCK:   -6.43 KCAL/MOL
REMARK 924 INTRA-LIGAND FREE ENERGY PREDICTED BY IDOCK:   -0.58 KCAL/MOL
REMARK 927      BINDING AFFINITY PREDICTED BY RF-SCORE:    0.00 PKD
ROOT
HETATM    1  C   UNL     1     -11.678  13.432  69.201  1.00  0.00    -0.375 C  
HETATM    2  C   UNL     1     -12.306  14.051  70.441  1.00  0.00    -0.429 C  
ENDROOT
BRANCH   2   3
HETATM    3  C   UNL     1     -11.873  15.509  70.583  1.00  0.00    -0.400 C  
BRANCH   3   4
HETATM    4  C   UNL     1     -10.602  15.856  69.799  1.00  0.00    -0.322 C  
BRANCH   4   5
HETATM    5  N   UNL     1     -10.464  17.224  69.239  1.00  0.00    -0.305 NA 
BRANCH   5   6
HETATM    6  C   UNL     1      -9.049  17.654  69.230  1.00  0.00     0.232 C  
BRANCH   6   7
HETATM    7  C   UNL     1      -8.794  19.172  69.303  1.00  0.00    -0.016 C  
BRANCH   7   8
HETATM    8  C   UNL     1      -7.442  19.605  68.741  1.00  0.00    -0.364 C  
HETATM    9  C   UNL     1      -6.307  18.840  69.417  1.00  0.00    -0.293 C  
ENDBRANCH   7   8
ENDBRANCH   6   7
ENDBRANCH   5   6
BRANCH   5  10
HETATM   10  C   UNL     1     -11.031  17.275  67.864  1.00  0.00    -0.179 C  
BRANCH  10  11
HETATM   11  C   UNL     1     -10.368  18.354  67.011  1.00  0.00    -0.419 C  
BRANCH  11  12
HETATM   12  C   UNL     1      -9.491  17.805  65.877  1.00  0.00     0.072 C  
HETATM   13  H   UNL     1      -7.738  18.209  65.087  1.00  0.00     0.000 HD 
HETATM   14  O   UNL     1      -8.281  18.549  65.789  1.00  0.00    -0.481 OA 
BRANCH  12  15
HETATM   15  C   UNL     1      -9.159  16.320  66.041  1.00  0.00    -0.332 A  
HETATM   16  C   UNL     1      -9.949  15.304  65.453  1.00  0.00    -0.364 A  
HETATM   17  C   UNL     1     -10.977  15.603  64.530  1.00  0.00    -0.220 A  
HETATM   18  C   UNL     1     -11.805  14.620  63.990  1.00  0.00    -0.135 A  
HETATM   19  C   UNL     1     -11.626  13.292  64.353  1.00  0.00    -0.423 A  
HETATM   20  C   UNL     1     -12.524  12.204  63.821  1.00  0.00    -0.514 C  
HETATM   21  C   UNL     1     -10.582  12.973  65.239  1.00  0.00    -0.320 A  
HETATM   22  F   UNL     1     -13.186  11.549  64.815  1.00  0.00     0.597 F  
HETATM   23  C   UNL     1      -9.711  13.943  65.805  1.00  0.00    -0.190 A  
HETATM   24  F   UNL     1     -11.836  11.248  63.139  1.00  0.00    -0.369 F  
HETATM   25  F   UNL     1     -13.485  12.656  62.968  1.00  0.00     0.319 F  
HETATM   26  C   UNL     1      -8.637  13.600  66.708  1.00  0.00    -0.050 A  
HETATM   27  C   UNL     1      -8.346  12.276  67.129  1.00  0.00    -0.183 A  
HETATM   28  C   UNL     1      -7.308  11.978  68.016  1.00  0.00    -0.102 A  
HETATM   29  C   UNL     1      -6.504  12.982  68.516  1.00  0.00    -0.084 A  
HETATM   30 CL   UNL     1      -7.031  10.349  68.496  1.00  0.00    -0.061 Cl 
HETATM   31  C   UNL     1      -6.747  14.294  68.124  1.00  0.00    -0.128 A  
HETATM   32  C   UNL     1      -7.804  14.619  67.227  1.00  0.00    -0.213 A  
HETATM   33 CL   UNL     1      -5.706  15.502  68.819  1.00  0.00    -0.095 Cl 
HETATM   34  C   UNL     1      -8.074  15.943  66.855  1.00  0.00    -0.285 A  
ENDBRANCH  12  15
ENDBRANCH  11  12
ENDBRANCH  10  11
ENDBRANCH   5  10
ENDBRANCH   4   5
ENDBRANCH   3   4
ENDBRANCH   2   3
TORSDOF 10
ENDMDL
MODEL      160
REMARK 921   NORMALIZED FREE ENERGY PREDICTED BY IDOCK:   -2.85 KCAL/MOL
REMARK 922        TOTAL FREE ENERGY PREDICTED BY IDOCK:   -7.01 KCAL/MOL
REMARK 923 INTER-LIGAND FREE ENERGY PREDICTED BY IDOCK:   -6.04 KCAL/MOL
REMARK 924 INTRA-LIGAND FREE ENERGY PREDICTED BY IDOCK:   -0.97 KCAL/MOL
REMARK 927      BINDING AFFINITY PREDICTED BY RF-SCORE:    0.00 PKD
ROOT
HETATM    1  C   UNL     1     -13.768  15.325  71.728  1.00  0.00    -0.605 C  
HETATM    2  C   UNL     1     -13.508  13.912  71.228  1.00  0.00    -0.268 C  
ENDROOT
BRANCH   2   3
HETATM    3  C   UNL     1     -12.007  13.671  71.077  1.00  0.00    -0.144 C  
BRANCH   3   4
HETATM    4  C   UNL     1     -11.333  14.592  70.053  1.00  0.00    -0.224 C  
BRANCH   4   5
HETATM    5  N   UNL     1     -12.051  14.898  68.791  1.00  0.00    -0.228 NA 
BRANCH   5   6
HETATM    6  C   UNL     1     -11.441  16.055  68.100  1.00  0.00    -0.250 C  
BRANCH   6   7
HETATM    7  C   UNL     1      -9.976  16.371  68.455  1.00  0.00    -0.239 C  
BRANCH   7   8
HETATM    8  C   UNL     1      -9.760  17.774  69.018  1.00  0.00    -0.187 C  
HETATM    9  C   UNL     1      -8.318  18.226  68.801  1.00  0.00    -0.244 C  
ENDBRANCH   7   8
ENDBRANCH   6   7
ENDBRANCH   5   6
BRANCH   5  10
HETATM   10  C   UNL     1     -12.058  13.705  67.901  1.00  0.00    -0.283 C  
BRANCH  10  11
HETATM   11  C   UNL     1     -10.780  13.602  67.072  1.00  0.00    -0.278 C  
BRANCH  11  12
HETATM   12  C   UNL     1     -10.484  12.190  66.549  1.00  0.00    -0.225 C  
HETATM   13  H   UNL     1      -9.512  11.385  65.043  1.00  0.00     0.000 HD 
HETATM   14  O   UNL     1      -9.695  12.260  65.366  1.00  0.00    -0.224 OA 
BRANCH  12  15
HETATM   15  C   UNL     1      -9.773  11.307  67.578  1.00  0.00    -0.192 A  
HETATM   16  C   UNL     1     -10.475  10.648  68.615  1.00  0.00    -0.211 A  
HETATM   17  C   UNL     1     -11.888  10.616  68.652  1.00  0.00    -0.135 A  
HETATM   18  C   UNL     1     -12.594  10.026  69.699  1.00  0.00     0.516 A  
HETATM   19  C   UNL     1     -11.904   9.438  70.751  1.00  0.00    -0.323 A  
HETATM   20  C   UNL     1     -12.630   8.823  71.920  1.00  0.00    -0.371 C  
HETATM   21  C   UNL     1     -10.500   9.426  70.709  1.00  0.00    -0.372 A  
HETATM   22  F   UNL     1     -12.306   9.420  73.100  1.00  0.00     0.170 F  
HETATM   23  C   UNL     1      -9.742  10.008  69.657  1.00  0.00    -0.255 A  
HETATM   24  F   UNL     1     -12.338   7.503  72.079  1.00  0.00    -0.300 F  
HETATM   25  F   UNL     1     -13.987   8.898  71.824  1.00  0.00    -0.387 F  
HETATM   26  C   UNL     1      -8.298   9.982  69.622  1.00  0.00    -0.188 A  
HETATM   27  C   UNL     1      -7.491   9.388  70.629  1.00  0.00    -0.150 A  
HETATM   28  C   UNL     1      -6.095   9.391  70.574  1.00  0.00    -0.059 A  
HETATM   29  C   UNL     1      -5.436   9.976  69.511  1.00  0.00    -0.038 A  
HETATM   30 CL   UNL     1      -5.185   8.669  71.843  1.00  0.00    -0.036 Cl 
HETATM   31  C   UNL     1      -6.187  10.561  68.498  1.00  0.00    -0.046 A  
HETATM   32  C   UNL     1      -7.610  10.575  68.538  1.00  0.00    -0.097 A  
HETATM   33 CL   UNL     1      -5.282  11.299  67.207  1.00  0.00    -0.047 Cl 
HETATM   34  C   UNL     1      -8.371  11.194  67.537  1.00  0.00    -0.122 A  
ENDBRANCH  12  15
ENDBRANCH  11  12
ENDBRANCH  10  11
ENDBRANCH   5  10
ENDBRANCH   4   5
ENDBRANCH   3   4
ENDBRANCH   2   3
TORSDOF 10
ENDMDL
MODEL      161
REMARK 921   NORMALIZED FREE ENERGY PREDICTED BY IDOCK:   -2.83 KCAL/MOL
REMARK 922        TOTAL FREE ENERGY PREDICTED BY IDOCK:   -6.99 KCAL/MOL
REMARK 923 INTER-LIGAND FREE ENERGY PREDICTED BY IDOCK:   -5.74 KCAL/MOL
REMARK 924 INTRA-LIGAND FREE ENERGY PREDICTED BY IDOCK:   -1.24 KCAL/MOL
REMARK 927      BINDING AFFINITY PREDICTED BY RF-SCORE:    0.00 PKD
ROOT
HETATM    1  C   UNL     1     -12.289  14.676  64.216  1.00  0.00    -0.375 C  
HETATM    2  C   UNL     1     -12.129  13.352  63.485  1.00  0.00    -0.497 C  
ENDROOT
BRANCH   2   3
HETATM    3  C   UNL     1     -11.143  12.452  64.227  1.00  0.00    -0.399 C  
BRANCH   3   4
HETATM    4  C   UNL     1     -11.570  12.117  65.662  1.00  0.00    -0.351 C  
BRANCH   4   5
HETATM    5  N   UNL     1     -10.841  12.755  66.787  1.00  0.00    -0.260 NA 
BRANCH   5   6
HETATM    6  C   UNL     1     -11.780  13.238  67.823  1.00  0.00    -0.358 C  
BRANCH   6   7
HETATM    7  C   UNL     1     -11.621  14.706  68.261  1.00  0.00    -0.353 C  
BRANCH   7   8
HETATM    8  C   UNL     1     -10.589  15.490  67.454  1.00  0.00    -0.292 C  
HETATM    9  C   UNL     1     -10.131  16.727  68.221  1.00  0.00    -0.274 C  
ENDBRANCH   7   8
ENDBRANCH   6   7
ENDBRANCH   5   6
BRANCH   5  10
HETATM   10  C   UNL     1      -9.865  11.798  67.375  1.00  0.00    -0.178 C  
BRANCH  10  11
HETATM   11  C   UNL     1      -8.525  11.824  66.643  1.00  0.00    -0.153 C  
BRANCH  11  12
HETATM   12  C   UNL     1      -8.056  10.450  66.146  1.00  0.00    -0.139 C  
HETATM   13  H   UNL     1      -6.701   9.752  64.906  1.00  0.00     0.000 HD 
HETATM   14  O   UNL     1      -6.991  10.603  65.213  1.00  0.00    -0.090 OA 
BRANCH  12  15
HETATM   15  C   UNL     1      -7.604   9.525  67.279  1.00  0.00    -0.091 A  
HETATM   16  C   UNL     1      -7.925   8.147  67.296  1.00  0.00    -0.113 A  
HETATM   17  C   UNL     1      -8.517   7.508  66.182  1.00  0.00    -0.147 A  
HETATM   18  C   UNL     1      -8.896   6.167  66.206  1.00  0.00    -0.150 A  
HETATM   19  C   UNL     1      -8.688   5.411  67.351  1.00  0.00    -0.107 A  
HETATM   20  C   UNL     1      -9.117   3.968  67.430  1.00  0.00    -0.150 C  
HETATM   21  C   UNL     1      -8.062   6.020  68.453  1.00  0.00    -0.107 A  
HETATM   22  F   UNL     1     -10.023   3.753  68.424  1.00  0.00    -0.182 F  
HETATM   23  C   UNL     1      -7.653   7.381  68.467  1.00  0.00    -0.114 A  
HETATM   24  F   UNL     1      -8.077   3.128  67.685  1.00  0.00    -0.077 F  
HETATM   25  F   UNL     1      -9.701   3.507  66.289  1.00  0.00    -0.191 F  
HETATM   26  C   UNL     1      -7.004   7.993  69.604  1.00  0.00    -0.049 A  
HETATM   27  C   UNL     1      -6.719   7.312  70.817  1.00  0.00    -0.048 A  
HETATM   28  C   UNL     1      -6.103   7.936  71.904  1.00  0.00    -0.040 A  
HETATM   29  C   UNL     1      -5.732   9.263  71.833  1.00  0.00    -0.063 A  
HETATM   30 CL   UNL     1      -5.809   7.048  73.349  1.00  0.00    -0.053 Cl 
HETATM   31  C   UNL     1      -5.984   9.967  70.661  1.00  0.00    -0.094 A  
HETATM   32  C   UNL     1      -6.618   9.352  69.544  1.00  0.00    -0.044 A  
HETATM   33 CL   UNL     1      -5.510  11.641  70.661  1.00  0.00    -0.141 Cl 
HETATM   34  C   UNL     1      -6.905  10.067  68.373  1.00  0.00    -0.062 A  
ENDBRANCH  12  15
ENDBRANCH  11  12
ENDBRANCH  10  11
ENDBRANCH   5  10
ENDBRANCH   4   5
ENDBRANCH   3   4
ENDBRANCH   2   3
TORSDOF 10
ENDMDL
MODEL      162
REMARK 921   NORMALIZED FREE ENERGY PREDICTED BY IDOCK:   -2.83 KCAL/MOL
REMARK 922        TOTAL FREE ENERGY PREDICTED BY IDOCK:   -6.97 KCAL/MOL
REMARK 923 INTER-LIGAND FREE ENERGY PREDICTED BY IDOCK:   -5.57 KCAL/MOL
REMARK 924 INTRA-LIGAND FREE ENERGY PREDICTED BY IDOCK:   -1.40 KCAL/MOL
REMARK 927      BINDING AFFINITY PREDICTED BY RF-SCORE:    0.00 PKD
ROOT
HETATM    1  C   UNL     1      -6.934  10.632  69.518  1.00  0.00    -0.121 C  
HETATM    2  C   UNL     1      -7.473   9.217  69.666  1.00  0.00    -0.078 C  
ENDROOT
BRANCH   2   3
HETATM    3  C   UNL     1      -7.772   8.914  71.133  1.00  0.00    -0.158 C  
BRANCH   3   4
HETATM    4  C   UNL     1      -7.245   7.553  71.604  1.00  0.00    -0.067 C  
BRANCH   4   5
HETATM    5  N   UNL     1      -8.048   6.781  72.586  1.00  0.00    -0.103 NA 
BRANCH   5   6
HETATM    6  C   UNL     1      -7.616   7.070  73.970  1.00  0.00    -0.105 C  
BRANCH   6   7
HETATM    7  C   UNL     1      -6.103   6.983  74.248  1.00  0.00    -0.074 C  
BRANCH   7   8
HETATM    8  C   UNL     1      -5.284   8.092  73.594  1.00  0.00    -0.046 C  
HETATM    9  C   UNL     1      -5.559   9.434  74.267  1.00  0.00    -0.066 C  
ENDBRANCH   7   8
ENDBRANCH   6   7
ENDBRANCH   5   6
BRANCH   5  10
HETATM   10  C   UNL     1      -9.495   7.086  72.418  1.00  0.00    -0.142 C  
BRANCH  10  11
HETATM   11  C   UNL     1     -10.307   5.839  72.074  1.00  0.00    -0.254 C  
BRANCH  11  12
HETATM   12  C   UNL     1     -11.552   6.119  71.222  1.00  0.00    -0.205 C  
HETATM   13  H   UNL     1     -13.393   6.739  71.521  1.00  0.00     0.000 HD 
HETATM   14  O   UNL     1     -12.622   6.567  72.049  1.00  0.00    -0.319 OA 
BRANCH  12  15
HETATM   15  C   UNL     1     -11.305   7.148  70.117  1.00  0.00    -0.277 A  
HETATM   16  C   UNL     1     -10.581   6.831  68.943  1.00  0.00    -0.257 A  
HETATM   17  C   UNL     1     -10.208   5.502  68.638  1.00  0.00    -0.261 A  
HETATM   18  C   UNL     1      -9.442   5.181  67.519  1.00  0.00    -0.146 A  
HETATM   19  C   UNL     1      -9.025   6.186  66.656  1.00  0.00    -0.133 A  
HETATM   20  C   UNL     1      -8.164   5.885  65.456  1.00  0.00    -0.137 C  
HETATM   21  C   UNL     1      -9.422   7.507  66.924  1.00  0.00    -0.219 A  
HETATM   22  F   UNL     1      -6.969   6.536  65.502  1.00  0.00    -0.048 F  
HETATM   23  C   UNL     1     -10.210   7.876  68.048  1.00  0.00    -0.256 A  
HETATM   24  F   UNL     1      -8.749   6.263  64.286  1.00  0.00     0.009 F  
HETATM   25  F   UNL     1      -7.863   4.564  65.315  1.00  0.00    -0.085 F  
HETATM   26  C   UNL     1     -10.618   9.238  68.307  1.00  0.00    -0.237 A  
HETATM   27  C   UNL     1     -10.271  10.340  67.482  1.00  0.00    -0.254 A  
HETATM   28  C   UNL     1     -10.670  11.648  67.768  1.00  0.00    -0.204 A  
HETATM   29  C   UNL     1     -11.439  11.920  68.880  1.00  0.00    -0.358 A  
HETATM   30 CL   UNL     1     -10.193  12.936  66.730  1.00  0.00    -0.238 Cl 
HETATM   31  C   UNL     1     -11.810  10.869  69.712  1.00  0.00    -0.345 A  
HETATM   32  C   UNL     1     -11.408   9.530  69.443  1.00  0.00     0.018 A  
HETATM   33 CL   UNL     1     -12.758  11.297  71.107  1.00  0.00    -0.499 Cl 
HETATM   34  C   UNL     1     -11.750   8.471  70.296  1.00  0.00     0.092 A  
ENDBRANCH  12  15
ENDBRANCH  11  12
ENDBRANCH  10  11
ENDBRANCH   5  10
ENDBRANCH   4   5
ENDBRANCH   3   4
ENDBRANCH   2   3
TORSDOF 10
ENDMDL
MODEL      163
REMARK 921   NORMALIZED FREE ENERGY PREDICTED BY IDOCK:   -2.80 KCAL/MOL
REMARK 922        TOTAL FREE ENERGY PREDICTED BY IDOCK:   -6.93 KCAL/MOL
REMARK 923 INTER-LIGAND FREE ENERGY PREDICTED BY IDOCK:   -6.07 KCAL/MOL
REMARK 924 INTRA-LIGAND FREE ENERGY PREDICTED BY IDOCK:   -0.86 KCAL/MOL
REMARK 927      BINDING AFFINITY PREDICTED BY RF-SCORE:    0.00 PKD
ROOT
HETATM    1  C   UNL     1     -10.419   4.455  65.935  1.00  0.00    -0.179 C  
HETATM    2  C   UNL     1     -11.122   5.752  66.306  1.00  0.00     0.199 C  
ENDROOT
BRANCH   2   3
HETATM    3  C   UNL     1     -10.099   6.865  66.527  1.00  0.00    -0.140 C  
BRANCH   3   4
HETATM    4  C   UNL     1      -9.532   6.909  67.951  1.00  0.00    -0.120 C  
BRANCH   4   5
HETATM    5  N   UNL     1      -8.992   5.658  68.540  1.00  0.00    -0.115 NA 
BRANCH   5   6
HETATM    6  C   UNL     1      -7.615   5.398  68.065  1.00  0.00    -0.081 C  
BRANCH   6   7
HETATM    7  C   UNL     1      -6.819   6.620  67.568  1.00  0.00    -0.076 C  
BRANCH   7   8
HETATM    8  C   UNL     1      -5.342   6.337  67.306  1.00  0.00    -0.005 C  
HETATM    9  C   UNL     1      -5.127   4.867  66.961  1.00  0.00    -0.008 C  
ENDBRANCH   7   8
ENDBRANCH   6   7
ENDBRANCH   5   6
BRANCH   5  10
HETATM   10  C   UNL     1      -9.023   5.735  70.026  1.00  0.00    -0.139 C  
BRANCH  10  11
HETATM   11  C   UNL     1      -7.622   5.680  70.632  1.00  0.00    -0.090 C  
BRANCH  11  12
HETATM   12  C   UNL     1      -7.204   6.964  71.361  1.00  0.00    -0.080 C  
HETATM   13  H   UNL     1      -5.530   7.910  71.766  1.00  0.00     0.000 HD 
HETATM   14  O   UNL     1      -5.789   7.114  71.314  1.00  0.00    -0.035 OA 
BRANCH  12  15
HETATM   15  C   UNL     1      -7.863   8.221  70.788  1.00  0.00    -0.091 A  
HETATM   16  C   UNL     1      -9.185   8.595  71.125  1.00  0.00    -0.269 A  
HETATM   17  C   UNL     1      -9.905   7.938  72.149  1.00  0.00    -0.264 A  
HETATM   18  C   UNL     1     -11.229   8.252  72.450  1.00  0.00    -0.451 A  
HETATM   19  C   UNL     1     -11.881   9.248  71.736  1.00  0.00    -0.454 A  
HETATM   20  C   UNL     1     -13.324   9.593  72.006  1.00  0.00    -0.457 C  
HETATM   21  C   UNL     1     -11.167   9.940  70.743  1.00  0.00    -0.427 A  
HETATM   22  F   UNL     1     -14.112   9.409  70.910  1.00  0.00    -0.340 F  
HETATM   23  C   UNL     1      -9.814   9.656  70.410  1.00  0.00    -0.315 A  
HETATM   24  F   UNL     1     -13.490  10.894  72.370  1.00  0.00    -0.512 F  
HETATM   25  F   UNL     1     -13.888   8.851  72.999  1.00  0.00    -0.425 F  
HETATM   26  C   UNL     1      -9.089  10.380  69.391  1.00  0.00    -0.170 A  
HETATM   27  C   UNL     1      -9.645  11.432  68.616  1.00  0.00    -0.179 A  
HETATM   28  C   UNL     1      -8.921  12.103  67.628  1.00  0.00    -0.178 A  
HETATM   29  C   UNL     1      -7.608  11.767  67.371  1.00  0.00    -0.143 A  
HETATM   30 CL   UNL     1      -9.672  13.354  66.716  1.00  0.00    -0.255 Cl 
HETATM   31  C   UNL     1      -7.019  10.749  68.113  1.00  0.00    -0.072 A  
HETATM   32  C   UNL     1      -7.741  10.047  69.119  1.00  0.00    -0.104 A  
HETATM   33 CL   UNL     1      -5.369  10.369  67.711  1.00  0.00    -0.040 Cl 
HETATM   34  C   UNL     1      -7.163   8.997  69.845  1.00  0.00    -0.058 A  
ENDBRANCH  12  15
ENDBRANCH  11  12
ENDBRANCH  10  11
ENDBRANCH   5  10
ENDBRANCH   4   5
ENDBRANCH   3   4
ENDBRANCH   2   3
TORSDOF 10
ENDMDL
MODEL      164
REMARK 921   NORMALIZED FREE ENERGY PREDICTED BY IDOCK:   -2.79 KCAL/MOL
REMARK 922        TOTAL FREE ENERGY PREDICTED BY IDOCK:   -6.92 KCAL/MOL
REMARK 923 INTER-LIGAND FREE ENERGY PREDICTED BY IDOCK:   -5.93 KCAL/MOL
REMARK 924 INTRA-LIGAND FREE ENERGY PREDICTED BY IDOCK:   -0.99 KCAL/MOL
REMARK 927      BINDING AFFINITY PREDICTED BY RF-SCORE:    0.00 PKD
ROOT
HETATM    1  C   UNL     1     -11.386  11.960  63.466  1.00  0.00    -0.516 C  
HETATM    2  C   UNL     1      -9.944  11.531  63.237  1.00  0.00    -0.435 C  
ENDROOT
BRANCH   2   3
HETATM    3  C   UNL     1      -9.635  10.264  64.031  1.00  0.00    -0.365 C  
BRANCH   3   4
HETATM    4  C   UNL     1      -8.634  10.478  65.173  1.00  0.00    -0.180 C  
BRANCH   4   5
HETATM    5  N   UNL     1      -9.137  10.989  66.473  1.00  0.00    -0.168 NA 
BRANCH   5   6
HETATM    6  C   UNL     1     -10.405  10.326  66.850  1.00  0.00    -0.239 C  
BRANCH   6   7
HETATM    7  C   UNL     1     -11.512  11.236  67.415  1.00  0.00    -0.300 C  
BRANCH   7   8
HETATM    8  C   UNL     1     -12.118  10.740  68.726  1.00  0.00    -0.042 C  
HETATM    9  C   UNL     1     -11.633  11.587  69.899  1.00  0.00    -0.387 C  
ENDBRANCH   7   8
ENDBRANCH   6   7
ENDBRANCH   5   6
BRANCH   5  10
HETATM   10  C   UNL     1      -8.112  10.793  67.534  1.00  0.00    -0.111 C  
BRANCH  10  11
HETATM   11  C   UNL     1      -8.682  10.077  68.756  1.00  0.00    -0.136 C  
BRANCH  11  12
HETATM   12  C   UNL     1      -7.650   9.252  69.537  1.00  0.00    -0.081 C  
HETATM   13  H   UNL     1      -6.646   9.420  71.217  1.00  0.00     0.000 HD 
HETATM   14  O   UNL     1      -7.286   9.931  70.734  1.00  0.00    -0.305 OA 
BRANCH  12  15
HETATM   15  C   UNL     1      -8.144   7.846  69.885  1.00  0.00    -0.118 A  
HETATM   16  C   UNL     1      -8.488   6.902  68.888  1.00  0.00    -0.125 A  
HETATM   17  C   UNL     1      -8.218   7.137  67.519  1.00  0.00    -0.117 A  
HETATM   18  C   UNL     1      -8.606   6.246  66.520  1.00  0.00    -0.128 A  
HETATM   19  C   UNL     1      -9.277   5.079  66.858  1.00  0.00    -0.120 A  
HETATM   20  C   UNL     1      -9.747   4.108  65.804  1.00  0.00    -0.204 C  
HETATM   21  C   UNL     1      -9.516   4.812  68.217  1.00  0.00    -0.191 A  
HETATM   22  F   UNL     1     -11.098   3.937  65.826  1.00  0.00     0.316 F  
HETATM   23  C   UNL     1      -9.130   5.688  69.267  1.00  0.00    -0.128 A  
HETATM   24  F   UNL     1      -9.211   2.867  65.963  1.00  0.00    -0.142 F  
HETATM   25  F   UNL     1      -9.440   4.490  64.533  1.00  0.00    -0.156 F  
HETATM   26  C   UNL     1      -9.375   5.398  70.661  1.00  0.00    -0.204 A  
HETATM   27  C   UNL     1     -10.029   4.225  71.125  1.00  0.00    -0.226 A  
HETATM   28  C   UNL     1     -10.264   3.980  72.479  1.00  0.00    -0.166 A  
HETATM   29  C   UNL     1      -9.851   4.883  73.438  1.00  0.00    -0.166 A  
HETATM   30 CL   UNL     1     -11.082   2.545  72.962  1.00  0.00    -0.175 Cl 
HETATM   31  C   UNL     1      -9.198   6.041  73.030  1.00  0.00    -0.133 A  
HETATM   32  C   UNL     1      -8.955   6.314  71.654  1.00  0.00    -0.144 A  
HETATM   33 CL   UNL     1      -8.733   7.140  74.296  1.00  0.00    -0.224 Cl 
HETATM   34  C   UNL     1      -8.328   7.495  71.235  1.00  0.00    -0.111 A  
ENDBRANCH  12  15
ENDBRANCH  11  12
ENDBRANCH  10  11
ENDBRANCH   5  10
ENDBRANCH   4   5
ENDBRANCH   3   4
ENDBRANCH   2   3
TORSDOF 10
ENDMDL
MODEL      165
REMARK 921   NORMALIZED FREE ENERGY PREDICTED BY IDOCK:   -2.73 KCAL/MOL
REMARK 922        TOTAL FREE ENERGY PREDICTED BY IDOCK:   -6.82 KCAL/MOL
REMARK 923 INTER-LIGAND FREE ENERGY PREDICTED BY IDOCK:   -5.39 KCAL/MOL
REMARK 924 INTRA-LIGAND FREE ENERGY PREDICTED BY IDOCK:   -1.43 KCAL/MOL
REMARK 927      BINDING AFFINITY PREDICTED BY RF-SCORE:    0.00 PKD
ROOT
HETATM    1  C   UNL     1     -12.109  10.654  68.612  1.00  0.00     0.129 C  
HETATM    2  C   UNL     1     -11.650  11.279  69.921  1.00  0.00    -0.413 C  
ENDROOT
BRANCH   2   3
HETATM    3  C   UNL     1     -10.672  12.421  69.648  1.00  0.00     0.384 C  
BRANCH   3   4
HETATM    4  C   UNL     1     -11.201  13.800  70.057  1.00  0.00     0.077 C  
BRANCH   4   5
HETATM    5  N   UNL     1     -12.566  14.194  69.626  1.00  0.00    -0.168 NA 
BRANCH   5   6
HETATM    6  C   UNL     1     -13.148  15.193  70.549  1.00  0.00    -0.277 C  
BRANCH   6   7
HETATM    7  C   UNL     1     -14.277  14.697  71.472  1.00  0.00    -0.540 C  
BRANCH   7   8
HETATM    8  C   UNL     1     -13.788  14.118  72.798  1.00  0.00    -0.356 C  
HETATM    9  C   UNL     1     -12.539  14.851  73.279  1.00  0.00    -0.586 C  
ENDBRANCH   7   8
ENDBRANCH   6   7
ENDBRANCH   5   6
BRANCH   5  10
HETATM   10  C   UNL     1     -12.532  14.728  68.237  1.00  0.00     0.310 C  
BRANCH  10  11
HETATM   11  C   UNL     1     -12.876  13.657  67.204  1.00  0.00     0.894 C  
BRANCH  11  12
HETATM   12  C   UNL     1     -11.996  13.695  65.947  1.00  0.00    -0.405 C  
HETATM   13  H   UNL     1     -12.078  14.497  64.154  1.00  0.00     0.000 HD 
HETATM   14  O   UNL     1     -12.623  14.474  64.933  1.00  0.00    -0.526 OA 
BRANCH  12  15
HETATM   15  C   UNL     1     -10.594  14.249  66.212  1.00  0.00    -0.291 A  
HETATM   16  C   UNL     1      -9.523  13.419  66.620  1.00  0.00    -0.264 A  
HETATM   17  C   UNL     1      -9.637  12.009  66.625  1.00  0.00    -0.225 A  
HETATM   18  C   UNL     1      -8.614  11.180  67.083  1.00  0.00    -0.139 A  
HETATM   19  C   UNL     1      -7.431  11.737  67.549  1.00  0.00    -0.131 A  
HETATM   20  C   UNL     1      -6.316  10.877  68.087  1.00  0.00    -0.057 C  
HETATM   21  C   UNL     1      -7.286  13.135  67.512  1.00  0.00    -0.153 A  
HETATM   22  F   UNL     1      -6.022  11.166  69.385  1.00  0.00    -0.044 F  
HETATM   23  C   UNL     1      -8.300  14.014  67.045  1.00  0.00    -0.127 A  
HETATM   24  F   UNL     1      -5.153  11.039  67.397  1.00  0.00    -0.036 F  
HETATM   25  F   UNL     1      -6.588   9.543  68.055  1.00  0.00    -0.059 F  
HETATM   26  C   UNL     1      -8.136  15.450  67.006  1.00  0.00    -0.265 A  
HETATM   27  C   UNL     1      -6.963  16.126  67.433  1.00  0.00    -0.215 A  
HETATM   28  C   UNL     1      -6.840  17.517  67.395  1.00  0.00    -0.164 A  
HETATM   29  C   UNL     1      -7.873  18.300  66.922  1.00  0.00    -0.247 A  
HETATM   30 CL   UNL     1      -5.393  18.265  67.950  1.00  0.00    -0.156 Cl 
HETATM   31  C   UNL     1      -9.038  17.679  66.484  1.00  0.00    -0.265 A  
HETATM   32  C   UNL     1      -9.186  16.264  66.521  1.00  0.00    -0.299 A  
HETATM   33 CL   UNL     1     -10.302  18.736  65.926  1.00  0.00    -0.443 Cl 
HETATM   34  C   UNL     1     -10.371  15.635  66.114  1.00  0.00    -0.329 A  
ENDBRANCH  12  15
ENDBRANCH  11  12
ENDBRANCH  10  11
ENDBRANCH   5  10
ENDBRANCH   4   5
ENDBRANCH   3   4
ENDBRANCH   2   3
TORSDOF 10
ENDMDL
MODEL      166
REMARK 921   NORMALIZED FREE ENERGY PREDICTED BY IDOCK:   -2.73 KCAL/MOL
REMARK 922        TOTAL FREE ENERGY PREDICTED BY IDOCK:   -6.82 KCAL/MOL
REMARK 923 INTER-LIGAND FREE ENERGY PREDICTED BY IDOCK:   -6.43 KCAL/MOL
REMARK 924 INTRA-LIGAND FREE ENERGY PREDICTED BY IDOCK:   -0.39 KCAL/MOL
REMARK 927      BINDING AFFINITY PREDICTED BY RF-SCORE:    0.00 PKD
ROOT
HETATM    1  C   UNL     1     -11.743  15.355  70.818  1.00  0.00    -0.385 C  
HETATM    2  C   UNL     1     -11.344  15.666  69.383  1.00  0.00    -0.332 C  
ENDROOT
BRANCH   2   3
HETATM    3  C   UNL     1     -11.443  14.408  68.521  1.00  0.00    -0.326 C  
BRANCH   3   4
HETATM    4  C   UNL     1     -10.853  14.573  67.115  1.00  0.00    -0.296 C  
BRANCH   4   5
HETATM    5  N   UNL     1      -9.392  14.382  66.931  1.00  0.00    -0.245 NA 
BRANCH   5   6
HETATM    6  C   UNL     1      -8.646  14.792  68.140  1.00  0.00    -0.159 C  
BRANCH   6   7
HETATM    7  C   UNL     1      -7.209  15.303  67.918  1.00  0.00    -0.158 C  
BRANCH   7   8
HETATM    8  C   UNL     1      -6.160  14.197  67.835  1.00  0.00    -0.154 C  
HETATM    9  C   UNL     1      -6.339  13.197  68.974  1.00  0.00    -0.099 C  
ENDBRANCH   7   8
ENDBRANCH   6   7
ENDBRANCH   5   6
BRANCH   5  10
HETATM   10  C   UNL     1      -9.098  12.963  66.594  1.00  0.00    -0.177 C  
BRANCH  10  11
HETATM   11  C   UNL     1      -9.675  11.998  67.628  1.00  0.00    -0.187 C  
BRANCH  11  12
HETATM   12  C   UNL     1     -10.641  10.959  67.044  1.00  0.00    -0.257 C  
HETATM   13  H   UNL     1     -11.601  10.674  65.353  1.00  0.00     0.000 HD 
HETATM   14  O   UNL     1     -11.002  11.318  65.714  1.00  0.00    -0.240 OA 
BRANCH  12  15
HETATM   15  C   UNL     1     -10.069   9.540  67.045  1.00  0.00    -0.297 A  
HETATM   16  C   UNL     1     -10.143   8.700  68.183  1.00  0.00    -0.236 A  
HETATM   17  C   UNL     1     -10.910   9.053  69.317  1.00  0.00    -0.131 A  
HETATM   18  C   UNL     1     -10.943   8.269  70.468  1.00  0.00    -0.253 A  
HETATM   19  C   UNL     1     -10.208   7.092  70.523  1.00  0.00    -0.209 A  
HETATM   20  C   UNL     1     -10.187   6.235  71.763  1.00  0.00    -0.196 C  
HETATM   21  C   UNL     1      -9.473   6.707  69.389  1.00  0.00    -0.146 A  
HETATM   22  F   UNL     1      -8.932   6.096  72.273  1.00  0.00    -0.137 F  
HETATM   23  C   UNL     1      -9.419   7.473  68.193  1.00  0.00    -0.147 A  
HETATM   24  F   UNL     1     -10.637   4.971  71.531  1.00  0.00    -0.275 F  
HETATM   25  F   UNL     1     -10.951   6.724  72.779  1.00  0.00    -0.233 F  
HETATM   26  C   UNL     1      -8.664   7.061  67.031  1.00  0.00    -0.123 A  
HETATM   27  C   UNL     1      -7.898   5.868  66.964  1.00  0.00    -0.102 A  
HETATM   28  C   UNL     1      -7.167   5.505  65.831  1.00  0.00    -0.072 A  
HETATM   29  C   UNL     1      -7.173   6.305  64.706  1.00  0.00    -0.064 A  
HETATM   30 CL   UNL     1      -6.245   4.052  65.834  1.00  0.00    -0.031 Cl 
HETATM   31  C   UNL     1      -7.918   7.480  64.724  1.00  0.00    -0.132 A  
HETATM   32  C   UNL     1      -8.663   7.871  65.871  1.00  0.00    -0.180 A  
HETATM   33 CL   UNL     1      -7.853   8.445  63.278  1.00  0.00    -0.144 Cl 
HETATM   34  C   UNL     1      -9.388   9.070  65.906  1.00  0.00    -0.306 A  
ENDBRANCH  12  15
ENDBRANCH  11  12
ENDBRANCH  10  11
ENDBRANCH   5  10
ENDBRANCH   4   5
ENDBRANCH   3   4
ENDBRANCH   2   3
TORSDOF 10
ENDMDL
MODEL      167
REMARK 921   NORMALIZED FREE ENERGY PREDICTED BY IDOCK:   -2.71 KCAL/MOL
REMARK 922        TOTAL FREE ENERGY PREDICTED BY IDOCK:   -6.79 KCAL/MOL
REMARK 923 INTER-LIGAND FREE ENERGY PREDICTED BY IDOCK:   -5.33 KCAL/MOL
REMARK 924 INTRA-LIGAND FREE ENERGY PREDICTED BY IDOCK:   -1.45 KCAL/MOL
REMARK 927      BINDING AFFINITY PREDICTED BY RF-SCORE:    0.00 PKD
ROOT
HETATM    1  C   UNL     1     -12.167  13.699  64.237  1.00  0.00    -0.445 C  
HETATM    2  C   UNL     1     -11.566  12.532  63.468  1.00  0.00    -0.584 C  
ENDROOT
BRANCH   2   3
HETATM    3  C   UNL     1     -10.146  12.250  63.956  1.00  0.00    -0.351 C  
BRANCH   3   4
HETATM    4  C   UNL     1     -10.083  11.672  65.375  1.00  0.00    -0.259 C  
BRANCH   4   5
HETATM    5  N   UNL     1      -9.611  12.546  66.478  1.00  0.00    -0.238 NA 
BRANCH   5   6
HETATM    6  C   UNL     1     -10.735  12.958  67.348  1.00  0.00    -0.237 C  
BRANCH   6   7
HETATM    7  C   UNL     1     -10.881  12.201  68.682  1.00  0.00    -0.268 C  
BRANCH   7   8
HETATM    8  C   UNL     1     -11.536  10.828  68.551  1.00  0.00    -0.362 C  
HETATM    9  C   UNL     1     -10.774   9.787  69.366  1.00  0.00    -0.250 C  
ENDBRANCH   7   8
ENDBRANCH   6   7
ENDBRANCH   5   6
BRANCH   5  10
HETATM   10  C   UNL     1      -8.565  11.848  67.275  1.00  0.00    -0.170 C  
BRANCH  10  11
HETATM   11  C   UNL     1      -7.193  11.925  66.610  1.00  0.00     0.074 C  
BRANCH  11  12
HETATM   12  C   UNL     1      -6.621  10.563  66.195  1.00  0.00    -0.123 C  
HETATM   13  H   UNL     1      -4.863   9.820  65.726  1.00  0.00     0.000 HD 
HETATM   14  O   UNL     1      -5.217  10.664  65.984  1.00  0.00    -0.062 OA 
BRANCH  12  15
HETATM   15  C   UNL     1      -6.899   9.458  67.217  1.00  0.00    -0.084 A  
HETATM   16  C   UNL     1      -7.589   8.272  66.873  1.00  0.00    -0.092 A  
HETATM   17  C   UNL     1      -7.896   7.955  65.530  1.00  0.00    -0.112 A  
HETATM   18  C   UNL     1      -8.630   6.823  65.179  1.00  0.00     0.038 A  
HETATM   19  C   UNL     1      -9.079   5.958  66.169  1.00  0.00    -0.160 A  
HETATM   20  C   UNL     1      -9.906   4.743  65.835  1.00  0.00    -0.211 C  
HETATM   21  C   UNL     1      -8.746   6.237  67.505  1.00  0.00    -0.105 A  
HETATM   22  F   UNL     1     -11.131   4.773  66.430  1.00  0.00    -0.223 F  
HETATM   23  C   UNL     1      -7.994   7.375  67.904  1.00  0.00    -0.119 A  
HETATM   24  F   UNL     1      -9.321   3.585  66.245  1.00  0.00    -0.150 F  
HETATM   25  F   UNL     1     -10.144   4.592  64.502  1.00  0.00    -0.154 F  
HETATM   26  C   UNL     1      -7.653   7.647  69.282  1.00  0.00    -0.096 A  
HETATM   27  C   UNL     1      -8.036   6.821  70.372  1.00  0.00    -0.116 A  
HETATM   28  C   UNL     1      -7.703   7.118  71.695  1.00  0.00    -0.088 A  
HETATM   29  C   UNL     1      -6.964   8.244  71.996  1.00  0.00    -0.094 A  
HETATM   30 CL   UNL     1      -8.222   6.079  72.965  1.00  0.00    -0.116 Cl 
HETATM   31  C   UNL     1      -6.559   9.077  70.959  1.00  0.00    -0.080 A  
HETATM   32  C   UNL     1      -6.894   8.796  69.604  1.00  0.00    -0.046 A  
HETATM   33 CL   UNL     1      -5.653  10.488  71.423  1.00  0.00     0.001 Cl 
HETATM   34  C   UNL     1      -6.518   9.650  68.559  1.00  0.00    -0.051 A  
ENDBRANCH  12  15
ENDBRANCH  11  12
ENDBRANCH  10  11
ENDBRANCH   5  10
ENDBRANCH   4   5
ENDBRANCH   3   4
ENDBRANCH   2   3
TORSDOF 10
ENDMDL
MODEL      168
REMARK 921   NORMALIZED FREE ENERGY PREDICTED BY IDOCK:   -2.69 KCAL/MOL
REMARK 922        TOTAL FREE ENERGY PREDICTED BY IDOCK:   -6.76 KCAL/MOL
REMARK 923 INTER-LIGAND FREE ENERGY PREDICTED BY IDOCK:   -5.84 KCAL/MOL
REMARK 924 INTRA-LIGAND FREE ENERGY PREDICTED BY IDOCK:   -0.91 KCAL/MOL
REMARK 927      BINDING AFFINITY PREDICTED BY RF-SCORE:    0.00 PKD
ROOT
HETATM    1  C   UNL     1      -9.913   3.689  72.205  1.00  0.00    -0.238 C  
HETATM    2  C   UNL     1      -9.436   2.924  70.980  1.00  0.00    -0.227 C  
ENDROOT
BRANCH   2   3
HETATM    3  C   UNL     1      -8.156   3.550  70.429  1.00  0.00    -0.063 C  
BRANCH   3   4
HETATM    4  C   UNL     1      -8.356   4.951  69.839  1.00  0.00    -0.079 C  
BRANCH   4   5
HETATM    5  N   UNL     1      -8.347   5.109  68.363  1.00  0.00    -0.089 NA 
BRANCH   5   6
HETATM    6  C   UNL     1      -9.556   4.509  67.757  1.00  0.00    -0.160 C  
BRANCH   6   7
HETATM    7  C   UNL     1      -9.372   3.141  67.073  1.00  0.00    -0.180 C  
BRANCH   7   8
HETATM    8  C   UNL     1      -8.978   3.229  65.601  1.00  0.00    -0.144 C  
HETATM    9  C   UNL     1      -9.356   4.588  65.020  1.00  0.00    -0.157 C  
ENDBRANCH   7   8
ENDBRANCH   6   7
ENDBRANCH   5   6
BRANCH   5  10
HETATM   10  C   UNL     1      -8.244   6.549  68.002  1.00  0.00    -0.116 C  
BRANCH  10  11
HETATM   11  C   UNL     1      -8.666   7.460  69.153  1.00  0.00    -0.136 C  
BRANCH  11  12
HETATM   12  C   UNL     1      -9.727   8.501  68.771  1.00  0.00    -0.164 C  
HETATM   13  H   UNL     1     -11.508   9.040  69.404  1.00  0.00     0.000 HD 
HETATM   14  O   UNL     1     -10.850   8.396  69.641  1.00  0.00    -0.224 OA 
BRANCH  12  15
HETATM   15  C   UNL     1      -9.199   9.937  68.802  1.00  0.00    -0.147 A  
HETATM   16  C   UNL     1      -9.799  10.975  68.051  1.00  0.00    -0.183 A  
HETATM   17  C   UNL     1     -11.029  10.788  67.379  1.00  0.00    -0.361 A  
HETATM   18  C   UNL     1     -11.603  11.779  66.584  1.00  0.00    -0.273 A  
HETATM   19  C   UNL     1     -10.964  13.003  66.439  1.00  0.00    -0.301 A  
HETATM   20  C   UNL     1     -11.531  14.088  65.559  1.00  0.00    -0.318 C  
HETATM   21  C   UNL     1      -9.761  13.219  67.134  1.00  0.00    -0.236 A  
HETATM   22  F   UNL     1     -10.681  14.434  64.553  1.00  0.00    -0.400 F  
HETATM   23  C   UNL     1      -9.147  12.238  67.960  1.00  0.00    -0.191 A  
HETATM   24  F   UNL     1     -11.785  15.236  66.245  1.00  0.00    -0.250 F  
HETATM   25  F   UNL     1     -12.703  13.745  64.955  1.00  0.00    -0.420 F  
HETATM   26  C   UNL     1      -7.914  12.476  68.675  1.00  0.00    -0.029 A  
HETATM   27  C   UNL     1      -7.187  13.695  68.621  1.00  0.00    -0.110 A  
HETATM   28  C   UNL     1      -5.990  13.888  69.313  1.00  0.00    -0.090 A  
HETATM   29  C   UNL     1      -5.464  12.884  70.100  1.00  0.00    -0.124 A  
HETATM   30 CL   UNL     1      -5.156  15.388  69.181  1.00  0.00    -0.095 Cl 
HETATM   31  C   UNL     1      -6.147  11.676  70.189  1.00  0.00    -0.155 A  
HETATM   32  C   UNL     1      -7.365  11.455  69.486  1.00  0.00     0.077 A  
HETATM   33 CL   UNL     1      -5.406  10.452  71.179  1.00  0.00    -0.088 Cl 
HETATM   34  C   UNL     1      -8.040  10.228  69.545  1.00  0.00    -0.170 A  
ENDBRANCH  12  15
ENDBRANCH  11  12
ENDBRANCH  10  11
ENDBRANCH   5  10
ENDBRANCH   4   5
ENDBRANCH   3   4
ENDBRANCH   2   3
TORSDOF 10
ENDMDL
MODEL      169
REMARK 921   NORMALIZED FREE ENERGY PREDICTED BY IDOCK:   -2.68 KCAL/MOL
REMARK 922        TOTAL FREE ENERGY PREDICTED BY IDOCK:   -6.73 KCAL/MOL
REMARK 923 INTER-LIGAND FREE ENERGY PREDICTED BY IDOCK:   -6.23 KCAL/MOL
REMARK 924 INTRA-LIGAND FREE ENERGY PREDICTED BY IDOCK:   -0.51 KCAL/MOL
REMARK 927      BINDING AFFINITY PREDICTED BY RF-SCORE:    0.00 PKD
ROOT
HETATM    1  C   UNL     1      -5.710  11.250  70.396  1.00  0.00    -0.146 C  
HETATM    2  C   UNL     1      -6.761  10.149  70.406  1.00  0.00    -0.134 C  
ENDROOT
BRANCH   2   3
HETATM    3  C   UNL     1      -6.650   9.322  71.686  1.00  0.00     0.056 C  
BRANCH   3   4
HETATM    4  C   UNL     1      -6.965   7.835  71.490  1.00  0.00    -0.058 C  
BRANCH   4   5
HETATM    5  N   UNL     1      -8.046   7.224  72.304  1.00  0.00    -0.100 NA 
BRANCH   5   6
HETATM    6  C   UNL     1      -7.500   6.594  73.526  1.00  0.00    -0.083 C  
BRANCH   6   7
HETATM    7  C   UNL     1      -6.455   5.481  73.314  1.00  0.00    -0.067 C  
BRANCH   7   8
HETATM    8  C   UNL     1      -7.007   4.227  72.642  1.00  0.00    -0.057 C  
HETATM    9  C   UNL     1      -6.834   3.010  73.546  1.00  0.00    -0.035 C  
ENDBRANCH   7   8
ENDBRANCH   6   7
ENDBRANCH   5   6
BRANCH   5  10
HETATM   10  C   UNL     1      -9.064   8.250  72.659  1.00  0.00    -0.257 C  
BRANCH  10  11
HETATM   11  C   UNL     1     -10.488   7.745  72.438  1.00  0.00    -0.321 C  
BRANCH  11  12
HETATM   12  C   UNL     1     -11.182   8.347  71.209  1.00  0.00    -0.259 C  
HETATM   13  H   UNL     1     -11.550  10.141  70.497  1.00  0.00     0.000 HD 
HETATM   14  O   UNL     1     -11.120   9.769  71.259  1.00  0.00    -0.355 OA 
BRANCH  12  15
HETATM   15  C   UNL     1     -10.584   7.863  69.885  1.00  0.00    -0.242 A  
HETATM   16  C   UNL     1     -10.438   8.720  68.769  1.00  0.00    -0.214 A  
HETATM   17  C   UNL     1     -10.660  10.113  68.869  1.00  0.00    -0.237 A  
HETATM   18  C   UNL     1     -10.582  10.962  67.766  1.00  0.00    -0.255 A  
HETATM   19  C   UNL     1     -10.269  10.443  66.517  1.00  0.00    -0.289 A  
HETATM   20  C   UNL     1     -10.211  11.321  65.293  1.00  0.00    -0.274 C  
HETATM   21  C   UNL     1     -10.005   9.066  66.409  1.00  0.00    -0.370 A  
HETATM   22  F   UNL     1     -11.104  10.935  64.339  1.00  0.00    -0.371 F  
HETATM   23  C   UNL     1     -10.066   8.169  67.509  1.00  0.00    -0.286 A  
HETATM   24  F   UNL     1      -8.990  11.297  64.692  1.00  0.00    -0.170 F  
HETATM   25  F   UNL     1     -10.480  12.632  65.546  1.00  0.00    -0.270 F  
HETATM   26  C   UNL     1      -9.785   6.756  67.385  1.00  0.00    -0.164 A  
HETATM   27  C   UNL     1      -9.433   6.121  66.165  1.00  0.00    -0.100 A  
HETATM   28  C   UNL     1      -9.181   4.750  66.076  1.00  0.00    -0.148 A  
HETATM   29  C   UNL     1      -9.257   3.949  67.196  1.00  0.00    -0.197 A  
HETATM   30 CL   UNL     1      -8.779   4.050  64.556  1.00  0.00    -0.119 Cl 
HETATM   31  C   UNL     1      -9.591   4.530  68.415  1.00  0.00    -0.145 A  
HETATM   32  C   UNL     1      -9.858   5.924  68.526  1.00  0.00    -0.166 A  
HETATM   33 CL   UNL     1      -9.691   3.448  69.773  1.00  0.00    -0.171 Cl 
HETATM   34  C   UNL     1     -10.228   6.509  69.745  1.00  0.00    -0.221 A  
ENDBRANCH  12  15
ENDBRANCH  11  12
ENDBRANCH  10  11
ENDBRANCH   5  10
ENDBRANCH   4   5
ENDBRANCH   3   4
ENDBRANCH   2   3
TORSDOF 10
ENDMDL
MODEL      170
REMARK 921   NORMALIZED FREE ENERGY PREDICTED BY IDOCK:   -2.59 KCAL/MOL
REMARK 922        TOTAL FREE ENERGY PREDICTED BY IDOCK:   -6.60 KCAL/MOL
REMARK 923 INTER-LIGAND FREE ENERGY PREDICTED BY IDOCK:   -5.30 KCAL/MOL
REMARK 924 INTRA-LIGAND FREE ENERGY PREDICTED BY IDOCK:   -1.30 KCAL/MOL
REMARK 927      BINDING AFFINITY PREDICTED BY RF-SCORE:    0.00 PKD
ROOT
HETATM    1  C   UNL     1     -10.985  10.593  69.833  1.00  0.00    -0.337 C  
HETATM    2  C   UNL     1     -11.596  11.862  69.260  1.00  0.00    -0.376 C  
ENDROOT
BRANCH   2   3
HETATM    3  C   UNL     1     -11.778  11.728  67.749  1.00  0.00    -0.337 C  
BRANCH   3   4
HETATM    4  C   UNL     1     -10.464  11.775  66.961  1.00  0.00    -0.220 C  
BRANCH   4   5
HETATM    5  N   UNL     1     -10.480  12.338  65.587  1.00  0.00    -0.254 NA 
BRANCH   5   6
HETATM    6  C   UNL     1     -10.131  13.775  65.598  1.00  0.00    -0.298 C  
BRANCH   6   7
HETATM    7  C   UNL     1     -10.026  14.445  66.981  1.00  0.00    -0.257 C  
BRANCH   7   8
HETATM    8  C   UNL     1      -8.620  14.920  67.339  1.00  0.00    -0.208 C  
HETATM    9  C   UNL     1      -8.657  16.339  67.900  1.00  0.00    -0.173 C  
ENDBRANCH   7   8
ENDBRANCH   6   7
ENDBRANCH   5   6
BRANCH   5  10
HETATM   10  C   UNL     1      -9.543  11.582  64.712  1.00  0.00    -0.174 C  
BRANCH  10  11
HETATM   11  C   UNL     1      -9.707  10.072  64.867  1.00  0.00    -0.377 C  
BRANCH  11  12
HETATM   12  C   UNL     1      -8.408   9.278  64.674  1.00  0.00    -0.161 C  
HETATM   13  H   UNL     1      -6.514   9.675  64.331  1.00  0.00     0.000 HD 
HETATM   14  O   UNL     1      -7.319  10.167  64.451  1.00  0.00    -0.138 OA 
BRANCH  12  15
HETATM   15  C   UNL     1      -8.080   8.366  65.859  1.00  0.00    -0.110 A  
HETATM   16  C   UNL     1      -8.086   6.956  65.746  1.00  0.00    -0.123 A  
HETATM   17  C   UNL     1      -8.211   6.312  64.493  1.00  0.00    -0.062 A  
HETATM   18  C   UNL     1      -8.282   4.925  64.371  1.00  0.00    -0.124 A  
HETATM   19  C   UNL     1      -8.223   4.129  65.506  1.00  0.00    -0.105 A  
HETATM   20  C   UNL     1      -8.334   2.628  65.420  1.00  0.00    -0.096 C  
HETATM   21  C   UNL     1      -8.057   4.752  66.755  1.00  0.00    -0.107 A  
HETATM   22  F   UNL     1      -9.400   2.148  66.120  1.00  0.00    -0.115 F  
HETATM   23  C   UNL     1      -7.972   6.160  66.923  1.00  0.00    -0.105 A  
HETATM   24  F   UNL     1      -7.241   1.994  65.927  1.00  0.00    -0.051 F  
HETATM   25  F   UNL     1      -8.482   2.161  64.149  1.00  0.00    -0.079 F  
HETATM   26  C   UNL     1      -7.794   6.788  68.213  1.00  0.00    -0.110 A  
HETATM   27  C   UNL     1      -7.697   6.073  69.436  1.00  0.00    -0.098 A  
HETATM   28  C   UNL     1      -7.539   6.710  70.669  1.00  0.00    -0.095 A  
HETATM   29  C   UNL     1      -7.460   8.086  70.743  1.00  0.00    -0.072 A  
HETATM   30 CL   UNL     1      -7.449   5.775  72.111  1.00  0.00    -0.094 Cl 
HETATM   31  C   UNL     1      -7.542   8.825  69.568  1.00  0.00    -0.080 A  
HETATM   32  C   UNL     1      -7.710   8.197  68.302  1.00  0.00    -0.114 A  
HETATM   33 CL   UNL     1      -7.460  10.554  69.749  1.00  0.00    -0.152 Cl 
HETATM   34  C   UNL     1      -7.828   8.939  67.119  1.00  0.00    -0.096 A  
ENDBRANCH  12  15
ENDBRANCH  11  12
ENDBRANCH  10  11
ENDBRANCH   5  10
ENDBRANCH   4   5
ENDBRANCH   3   4
ENDBRANCH   2   3
TORSDOF 10
ENDMDL
MODEL      171
REMARK 921   NORMALIZED FREE ENERGY PREDICTED BY IDOCK:   -2.50 KCAL/MOL
REMARK 922        TOTAL FREE ENERGY PREDICTED BY IDOCK:   -6.45 KCAL/MOL
REMARK 923 INTER-LIGAND FREE ENERGY PREDICTED BY IDOCK:   -5.31 KCAL/MOL
REMARK 924 INTRA-LIGAND FREE ENERGY PREDICTED BY IDOCK:   -1.15 KCAL/MOL
REMARK 927      BINDING AFFINITY PREDICTED BY RF-SCORE:    0.00 PKD
ROOT
HETATM    1  C   UNL     1     -10.557   4.710  65.831  1.00  0.00    -0.265 C  
HETATM    2  C   UNL     1      -9.283   5.287  66.429  1.00  0.00    -0.145 C  
ENDROOT
BRANCH   2   3
HETATM    3  C   UNL     1      -8.081   4.938  65.553  1.00  0.00    -0.113 C  
BRANCH   3   4
HETATM    4  C   UNL     1      -7.014   6.037  65.500  1.00  0.00    -0.060 C  
BRANCH   4   5
HETATM    5  N   UNL     1      -6.931   6.890  64.287  1.00  0.00    -0.049 NA 
BRANCH   5   6
HETATM    6  C   UNL     1      -7.157   6.094  63.061  1.00  0.00    -0.051 C  
BRANCH   6   7
HETATM    7  C   UNL     1      -5.978   5.226  62.581  1.00  0.00    -0.014 C  
BRANCH   7   8
HETATM    8  C   UNL     1      -6.292   3.734  62.506  1.00  0.00    -0.021 C  
HETATM    9  C   UNL     1      -5.493   2.962  63.552  1.00  0.00    -0.009 C  
ENDBRANCH   7   8
ENDBRANCH   6   7
ENDBRANCH   5   6
BRANCH   5  10
HETATM   10  C   UNL     1      -7.917   8.002  64.374  1.00  0.00    -0.145 C  
BRANCH  10  11
HETATM   11  C   UNL     1      -7.936   8.643  65.760  1.00  0.00    -0.106 C  
BRANCH  11  12
HETATM   12  C   UNL     1      -9.070   9.657  65.964  1.00  0.00    -0.171 C  
HETATM   13  H   UNL     1     -10.915   9.637  66.642  1.00  0.00     0.000 HD 
HETATM   14  O   UNL     1     -10.212   9.009  66.516  1.00  0.00    -0.278 OA 
BRANCH  12  15
HETATM   15  C   UNL     1      -8.672  10.829  66.864  1.00  0.00    -0.141 A  
HETATM   16  C   UNL     1      -9.137  12.145  66.633  1.00  0.00    -0.206 A  
HETATM   17  C   UNL     1     -10.140  12.421  65.675  1.00  0.00    -0.277 A  
HETATM   18  C   UNL     1     -10.564  13.718  65.391  1.00  0.00    -0.330 A  
HETATM   19  C   UNL     1     -10.000  14.792  66.066  1.00  0.00    -0.336 A  
HETATM   20  C   UNL     1     -10.404  16.212  65.762  1.00  0.00    -0.378 C  
HETATM   21  C   UNL     1      -9.031  14.531  67.051  1.00  0.00    -0.258 A  
HETATM   22  F   UNL     1      -9.354  16.966  65.333  1.00  0.00    -0.045 F  
HETATM   23  C   UNL     1      -8.577  13.225  67.376  1.00  0.00    -0.204 A  
HETATM   24  F   UNL     1     -10.905  16.856  66.851  1.00  0.00    -0.280 F  
HETATM   25  F   UNL     1     -11.357  16.315  64.794  1.00  0.00    -0.385 F  
HETATM   26  C   UNL     1      -7.585  12.970  68.397  1.00  0.00    -0.133 A  
HETATM   27  C   UNL     1      -6.959  13.987  69.166  1.00  0.00    -0.103 A  
HETATM   28  C   UNL     1      -5.993  13.709  70.135  1.00  0.00    -0.146 A  
HETATM   29  C   UNL     1      -5.611  12.409  70.393  1.00  0.00    -0.162 A  
HETATM   30 CL   UNL     1      -5.264  14.998  71.012  1.00  0.00    -0.135 Cl 
HETATM   31  C   UNL     1      -6.205  11.380  69.670  1.00  0.00    -0.118 A  
HETATM   32  C   UNL     1      -7.187  11.642  68.672  1.00  0.00    -0.104 A  
HETATM   33 CL   UNL     1      -5.652   9.772  70.037  1.00  0.00    -0.039 Cl 
HETATM   34  C   UNL     1      -7.763  10.612  67.917  1.00  0.00    -0.100 A  
ENDBRANCH  12  15
ENDBRANCH  11  12
ENDBRANCH  10  11
ENDBRANCH   5  10
ENDBRANCH   4   5
ENDBRANCH   3   4
ENDBRANCH   2   3
TORSDOF 10
ENDMDL
MODEL      172
REMARK 921   NORMALIZED FREE ENERGY PREDICTED BY IDOCK:   -2.49 KCAL/MOL
REMARK 922        TOTAL FREE ENERGY PREDICTED BY IDOCK:   -6.44 KCAL/MOL
REMARK 923 INTER-LIGAND FREE ENERGY PREDICTED BY IDOCK:   -6.62 KCAL/MOL
REMARK 924 INTRA-LIGAND FREE ENERGY PREDICTED BY IDOCK:    0.18 KCAL/MOL
REMARK 927      BINDING AFFINITY PREDICTED BY RF-SCORE:    0.00 PKD
ROOT
HETATM    1  C   UNL     1     -10.924  13.722  69.044  1.00  0.00    -0.277 C  
HETATM    2  C   UNL     1      -9.786  14.565  68.488  1.00  0.00    -0.231 C  
ENDROOT
BRANCH   2   3
HETATM    3  C   UNL     1      -9.334  14.020  67.134  1.00  0.00    -0.244 C  
BRANCH   3   4
HETATM    4  C   UNL     1     -10.109  12.778  66.677  1.00  0.00    -0.243 C  
BRANCH   4   5
HETATM    5  N   UNL     1      -9.643  11.443  67.129  1.00  0.00    -0.178 NA 
BRANCH   5   6
HETATM    6  C   UNL     1      -9.770  10.442  66.048  1.00  0.00    -0.211 C  
BRANCH   6   7
HETATM    7  C   UNL     1      -8.735  10.527  64.910  1.00  0.00    -0.192 C  
BRANCH   7   8
HETATM    8  C   UNL     1      -8.080   9.192  64.562  1.00  0.00    -0.139 C  
HETATM    9  C   UNL     1      -7.028   9.376  63.473  1.00  0.00    -0.098 C  
ENDBRANCH   7   8
ENDBRANCH   6   7
ENDBRANCH   5   6
BRANCH   5  10
HETATM   10  C   UNL     1      -8.233  11.524  67.599  1.00  0.00    -0.131 C  
BRANCH  10  11
HETATM   11  C   UNL     1      -7.971  10.598  68.785  1.00  0.00    -0.135 C  
BRANCH  11  12
HETATM   12  C   UNL     1      -7.497   9.193  68.389  1.00  0.00    -0.082 C  
HETATM   13  H   UNL     1      -5.834   8.152  68.490  1.00  0.00     0.000 HD 
HETATM   14  O   UNL     1      -6.127   9.022  68.735  1.00  0.00    -0.044 OA 
BRANCH  12  15
HETATM   15  C   UNL     1      -8.323   8.077  69.035  1.00  0.00    -0.129 A  
HETATM   16  C   UNL     1      -9.550   8.335  69.692  1.00  0.00    -0.167 A  
HETATM   17  C   UNL     1     -10.174   9.602  69.628  1.00  0.00    -0.239 A  
HETATM   18  C   UNL     1     -11.349   9.890  70.321  1.00  0.00    -0.357 A  
HETATM   19  C   UNL     1     -11.948   8.910  71.101  1.00  0.00    -0.344 A  
HETATM   20  C   UNL     1     -13.198   9.193  71.895  1.00  0.00    -0.416 C  
HETATM   21  C   UNL     1     -11.361   7.634  71.142  1.00  0.00    -0.286 A  
HETATM   22  F   UNL     1     -13.013   9.009  73.232  1.00  0.00    -0.206 F  
HETATM   23  C   UNL     1     -10.170   7.296  70.445  1.00  0.00    -0.200 A  
HETATM   24  F   UNL     1     -14.232   8.379  71.547  1.00  0.00    -0.410 F  
HETATM   25  F   UNL     1     -13.660  10.467  71.755  1.00  0.00    -0.407 F  
HETATM   26  C   UNL     1      -9.581   5.977  70.490  1.00  0.00    -0.198 A  
HETATM   27  C   UNL     1     -10.119   4.893  71.234  1.00  0.00    -0.269 A  
HETATM   28  C   UNL     1      -9.519   3.633  71.268  1.00  0.00    -0.161 A  
HETATM   29  C   UNL     1      -8.362   3.387  70.557  1.00  0.00    -0.088 A  
HETATM   30 CL   UNL     1     -10.220   2.375  72.210  1.00  0.00    -0.230 Cl 
HETATM   31  C   UNL     1      -7.805   4.417  69.807  1.00  0.00    -0.057 A  
HETATM   32  C   UNL     1      -8.397   5.711  69.764  1.00  0.00    -0.107 A  
HETATM   33 CL   UNL     1      -6.334   4.035  68.960  1.00  0.00    -0.031 Cl 
HETATM   34  C   UNL     1      -7.821   6.762  69.038  1.00  0.00    -0.111 A  
ENDBRANCH  12  15
ENDBRANCH  11  12
ENDBRANCH  10  11
ENDBRANCH   5  10
ENDBRANCH   4   5
ENDBRANCH   3   4
ENDBRANCH   2   3
TORSDOF 10
ENDMDL
MODEL      173
REMARK 921   NORMALIZED FREE ENERGY PREDICTED BY IDOCK:   -2.47 KCAL/MOL
REMARK 922        TOTAL FREE ENERGY PREDICTED BY IDOCK:   -6.41 KCAL/MOL
REMARK 923 INTER-LIGAND FREE ENERGY PREDICTED BY IDOCK:   -4.77 KCAL/MOL
REMARK 924 INTRA-LIGAND FREE ENERGY PREDICTED BY IDOCK:   -1.64 KCAL/MOL
REMARK 927      BINDING AFFINITY PREDICTED BY RF-SCORE:    0.00 PKD
ROOT
HETATM    1  C   UNL     1     -10.681   4.117  65.277  1.00  0.00    -0.045 C  
HETATM    2  C   UNL     1     -10.595   5.086  66.447  1.00  0.00    -0.317 C  
ENDROOT
BRANCH   2   3
HETATM    3  C   UNL     1      -9.991   4.393  67.667  1.00  0.00    -0.111 C  
BRANCH   3   4
HETATM    4  C   UNL     1      -9.589   5.356  68.790  1.00  0.00    -0.137 C  
BRANCH   4   5
HETATM    5  N   UNL     1     -10.660   6.035  69.562  1.00  0.00    -0.262 NA 
BRANCH   5   6
HETATM    6  C   UNL     1     -10.481   5.826  71.015  1.00  0.00    -0.244 C  
BRANCH   6   7
HETATM    7  C   UNL     1     -10.019   4.423  71.454  1.00  0.00    -0.248 C  
BRANCH   7   8
HETATM    8  C   UNL     1      -8.916   4.432  72.509  1.00  0.00    -0.129 C  
HETATM    9  C   UNL     1      -7.785   5.371  72.099  1.00  0.00    -0.101 C  
ENDBRANCH   7   8
ENDBRANCH   6   7
ENDBRANCH   5   6
BRANCH   5  10
HETATM   10  C   UNL     1     -10.680   7.489  69.244  1.00  0.00    -0.176 C  
BRANCH  10  11
HETATM   11  C   UNL     1     -10.150   8.335  70.399  1.00  0.00    -0.199 C  
BRANCH  11  12
HETATM   12  C   UNL     1      -8.846   9.080  70.082  1.00  0.00    -0.182 C  
HETATM   13  H   UNL     1      -7.078   9.306  70.910  1.00  0.00     0.000 HD 
HETATM   14  O   UNL     1      -7.885   8.844  71.107  1.00  0.00    -0.129 OA 
BRANCH  12  15
HETATM   15  C   UNL     1      -8.245   8.689  68.729  1.00  0.00    -0.121 A  
HETATM   16  C   UNL     1      -8.610   9.342  67.528  1.00  0.00    -0.122 A  
HETATM   17  C   UNL     1      -9.406  10.511  67.531  1.00  0.00    -0.162 A  
HETATM   18  C   UNL     1      -9.826  11.131  66.356  1.00  0.00    -0.248 A  
HETATM   19  C   UNL     1      -9.457  10.601  65.127  1.00  0.00    -0.276 A  
HETATM   20  C   UNL     1      -9.922  11.219  63.833  1.00  0.00    -0.321 C  
HETATM   21  C   UNL     1      -8.632   9.463  65.107  1.00  0.00    -0.188 A  
HETATM   22  F   UNL     1     -10.654  10.351  63.081  1.00  0.00    -0.075 F  
HETATM   23  C   UNL     1      -8.175   8.807  66.282  1.00  0.00    -0.115 A  
HETATM   24  F   UNL     1      -8.886  11.614  63.042  1.00  0.00    -0.182 F  
HETATM   25  F   UNL     1     -10.706  12.320  64.002  1.00  0.00    -0.306 F  
HETATM   26  C   UNL     1      -7.321   7.641  66.247  1.00  0.00    -0.079 A  
HETATM   27  C   UNL     1      -6.862   7.029  65.051  1.00  0.00    -0.051 A  
HETATM   28  C   UNL     1      -6.048   5.893  65.051  1.00  0.00    -0.026 A  
HETATM   29  C   UNL     1      -5.645   5.320  66.239  1.00  0.00    -0.017 A  
HETATM   30 CL   UNL     1      -5.549   5.197  63.559  1.00  0.00    -0.013 Cl 
HETATM   31  C   UNL     1      -6.063   5.892  67.435  1.00  0.00    -0.018 A  
HETATM   32  C   UNL     1      -6.899   7.044  67.458  1.00  0.00    -0.073 A  
HETATM   33 CL   UNL     1      -5.533   5.094  68.888  1.00  0.00    -0.004 Cl 
HETATM   34  C   UNL     1      -7.351   7.604  68.660  1.00  0.00    -0.091 A  
ENDBRANCH  12  15
ENDBRANCH  11  12
ENDBRANCH  10  11
ENDBRANCH   5  10
ENDBRANCH   4   5
ENDBRANCH   3   4
ENDBRANCH   2   3
TORSDOF 10
ENDMDL
MODEL      174
REMARK 921   NORMALIZED FREE ENERGY PREDICTED BY IDOCK:   -2.43 KCAL/MOL
REMARK 922        TOTAL FREE ENERGY PREDICTED BY IDOCK:   -6.35 KCAL/MOL
REMARK 923 INTER-LIGAND FREE ENERGY PREDICTED BY IDOCK:   -6.39 KCAL/MOL
REMARK 924 INTRA-LIGAND FREE ENERGY PREDICTED BY IDOCK:    0.05 KCAL/MOL
REMARK 927      BINDING AFFINITY PREDICTED BY RF-SCORE:    0.00 PKD
ROOT
HETATM    1  C   UNL     1     -14.237   9.095  72.685  1.00  0.00    -0.201 C  
HETATM    2  C   UNL     1     -13.394   7.892  72.290  1.00  0.00    -0.071 C  
ENDROOT
BRANCH   2   3
HETATM    3  C   UNL     1     -12.224   8.330  71.412  1.00  0.00    -0.328 C  
BRANCH   3   4
HETATM    4  C   UNL     1     -10.852   7.909  71.952  1.00  0.00    -0.243 C  
BRANCH   4   5
HETATM    5  N   UNL     1      -9.834   7.409  70.995  1.00  0.00    -0.180 NA 
BRANCH   5   6
HETATM    6  C   UNL     1      -9.184   6.181  71.502  1.00  0.00    -0.146 C  
BRANCH   6   7
HETATM    7  C   UNL     1     -10.066   5.237  72.342  1.00  0.00    -0.227 C  
BRANCH   7   8
HETATM    8  C   UNL     1     -10.094   3.796  71.837  1.00  0.00    -0.194 C  
HETATM    9  C   UNL     1      -8.936   3.539  70.876  1.00  0.00    -0.161 C  
ENDBRANCH   7   8
ENDBRANCH   6   7
ENDBRANCH   5   6
BRANCH   5  10
HETATM   10  C   UNL     1     -10.457   7.158  69.667  1.00  0.00    -0.229 C  
BRANCH  10  11
HETATM   11  C   UNL     1      -9.646   6.169  68.832  1.00  0.00    -0.144 C  
BRANCH  11  12
HETATM   12  C   UNL     1      -9.919   6.251  67.324  1.00  0.00    -0.146 C  
HETATM   13  H   UNL     1     -11.484   6.457  66.153  1.00  0.00     0.000 HD 
HETATM   14  O   UNL     1     -11.315   6.407  67.087  1.00  0.00    -0.308 OA 
BRANCH  12  15
HETATM   15  C   UNL     1      -9.162   7.391  66.638  1.00  0.00    -0.196 A  
HETATM   16  C   UNL     1      -9.627   8.727  66.669  1.00  0.00    -0.283 A  
HETATM   17  C   UNL     1     -10.711   9.117  67.488  1.00  0.00    -0.255 A  
HETATM   18  C   UNL     1     -11.221  10.415  67.483  1.00  0.00    -0.254 A  
HETATM   19  C   UNL     1     -10.655  11.375  66.656  1.00  0.00    -0.302 A  
HETATM   20  C   UNL     1     -11.200  12.779  66.593  1.00  0.00    -0.301 C  
HETATM   21  C   UNL     1      -9.550  11.014  65.866  1.00  0.00    -0.255 A  
HETATM   22  F   UNL     1     -11.625  13.112  65.343  1.00  0.00    -0.324 F  
HETATM   23  C   UNL     1      -8.995   9.706  65.848  1.00  0.00    -0.203 A  
HETATM   24  F   UNL     1     -10.271  13.715  66.933  1.00  0.00    -0.248 F  
HETATM   25  F   UNL     1     -12.264  12.991  67.417  1.00  0.00    -0.391 F  
HETATM   26  C   UNL     1      -7.853   9.349  65.036  1.00  0.00    -0.115 A  
HETATM   27  C   UNL     1      -7.180  10.253  64.173  1.00  0.00    -0.057 A  
HETATM   28  C   UNL     1      -6.087   9.874  63.390  1.00  0.00    -0.120 A  
HETATM   29  C   UNL     1      -5.607   8.581  63.435  1.00  0.00    -0.068 A  
HETATM   30 CL   UNL     1      -5.336  11.023  62.352  1.00  0.00    -0.184 Cl 
HETATM   31  C   UNL     1      -6.231   7.664  64.274  1.00  0.00    -0.049 A  
HETATM   32  C   UNL     1      -7.350   8.028  65.074  1.00  0.00    -0.079 A  
HETATM   33 CL   UNL     1      -5.581   6.050  64.254  1.00  0.00    -0.017 Cl 
HETATM   34  C   UNL     1      -8.003   7.099  65.895  1.00  0.00    -0.116 A  
ENDBRANCH  12  15
ENDBRANCH  11  12
ENDBRANCH  10  11
ENDBRANCH   5  10
ENDBRANCH   4   5
ENDBRANCH   3   4
ENDBRANCH   2   3
TORSDOF 10
ENDMDL
MODEL      175
REMARK 921   NORMALIZED FREE ENERGY PREDICTED BY IDOCK:   -2.43 KCAL/MOL
REMARK 922        TOTAL FREE ENERGY PREDICTED BY IDOCK:   -6.34 KCAL/MOL
REMARK 923 INTER-LIGAND FREE ENERGY PREDICTED BY IDOCK:   -4.89 KCAL/MOL
REMARK 924 INTRA-LIGAND FREE ENERGY PREDICTED BY IDOCK:   -1.46 KCAL/MOL
REMARK 927      BINDING AFFINITY PREDICTED BY RF-SCORE:    0.00 PKD
ROOT
HETATM    1  C   UNL     1     -11.622  15.647  68.826  1.00  0.00    -0.393 C  
HETATM    2  C   UNL     1     -11.373  15.285  67.369  1.00  0.00    -0.285 C  
ENDROOT
BRANCH   2   3
HETATM    3  C   UNL     1     -12.269  14.119  66.952  1.00  0.00    -0.400 C  
BRANCH   3   4
HETATM    4  C   UNL     1     -11.508  12.811  66.706  1.00  0.00    -0.343 C  
BRANCH   4   5
HETATM    5  N   UNL     1     -10.632  12.285  67.784  1.00  0.00    -0.214 NA 
BRANCH   5   6
HETATM    6  C   UNL     1     -11.407  12.012  69.013  1.00  0.00    -0.275 C  
BRANCH   6   7
HETATM    7  C   UNL     1     -11.524  10.535  69.436  1.00  0.00    -0.329 C  
BRANCH   7   8
HETATM    8  C   UNL     1     -11.073  10.260  70.869  1.00  0.00    -0.218 C  
HETATM    9  C   UNL     1      -9.801   9.418  70.882  1.00  0.00    -0.338 C  
ENDBRANCH   7   8
ENDBRANCH   6   7
ENDBRANCH   5   6
BRANCH   5  10
HETATM   10  C   UNL     1      -9.936  11.053  67.323  1.00  0.00    -0.181 C  
BRANCH  10  11
HETATM   11  C   UNL     1      -8.451  11.066  67.682  1.00  0.00    -0.121 C  
BRANCH  11  12
HETATM   12  C   UNL     1      -7.579  10.197  66.766  1.00  0.00    -0.105 C  
HETATM   13  H   UNL     1      -5.738  10.226  66.078  1.00  0.00     0.000 HD 
HETATM   14  O   UNL     1      -6.278  10.764  66.646  1.00  0.00    -0.072 OA 
BRANCH  12  15
HETATM   15  C   UNL     1      -7.454   8.751  67.251  1.00  0.00    -0.089 A  
HETATM   16  C   UNL     1      -7.693   7.648  66.397  1.00  0.00    -0.089 A  
HETATM   17  C   UNL     1      -7.876   7.814  65.005  1.00  0.00    -0.125 A  
HETATM   18  C   UNL     1      -8.175   6.747  64.159  1.00  0.00     0.051 A  
HETATM   19  C   UNL     1      -8.294   5.466  64.681  1.00  0.00    -0.141 A  
HETATM   20  C   UNL     1      -8.652   4.291  63.806  1.00  0.00    -0.117 C  
HETATM   21  C   UNL     1      -8.074   5.278  66.056  1.00  0.00    -0.110 A  
HETATM   22  F   UNL     1      -9.809   3.690  64.198  1.00  0.00    -0.136 F  
HETATM   23  C   UNL     1      -7.760   6.337  66.951  1.00  0.00    -0.100 A  
HETATM   24  F   UNL     1      -7.701   3.318  63.826  1.00  0.00    -0.069 F  
HETATM   25  F   UNL     1      -8.827   4.618  62.495  1.00  0.00    -0.100 F  
HETATM   26  C   UNL     1      -7.529   6.129  68.362  1.00  0.00    -0.087 A  
HETATM   27  C   UNL     1      -7.601   4.862  69.000  1.00  0.00    -0.068 A  
HETATM   28  C   UNL     1      -7.386   4.695  70.370  1.00  0.00    -0.050 A  
HETATM   29  C   UNL     1      -7.080   5.778  71.168  1.00  0.00    -0.069 A  
HETATM   30 CL   UNL     1      -7.510   3.130  71.073  1.00  0.00    -0.036 Cl 
HETATM   31  C   UNL     1      -6.991   7.037  70.584  1.00  0.00    -0.062 A  
HETATM   32  C   UNL     1      -7.213   7.230  69.192  1.00  0.00    -0.085 A  
HETATM   33 CL   UNL     1      -6.627   8.354  71.663  1.00  0.00    -0.061 Cl 
HETATM   34  C   UNL     1      -7.159   8.501  68.605  1.00  0.00    -0.072 A  
ENDBRANCH  12  15
ENDBRANCH  11  12
ENDBRANCH  10  11
ENDBRANCH   5  10
ENDBRANCH   4   5
ENDBRANCH   3   4
ENDBRANCH   2   3
TORSDOF 10
ENDMDL
MODEL      176
REMARK 921   NORMALIZED FREE ENERGY PREDICTED BY IDOCK:   -2.42 KCAL/MOL
REMARK 922        TOTAL FREE ENERGY PREDICTED BY IDOCK:   -6.33 KCAL/MOL
REMARK 923 INTER-LIGAND FREE ENERGY PREDICTED BY IDOCK:   -4.95 KCAL/MOL
REMARK 924 INTRA-LIGAND FREE ENERGY PREDICTED BY IDOCK:   -1.37 KCAL/MOL
REMARK 927      BINDING AFFINITY PREDICTED BY RF-SCORE:    0.00 PKD
ROOT
HETATM    1  C   UNL     1     -12.074  14.085  69.267  1.00  0.00    -0.380 C  
HETATM    2  C   UNL     1     -10.704  14.733  69.128  1.00  0.00    -0.258 C  
ENDROOT
BRANCH   2   3
HETATM    3  C   UNL     1      -9.916  14.070  67.999  1.00  0.00    -0.235 C  
BRANCH   3   4
HETATM    4  C   UNL     1     -10.624  12.860  67.378  1.00  0.00    -0.233 C  
BRANCH   4   5
HETATM    5  N   UNL     1     -10.199  11.499  67.792  1.00  0.00    -0.179 NA 
BRANCH   5   6
HETATM    6  C   UNL     1     -10.790  10.467  66.913  1.00  0.00    -0.187 C  
BRANCH   6   7
HETATM    7  C   UNL     1      -9.951  10.045  65.692  1.00  0.00    -0.355 C  
BRANCH   7   8
HETATM    8  C   UNL     1     -10.299  10.793  64.407  1.00  0.00    -0.405 C  
HETATM    9  C   UNL     1      -9.317  10.438  63.294  1.00  0.00    -0.335 C  
ENDBRANCH   7   8
ENDBRANCH   6   7
ENDBRANCH   5   6
BRANCH   5  10
HETATM   10  C   UNL     1      -8.713  11.400  67.784  1.00  0.00    -0.136 C  
BRANCH  10  11
HETATM   11  C   UNL     1      -8.171  10.820  69.088  1.00  0.00    -0.124 C  
BRANCH  11  12
HETATM   12  C   UNL     1      -6.949   9.910  68.908  1.00  0.00    -0.062 C  
HETATM   13  H   UNL     1      -5.137   9.765  69.655  1.00  0.00     0.000 HD 
HETATM   14  O   UNL     1      -5.894  10.329  69.767  1.00  0.00    -0.041 OA 
BRANCH  12  15
HETATM   15  C   UNL     1      -7.257   8.434  69.172  1.00  0.00    -0.065 A  
HETATM   16  C   UNL     1      -7.281   7.474  68.132  1.00  0.00    -0.090 A  
HETATM   17  C   UNL     1      -6.842   7.784  66.825  1.00  0.00    -0.071 A  
HETATM   18  C   UNL     1      -6.918   6.870  65.775  1.00  0.00    -0.064 A  
HETATM   19  C   UNL     1      -7.434   5.602  66.001  1.00  0.00    -0.082 A  
HETATM   20  C   UNL     1      -7.569   4.597  64.886  1.00  0.00    -0.077 C  
HETATM   21  C   UNL     1      -7.837   5.264  67.305  1.00  0.00    -0.100 A  
HETATM   22  F   UNL     1      -8.860   4.211  64.691  1.00  0.00    -0.118 F  
HETATM   23  C   UNL     1      -7.769   6.163  68.403  1.00  0.00    -0.103 A  
HETATM   24  F   UNL     1      -6.870   3.454  65.127  1.00  0.00    -0.041 F  
HETATM   25  F   UNL     1      -7.132   5.056  63.680  1.00  0.00    -0.044 F  
HETATM   26  C   UNL     1      -8.180   5.800  69.741  1.00  0.00    -0.108 A  
HETATM   27  C   UNL     1      -8.699   4.526  70.093  1.00  0.00    -0.112 A  
HETATM   28  C   UNL     1      -9.101   4.210  71.393  1.00  0.00    -0.127 A  
HETATM   29  C   UNL     1      -8.996   5.142  72.405  1.00  0.00    -0.138 A  
HETATM   30 CL   UNL     1      -9.740   2.650  71.738  1.00  0.00    -0.218 Cl 
HETATM   31  C   UNL     1      -8.484   6.400  72.107  1.00  0.00    -0.111 A  
HETATM   32  C   UNL     1      -8.076   6.744  70.788  1.00  0.00    -0.118 A  
HETATM   33 CL   UNL     1      -8.408   7.525  73.432  1.00  0.00    -0.161 Cl 
HETATM   34  C   UNL     1      -7.591   8.022  70.475  1.00  0.00    -0.076 A  
ENDBRANCH  12  15
ENDBRANCH  11  12
ENDBRANCH  10  11
ENDBRANCH   5  10
ENDBRANCH   4   5
ENDBRANCH   3   4
ENDBRANCH   2   3
TORSDOF 10
ENDMDL
MODEL      177
REMARK 921   NORMALIZED FREE ENERGY PREDICTED BY IDOCK:   -2.38 KCAL/MOL
REMARK 922        TOTAL FREE ENERGY PREDICTED BY IDOCK:   -6.27 KCAL/MOL
REMARK 923 INTER-LIGAND FREE ENERGY PREDICTED BY IDOCK:   -5.26 KCAL/MOL
REMARK 924 INTRA-LIGAND FREE ENERGY PREDICTED BY IDOCK:   -1.01 KCAL/MOL
REMARK 927      BINDING AFFINITY PREDICTED BY RF-SCORE:    0.00 PKD
ROOT
HETATM    1  C   UNL     1     -12.233   7.257  71.093  1.00  0.00    -0.376 C  
HETATM    2  C   UNL     1     -11.748   8.632  70.659  1.00  0.00    -0.178 C  
ENDROOT
BRANCH   2   3
HETATM    3  C   UNL     1     -10.533   9.051  71.485  1.00  0.00    -0.410 C  
BRANCH   3   4
HETATM    4  C   UNL     1      -9.635   7.881  71.903  1.00  0.00    -0.173 C  
BRANCH   4   5
HETATM    5  N   UNL     1      -8.474   7.534  71.046  1.00  0.00    -0.116 NA 
BRANCH   5   6
HETATM    6  C   UNL     1      -8.850   7.535  69.616  1.00  0.00    -0.141 C  
BRANCH   6   7
HETATM    7  C   UNL     1      -9.529   6.258  69.085  1.00  0.00    -0.139 C  
BRANCH   7   8
HETATM    8  C   UNL     1     -10.726   6.521  68.174  1.00  0.00    -0.347 C  
HETATM    9  C   UNL     1     -10.403   6.134  66.734  1.00  0.00    -0.292 C  
ENDBRANCH   7   8
ENDBRANCH   6   7
ENDBRANCH   5   6
BRANCH   5  10
HETATM   10  C   UNL     1      -7.354   8.483  71.291  1.00  0.00    -0.091 C  
BRANCH  10  11
HETATM   11  C   UNL     1      -7.726   9.916  70.919  1.00  0.00     0.450 C  
BRANCH  11  12
HETATM   12  C   UNL     1      -6.789  10.559  69.888  1.00  0.00    -0.149 C  
HETATM   13  H   UNL     1      -4.868  10.536  69.476  1.00  0.00     0.000 HD 
HETATM   14  O   UNL     1      -5.448  10.138  70.115  1.00  0.00    -0.040 OA 
BRANCH  12  15
HETATM   15  C   UNL     1      -7.179  10.242  68.442  1.00  0.00    -0.080 A  
HETATM   16  C   UNL     1      -8.181  10.970  67.758  1.00  0.00    -0.117 A  
HETATM   17  C   UNL     1      -8.746  12.147  68.301  1.00  0.00    -0.178 A  
HETATM   18  C   UNL     1      -9.777  12.840  67.670  1.00  0.00    -0.205 A  
HETATM   19  C   UNL     1     -10.278  12.380  66.459  1.00  0.00    -0.244 A  
HETATM   20  C   UNL     1     -11.417  13.079  65.763  1.00  0.00    -0.332 C  
HETATM   21  C   UNL     1      -9.699  11.234  65.886  1.00  0.00    -0.258 A  
HETATM   22  F   UNL     1     -12.498  12.267  65.599  1.00  0.00    -0.452 F  
HETATM   23  C   UNL     1      -8.642  10.504  66.492  1.00  0.00    -0.140 A  
HETATM   24  F   UNL     1     -11.081  13.508  64.515  1.00  0.00    -0.323 F  
HETATM   25  F   UNL     1     -11.873  14.178  66.426  1.00  0.00    -0.354 F  
HETATM   26  C   UNL     1      -8.051   9.332  65.888  1.00  0.00    -0.111 A  
HETATM   27  C   UNL     1      -8.465   8.786  64.644  1.00  0.00    -0.169 A  
HETATM   28  C   UNL     1      -7.882   7.642  64.093  1.00  0.00    -0.133 A  
HETATM   29  C   UNL     1      -6.854   6.994  64.746  1.00  0.00    -0.047 A  
HETATM   30 CL   UNL     1      -8.453   7.029  62.590  1.00  0.00     0.075 Cl 
HETATM   31  C   UNL     1      -6.411   7.499  65.964  1.00  0.00    -0.042 A  
HETATM   32  C   UNL     1      -6.995   8.659  66.546  1.00  0.00    -0.079 A  
HETATM   33 CL   UNL     1      -5.130   6.610  66.736  1.00  0.00    -0.009 Cl 
HETATM   34  C   UNL     1      -6.575   9.152  67.789  1.00  0.00    -0.060 A  
ENDBRANCH  12  15
ENDBRANCH  11  12
ENDBRANCH  10  11
ENDBRANCH   5  10
ENDBRANCH   4   5
ENDBRANCH   3   4
ENDBRANCH   2   3
TORSDOF 10
ENDMDL
MODEL      178
REMARK 921   NORMALIZED FREE ENERGY PREDICTED BY IDOCK:   -2.34 KCAL/MOL
REMARK 922        TOTAL FREE ENERGY PREDICTED BY IDOCK:   -6.20 KCAL/MOL
REMARK 923 INTER-LIGAND FREE ENERGY PREDICTED BY IDOCK:   -4.84 KCAL/MOL
REMARK 924 INTRA-LIGAND FREE ENERGY PREDICTED BY IDOCK:   -1.36 KCAL/MOL
REMARK 927      BINDING AFFINITY PREDICTED BY RF-SCORE:    0.00 PKD
ROOT
HETATM    1  C   UNL     1      -8.735   6.274  74.559  1.00  0.00    -0.149 C  
HETATM    2  C   UNL     1      -7.677   6.612  73.518  1.00  0.00    -0.090 C  
ENDROOT
BRANCH   2   3
HETATM    3  C   UNL     1      -6.617   5.514  73.465  1.00  0.00    -0.077 C  
BRANCH   3   4
HETATM    4  C   UNL     1      -5.932   5.382  72.099  1.00  0.00    -0.026 C  
BRANCH   4   5
HETATM    5  N   UNL     1      -6.690   5.768  70.883  1.00  0.00    -0.051 NA 
BRANCH   5   6
HETATM    6  C   UNL     1      -5.854   5.633  69.670  1.00  0.00    -0.020 C  
BRANCH   6   7
HETATM    7  C   UNL     1      -5.395   6.945  69.005  1.00  0.00    -0.014 C  
BRANCH   7   8
HETATM    8  C   UNL     1      -6.098   8.192  69.536  1.00  0.00    -0.033 C  
HETATM    9  C   UNL     1      -6.197   9.259  68.450  1.00  0.00    -0.053 C  
ENDBRANCH   7   8
ENDBRANCH   6   7
ENDBRANCH   5   6
BRANCH   5  10
HETATM   10  C   UNL     1      -7.921   4.940  70.761  1.00  0.00    -0.083 C  
BRANCH  10  11
HETATM   11  C   UNL     1      -8.651   5.190  69.443  1.00  0.00    -0.102 C  
BRANCH  11  12
HETATM   12  C   UNL     1      -9.952   5.991  69.591  1.00  0.00    -0.170 C  
HETATM   13  H   UNL     1     -10.918   6.917  71.031  1.00  0.00     0.000 HD 
HETATM   14  O   UNL     1     -10.112   6.421  70.939  1.00  0.00    -0.184 OA 
BRANCH  12  15
HETATM   15  C   UNL     1     -10.018   7.206  68.663  1.00  0.00    -0.161 A  
HETATM   16  C   UNL     1      -9.376   7.223  67.402  1.00  0.00    -0.148 A  
HETATM   17  C   UNL     1      -8.798   6.058  66.847  1.00  0.00    -0.116 A  
HETATM   18  C   UNL     1      -8.109   6.072  65.636  1.00  0.00    -0.126 A  
HETATM   19  C   UNL     1      -7.979   7.260  64.929  1.00  0.00    -0.127 A  
HETATM   20  C   UNL     1      -7.210   7.324  63.634  1.00  0.00    -0.075 C  
HETATM   21  C   UNL     1      -8.583   8.418  65.447  1.00  0.00    -0.193 A  
HETATM   22  F   UNL     1      -6.157   8.186  63.702  1.00  0.00    -0.066 F  
HETATM   23  C   UNL     1      -9.302   8.445  66.673  1.00  0.00    -0.245 A  
HETATM   24  F   UNL     1      -7.975   7.752  62.593  1.00  0.00    -0.114 F  
HETATM   25  F   UNL     1      -6.686   6.127  63.248  1.00  0.00    -0.036 F  
HETATM   26  C   UNL     1      -9.925   9.642  67.191  1.00  0.00    -0.249 A  
HETATM   27  C   UNL     1      -9.878  10.905  66.542  1.00  0.00    -0.245 A  
HETATM   28  C   UNL     1     -10.479  12.048  67.076  1.00  0.00    -0.221 A  
HETATM   29  C   UNL     1     -11.163  11.986  68.273  1.00  0.00    -0.315 A  
HETATM   30 CL   UNL     1     -10.361  13.548  66.241  1.00  0.00    -0.287 Cl 
HETATM   31  C   UNL     1     -11.242  10.767  68.938  1.00  0.00    -0.268 A  
HETATM   32  C   UNL     1     -10.631   9.593  68.415  1.00  0.00    -0.264 A  
HETATM   33 CL   UNL     1     -12.100  10.779  70.452  1.00  0.00    -0.408 Cl 
HETATM   34  C   UNL     1     -10.678   8.370  69.098  1.00  0.00    -0.123 A  
ENDBRANCH  12  15
ENDBRANCH  11  12
ENDBRANCH  10  11
ENDBRANCH   5  10
ENDBRANCH   4   5
ENDBRANCH   3   4
ENDBRANCH   2   3
TORSDOF 10
ENDMDL
MODEL      179
REMARK 921   NORMALIZED FREE ENERGY PREDICTED BY IDOCK:   -2.31 KCAL/MOL
REMARK 922        TOTAL FREE ENERGY PREDICTED BY IDOCK:   -6.16 KCAL/MOL
REMARK 923 INTER-LIGAND FREE ENERGY PREDICTED BY IDOCK:   -6.12 KCAL/MOL
REMARK 924 INTRA-LIGAND FREE ENERGY PREDICTED BY IDOCK:   -0.04 KCAL/MOL
REMARK 927      BINDING AFFINITY PREDICTED BY RF-SCORE:    0.00 PKD
ROOT
HETATM    1  C   UNL     1      -8.119   4.715  72.241  1.00  0.00    -0.102 C  
HETATM    2  C   UNL     1      -9.140   4.488  71.137  1.00  0.00    -0.183 C  
ENDROOT
BRANCH   2   3
HETATM    3  C   UNL     1      -8.435   4.215  69.810  1.00  0.00    -0.087 C  
BRANCH   3   4
HETATM    4  C   UNL     1      -9.392   4.035  68.626  1.00  0.00    -0.162 C  
BRANCH   4   5
HETATM    5  N   UNL     1      -9.068   4.705  67.342  1.00  0.00    -0.118 NA 
BRANCH   5   6
HETATM    6  C   UNL     1     -10.161   4.533  66.361  1.00  0.00    -0.217 C  
BRANCH   6   7
HETATM    7  C   UNL     1      -9.888   3.567  65.192  1.00  0.00    -0.086 C  
BRANCH   7   8
HETATM    8  C   UNL     1      -8.500   3.714  64.574  1.00  0.00    -0.097 C  
HETATM    9  C   UNL     1      -8.288   5.133  64.055  1.00  0.00    -0.132 C  
ENDBRANCH   7   8
ENDBRANCH   6   7
ENDBRANCH   5   6
BRANCH   5  10
HETATM   10  C   UNL     1      -8.798   6.151  67.571  1.00  0.00    -0.106 C  
BRANCH  10  11
HETATM   11  C   UNL     1     -10.081   6.979  67.573  1.00  0.00    -0.236 C  
BRANCH  11  12
HETATM   12  C   UNL     1     -10.321   7.758  68.874  1.00  0.00    -0.213 C  
HETATM   13  H   UNL     1      -9.266   8.312  70.436  1.00  0.00     0.000 HD 
HETATM   14  O   UNL     1      -9.117   7.830  69.630  1.00  0.00    -0.146 OA 
BRANCH  12  15
HETATM   15  C   UNL     1     -10.852   9.174  68.636  1.00  0.00    -0.092 A  
HETATM   16  C   UNL     1     -10.722   9.825  67.386  1.00  0.00    -0.314 A  
HETATM   17  C   UNL     1     -10.264   9.141  66.237  1.00  0.00    -0.257 A  
HETATM   18  C   UNL     1     -10.071   9.782  65.014  1.00  0.00     0.026 A  
HETATM   19  C   UNL     1     -10.337  11.140  64.898  1.00  0.00    -0.375 A  
HETATM   20  C   UNL     1     -10.106  11.878  63.604  1.00  0.00    -0.426 C  
HETATM   21  C   UNL     1     -10.832  11.825  66.021  1.00  0.00    -0.343 A  
HETATM   22  F   UNL     1      -9.202  12.887  63.741  1.00  0.00     0.401 F  
HETATM   23  C   UNL     1     -11.051  11.207  67.282  1.00  0.00    -0.366 A  
HETATM   24  F   UNL     1     -11.241  12.457  63.124  1.00  0.00    -0.477 F  
HETATM   25  F   UNL     1      -9.634  11.088  62.600  1.00  0.00    -0.276 F  
HETATM   26  C   UNL     1     -11.568  11.923  68.426  1.00  0.00    -0.376 A  
HETATM   27  C   UNL     1     -11.898  13.304  68.416  1.00  0.00    -0.395 A  
HETATM   28  C   UNL     1     -12.383  13.970  69.544  1.00  0.00    -0.229 A  
HETATM   29  C   UNL     1     -12.571  13.293  70.732  1.00  0.00    -0.357 A  
HETATM   30 CL   UNL     1     -12.741  15.651  69.459  1.00  0.00     0.072 Cl 
HETATM   31  C   UNL     1     -12.269  11.936  70.785  1.00  0.00    -0.303 A  
HETATM   32  C   UNL     1     -11.768  11.240  69.649  1.00  0.00    -0.420 A  
HETATM   33 CL   UNL     1     -12.511  11.161  72.324  1.00  0.00     0.468 Cl 
HETATM   34  C   UNL     1     -11.430   9.881  69.706  1.00  0.00    -0.194 A  
ENDBRANCH  12  15
ENDBRANCH  11  12
ENDBRANCH  10  11
ENDBRANCH   5  10
ENDBRANCH   4   5
ENDBRANCH   3   4
ENDBRANCH   2   3
TORSDOF 10
ENDMDL
MODEL      180
REMARK 921   NORMALIZED FREE ENERGY PREDICTED BY IDOCK:   -2.30 KCAL/MOL
REMARK 922        TOTAL FREE ENERGY PREDICTED BY IDOCK:   -6.15 KCAL/MOL
REMARK 923 INTER-LIGAND FREE ENERGY PREDICTED BY IDOCK:   -5.23 KCAL/MOL
REMARK 924 INTRA-LIGAND FREE ENERGY PREDICTED BY IDOCK:   -0.92 KCAL/MOL
REMARK 927      BINDING AFFINITY PREDICTED BY RF-SCORE:    0.00 PKD
ROOT
HETATM    1  C   UNL     1      -7.868   4.836  71.969  1.00  0.00    -0.100 C  
HETATM    2  C   UNL     1      -8.887   4.339  70.955  1.00  0.00    -0.142 C  
ENDROOT
BRANCH   2   3
HETATM    3  C   UNL     1      -8.301   4.394  69.545  1.00  0.00    -0.074 C  
BRANCH   3   4
HETATM    4  C   UNL     1      -9.334   4.162  68.436  1.00  0.00    -0.155 C  
BRANCH   4   5
HETATM    5  N   UNL     1      -9.308   5.046  67.243  1.00  0.00    -0.121 NA 
BRANCH   5   6
HETATM    6  C   UNL     1     -10.590   4.985  66.509  1.00  0.00    -0.231 C  
BRANCH   6   7
HETATM    7  C   UNL     1     -10.554   4.314  65.122  1.00  0.00    -0.169 C  
BRANCH   7   8
HETATM    8  C   UNL     1      -9.306   4.639  64.305  1.00  0.00    -0.037 C  
HETATM    9  C   UNL     1      -9.259   3.794  63.035  1.00  0.00    -0.107 C  
ENDBRANCH   7   8
ENDBRANCH   6   7
ENDBRANCH   5   6
BRANCH   5  10
HETATM   10  C   UNL     1      -9.006   6.446  67.649  1.00  0.00    -0.113 C  
BRANCH  10  11
HETATM   11  C   UNL     1     -10.265   7.309  67.709  1.00  0.00    -0.247 C  
BRANCH  11  12
HETATM   12  C   UNL     1     -10.524   7.944  69.082  1.00  0.00    -0.209 C  
HETATM   13  H   UNL     1      -9.973   7.629  70.941  1.00  0.00     0.000 HD 
HETATM   14  O   UNL     1      -9.812   7.235  70.091  1.00  0.00    -0.179 OA 
BRANCH  12  15
HETATM   15  C   UNL     1     -10.139   9.424  69.140  1.00  0.00    -0.200 A  
HETATM   16  C   UNL     1     -10.892  10.368  69.879  1.00  0.00    -0.353 A  
HETATM   17  C   UNL     1     -11.929   9.968  70.753  1.00  0.00    -0.426 A  
HETATM   18  C   UNL     1     -12.720  10.887  71.440  1.00  0.00    -0.539 A  
HETATM   19  C   UNL     1     -12.496  12.248  71.279  1.00  0.00    -0.281 A  
HETATM   20  C   UNL     1     -13.354  13.274  71.974  1.00  0.00    -0.489 C  
HETATM   21  C   UNL     1     -11.442  12.660  70.445  1.00  0.00     0.299 A  
HETATM   22  F   UNL     1     -13.993  14.093  71.094  1.00  0.00    -0.356 F  
HETATM   23  C   UNL     1     -10.607  11.756  69.734  1.00  0.00     0.453 A  
HETATM   24  F   UNL     1     -12.632  14.092  72.788  1.00  0.00    -0.381 F  
HETATM   25  F   UNL     1     -14.329  12.733  72.756  1.00  0.00    -0.394 F  
HETATM   26  C   UNL     1      -9.522  12.193  68.884  1.00  0.00     0.163 A  
HETATM   27  C   UNL     1      -9.186  13.555  68.665  1.00  0.00    -0.022 A  
HETATM   28  C   UNL     1      -8.140  13.946  67.826  1.00  0.00    -0.172 A  
HETATM   29  C   UNL     1      -7.372  13.002  67.175  1.00  0.00     0.031 A  
HETATM   30 CL   UNL     1      -7.806  15.619  67.594  1.00  0.00    -0.158 Cl 
HETATM   31  C   UNL     1      -7.660  11.656  67.369  1.00  0.00    -0.139 A  
HETATM   32  C   UNL     1      -8.727  11.236  68.213  1.00  0.00    -0.158 A  
HETATM   33 CL   UNL     1      -6.664  10.530  66.493  1.00  0.00    -0.097 Cl 
HETATM   34  C   UNL     1      -9.043   9.882  68.384  1.00  0.00    -0.123 A  
ENDBRANCH  12  15
ENDBRANCH  11  12
ENDBRANCH  10  11
ENDBRANCH   5  10
ENDBRANCH   4   5
ENDBRANCH   3   4
ENDBRANCH   2   3
TORSDOF 10
ENDMDL
MODEL      181
REMARK 921   NORMALIZED FREE ENERGY PREDICTED BY IDOCK:   -2.26 KCAL/MOL
REMARK 922        TOTAL FREE ENERGY PREDICTED BY IDOCK:   -6.07 KCAL/MOL
REMARK 923 INTER-LIGAND FREE ENERGY PREDICTED BY IDOCK:   -3.95 KCAL/MOL
REMARK 924 INTRA-LIGAND FREE ENERGY PREDICTED BY IDOCK:   -2.12 KCAL/MOL
REMARK 927      BINDING AFFINITY PREDICTED BY RF-SCORE:    0.00 PKD
ROOT
HETATM    1  C   UNL     1      -5.826   1.801  69.676  1.00  0.00    -0.022 C  
HETATM    2  C   UNL     1      -5.315   2.958  68.830  1.00  0.00    -0.013 C  
ENDROOT
BRANCH   2   3
HETATM    3  C   UNL     1      -5.776   2.800  67.382  1.00  0.00    -0.019 C  
BRANCH   3   4
HETATM    4  C   UNL     1      -7.298   2.864  67.206  1.00  0.00    -0.061 C  
BRANCH   4   5
HETATM    5  N   UNL     1      -7.874   3.962  66.390  1.00  0.00    -0.089 NA 
BRANCH   5   6
HETATM    6  C   UNL     1      -8.634   4.910  67.235  1.00  0.00    -0.104 C  
BRANCH   6   7
HETATM    7  C   UNL     1      -9.897   4.355  67.920  1.00  0.00    -0.141 C  
BRANCH   7   8
HETATM    8  C   UNL     1     -10.634   5.374  68.786  1.00  0.00    -0.179 C  
HETATM    9  C   UNL     1      -9.896   5.598  70.103  1.00  0.00    -0.250 C  
ENDBRANCH   7   8
ENDBRANCH   6   7
ENDBRANCH   5   6
BRANCH   5  10
HETATM   10  C   UNL     1      -6.795   4.674  65.652  1.00  0.00    -0.061 C  
BRANCH  10  11
HETATM   11  C   UNL     1      -7.331   5.866  64.864  1.00  0.00    -0.073 C  
BRANCH  11  12
HETATM   12  C   UNL     1      -6.582   7.179  65.129  1.00  0.00    -0.047 C  
HETATM   13  H   UNL     1      -5.957   8.718  64.078  1.00  0.00     0.000 HD 
HETATM   14  O   UNL     1      -6.421   7.905  63.914  1.00  0.00    -0.061 OA 
BRANCH  12  15
HETATM   15  C   UNL     1      -7.279   8.071  66.159  1.00  0.00    -0.070 A  
HETATM   16  C   UNL     1      -7.020   7.960  67.546  1.00  0.00    -0.075 A  
HETATM   17  C   UNL     1      -5.971   7.153  68.043  1.00  0.00    -0.030 A  
HETATM   18  C   UNL     1      -5.742   6.983  69.407  1.00  0.00    -0.015 A  
HETATM   19  C   UNL     1      -6.558   7.626  70.329  1.00  0.00    -0.038 A  
HETATM   20  C   UNL     1      -6.368   7.439  71.812  1.00  0.00    -0.039 C  
HETATM   21  C   UNL     1      -7.580   8.464  69.851  1.00  0.00    -0.076 A  
HETATM   22  F   UNL     1      -7.471   6.910  72.412  1.00  0.00    -0.083 F  
HETATM   23  C   UNL     1      -7.841   8.670  68.469  1.00  0.00    -0.108 A  
HETATM   24  F   UNL     1      -6.119   8.611  72.458  1.00  0.00    -0.064 F  
HETATM   25  F   UNL     1      -5.337   6.608  72.132  1.00  0.00    -0.029 F  
HETATM   26  C   UNL     1      -8.891   9.541  67.991  1.00  0.00    -0.123 A  
HETATM   27  C   UNL     1      -9.769  10.266  68.839  1.00  0.00    -0.193 A  
HETATM   28  C   UNL     1     -10.784  11.089  68.346  1.00  0.00    -0.203 A  
HETATM   29  C   UNL     1     -10.967  11.238  66.986  1.00  0.00    -0.352 A  
HETATM   30 CL   UNL     1     -11.822  11.920  69.439  1.00  0.00    -0.378 Cl 
HETATM   31  C   UNL     1     -10.124  10.554  66.118  1.00  0.00    -0.246 A  
HETATM   32  C   UNL     1      -9.088   9.705  66.600  1.00  0.00    -0.176 A  
HETATM   33 CL   UNL     1     -10.436  10.775  64.420  1.00  0.00    -0.413 Cl 
HETATM   34  C   UNL     1      -8.258   8.986  65.729  1.00  0.00    -0.120 A  
ENDBRANCH  12  15
ENDBRANCH  11  12
ENDBRANCH  10  11
ENDBRANCH   5  10
ENDBRANCH   4   5
ENDBRANCH   3   4
ENDBRANCH   2   3
TORSDOF 10
ENDMDL
MODEL      182
REMARK 921   NORMALIZED FREE ENERGY PREDICTED BY IDOCK:   -2.24 KCAL/MOL
REMARK 922        TOTAL FREE ENERGY PREDICTED BY IDOCK:   -6.05 KCAL/MOL
REMARK 923 INTER-LIGAND FREE ENERGY PREDICTED BY IDOCK:   -6.61 KCAL/MOL
REMARK 924 INTRA-LIGAND FREE ENERGY PREDICTED BY IDOCK:    0.57 KCAL/MOL
REMARK 927      BINDING AFFINITY PREDICTED BY RF-SCORE:    0.00 PKD
ROOT
HETATM    1  C   UNL     1      -9.678  19.343  69.431  1.00  0.00    -0.207 C  
HETATM    2  C   UNL     1     -10.500  20.073  68.380  1.00  0.00    -0.369 C  
ENDROOT
BRANCH   2   3
HETATM    3  C   UNL     1     -10.349  19.390  67.021  1.00  0.00    -0.547 C  
BRANCH   3   4
HETATM    4  C   UNL     1      -8.901  19.317  66.523  1.00  0.00    -0.346 C  
BRANCH   4   5
HETATM    5  N   UNL     1      -8.437  18.067  65.870  1.00  0.00    -0.506 NA 
BRANCH   5   6
HETATM    6  C   UNL     1      -6.982  18.113  65.608  1.00  0.00    -0.177 C  
BRANCH   6   7
HETATM    7  C   UNL     1      -6.060  17.944  66.832  1.00  0.00    -0.183 C  
BRANCH   7   8
HETATM    8  C   UNL     1      -5.371  19.231  67.275  1.00  0.00    -0.162 C  
HETATM    9  C   UNL     1      -5.991  19.758  68.566  1.00  0.00    -0.267 C  
ENDBRANCH   7   8
ENDBRANCH   6   7
ENDBRANCH   5   6
BRANCH   5  10
HETATM   10  C   UNL     1      -8.777  16.890  66.714  1.00  0.00    -0.232 C  
BRANCH  10  11
HETATM   11  C   UNL     1     -10.211  16.418  66.488  1.00  0.00    -0.310 C  
BRANCH  11  12
HETATM   12  C   UNL     1     -10.332  14.928  66.140  1.00  0.00    -0.301 C  
HETATM   13  H   UNL     1     -10.194  13.808  64.531  1.00  0.00     0.000 HD 
HETATM   14  O   UNL     1     -10.119  14.731  64.746  1.00  0.00    -0.308 OA 
BRANCH  12  15
HETATM   15  C   UNL     1      -9.359  14.047  66.928  1.00  0.00    -0.266 A  
HETATM   16  C   UNL     1      -9.418  12.634  66.879  1.00  0.00    -0.229 A  
HETATM   17  C   UNL     1     -10.252  11.956  65.960  1.00  0.00    -0.262 A  
HETATM   18  C   UNL     1     -10.368  10.567  65.942  1.00  0.00    -0.275 A  
HETATM   19  C   UNL     1      -9.643   9.802  66.845  1.00  0.00    -0.228 A  
HETATM   20  C   UNL     1      -9.769   8.301  66.883  1.00  0.00    -0.225 C  
HETATM   21  C   UNL     1      -8.778  10.458  67.738  1.00  0.00    -0.122 A  
HETATM   22  F   UNL     1     -10.213   7.850  68.089  1.00  0.00    -0.192 F  
HETATM   23  C   UNL     1      -8.624  11.870  67.784  1.00  0.00    -0.154 A  
HETATM   24  F   UNL     1      -8.582   7.672  66.664  1.00  0.00    -0.116 F  
HETATM   25  F   UNL     1     -10.635   7.800  65.957  1.00  0.00     0.109 F  
HETATM   26  C   UNL     1      -7.725  12.532  68.702  1.00  0.00    -0.063 A  
HETATM   27  C   UNL     1      -6.918  11.851  69.651  1.00  0.00     0.132 A  
HETATM   28  C   UNL     1      -6.069  12.521  70.535  1.00  0.00     0.076 A  
HETATM   29  C   UNL     1      -5.975  13.897  70.510  1.00  0.00    -0.172 A  
HETATM   30 CL   UNL     1      -5.136  11.626  71.672  1.00  0.00    -0.042 Cl 
HETATM   31  C   UNL     1      -6.741  14.604  69.590  1.00  0.00    -0.163 A  
HETATM   32  C   UNL     1      -7.618  13.942  68.686  1.00  0.00    -0.130 A  
HETATM   33 CL   UNL     1      -6.584  16.337  69.640  1.00  0.00    -0.199 Cl 
HETATM   34  C   UNL     1      -8.417  14.652  67.780  1.00  0.00    -0.178 A  
ENDBRANCH  12  15
ENDBRANCH  11  12
ENDBRANCH  10  11
ENDBRANCH   5  10
ENDBRANCH   4   5
ENDBRANCH   3   4
ENDBRANCH   2   3
TORSDOF 10
ENDMDL
MODEL      183
REMARK 921   NORMALIZED FREE ENERGY PREDICTED BY IDOCK:   -2.24 KCAL/MOL
REMARK 922        TOTAL FREE ENERGY PREDICTED BY IDOCK:   -6.04 KCAL/MOL
REMARK 923 INTER-LIGAND FREE ENERGY PREDICTED BY IDOCK:   -5.07 KCAL/MOL
REMARK 924 INTRA-LIGAND FREE ENERGY PREDICTED BY IDOCK:   -0.96 KCAL/MOL
REMARK 927      BINDING AFFINITY PREDICTED BY RF-SCORE:    0.00 PKD
ROOT
HETATM    1  C   UNL     1     -11.296   6.537  66.648  1.00  0.00     0.323 C  
HETATM    2  C   UNL     1      -9.990   6.857  67.359  1.00  0.00    -0.212 C  
ENDROOT
BRANCH   2   3
HETATM    3  C   UNL     1      -8.804   6.597  66.432  1.00  0.00    -0.151 C  
BRANCH   3   4
HETATM    4  C   UNL     1      -7.673   7.623  66.572  1.00  0.00    -0.097 C  
BRANCH   4   5
HETATM    5  N   UNL     1      -7.300   8.435  65.386  1.00  0.00    -0.082 NA 
BRANCH   5   6
HETATM    6  C   UNL     1      -7.307   7.614  64.156  1.00  0.00    -0.094 C  
BRANCH   6   7
HETATM    7  C   UNL     1      -5.933   7.165  63.623  1.00  0.00    -0.044 C  
BRANCH   7   8
HETATM    8  C   UNL     1      -5.887   5.709  63.167  1.00  0.00    -0.018 C  
HETATM    9  C   UNL     1      -6.443   4.787  64.248  1.00  0.00    -0.038 C  
ENDBRANCH   7   8
ENDBRANCH   6   7
ENDBRANCH   5   6
BRANCH   5  10
HETATM   10  C   UNL     1      -8.225   9.592  65.245  1.00  0.00    -0.131 C  
BRANCH  10  11
HETATM   11  C   UNL     1      -8.175  10.516  66.460  1.00  0.00    -0.133 C  
BRANCH  11  12
HETATM   12  C   UNL     1      -9.143  11.705  66.382  1.00  0.00    -0.206 C  
HETATM   13  H   UNL     1     -11.048  12.036  66.731  1.00  0.00     0.000 HD 
HETATM   14  O   UNL     1     -10.449  11.300  66.780  1.00  0.00    -0.228 OA 
BRANCH  12  15
HETATM   15  C   UNL     1      -8.702  12.895  67.237  1.00  0.00    -0.204 A  
HETATM   16  C   UNL     1      -9.128  14.216  66.963  1.00  0.00    -0.255 A  
HETATM   17  C   UNL     1     -10.129  14.489  66.002  1.00  0.00    -0.336 A  
HETATM   18  C   UNL     1     -10.515  15.788  65.675  1.00  0.00    -0.402 A  
HETATM   19  C   UNL     1      -9.912  16.866  66.308  1.00  0.00    -0.324 A  
HETATM   20  C   UNL     1     -10.274  18.287  65.956  1.00  0.00    -0.323 C  
HETATM   21  C   UNL     1      -8.945  16.611  67.295  1.00  0.00    -0.211 A  
HETATM   22  F   UNL     1      -9.205  18.992  65.494  1.00  0.00     0.085 F  
HETATM   23  C   UNL     1      -8.529  15.303  67.664  1.00  0.00    -0.172 A  
HETATM   24  F   UNL     1     -10.747  18.984  67.025  1.00  0.00    -0.446 F  
HETATM   25  F   UNL     1     -11.231  18.385  64.991  1.00  0.00    -0.202 F  
HETATM   26  C   UNL     1      -7.538  15.054  68.686  1.00  0.00    -0.128 A  
HETATM   27  C   UNL     1      -6.875  16.076  69.415  1.00  0.00    -0.215 A  
HETATM   28  C   UNL     1      -5.911  15.803  70.387  1.00  0.00    -0.076 A  
HETATM   29  C   UNL     1      -5.568  14.501  70.689  1.00  0.00    -0.154 A  
HETATM   30 CL   UNL     1      -5.136  17.099  71.214  1.00  0.00    -0.150 Cl 
HETATM   31  C   UNL     1      -6.199  13.467  70.006  1.00  0.00    -0.089 A  
HETATM   32  C   UNL     1      -7.179  13.724  69.006  1.00  0.00    -0.063 A  
HETATM   33 CL   UNL     1      -5.693  11.856  70.426  1.00  0.00    -0.154 Cl 
HETATM   34  C   UNL     1      -7.793  12.686  68.291  1.00  0.00    -0.144 A  
ENDBRANCH  12  15
ENDBRANCH  11  12
ENDBRANCH  10  11
ENDBRANCH   5  10
ENDBRANCH   4   5
ENDBRANCH   3   4
ENDBRANCH   2   3
TORSDOF 10
ENDMDL
MODEL      184
REMARK 921   NORMALIZED FREE ENERGY PREDICTED BY IDOCK:   -2.08 KCAL/MOL
REMARK 922        TOTAL FREE ENERGY PREDICTED BY IDOCK:   -5.79 KCAL/MOL
REMARK 923 INTER-LIGAND FREE ENERGY PREDICTED BY IDOCK:   -5.08 KCAL/MOL
REMARK 924 INTRA-LIGAND FREE ENERGY PREDICTED BY IDOCK:   -0.71 KCAL/MOL
REMARK 927      BINDING AFFINITY PREDICTED BY RF-SCORE:    0.00 PKD
ROOT
HETATM    1  C   UNL     1     -10.854  13.608  68.673  1.00  0.00    -0.283 C  
HETATM    2  C   UNL     1     -10.293  12.730  67.564  1.00  0.00    -0.219 C  
ENDROOT
BRANCH   2   3
HETATM    3  C   UNL     1      -8.769  12.667  67.658  1.00  0.00    -0.179 C  
BRANCH   3   4
HETATM    4  C   UNL     1      -8.248  11.486  68.485  1.00  0.00    -0.148 C  
BRANCH   4   5
HETATM    5  N   UNL     1      -6.966  10.851  68.088  1.00  0.00    -0.068 NA 
BRANCH   5   6
HETATM    6  C   UNL     1      -5.960  10.967  69.166  1.00  0.00    -0.043 C  
BRANCH   6   7
HETATM    7  C   UNL     1      -6.415  10.548  70.577  1.00  0.00    -0.071 C  
BRANCH   7   8
HETATM    8  C   UNL     1      -6.073   9.105  70.939  1.00  0.00    -0.054 C  
HETATM    9  C   UNL     1      -7.030   8.574  72.002  1.00  0.00    -0.102 C  
ENDBRANCH   7   8
ENDBRANCH   6   7
ENDBRANCH   5   6
BRANCH   5  10
HETATM   10  C   UNL     1      -7.188   9.422  67.736  1.00  0.00    -0.083 C  
BRANCH  10  11
HETATM   11  C   UNL     1      -8.287   9.254  66.689  1.00  0.00    -0.122 C  
BRANCH  11  12
HETATM   12  C   UNL     1      -9.672   8.952  67.279  1.00  0.00    -0.181 C  
HETATM   13  H   UNL     1     -11.445   8.444  66.602  1.00  0.00     0.000 HD 
HETATM   14  O   UNL     1     -10.588   8.630  66.237  1.00  0.00     0.013 OA 
BRANCH  12  15
HETATM   15  C   UNL     1      -9.653   7.814  68.302  1.00  0.00    -0.162 A  
HETATM   16  C   UNL     1      -9.254   6.500  67.957  1.00  0.00    -0.111 A  
HETATM   17  C   UNL     1      -8.674   6.206  66.702  1.00  0.00    -0.124 A  
HETATM   18  C   UNL     1      -8.334   4.908  66.323  1.00  0.00    -0.111 A  
HETATM   19  C   UNL     1      -8.558   3.853  67.198  1.00  0.00    -0.109 A  
HETATM   20  C   UNL     1      -8.239   2.431  66.812  1.00  0.00    -0.085 C  
HETATM   21  C   UNL     1      -9.096   4.135  68.465  1.00  0.00    -0.182 A  
HETATM   22  F   UNL     1      -9.341   1.631  66.837  1.00  0.00    -0.130 F  
HETATM   23  C   UNL     1      -9.449   5.443  68.893  1.00  0.00    -0.174 A  
HETATM   24  F   UNL     1      -7.339   1.852  67.654  1.00  0.00    -0.050 F  
HETATM   25  F   UNL     1      -7.716   2.307  65.560  1.00  0.00    -0.068 F  
HETATM   26  C   UNL     1      -9.994   5.720  70.203  1.00  0.00    -0.258 A  
HETATM   27  C   UNL     1     -10.243   4.725  71.185  1.00  0.00    -0.229 A  
HETATM   28  C   UNL     1     -10.784   5.023  72.438  1.00  0.00    -0.200 A  
HETATM   29  C   UNL     1     -11.095   6.325  72.776  1.00  0.00    -0.284 A  
HETATM   30 CL   UNL     1     -11.076   3.759  73.568  1.00  0.00    -0.333 Cl 
HETATM   31  C   UNL     1     -10.860   7.333  71.848  1.00  0.00    -0.226 A  
HETATM   32  C   UNL     1     -10.315   7.050  70.563  1.00  0.00    -0.218 A  
HETATM   33 CL   UNL     1     -11.301   8.942  72.341  1.00  0.00    -0.290 Cl 
HETATM   34  C   UNL     1     -10.108   8.057  69.611  1.00  0.00    -0.198 A  
ENDBRANCH  12  15
ENDBRANCH  11  12
ENDBRANCH  10  11
ENDBRANCH   5  10
ENDBRANCH   4   5
ENDBRANCH   3   4
ENDBRANCH   2   3
TORSDOF 10
ENDMDL
MODEL      185
REMARK 921   NORMALIZED FREE ENERGY PREDICTED BY IDOCK:   -2.04 KCAL/MOL
REMARK 922        TOTAL FREE ENERGY PREDICTED BY IDOCK:   -5.73 KCAL/MOL
REMARK 923 INTER-LIGAND FREE ENERGY PREDICTED BY IDOCK:   -6.21 KCAL/MOL
REMARK 924 INTRA-LIGAND FREE ENERGY PREDICTED BY IDOCK:    0.49 KCAL/MOL
REMARK 927      BINDING AFFINITY PREDICTED BY RF-SCORE:    0.00 PKD
ROOT
HETATM    1  C   UNL     1     -13.842  10.303  71.877  1.00  0.00    -0.006 C  
HETATM    2  C   UNL     1     -13.573   8.907  72.419  1.00  0.00    -0.500 C  
ENDROOT
BRANCH   2   3
HETATM    3  C   UNL     1     -13.277   7.941  71.272  1.00  0.00    -0.211 C  
BRANCH   3   4
HETATM    4  C   UNL     1     -11.951   7.187  71.426  1.00  0.00    -0.328 C  
BRANCH   4   5
HETATM    5  N   UNL     1     -10.857   7.823  72.201  1.00  0.00    -0.240 NA 
BRANCH   5   6
HETATM    6  C   UNL     1     -10.396   6.939  73.294  1.00  0.00    -0.287 C  
BRANCH   6   7
HETATM    7  C   UNL     1      -8.940   6.442  73.206  1.00  0.00    -0.134 C  
BRANCH   7   8
HETATM    8  C   UNL     1      -8.473   5.661  74.431  1.00  0.00    -0.108 C  
HETATM    9  C   UNL     1      -6.951   5.545  74.449  1.00  0.00    -0.078 C  
ENDBRANCH   7   8
ENDBRANCH   6   7
ENDBRANCH   5   6
BRANCH   5  10
HETATM   10  C   UNL     1      -9.724   8.170  71.300  1.00  0.00    -0.164 C  
BRANCH  10  11
HETATM   11  C   UNL     1     -10.009   9.426  70.480  1.00  0.00    -0.328 C  
BRANCH  11  12
HETATM   12  C   UNL     1     -11.004   9.211  69.332  1.00  0.00    -0.092 C  
HETATM   13  H   UNL     1     -12.188  10.321  68.225  1.00  0.00     0.000 HD 
HETATM   14  O   UNL     1     -11.572  10.455  68.935  1.00  0.00    -0.225 OA 
BRANCH  12  15
HETATM   15  C   UNL     1     -10.376   8.532  68.112  1.00  0.00    -0.258 A  
HETATM   16  C   UNL     1     -10.070   7.151  68.096  1.00  0.00    -0.195 A  
HETATM   17  C   UNL     1     -10.495   6.284  69.129  1.00  0.00    -0.291 A  
HETATM   18  C   UNL     1     -10.148   4.934  69.160  1.00  0.00    -0.229 A  
HETATM   19  C   UNL     1      -9.363   4.400  68.146  1.00  0.00    -0.195 A  
HETATM   20  C   UNL     1      -8.935   2.955  68.163  1.00  0.00    -0.151 C  
HETATM   21  C   UNL     1      -8.967   5.239  67.091  1.00  0.00    -0.112 A  
HETATM   22  F   UNL     1      -7.580   2.818  68.186  1.00  0.00    -0.054 F  
HETATM   23  C   UNL     1      -9.306   6.617  67.017  1.00  0.00    -0.160 A  
HETATM   24  F   UNL     1      -9.360   2.273  67.064  1.00  0.00    -0.165 F  
HETATM   25  F   UNL     1      -9.398   2.258  69.238  1.00  0.00    -0.159 F  
HETATM   26  C   UNL     1      -8.898   7.468  65.922  1.00  0.00    -0.157 A  
HETATM   27  C   UNL     1      -8.117   7.025  64.822  1.00  0.00    -0.096 A  
HETATM   28  C   UNL     1      -7.727   7.876  63.785  1.00  0.00    -0.135 A  
HETATM   29  C   UNL     1      -8.103   9.203  63.788  1.00  0.00    -0.156 A  
HETATM   30 CL   UNL     1      -6.762   7.269  62.496  1.00  0.00    -0.063 Cl 
HETATM   31  C   UNL     1      -8.877   9.678  64.841  1.00  0.00    -0.199 A  
HETATM   32  C   UNL     1      -9.279   8.830  65.911  1.00  0.00    -0.282 A  
HETATM   33 CL   UNL     1      -9.288  11.368  64.784  1.00  0.00    -0.170 Cl 
HETATM   34  C   UNL     1     -10.029   9.311  66.993  1.00  0.00    -0.286 A  
ENDBRANCH  12  15
ENDBRANCH  11  12
ENDBRANCH  10  11
ENDBRANCH   5  10
ENDBRANCH   4   5
ENDBRANCH   3   4
ENDBRANCH   2   3
TORSDOF 10
ENDMDL
MODEL      186
REMARK 921   NORMALIZED FREE ENERGY PREDICTED BY IDOCK:   -1.99 KCAL/MOL
REMARK 922        TOTAL FREE ENERGY PREDICTED BY IDOCK:   -5.64 KCAL/MOL
REMARK 923 INTER-LIGAND FREE ENERGY PREDICTED BY IDOCK:   -4.69 KCAL/MOL
REMARK 924 INTRA-LIGAND FREE ENERGY PREDICTED BY IDOCK:   -0.95 KCAL/MOL
REMARK 927      BINDING AFFINITY PREDICTED BY RF-SCORE:    0.00 PKD
ROOT
HETATM    1  C   UNL     1     -12.079  10.106  68.120  1.00  0.00     1.582 C  
HETATM    2  C   UNL     1     -10.775  10.096  68.904  1.00  0.00    -0.249 C  
ENDROOT
BRANCH   2   3
HETATM    3  C   UNL     1      -9.809   9.070  68.314  1.00  0.00    -0.186 C  
BRANCH   3   4
HETATM    4  C   UNL     1      -8.390   9.155  68.886  1.00  0.00    -0.124 C  
BRANCH   4   5
HETATM    5  N   UNL     1      -7.709   7.899  69.289  1.00  0.00    -0.098 NA 
BRANCH   5   6
HETATM    6  C   UNL     1      -7.324   7.100  68.106  1.00  0.00    -0.097 C  
BRANCH   6   7
HETATM    7  C   UNL     1      -8.141   5.819  67.849  1.00  0.00    -0.098 C  
BRANCH   7   8
HETATM    8  C   UNL     1      -8.479   5.579  66.380  1.00  0.00    -0.119 C  
HETATM    9  C   UNL     1      -8.016   4.193  65.939  1.00  0.00    -0.094 C  
ENDBRANCH   7   8
ENDBRANCH   6   7
ENDBRANCH   5   6
BRANCH   5  10
HETATM   10  C   UNL     1      -6.513   8.207  70.120  1.00  0.00    -0.036 C  
BRANCH  10  11
HETATM   11  C   UNL     1      -6.880   8.965  71.394  1.00  0.00    -0.086 C  
BRANCH  11  12
HETATM   12  C   UNL     1      -6.961   8.082  72.646  1.00  0.00    -0.088 C  
HETATM   13  H   UNL     1      -7.138   8.345  74.586  1.00  0.00     0.000 HD 
HETATM   14  O   UNL     1      -7.089   8.892  73.810  1.00  0.00    -0.363 OA 
BRANCH  12  15
HETATM   15  C   UNL     1      -8.118   7.080  72.601  1.00  0.00    -0.115 A  
HETATM   16  C   UNL     1      -9.456   7.488  72.389  1.00  0.00    -0.202 A  
HETATM   17  C   UNL     1      -9.779   8.814  72.023  1.00  0.00    -0.370 A  
HETATM   18  C   UNL     1     -11.095   9.247  71.871  1.00  0.00    -0.308 A  
HETATM   19  C   UNL     1     -12.142   8.359  72.077  1.00  0.00    -0.417 A  
HETATM   20  C   UNL     1     -13.580   8.796  71.961  1.00  0.00    -0.427 C  
HETATM   21  C   UNL     1     -11.836   7.026  72.402  1.00  0.00    -0.215 A  
HETATM   22  F   UNL     1     -14.267   8.624  73.123  1.00  0.00    -0.270 F  
HETATM   23  C   UNL     1     -10.509   6.542  72.557  1.00  0.00    -0.229 A  
HETATM   24  F   UNL     1     -14.263   8.095  71.015  1.00  0.00    -0.330 F  
HETATM   25  F   UNL     1     -13.727  10.110  71.632  1.00  0.00    -0.356 F  
HETATM   26  C   UNL     1     -10.209   5.167  72.885  1.00  0.00    -0.220 A  
HETATM   27  C   UNL     1     -11.195   4.167  73.093  1.00  0.00    -0.244 A  
HETATM   28  C   UNL     1     -10.873   2.848  73.422  1.00  0.00    -0.199 A  
HETATM   29  C   UNL     1      -9.555   2.459  73.549  1.00  0.00    -0.120 A  
HETATM   30 CL   UNL     1     -12.126   1.698  73.680  1.00  0.00    -0.288 Cl 
HETATM   31  C   UNL     1      -8.555   3.404  73.345  1.00  0.00    -0.078 A  
HETATM   32  C   UNL     1      -8.862   4.754  73.016  1.00  0.00    -0.112 A  
HETATM   33 CL   UNL     1      -6.921   2.840  73.548  1.00  0.00    -0.034 Cl 
HETATM   34  C   UNL     1      -7.859   5.718  72.842  1.00  0.00    -0.104 A  
ENDBRANCH  12  15
ENDBRANCH  11  12
ENDBRANCH  10  11
ENDBRANCH   5  10
ENDBRANCH   4   5
ENDBRANCH   3   4
ENDBRANCH   2   3
TORSDOF 10
ENDMDL
MODEL      187
REMARK 921   NORMALIZED FREE ENERGY PREDICTED BY IDOCK:   -1.97 KCAL/MOL
REMARK 922        TOTAL FREE ENERGY PREDICTED BY IDOCK:   -5.62 KCAL/MOL
REMARK 923 INTER-LIGAND FREE ENERGY PREDICTED BY IDOCK:   -5.81 KCAL/MOL
REMARK 924 INTRA-LIGAND FREE ENERGY PREDICTED BY IDOCK:    0.19 KCAL/MOL
REMARK 927      BINDING AFFINITY PREDICTED BY RF-SCORE:    0.00 PKD
ROOT
HETATM    1  C   UNL     1     -10.939   4.907  65.750  1.00  0.00    -0.006 C  
HETATM    2  C   UNL     1     -10.124   5.222  66.995  1.00  0.00    -0.243 C  
ENDROOT
BRANCH   2   3
HETATM    3  C   UNL     1     -10.755   6.383  67.762  1.00  0.00    -0.377 C  
BRANCH   3   4
HETATM    4  C   UNL     1     -10.079   7.735  67.505  1.00  0.00    -0.209 C  
BRANCH   4   5
HETATM    5  N   UNL     1      -9.288   8.353  68.599  1.00  0.00    -0.143 NA 
BRANCH   5   6
HETATM    6  C   UNL     1      -9.631   7.755  69.907  1.00  0.00    -0.164 C  
BRANCH   6   7
HETATM    7  C   UNL     1      -8.808   6.524  70.335  1.00  0.00    -0.151 C  
BRANCH   7   8
HETATM    8  C   UNL     1      -9.601   5.489  71.128  1.00  0.00    -0.207 C  
HETATM    9  C   UNL     1      -8.792   4.989  72.322  1.00  0.00    -0.135 C  
ENDBRANCH   7   8
ENDBRANCH   6   7
ENDBRANCH   5   6
BRANCH   5  10
HETATM   10  C   UNL     1      -7.832   8.207  68.325  1.00  0.00    -0.122 C  
BRANCH  10  11
HETATM   11  C   UNL     1      -7.143   9.559  68.157  1.00  0.00    -0.079 C  
BRANCH  11  12
HETATM   12  C   UNL     1      -7.784  10.694  68.967  1.00  0.00    -0.130 C  
HETATM   13  H   UNL     1      -7.302  11.815  70.507  1.00  0.00     0.000 HD 
HETATM   14  O   UNL     1      -6.904  11.113  70.005  1.00  0.00    -0.126 OA 
BRANCH  12  15
HETATM   15  C   UNL     1      -8.163  11.904  68.109  1.00  0.00    -0.158 A  
HETATM   16  C   UNL     1      -7.679  13.204  68.389  1.00  0.00    -0.138 A  
HETATM   17  C   UNL     1      -6.675  13.430  69.359  1.00  0.00    -0.037 A  
HETATM   18  C   UNL     1      -6.232  14.709  69.690  1.00  0.00    -0.133 A  
HETATM   19  C   UNL     1      -6.779  15.815  69.054  1.00  0.00    -0.143 A  
HETATM   20  C   UNL     1      -6.355  17.217  69.410  1.00  0.00    -0.238 C  
HETATM   21  C   UNL     1      -7.749  15.605  68.058  1.00  0.00    -0.133 A  
HETATM   22  F   UNL     1      -7.395  17.970  69.864  1.00  0.00     0.154 F  
HETATM   23  C   UNL     1      -8.221  14.317  67.684  1.00  0.00    -0.193 A  
HETATM   24  F   UNL     1      -5.842  17.893  68.346  1.00  0.00    -0.161 F  
HETATM   25  F   UNL     1      -5.403  17.270  70.383  1.00  0.00    -0.191 F  
HETATM   26  C   UNL     1      -9.214  14.115  66.654  1.00  0.00    -0.272 A  
HETATM   27  C   UNL     1      -9.823  15.168  65.921  1.00  0.00    -0.372 A  
HETATM   28  C   UNL     1     -10.791  14.940  64.940  1.00  0.00    -0.413 A  
HETATM   29  C   UNL     1     -11.190  13.655  64.633  1.00  0.00    -0.383 A  
HETATM   30 CL   UNL     1     -11.498  16.270  64.108  1.00  0.00    -0.156 Cl 
HETATM   31  C   UNL     1     -10.613  12.592  65.320  1.00  0.00    -0.291 A  
HETATM   32  C   UNL     1      -9.631  12.803  66.329  1.00  0.00    -0.242 A  
HETATM   33 CL   UNL     1     -11.189  11.007  64.894  1.00  0.00    -0.033 Cl 
HETATM   34  C   UNL     1      -9.071  11.738  67.048  1.00  0.00    -0.187 A  
ENDBRANCH  12  15
ENDBRANCH  11  12
ENDBRANCH  10  11
ENDBRANCH   5  10
ENDBRANCH   4   5
ENDBRANCH   3   4
ENDBRANCH   2   3
TORSDOF 10
ENDMDL
MODEL      188
REMARK 921   NORMALIZED FREE ENERGY PREDICTED BY IDOCK:   -1.93 KCAL/MOL
REMARK 922        TOTAL FREE ENERGY PREDICTED BY IDOCK:   -5.56 KCAL/MOL
REMARK 923 INTER-LIGAND FREE ENERGY PREDICTED BY IDOCK:   -5.17 KCAL/MOL
REMARK 924 INTRA-LIGAND FREE ENERGY PREDICTED BY IDOCK:   -0.39 KCAL/MOL
REMARK 927      BINDING AFFINITY PREDICTED BY RF-SCORE:    0.00 PKD
ROOT
HETATM    1  C   UNL     1     -12.046  13.094  63.707  1.00  0.00    -0.563 C  
HETATM    2  C   UNL     1     -11.340  11.749  63.621  1.00  0.00    -0.525 C  
ENDROOT
BRANCH   2   3
HETATM    3  C   UNL     1     -10.185  11.692  64.619  1.00  0.00    -0.327 C  
BRANCH   3   4
HETATM    4  C   UNL     1     -10.555  11.037  65.956  1.00  0.00    -0.213 C  
BRANCH   4   5
HETATM    5  N   UNL     1     -10.076  11.668  67.212  1.00  0.00    -0.198 NA 
BRANCH   5   6
HETATM    6  C   UNL     1     -11.205  12.220  67.993  1.00  0.00    -0.269 C  
BRANCH   6   7
HETATM    7  C   UNL     1     -11.218  13.748  68.192  1.00  0.00    -0.298 C  
BRANCH   7   8
HETATM    8  C   UNL     1     -11.821  14.198  69.520  1.00  0.00    -0.373 C  
HETATM    9  C   UNL     1     -11.675  15.707  69.695  1.00  0.00    -0.373 C  
ENDBRANCH   7   8
ENDBRANCH   6   7
ENDBRANCH   5   6
BRANCH   5  10
HETATM   10  C   UNL     1      -9.316  10.680  68.025  1.00  0.00    -0.147 C  
BRANCH  10  11
HETATM   11  C   UNL     1      -7.823  11.000  68.066  1.00  0.00    -0.112 C  
BRANCH  11  12
HETATM   12  C   UNL     1      -6.932   9.909  67.456  1.00  0.00    -0.083 C  
HETATM   13  H   UNL     1      -5.017   9.474  67.409  1.00  0.00     0.000 HD 
HETATM   14  O   UNL     1      -5.568  10.149  67.787  1.00  0.00    -0.042 OA 
BRANCH  12  15
HETATM   15  C   UNL     1      -7.319   8.498  67.906  1.00  0.00    -0.093 A  
HETATM   16  C   UNL     1      -7.205   8.082  69.254  1.00  0.00    -0.076 A  
HETATM   17  C   UNL     1      -6.906   8.996  70.291  1.00  0.00    -0.049 A  
HETATM   18  C   UNL     1      -6.729   8.593  71.613  1.00  0.00    -0.084 A  
HETATM   19  C   UNL     1      -6.851   7.251  71.947  1.00  0.00    -0.059 A  
HETATM   20  C   UNL     1      -6.630   6.769  73.358  1.00  0.00    -0.067 C  
HETATM   21  C   UNL     1      -7.188   6.335  70.935  1.00  0.00    -0.071 A  
HETATM   22  F   UNL     1      -5.612   5.868  73.442  1.00  0.00    -0.031 F  
HETATM   23  C   UNL     1      -7.386   6.706  69.578  1.00  0.00    -0.091 A  
HETATM   24  F   UNL     1      -7.724   6.144  73.873  1.00  0.00    -0.094 F  
HETATM   25  F   UNL     1      -6.319   7.765  74.235  1.00  0.00    -0.083 F  
HETATM   26  C   UNL     1      -7.739   5.755  68.548  1.00  0.00    -0.093 A  
HETATM   27  C   UNL     1      -7.914   4.365  68.779  1.00  0.00    -0.073 A  
HETATM   28  C   UNL     1      -8.242   3.469  67.759  1.00  0.00    -0.084 A  
HETATM   29  C   UNL     1      -8.421   3.913  66.465  1.00  0.00    -0.105 A  
HETATM   30 CL   UNL     1      -8.417   1.794  68.113  1.00  0.00    -0.077 Cl 
HETATM   31  C   UNL     1      -8.268   5.269  66.195  1.00  0.00    -0.110 A  
HETATM   32  C   UNL     1      -7.927   6.198  67.218  1.00  0.00    -0.102 A  
HETATM   33 CL   UNL     1      -8.486   5.745  64.536  1.00  0.00    -0.091 Cl 
HETATM   34  C   UNL     1      -7.739   7.560  66.946  1.00  0.00    -0.110 A  
ENDBRANCH  12  15
ENDBRANCH  11  12
ENDBRANCH  10  11
ENDBRANCH   5  10
ENDBRANCH   4   5
ENDBRANCH   3   4
ENDBRANCH   2   3
TORSDOF 10
ENDMDL
MODEL      189
REMARK 921   NORMALIZED FREE ENERGY PREDICTED BY IDOCK:   -1.93 KCAL/MOL
REMARK 922        TOTAL FREE ENERGY PREDICTED BY IDOCK:   -5.55 KCAL/MOL
REMARK 923 INTER-LIGAND FREE ENERGY PREDICTED BY IDOCK:   -5.34 KCAL/MOL
REMARK 924 INTRA-LIGAND FREE ENERGY PREDICTED BY IDOCK:   -0.20 KCAL/MOL
REMARK 927      BINDING AFFINITY PREDICTED BY RF-SCORE:    0.00 PKD
ROOT
HETATM    1  C   UNL     1     -13.377  14.697  72.887  1.00  0.00    -0.585 C  
HETATM    2  C   UNL     1     -12.746  15.656  71.889  1.00  0.00    -0.513 C  
ENDROOT
BRANCH   2   3
HETATM    3  C   UNL     1     -11.412  15.101  71.391  1.00  0.00    -0.405 C  
BRANCH   3   4
HETATM    4  C   UNL     1     -10.801  15.902  70.236  1.00  0.00    -0.340 C  
BRANCH   4   5
HETATM    5  N   UNL     1     -11.359  15.722  68.873  1.00  0.00    -0.333 NA 
BRANCH   5   6
HETATM    6  C   UNL     1     -11.030  16.876  68.008  1.00  0.00    -0.271 C  
BRANCH   6   7
HETATM    7  C   UNL     1      -9.932  17.827  68.521  1.00  0.00    -0.370 C  
BRANCH   7   8
HETATM    8  C   UNL     1     -10.273  19.308  68.378  1.00  0.00    -0.503 C  
HETATM    9  C   UNL     1      -9.738  19.860  67.060  1.00  0.00    -0.529 C  
ENDBRANCH   7   8
ENDBRANCH   6   7
ENDBRANCH   5   6
BRANCH   5  10
HETATM   10  C   UNL     1     -10.849  14.460  68.271  1.00  0.00    -0.242 C  
BRANCH  10  11
HETATM   11  C   UNL     1     -11.321  14.281  66.830  1.00  0.00    -0.357 C  
BRANCH  11  12
HETATM   12  C   UNL     1     -10.191  13.988  65.833  1.00  0.00    -0.320 C  
HETATM   13  H   UNL     1      -8.851  15.019  64.832  1.00  0.00     0.000 HD 
HETATM   14  O   UNL     1      -9.550  15.200  65.450  1.00  0.00    -0.270 OA 
BRANCH  12  15
HETATM   15  C   UNL     1      -9.144  13.016  66.382  1.00  0.00    -0.073 A  
HETATM   16  C   UNL     1      -8.812  11.814  65.714  1.00  0.00     0.059 A  
HETATM   17  C   UNL     1      -9.288  11.532  64.413  1.00  0.00    -0.023 A  
HETATM   18  C   UNL     1      -9.022  10.326  63.766  1.00  0.00    -0.260 A  
HETATM   19  C   UNL     1      -8.259   9.356  64.402  1.00  0.00    -0.147 A  
HETATM   20  C   UNL     1      -7.980   8.025  63.752  1.00  0.00    -0.123 C  
HETATM   21  C   UNL     1      -7.743   9.638  65.679  1.00  0.00    -0.107 A  
HETATM   22  F   UNL     1      -8.458   6.982  64.487  1.00  0.00    -0.084 F  
HETATM   23  C   UNL     1      -7.984  10.857  66.369  1.00  0.00    -0.157 A  
HETATM   24  F   UNL     1      -6.648   7.790  63.595  1.00  0.00    -0.059 F  
HETATM   25  F   UNL     1      -8.533   7.893  62.514  1.00  0.00    -0.163 F  
HETATM   26  C   UNL     1      -7.441  11.137  67.679  1.00  0.00    -0.100 A  
HETATM   27  C   UNL     1      -6.629  10.231  68.412  1.00  0.00    -0.056 A  
HETATM   28  C   UNL     1      -6.131  10.526  69.683  1.00  0.00    -0.056 A  
HETATM   29  C   UNL     1      -6.409  11.738  70.281  1.00  0.00     0.052 A  
HETATM   30 CL   UNL     1      -5.170   9.368  70.517  1.00  0.00    -0.030 Cl 
HETATM   31  C   UNL     1      -7.193  12.659  69.596  1.00  0.00     0.523 A  
HETATM   32  C   UNL     1      -7.716  12.376  68.303  1.00  0.00    -0.140 A  
HETATM   33 CL   UNL     1      -7.518  14.152  70.428  1.00  0.00     0.827 Cl 
HETATM   34  C   UNL     1      -8.536  13.287  67.622  1.00  0.00    -0.191 A  
ENDBRANCH  12  15
ENDBRANCH  11  12
ENDBRANCH  10  11
ENDBRANCH   5  10
ENDBRANCH   4   5
ENDBRANCH   3   4
ENDBRANCH   2   3
TORSDOF 10
ENDMDL
MODEL      190
REMARK 921   NORMALIZED FREE ENERGY PREDICTED BY IDOCK:   -1.84 KCAL/MOL
REMARK 922        TOTAL FREE ENERGY PREDICTED BY IDOCK:   -5.41 KCAL/MOL
REMARK 923 INTER-LIGAND FREE ENERGY PREDICTED BY IDOCK:   -4.79 KCAL/MOL
REMARK 924 INTRA-LIGAND FREE ENERGY PREDICTED BY IDOCK:   -0.62 KCAL/MOL
REMARK 927      BINDING AFFINITY PREDICTED BY RF-SCORE:    0.00 PKD
ROOT
HETATM    1  C   UNL     1      -7.477   3.448  73.199  1.00  0.00    -0.056 C  
HETATM    2  C   UNL     1      -6.816   3.657  71.845  1.00  0.00    -0.023 C  
ENDROOT
BRANCH   2   3
HETATM    3  C   UNL     1      -6.297   5.089  71.725  1.00  0.00    -0.031 C  
BRANCH   3   4
HETATM    4  C   UNL     1      -7.143   5.979  70.806  1.00  0.00    -0.068 C  
BRANCH   4   5
HETATM    5  N   UNL     1      -6.469   6.697  69.695  1.00  0.00    -0.042 NA 
BRANCH   5   6
HETATM    6  C   UNL     1      -6.149   5.776  68.583  1.00  0.00    -0.025 C  
BRANCH   6   7
HETATM    7  C   UNL     1      -7.018   5.902  67.317  1.00  0.00    -0.069 C  
BRANCH   7   8
HETATM    8  C   UNL     1      -8.075   4.810  67.175  1.00  0.00    -0.102 C  
HETATM    9  C   UNL     1      -7.941   4.100  65.831  1.00  0.00    -0.094 C  
ENDBRANCH   7   8
ENDBRANCH   6   7
ENDBRANCH   5   6
BRANCH   5  10
HETATM   10  C   UNL     1      -7.325   7.816  69.213  1.00  0.00    -0.087 C  
BRANCH  10  11
HETATM   11  C   UNL     1      -8.654   7.883  69.962  1.00  0.00    -0.135 C  
BRANCH  11  12
HETATM   12  C   UNL     1      -9.886   7.917  69.048  1.00  0.00    -0.171 C  
HETATM   13  H   UNL     1     -11.833   7.737  69.246  1.00  0.00     0.000 HD 
HETATM   14  O   UNL     1     -11.070   7.717  69.813  1.00  0.00    -0.212 OA 
BRANCH  12  15
HETATM   15  C   UNL     1     -10.012   9.222  68.258  1.00  0.00    -0.196 A  
HETATM   16  C   UNL     1      -9.296   9.446  67.058  1.00  0.00    -0.185 A  
HETATM   17  C   UNL     1      -8.572   8.412  66.422  1.00  0.00    -0.139 A  
HETATM   18  C   UNL     1      -7.812   8.630  65.274  1.00  0.00    -0.107 A  
HETATM   19  C   UNL     1      -7.754   9.900  64.716  1.00  0.00    -0.138 A  
HETATM   20  C   UNL     1      -6.914  10.186  63.498  1.00  0.00    -0.116 C  
HETATM   21  C   UNL     1      -8.501  10.930  65.313  1.00  0.00    -0.060 A  
HETATM   22  F   UNL     1      -5.958  11.126  63.739  1.00  0.00     0.081 F  
HETATM   23  C   UNL     1      -9.296  10.747  66.477  1.00  0.00    -0.192 A  
HETATM   24  F   UNL     1      -7.650  10.663  62.457  1.00  0.00    -0.143 F  
HETATM   25  F   UNL     1      -6.252   9.095  63.020  1.00  0.00    -0.089 F  
HETATM   26  C   UNL     1     -10.065  11.814  67.077  1.00  0.00    -0.232 A  
HETATM   27  C   UNL     1     -10.101  13.143  66.579  1.00  0.00    -0.280 A  
HETATM   28  C   UNL     1     -10.845  14.156  67.190  1.00  0.00    -0.290 A  
HETATM   29  C   UNL     1     -11.594  13.892  68.318  1.00  0.00    -0.372 A  
HETATM   30 CL   UNL     1     -10.822  15.748  66.539  1.00  0.00    -0.276 Cl 
HETATM   31  C   UNL     1     -11.595  12.601  68.836  1.00  0.00    -0.317 A  
HETATM   32  C   UNL     1     -10.839  11.557  68.233  1.00  0.00    -0.257 A  
HETATM   33 CL   UNL     1     -12.545  12.357  70.273  1.00  0.00    -0.100 Cl 
HETATM   34  C   UNL     1     -10.810  10.263  68.769  1.00  0.00    -0.265 A  
ENDBRANCH  12  15
ENDBRANCH  11  12
ENDBRANCH  10  11
ENDBRANCH   5  10
ENDBRANCH   4   5
ENDBRANCH   3   4
ENDBRANCH   2   3
TORSDOF 10
ENDMDL
MODEL      191
REMARK 921   NORMALIZED FREE ENERGY PREDICTED BY IDOCK:   -1.82 KCAL/MOL
REMARK 922        TOTAL FREE ENERGY PREDICTED BY IDOCK:   -5.38 KCAL/MOL
REMARK 923 INTER-LIGAND FREE ENERGY PREDICTED BY IDOCK:   -5.32 KCAL/MOL
REMARK 924 INTRA-LIGAND FREE ENERGY PREDICTED BY IDOCK:   -0.06 KCAL/MOL
REMARK 927      BINDING AFFINITY PREDICTED BY RF-SCORE:    0.00 PKD
ROOT
HETATM    1  C   UNL     1     -11.566  13.279  64.319  1.00  0.00    -0.444 C  
HETATM    2  C   UNL     1     -10.843  11.952  64.145  1.00  0.00    -0.412 C  
ENDROOT
BRANCH   2   3
HETATM    3  C   UNL     1      -9.711  11.828  65.164  1.00  0.00    -0.228 C  
BRANCH   3   4
HETATM    4  C   UNL     1     -10.102  11.058  66.431  1.00  0.00    -0.229 C  
BRANCH   4   5
HETATM    5  N   UNL     1      -9.756  11.641  67.752  1.00  0.00    -0.170 NA 
BRANCH   5   6
HETATM    6  C   UNL     1     -10.974  12.011  68.505  1.00  0.00    -0.240 C  
BRANCH   6   7
HETATM    7  C   UNL     1     -11.202  11.279  69.841  1.00  0.00    -0.264 C  
BRANCH   7   8
HETATM    8  C   UNL     1     -12.249  11.932  70.739  1.00  0.00    -0.401 C  
HETATM    9  C   UNL     1     -13.223  10.889  71.280  1.00  0.00    -0.287 C  
ENDBRANCH   7   8
ENDBRANCH   6   7
ENDBRANCH   5   6
BRANCH   5  10
HETATM   10  C   UNL     1      -8.931  10.681  68.536  1.00  0.00    -0.156 C  
BRANCH  10  11
HETATM   11  C   UNL     1      -7.455  11.072  68.547  1.00  0.00    -0.106 C  
BRANCH  11  12
HETATM   12  C   UNL     1      -6.522  10.011  67.949  1.00  0.00    -0.059 C  
HETATM   13  H   UNL     1      -4.933   9.004  68.518  1.00  0.00     0.000 HD 
HETATM   14  O   UNL     1      -5.510   9.662  68.889  1.00  0.00    -0.037 OA 
BRANCH  12  15
HETATM   15  C   UNL     1      -7.259   8.744  67.508  1.00  0.00    -0.080 A  
HETATM   16  C   UNL     1      -7.759   7.803  68.440  1.00  0.00    -0.119 A  
HETATM   17  C   UNL     1      -7.772   8.069  69.828  1.00  0.00    -0.101 A  
HETATM   18  C   UNL     1      -8.202   7.129  70.764  1.00  0.00    -0.120 A  
HETATM   19  C   UNL     1      -8.644   5.884  70.337  1.00  0.00    -0.135 A  
HETATM   20  C   UNL     1      -9.082   4.827  71.319  1.00  0.00    -0.138 C  
HETATM   21  C   UNL     1      -8.675   5.619  68.957  1.00  0.00    -0.104 A  
HETATM   22  F   UNL     1      -8.328   3.696  71.230  1.00  0.00    -0.064 F  
HETATM   23  C   UNL     1      -8.254   6.552  67.971  1.00  0.00    -0.116 A  
HETATM   24  F   UNL     1     -10.370   4.432  71.120  1.00  0.00    -0.248 F  
HETATM   25  F   UNL     1      -9.008   5.223  72.620  1.00  0.00    -0.129 F  
HETATM   26  C   UNL     1      -8.298   6.269  66.554  1.00  0.00    -0.114 A  
HETATM   27  C   UNL     1      -8.753   5.042  66.004  1.00  0.00    -0.127 A  
HETATM   28  C   UNL     1      -8.771   4.794  64.629  1.00  0.00    -0.153 A  
HETATM   29  C   UNL     1      -8.347   5.758  63.737  1.00  0.00    -0.019 A  
HETATM   30 CL   UNL     1      -9.317   3.273  64.039  1.00  0.00    -0.122 Cl 
HETATM   31  C   UNL     1      -7.902   6.979  64.232  1.00  0.00    -0.111 A  
HETATM   32  C   UNL     1      -7.869   7.249  65.629  1.00  0.00    -0.112 A  
HETATM   33 CL   UNL     1      -7.362   8.131  63.045  1.00  0.00    -0.097 Cl 
HETATM   34  C   UNL     1      -7.389   8.465  66.135  1.00  0.00    -0.084 A  
ENDBRANCH  12  15
ENDBRANCH  11  12
ENDBRANCH  10  11
ENDBRANCH   5  10
ENDBRANCH   4   5
ENDBRANCH   3   4
ENDBRANCH   2   3
TORSDOF 10
ENDMDL
MODEL      192
REMARK 921   NORMALIZED FREE ENERGY PREDICTED BY IDOCK:   -1.70 KCAL/MOL
REMARK 922        TOTAL FREE ENERGY PREDICTED BY IDOCK:   -5.19 KCAL/MOL
REMARK 923 INTER-LIGAND FREE ENERGY PREDICTED BY IDOCK:   -4.33 KCAL/MOL
REMARK 924 INTRA-LIGAND FREE ENERGY PREDICTED BY IDOCK:   -0.86 KCAL/MOL
REMARK 927      BINDING AFFINITY PREDICTED BY RF-SCORE:    0.00 PKD
ROOT
HETATM    1  C   UNL     1     -10.478   8.669  66.788  1.00  0.00    -0.298 C  
HETATM    2  C   UNL     1     -10.931   9.010  68.200  1.00  0.00     0.015 C  
ENDROOT
BRANCH   2   3
HETATM    3  C   UNL     1     -10.417  10.392  68.602  1.00  0.00    -0.216 C  
BRANCH   3   4
HETATM    4  C   UNL     1      -9.597  10.394  69.897  1.00  0.00     0.069 C  
BRANCH   4   5
HETATM    5  N   UNL     1      -8.129  10.598  69.809  1.00  0.00     0.022 NA 
BRANCH   5   6
HETATM    6  C   UNL     1      -7.522   9.673  68.827  1.00  0.00    -0.075 C  
BRANCH   6   7
HETATM    7  C   UNL     1      -6.977   8.344  69.384  1.00  0.00    -0.050 C  
BRANCH   7   8
HETATM    8  C   UNL     1      -8.040   7.263  69.570  1.00  0.00    -0.129 C  
HETATM    9  C   UNL     1      -7.395   5.883  69.664  1.00  0.00    -0.075 C  
ENDBRANCH   7   8
ENDBRANCH   6   7
ENDBRANCH   5   6
BRANCH   5  10
HETATM   10  C   UNL     1      -7.828  12.010  69.448  1.00  0.00     0.564 C  
BRANCH  10  11
HETATM   11  C   UNL     1      -6.326  12.271  69.364  1.00  0.00    -0.118 C  
BRANCH  11  12
HETATM   12  C   UNL     1      -5.911  13.168  68.189  1.00  0.00    -0.104 C  
HETATM   13  H   UNL     1      -4.954  12.959  66.486  1.00  0.00     0.000 HD 
HETATM   14  O   UNL     1      -5.210  12.404  67.213  1.00  0.00    -0.177 OA 
BRANCH  12  15
HETATM   15  C   UNL     1      -7.097  13.870  67.523  1.00  0.00    -0.175 A  
HETATM   16  C   UNL     1      -7.379  15.239  67.741  1.00  0.00    -0.181 A  
HETATM   17  C   UNL     1      -6.479  16.081  68.435  1.00  0.00    -0.120 A  
HETATM   18  C   UNL     1      -6.769  17.415  68.713  1.00  0.00    -0.219 A  
HETATM   19  C   UNL     1      -7.976  17.960  68.298  1.00  0.00    -0.292 A  
HETATM   20  C   UNL     1      -8.344  19.388  68.611  1.00  0.00    -0.362 C  
HETATM   21  C   UNL     1      -8.864  17.148  67.571  1.00  0.00    -0.218 A  
HETATM   22  F   UNL     1      -9.482  19.476  69.354  1.00  0.00    -0.395 F  
HETATM   23  C   UNL     1      -8.603  15.786  67.259  1.00  0.00    -0.209 A  
HETATM   24  F   UNL     1      -8.573  20.125  67.490  1.00  0.00    -0.345 F  
HETATM   25  F   UNL     1      -7.388  20.058  69.312  1.00  0.00    -0.336 F  
HETATM   26  C   UNL     1      -9.522  14.964  66.504  1.00  0.00    -0.307 A  
HETATM   27  C   UNL     1     -10.772  15.421  66.009  1.00  0.00    -0.326 A  
HETATM   28  C   UNL     1     -11.644  14.597  65.294  1.00  0.00    -0.354 A  
HETATM   29  C   UNL     1     -11.311  13.284  65.030  1.00  0.00    -0.326 A  
HETATM   30 CL   UNL     1     -13.152  15.218  64.743  1.00  0.00     0.758 Cl 
HETATM   31  C   UNL     1     -10.092  12.797  65.489  1.00  0.00    -0.264 A  
HETATM   32  C   UNL     1      -9.192  13.617  66.225  1.00  0.00    -0.080 A  
HETATM   33 CL   UNL     1      -9.758  11.126  65.136  1.00  0.00    -0.277 Cl 
HETATM   34  C   UNL     1      -7.977  13.122  66.719  1.00  0.00     0.272 A  
ENDBRANCH  12  15
ENDBRANCH  11  12
ENDBRANCH  10  11
ENDBRANCH   5  10
ENDBRANCH   4   5
ENDBRANCH   3   4
ENDBRANCH   2   3
TORSDOF 10
ENDMDL
MODEL      193
REMARK 921   NORMALIZED FREE ENERGY PREDICTED BY IDOCK:   -1.68 KCAL/MOL
REMARK 922        TOTAL FREE ENERGY PREDICTED BY IDOCK:   -5.16 KCAL/MOL
REMARK 923 INTER-LIGAND FREE ENERGY PREDICTED BY IDOCK:   -4.08 KCAL/MOL
REMARK 924 INTRA-LIGAND FREE ENERGY PREDICTED BY IDOCK:   -1.08 KCAL/MOL
REMARK 927      BINDING AFFINITY PREDICTED BY RF-SCORE:    0.00 PKD
ROOT
HETATM    1  C   UNL     1     -14.244  13.965  72.230  1.00  0.00    -0.584 C  
HETATM    2  C   UNL     1     -13.315  15.089  72.661  1.00  0.00    -0.556 C  
ENDROOT
BRANCH   2   3
HETATM    3  C   UNL     1     -12.759  15.817  71.438  1.00  0.00    -0.509 C  
BRANCH   3   4
HETATM    4  C   UNL     1     -11.321  15.419  71.082  1.00  0.00    -0.378 C  
BRANCH   4   5
HETATM    5  N   UNL     1     -10.931  15.372  69.651  1.00  0.00    -0.263 NA 
BRANCH   5   6
HETATM    6  C   UNL     1      -9.859  16.348  69.360  1.00  0.00    -0.186 C  
BRANCH   6   7
HETATM    7  C   UNL     1      -9.982  17.129  68.037  1.00  0.00    -0.295 C  
BRANCH   7   8
HETATM    8  C   UNL     1     -10.888  18.355  68.119  1.00  0.00    -0.081 C  
HETATM    9  C   UNL     1     -10.737  19.049  69.470  1.00  0.00     1.197 C  
ENDBRANCH   7   8
ENDBRANCH   6   7
ENDBRANCH   5   6
BRANCH   5  10
HETATM   10  C   UNL     1     -10.496  13.997  69.281  1.00  0.00    -0.017 C  
BRANCH  10  11
HETATM   11  C   UNL     1     -11.004  12.951  70.272  1.00  0.00     1.091 C  
BRANCH  11  12
HETATM   12  C   UNL     1     -11.731  11.770  69.616  1.00  0.00    -0.344 C  
HETATM   13  H   UNL     1     -13.483  11.435  68.792  1.00  0.00     0.000 HD 
HETATM   14  O   UNL     1     -13.033  12.167  69.198  1.00  0.00     0.858 OA 
BRANCH  12  15
HETATM   15  C   UNL     1     -10.974  11.187  68.421  1.00  0.00    -0.277 A  
HETATM   16  C   UNL     1      -9.902  10.277  68.581  1.00  0.00    -0.180 A  
HETATM   17  C   UNL     1      -9.591   9.711  69.839  1.00  0.00    -0.260 A  
HETATM   18  C   UNL     1      -8.501   8.863  70.027  1.00  0.00    -0.141 A  
HETATM   19  C   UNL     1      -7.682   8.544  68.952  1.00  0.00    -0.100 A  
HETATM   20  C   UNL     1      -6.472   7.661  69.120  1.00  0.00    -0.040 C  
HETATM   21  C   UNL     1      -8.002   9.066  67.687  1.00  0.00    -0.101 A  
HETATM   22  F   UNL     1      -5.318   8.296  68.776  1.00  0.00    -0.031 F  
HETATM   23  C   UNL     1      -9.108   9.927  67.451  1.00  0.00    -0.147 A  
HETATM   24  F   UNL     1      -6.529   6.545  68.343  1.00  0.00    -0.040 F  
HETATM   25  F   UNL     1      -6.289   7.220  70.396  1.00  0.00    -0.032 F  
HETATM   26  C   UNL     1      -9.429  10.451  66.143  1.00  0.00    -0.227 A  
HETATM   27  C   UNL     1      -8.678  10.173  64.970  1.00  0.00    -0.190 A  
HETATM   28  C   UNL     1      -9.007  10.707  63.722  1.00  0.00    -0.197 A  
HETATM   29  C   UNL     1     -10.103  11.533  63.579  1.00  0.00    -0.446 A  
HETATM   30 CL   UNL     1      -8.036  10.340  62.350  1.00  0.00    -0.154 Cl 
HETATM   31  C   UNL     1     -10.873  11.824  64.700  1.00  0.00    -0.307 A  
HETATM   32  C   UNL     1     -10.551  11.297  65.982  1.00  0.00    -0.314 A  
HETATM   33 CL   UNL     1     -12.222  12.893  64.441  1.00  0.00    -0.463 Cl 
HETATM   34  C   UNL     1     -11.304  11.615  67.121  1.00  0.00    -0.373 A  
ENDBRANCH  12  15
ENDBRANCH  11  12
ENDBRANCH  10  11
ENDBRANCH   5  10
ENDBRANCH   4   5
ENDBRANCH   3   4
ENDBRANCH   2   3
TORSDOF 10
ENDMDL
MODEL      194
REMARK 921   NORMALIZED FREE ENERGY PREDICTED BY IDOCK:   -1.63 KCAL/MOL
REMARK 922        TOTAL FREE ENERGY PREDICTED BY IDOCK:   -5.08 KCAL/MOL
REMARK 923 INTER-LIGAND FREE ENERGY PREDICTED BY IDOCK:   -6.03 KCAL/MOL
REMARK 924 INTRA-LIGAND FREE ENERGY PREDICTED BY IDOCK:    0.95 KCAL/MOL
REMARK 927      BINDING AFFINITY PREDICTED BY RF-SCORE:    0.00 PKD
ROOT
HETATM    1  C   UNL     1      -5.243   5.602  65.185  1.00  0.00    -0.009 C  
HETATM    2  C   UNL     1      -6.246   6.737  65.043  1.00  0.00    -0.039 C  
ENDROOT
BRANCH   2   3
HETATM    3  C   UNL     1      -7.650   6.179  64.814  1.00  0.00    -0.092 C  
BRANCH   3   4
HETATM    4  C   UNL     1      -8.719   6.803  65.719  1.00  0.00    -0.110 C  
BRANCH   4   5
HETATM    5  N   UNL     1      -8.665   8.264  65.978  1.00  0.00    -0.147 NA 
BRANCH   5   6
HETATM    6  C   UNL     1      -8.246   9.003  64.768  1.00  0.00    -0.160 C  
BRANCH   6   7
HETATM    7  C   UNL     1      -7.330  10.222  64.993  1.00  0.00    -0.117 C  
BRANCH   7   8
HETATM    8  C   UNL     1      -6.291  10.431  63.894  1.00  0.00    -0.043 C  
HETATM    9  C   UNL     1      -6.112   9.158  63.071  1.00  0.00    -0.090 C  
ENDBRANCH   7   8
ENDBRANCH   6   7
ENDBRANCH   5   6
BRANCH   5  10
HETATM   10  C   UNL     1      -9.990   8.750  66.452  1.00  0.00    -0.275 C  
BRANCH  10  11
HETATM   11  C   UNL     1     -10.391   8.114  67.781  1.00  0.00    -0.295 C  
BRANCH  11  12
HETATM   12  C   UNL     1      -9.832   8.836  69.015  1.00  0.00    -0.181 C  
HETATM   13  H   UNL     1      -8.086   9.494  69.630  1.00  0.00     0.000 HD 
HETATM   14  O   UNL     1      -8.432   9.047  68.866  1.00  0.00    -0.126 OA 
BRANCH  12  15
HETATM   15  C   UNL     1     -10.518  10.177  69.287  1.00  0.00    -0.246 A  
HETATM   16  C   UNL     1     -10.075  11.382  68.691  1.00  0.00    -0.217 A  
HETATM   17  C   UNL     1      -9.096  11.389  67.670  1.00  0.00    -0.155 A  
HETATM   18  C   UNL     1      -8.604  12.570  67.118  1.00  0.00    -0.200 A  
HETATM   19  C   UNL     1      -9.082  13.794  67.566  1.00  0.00    -0.209 A  
HETATM   20  C   UNL     1      -8.548  15.094  67.021  1.00  0.00    -0.237 C  
HETATM   21  C   UNL     1     -10.084  13.802  68.552  1.00  0.00    -0.225 A  
HETATM   22  F   UNL     1      -7.986  15.868  67.991  1.00  0.00    -0.131 F  
HETATM   23  C   UNL     1     -10.619  12.622  69.135  1.00  0.00     0.008 A  
HETATM   24  F   UNL     1      -9.520  15.858  66.451  1.00  0.00    -0.236 F  
HETATM   25  F   UNL     1      -7.588  14.935  66.068  1.00  0.00     0.949 F  
HETATM   26  C   UNL     1     -11.655  12.644  70.142  1.00  0.00    -0.141 A  
HETATM   27  C   UNL     1     -12.235  13.834  70.657  1.00  0.00    -0.434 A  
HETATM   28  C   UNL     1     -13.226  13.823  71.642  1.00  0.00    -0.371 A  
HETATM   29  C   UNL     1     -13.694  12.630  72.152  1.00  0.00    -0.406 A  
HETATM   30 CL   UNL     1     -13.865  15.308  72.231  1.00  0.00    -0.575 Cl 
HETATM   31  C   UNL     1     -13.161  11.439  71.670  1.00  0.00    -0.393 A  
HETATM   32  C   UNL     1     -12.146  11.428  70.672  1.00  0.00    -0.469 A  
HETATM   33 CL   UNL     1     -13.786   9.980  72.383  1.00  0.00    -0.266 Cl 
HETATM   34  C   UNL     1     -11.581  10.233  70.207  1.00  0.00    -0.396 A  
ENDBRANCH  12  15
ENDBRANCH  11  12
ENDBRANCH  10  11
ENDBRANCH   5  10
ENDBRANCH   4   5
ENDBRANCH   3   4
ENDBRANCH   2   3
TORSDOF 10
ENDMDL
MODEL      195
REMARK 921   NORMALIZED FREE ENERGY PREDICTED BY IDOCK:   -0.82 KCAL/MOL
REMARK 922        TOTAL FREE ENERGY PREDICTED BY IDOCK:   -3.80 KCAL/MOL
REMARK 923 INTER-LIGAND FREE ENERGY PREDICTED BY IDOCK:   -2.82 KCAL/MOL
REMARK 924 INTRA-LIGAND FREE ENERGY PREDICTED BY IDOCK:   -0.98 KCAL/MOL
REMARK 927      BINDING AFFINITY PREDICTED BY RF-SCORE:    0.00 PKD
ROOT
HETATM    1  C   UNL     1     -12.185   6.077  72.273  1.00  0.00    -0.125 C  
HETATM    2  C   UNL     1     -10.782   5.756  72.765  1.00  0.00    -0.278 C  
ENDROOT
BRANCH   2   3
HETATM    3  C   UNL     1      -9.744   6.206  71.738  1.00  0.00    -0.171 C  
BRANCH   3   4
HETATM    4  C   UNL     1     -10.330   7.032  70.587  1.00  0.00    -0.207 C  
BRANCH   4   5
HETATM    5  N   UNL     1      -9.669   8.310  70.220  1.00  0.00    -0.174 NA 
BRANCH   5   6
HETATM    6  C   UNL     1     -10.461   9.470  70.681  1.00  0.00    -0.308 C  
BRANCH   6   7
HETATM    7  C   UNL     1     -10.709  10.585  69.647  1.00  0.00    -0.302 C  
BRANCH   7   8
HETATM    8  C   UNL     1     -11.828  11.551  70.027  1.00  0.00    -0.435 C  
HETATM    9  C   UNL     1     -11.366  12.998  69.879  1.00  0.00    -0.037 C  
ENDBRANCH   7   8
ENDBRANCH   6   7
ENDBRANCH   5   6
BRANCH   5  10
HETATM   10  C   UNL     1      -8.294   8.358  70.789  1.00  0.00    -0.130 C  
BRANCH  10  11
HETATM   11  C   UNL     1      -7.246   8.685  69.728  1.00  0.00    -0.051 C  
BRANCH  11  12
HETATM   12  C   UNL     1      -6.571  10.051  69.916  1.00  0.00    -0.089 C  
HETATM   13  H   UNL     1      -4.749  10.781  69.822  1.00  0.00     0.000 HD 
HETATM   14  O   UNL     1      -5.167   9.936  69.706  1.00  0.00    -0.037 OA 
BRANCH  12  15
HETATM   15  C   UNL     1      -7.132  11.130  68.987  1.00  0.00    -0.113 A  
HETATM   16  C   UNL     1      -7.607  10.830  67.687  1.00  0.00    -0.096 A  
HETATM   17  C   UNL     1      -7.764   9.497  67.244  1.00  0.00    -0.091 A  
HETATM   18  C   UNL     1      -8.170   9.185  65.948  1.00  0.00    -0.113 A  
HETATM   19  C   UNL     1      -8.442  10.205  65.046  1.00  0.00    -0.169 A  
HETATM   20  C   UNL     1      -8.847   9.910  63.624  1.00  0.00    -0.237 C  
HETATM   21  C   UNL     1      -8.330  11.536  65.484  1.00  0.00     0.339 A  
HETATM   22  F   UNL     1      -7.974  10.434  62.719  1.00  0.00    -0.139 F  
HETATM   23  C   UNL     1      -7.927  11.897  66.798  1.00  0.00    -0.087 A  
HETATM   24  F   UNL     1     -10.065  10.431  63.311  1.00  0.00    -0.342 F  
HETATM   25  F   UNL     1      -8.924   8.580  63.341  1.00  0.00    -0.023 F  
HETATM   26  C   UNL     1      -7.823  13.270  67.238  1.00  0.00    -0.118 A  
HETATM   27  C   UNL     1      -8.099  14.391  66.411  1.00  0.00     0.857 A  
HETATM   28  C   UNL     1      -7.976  15.707  66.862  1.00  0.00    -0.243 A  
HETATM   29  C   UNL     1      -7.582  15.970  68.158  1.00  0.00    -0.139 A  
HETATM   30 CL   UNL     1      -8.308  17.014  65.793  1.00  0.00     0.016 Cl 
HETATM   31  C   UNL     1      -7.311  14.902  69.006  1.00  0.00    -0.143 A  
HETATM   32  C   UNL     1      -7.423  13.553  68.564  1.00  0.00    -0.122 A  
HETATM   33 CL   UNL     1      -6.796  15.318  70.615  1.00  0.00     0.321 Cl 
HETATM   34  C   UNL     1      -7.117  12.474  69.404  1.00  0.00     0.172 A  
ENDBRANCH  12  15
ENDBRANCH  11  12
ENDBRANCH  10  11
ENDBRANCH   5  10
ENDBRANCH   4   5
ENDBRANCH   3   4
ENDBRANCH   2   3
TORSDOF 10
ENDMDL
MODEL      196
REMARK 921   NORMALIZED FREE ENERGY PREDICTED BY IDOCK:   -0.75 KCAL/MOL
REMARK 922        TOTAL FREE ENERGY PREDICTED BY IDOCK:   -3.69 KCAL/MOL
REMARK 923 INTER-LIGAND FREE ENERGY PREDICTED BY IDOCK:   -4.99 KCAL/MOL
REMARK 924 INTRA-LIGAND FREE ENERGY PREDICTED BY IDOCK:    1.30 KCAL/MOL
REMARK 927      BINDING AFFINITY PREDICTED BY RF-SCORE:    0.00 PKD
ROOT
HETATM    1  C   UNL     1     -12.452  12.023  63.609  1.00  0.00    -0.637 C  
HETATM    2  C   UNL     1     -11.927  13.291  64.266  1.00  0.00    -0.477 C  
ENDROOT
BRANCH   2   3
HETATM    3  C   UNL     1     -11.799  13.093  65.776  1.00  0.00    -0.442 C  
BRANCH   3   4
HETATM    4  C   UNL     1     -11.042  11.820  66.171  1.00  0.00    -0.307 C  
BRANCH   4   5
HETATM    5  N   UNL     1      -9.586  11.744  65.895  1.00  0.00    -0.229 NA 
BRANCH   5   6
HETATM    6  C   UNL     1      -8.802  11.864  67.143  1.00  0.00    -0.180 C  
BRANCH   6   7
HETATM    7  C   UNL     1      -7.993  13.163  67.322  1.00  0.00    -0.140 C  
BRANCH   7   8
HETATM    8  C   UNL     1      -6.622  12.961  67.964  1.00  0.00    -0.107 C  
HETATM    9  C   UNL     1      -6.664  11.822  68.978  1.00  0.00    -0.102 C  
ENDBRANCH   7   8
ENDBRANCH   6   7
ENDBRANCH   5   6
BRANCH   5  10
HETATM   10  C   UNL     1      -9.260  10.471  65.197  1.00  0.00    -0.205 C  
BRANCH  10  11
HETATM   11  C   UNL     1      -9.793   9.253  65.949  1.00  0.00    -0.335 C  
BRANCH  11  12
HETATM   12  C   UNL     1      -9.613   9.330  67.471  1.00  0.00    -0.149 C  
HETATM   13  H   UNL     1     -10.768   9.328  69.060  1.00  0.00     0.000 HD 
HETATM   14  O   UNL     1     -10.880   9.280  68.118  1.00  0.00    -0.188 OA 
BRANCH  12  15
HETATM   15  C   UNL     1      -8.721   8.217  68.026  1.00  0.00    -0.128 A  
HETATM   16  C   UNL     1      -8.443   7.039  67.291  1.00  0.00    -0.121 A  
HETATM   17  C   UNL     1      -8.818   6.906  65.934  1.00  0.00    -0.125 A  
HETATM   18  C   UNL     1      -8.609   5.731  65.214  1.00  0.00    -0.129 A  
HETATM   19  C   UNL     1      -8.006   4.643  65.831  1.00  0.00    -0.099 A  
HETATM   20  C   UNL     1      -7.795   3.342  65.099  1.00  0.00    -0.082 C  
HETATM   21  C   UNL     1      -7.590   4.774  67.167  1.00  0.00    -0.087 A  
HETATM   22  F   UNL     1      -8.439   2.302  65.699  1.00  0.00    -0.083 F  
HETATM   23  C   UNL     1      -7.777   5.956  67.933  1.00  0.00    -0.100 A  
HETATM   24  F   UNL     1      -6.483   2.983  65.039  1.00  0.00    -0.030 F  
HETATM   25  F   UNL     1      -8.238   3.360  63.810  1.00  0.00    -0.085 F  
HETATM   26  C   UNL     1      -7.337   6.080  69.304  1.00  0.00    -0.083 A  
HETATM   27  C   UNL     1      -6.689   5.043  70.026  1.00  0.00    -0.037 A  
HETATM   28  C   UNL     1      -6.289   5.189  71.357  1.00  0.00    -0.030 A  
HETATM   29  C   UNL     1      -6.505   6.375  72.028  1.00  0.00    -0.054 A  
HETATM   30 CL   UNL     1      -5.527   3.879  72.171  1.00  0.00     0.000 Cl 
HETATM   31  C   UNL     1      -7.128   7.421  71.356  1.00  0.00    -0.063 A  
HETATM   32  C   UNL     1      -7.551   7.291  70.003  1.00  0.00    -0.090 A  
HETATM   33 CL   UNL     1      -7.386   8.873  72.279  1.00  0.00     0.050 Cl 
HETATM   34  C   UNL     1      -8.210   8.330  69.332  1.00  0.00    -0.117 A  
ENDBRANCH  12  15
ENDBRANCH  11  12
ENDBRANCH  10  11
ENDBRANCH   5  10
ENDBRANCH   4   5
ENDBRANCH   3   4
ENDBRANCH   2   3
TORSDOF 10
ENDMDL
MODEL      197
REMARK 921   NORMALIZED FREE ENERGY PREDICTED BY IDOCK:   -0.70 KCAL/MOL
REMARK 922        TOTAL FREE ENERGY PREDICTED BY IDOCK:   -3.61 KCAL/MOL
REMARK 923 INTER-LIGAND FREE ENERGY PREDICTED BY IDOCK:   -4.16 KCAL/MOL
REMARK 924 INTRA-LIGAND FREE ENERGY PREDICTED BY IDOCK:    0.54 KCAL/MOL
REMARK 927      BINDING AFFINITY PREDICTED BY RF-SCORE:    0.00 PKD
ROOT
HETATM    1  C   UNL     1      -7.147   7.953  72.773  1.00  0.00    -0.098 C  
HETATM    2  C   UNL     1      -6.567   6.828  73.618  1.00  0.00    -0.068 C  
ENDROOT
BRANCH   2   3
HETATM    3  C   UNL     1      -7.689   6.014  74.259  1.00  0.00    -0.096 C  
BRANCH   3   4
HETATM    4  C   UNL     1      -8.931   5.865  73.373  1.00  0.00    -0.129 C  
BRANCH   4   5
HETATM    5  N   UNL     1      -8.799   5.149  72.079  1.00  0.00    -0.129 NA 
BRANCH   5   6
HETATM    6  C   UNL     1      -8.585   3.701  72.292  1.00  0.00    -0.085 C  
BRANCH   6   7
HETATM    7  C   UNL     1      -9.707   2.764  71.806  1.00  0.00    -0.225 C  
BRANCH   7   8
HETATM    8  C   UNL     1     -10.422   2.014  72.927  1.00  0.00    -0.232 C  
HETATM    9  C   UNL     1     -11.485   2.896  73.574  1.00  0.00    -0.196 C  
ENDBRANCH   7   8
ENDBRANCH   6   7
ENDBRANCH   5   6
BRANCH   5  10
HETATM   10  C   UNL     1     -10.007   5.379  71.240  1.00  0.00    -0.193 C  
BRANCH  10  11
HETATM   11  C   UNL     1      -9.755   6.411  70.143  1.00  0.00    -0.185 C  
BRANCH  11  12
HETATM   12  C   UNL     1      -8.328   6.389  69.579  1.00  0.00    -0.126 C  
HETATM   13  H   UNL     1      -6.602   5.579  70.056  1.00  0.00     0.000 HD 
HETATM   14  O   UNL     1      -7.486   5.592  70.406  1.00  0.00    -0.076 OA 
BRANCH  12  15
HETATM   15  C   UNL     1      -8.260   5.869  68.141  1.00  0.00    -0.109 A  
HETATM   16  C   UNL     1      -8.031   6.729  67.041  1.00  0.00    -0.109 A  
HETATM   17  C   UNL     1      -7.669   8.084  67.221  1.00  0.00    -0.101 A  
HETATM   18  C   UNL     1      -7.502   8.960  66.149  1.00  0.00    -0.090 A  
HETATM   19  C   UNL     1      -7.687   8.505  64.851  1.00  0.00    -0.105 A  
HETATM   20  C   UNL     1      -7.553   9.429  63.667  1.00  0.00    -0.116 C  
HETATM   21  C   UNL     1      -8.008   7.151  64.653  1.00  0.00    -0.114 A  
HETATM   22  F   UNL     1      -8.705   9.513  62.945  1.00  0.00    -0.172 F  
HETATM   23  C   UNL     1      -8.179   6.223  65.717  1.00  0.00    -0.136 A  
HETATM   24  F   UNL     1      -6.594   9.020  62.792  1.00  0.00    -0.095 F  
HETATM   25  F   UNL     1      -7.231  10.709  64.005  1.00  0.00    -0.071 F  
HETATM   26  C   UNL     1      -8.501   4.831  65.499  1.00  0.00    -0.127 A  
HETATM   27  C   UNL     1      -8.689   4.251  64.217  1.00  0.00    -0.136 A  
HETATM   28  C   UNL     1      -9.014   2.904  64.040  1.00  0.00    -0.103 A  
HETATM   29  C   UNL     1      -9.157   2.069  65.129  1.00  0.00    -0.116 A  
HETATM   30 CL   UNL     1      -9.247   2.279  62.454  1.00  0.00    -0.080 Cl 
HETATM   31  C   UNL     1      -8.973   2.592  66.404  1.00  0.00    -0.139 A  
HETATM   32  C   UNL     1      -8.649   3.964  66.606  1.00  0.00    -0.111 A  
HETATM   33 CL   UNL     1      -9.196   1.481  67.724  1.00  0.00    -0.183 Cl 
HETATM   34  C   UNL     1      -8.496   4.504  67.890  1.00  0.00    -0.104 A  
ENDBRANCH  12  15
ENDBRANCH  11  12
ENDBRANCH  10  11
ENDBRANCH   5  10
ENDBRANCH   4   5
ENDBRANCH   3   4
ENDBRANCH   2   3
TORSDOF 10
ENDMDL
MODEL      198
REMARK 921   NORMALIZED FREE ENERGY PREDICTED BY IDOCK:   -0.63 KCAL/MOL
REMARK 922        TOTAL FREE ENERGY PREDICTED BY IDOCK:   -3.50 KCAL/MOL
REMARK 923 INTER-LIGAND FREE ENERGY PREDICTED BY IDOCK:   -4.56 KCAL/MOL
REMARK 924 INTRA-LIGAND FREE ENERGY PREDICTED BY IDOCK:    1.06 KCAL/MOL
REMARK 927      BINDING AFFINITY PREDICTED BY RF-SCORE:    0.00 PKD
ROOT
HETATM    1  C   UNL     1      -9.284  19.703  69.360  1.00  0.00     0.063 C  
HETATM    2  C   UNL     1     -10.518  20.441  68.863  1.00  0.00     0.089 C  
ENDROOT
BRANCH   2   3
HETATM    3  C   UNL     1     -10.988  19.853  67.533  1.00  0.00    -0.206 C  
BRANCH   3   4
HETATM    4  C   UNL     1     -10.025  20.110  66.368  1.00  0.00    -0.448 C  
BRANCH   4   5
HETATM    5  N   UNL     1      -9.177  18.991  65.886  1.00  0.00    -0.411 NA 
BRANCH   5   6
HETATM    6  C   UNL     1      -7.741  19.313  66.028  1.00  0.00    -0.277 C  
BRANCH   6   7
HETATM    7  C   UNL     1      -6.755  18.387  65.288  1.00  0.00    -0.063 C  
BRANCH   7   8
HETATM    8  C   UNL     1      -5.675  19.127  64.504  1.00  0.00    -0.319 C  
HETATM    9  C   UNL     1      -6.181  20.491  64.043  1.00  0.00    -0.303 C  
ENDBRANCH   7   8
ENDBRANCH   6   7
ENDBRANCH   5   6
BRANCH   5  10
HETATM   10  C   UNL     1      -9.506  17.742  66.626  1.00  0.00    -0.292 C  
BRANCH  10  11
HETATM   11  C   UNL     1     -10.882  17.198  66.247  1.00  0.00     0.048 C  
BRANCH  11  12
HETATM   12  C   UNL     1     -10.844  15.829  65.555  1.00  0.00    -0.332 C  
HETATM   13  H   UNL     1     -10.671  15.146  63.721  1.00  0.00     0.000 HD 
HETATM   14  O   UNL     1     -10.694  15.994  64.149  1.00  0.00    -0.169 OA 
BRANCH  12  15
HETATM   15  C   UNL     1      -9.727  14.923  66.078  1.00  0.00    -0.358 A  
HETATM   16  C   UNL     1      -9.509  13.624  65.560  1.00  0.00     0.154 A  
HETATM   17  C   UNL     1     -10.186  13.161  64.408  1.00  0.00    -0.319 A  
HETATM   18  C   UNL     1     -10.029  11.864  63.922  1.00  0.00    -0.354 A  
HETATM   19  C   UNL     1      -9.178  10.981  64.573  1.00  0.00    -0.185 A  
HETATM   20  C   UNL     1      -9.010   9.559  64.102  1.00  0.00    -0.198 C  
HETATM   21  C   UNL     1      -8.467  11.439  65.696  1.00  0.00     0.109 A  
HETATM   22  F   UNL     1      -9.370   8.654  65.054  1.00  0.00    -0.157 F  
HETATM   23  C   UNL     1      -8.591  12.755  66.218  1.00  0.00     0.317 A  
HETATM   24  F   UNL     1      -7.721   9.266  63.777  1.00  0.00    -0.105 F  
HETATM   25  F   UNL     1      -9.752   9.256  63.000  1.00  0.00     0.180 F  
HETATM   26  C   UNL     1      -7.848  13.215  67.369  1.00  0.00    -0.169 A  
HETATM   27  C   UNL     1      -6.933  12.409  68.097  1.00  0.00    -0.087 A  
HETATM   28  C   UNL     1      -6.240  12.879  69.215  1.00  0.00    -0.104 A  
HETATM   29  C   UNL     1      -6.415  14.176  69.655  1.00  0.00    -0.134 A  
HETATM   30 CL   UNL     1      -5.163  11.835  70.058  1.00  0.00    -0.074 Cl 
HETATM   31  C   UNL     1      -7.295  15.004  68.966  1.00  0.00    -0.151 A  
HETATM   32  C   UNL     1      -8.017  14.542  67.829  1.00  0.00    -0.168 A  
HETATM   33 CL   UNL     1      -7.479  16.614  69.598  1.00  0.00     0.100 Cl 
HETATM   34  C   UNL     1      -8.930  15.361  67.152  1.00  0.00    -0.236 A  
ENDBRANCH  12  15
ENDBRANCH  11  12
ENDBRANCH  10  11
ENDBRANCH   5  10
ENDBRANCH   4   5
ENDBRANCH   3   4
ENDBRANCH   2   3
TORSDOF 10
ENDMDL
MODEL      199
REMARK 921   NORMALIZED FREE ENERGY PREDICTED BY IDOCK:   -0.44 KCAL/MOL
REMARK 922        TOTAL FREE ENERGY PREDICTED BY IDOCK:   -3.19 KCAL/MOL
REMARK 923 INTER-LIGAND FREE ENERGY PREDICTED BY IDOCK:   -3.49 KCAL/MOL
REMARK 924 INTRA-LIGAND FREE ENERGY PREDICTED BY IDOCK:    0.30 KCAL/MOL
REMARK 927      BINDING AFFINITY PREDICTED BY RF-SCORE:    0.00 PKD
ROOT
HETATM    1  C   UNL     1      -8.128  15.356  67.038  1.00  0.00    -0.265 C  
HETATM    2  C   UNL     1      -9.246  14.722  66.224  1.00  0.00    -0.278 C  
ENDROOT
BRANCH   2   3
HETATM    3  C   UNL     1      -9.996  13.691  67.066  1.00  0.00    -0.248 C  
BRANCH   3   4
HETATM    4  C   UNL     1     -10.027  14.019  68.563  1.00  0.00    -0.230 C  
BRANCH   4   5
HETATM    5  N   UNL     1     -10.253  12.915  69.529  1.00  0.00     0.612 NA 
BRANCH   5   6
HETATM    6  C   UNL     1     -11.695  12.744  69.812  1.00  0.00    -0.282 C  
BRANCH   6   7
HETATM    7  C   UNL     1     -12.162  13.108  71.234  1.00  0.00    -0.073 C  
BRANCH   7   8
HETATM    8  C   UNL     1     -12.175  14.608  71.521  1.00  0.00    -0.416 C  
HETATM    9  C   UNL     1     -11.053  14.982  72.485  1.00  0.00     0.390 C  
ENDBRANCH   7   8
ENDBRANCH   6   7
ENDBRANCH   5   6
BRANCH   5  10
HETATM   10  C   UNL     1      -9.672  11.648  69.006  1.00  0.00     0.087 C  
BRANCH  10  11
HETATM   11  C   UNL     1     -10.721  10.545  68.884  1.00  0.00    -0.253 C  
BRANCH  11  12
HETATM   12  C   UNL     1     -10.692   9.799  67.543  1.00  0.00    -0.264 C  
HETATM   13  H   UNL     1     -10.212  10.203  65.680  1.00  0.00     0.000 HD 
HETATM   14  O   UNL     1     -10.230  10.665  66.511  1.00  0.00    -0.219 OA 
BRANCH  12  15
HETATM   15  C   UNL     1      -9.819   8.542  67.574  1.00  0.00    -0.231 A  
HETATM   16  C   UNL     1      -9.383   7.960  68.788  1.00  0.00    -0.146 A  
HETATM   17  C   UNL     1      -9.879   8.394  70.039  1.00  0.00    -0.182 A  
HETATM   18  C   UNL     1      -9.414   7.875  71.246  1.00  0.00    -0.184 A  
HETATM   19  C   UNL     1      -8.433   6.892  71.243  1.00  0.00    -0.120 A  
HETATM   20  C   UNL     1      -7.877   6.332  72.527  1.00  0.00    -0.102 C  
HETATM   21  C   UNL     1      -7.959   6.422  70.006  1.00  0.00    -0.112 A  
HETATM   22  F   UNL     1      -6.535   6.538  72.641  1.00  0.00    -0.055 F  
HETATM   23  C   UNL     1      -8.412   6.917  68.754  1.00  0.00    -0.121 A  
HETATM   24  F   UNL     1      -8.058   4.987  72.630  1.00  0.00    -0.101 F  
HETATM   25  F   UNL     1      -8.433   6.872  73.647  1.00  0.00    -0.127 F  
HETATM   26  C   UNL     1      -7.922   6.419  67.489  1.00  0.00    -0.116 A  
HETATM   27  C   UNL     1      -6.939   5.401  67.364  1.00  0.00    -0.065 A  
HETATM   28  C   UNL     1      -6.475   4.951  66.126  1.00  0.00    -0.044 A  
HETATM   29  C   UNL     1      -6.973   5.484  64.954  1.00  0.00    -0.053 A  
HETATM   30 CL   UNL     1      -5.267   3.728  66.057  1.00  0.00    -0.009 Cl 
HETATM   31  C   UNL     1      -7.943   6.477  65.029  1.00  0.00    -0.121 A  
HETATM   32  C   UNL     1      -8.424   6.955  66.280  1.00  0.00    -0.131 A  
HETATM   33 CL   UNL     1      -8.500   7.114  63.509  1.00  0.00     0.231 Cl 
HETATM   34  C   UNL     1      -9.377   7.980  66.362  1.00  0.00    -0.259 A  
ENDBRANCH  12  15
ENDBRANCH  11  12
ENDBRANCH  10  11
ENDBRANCH   5  10
ENDBRANCH   4   5
ENDBRANCH   3   4
ENDBRANCH   2   3
TORSDOF 10
ENDMDL
MODEL      200
REMARK 921   NORMALIZED FREE ENERGY PREDICTED BY IDOCK:   -0.41 KCAL/MOL
REMARK 922        TOTAL FREE ENERGY PREDICTED BY IDOCK:   -3.14 KCAL/MOL
REMARK 923 INTER-LIGAND FREE ENERGY PREDICTED BY IDOCK:   -3.32 KCAL/MOL
REMARK 924 INTRA-LIGAND FREE ENERGY PREDICTED BY IDOCK:    0.17 KCAL/MOL
REMARK 927      BINDING AFFINITY PREDICTED BY RF-SCORE:    0.00 PKD
ROOT
HETATM    1  C   UNL     1     -11.088   7.401  72.539  1.00  0.00    -0.350 C  
HETATM    2  C   UNL     1     -10.469   8.765  72.805  1.00  0.00     0.279 C  
ENDROOT
BRANCH   2   3
HETATM    3  C   UNL     1      -9.411   9.082  71.748  1.00  0.00    -0.245 C  
BRANCH   3   4
HETATM    4  C   UNL     1      -8.149   8.218  71.857  1.00  0.00    -0.141 C  
BRANCH   4   5
HETATM    5  N   UNL     1      -7.691   7.474  70.657  1.00  0.00    -0.089 NA 
BRANCH   5   6
HETATM    6  C   UNL     1      -8.811   7.234  69.721  1.00  0.00    -0.142 C  
BRANCH   6   7
HETATM    7  C   UNL     1      -9.543   5.886  69.860  1.00  0.00    -0.194 C  
BRANCH   7   8
HETATM    8  C   UNL     1      -9.511   5.026  68.599  1.00  0.00    -0.188 C  
HETATM    9  C   UNL     1      -8.128   5.064  67.955  1.00  0.00    -0.098 C  
ENDBRANCH   7   8
ENDBRANCH   6   7
ENDBRANCH   5   6
BRANCH   5  10
HETATM   10  C   UNL     1      -6.596   8.220  69.978  1.00  0.00    -0.039 C  
BRANCH  10  11
HETATM   11  C   UNL     1      -7.134   9.258  68.996  1.00  0.00    -0.067 C  
BRANCH  11  12
HETATM   12  C   UNL     1      -7.310  10.658  69.600  1.00  0.00    -0.130 C  
HETATM   13  H   UNL     1      -6.150  12.084  70.293  1.00  0.00     0.000 HD 
HETATM   14  O   UNL     1      -6.040  11.217  69.919  1.00  0.00    -0.097 OA 
BRANCH  12  15
HETATM   15  C   UNL     1      -8.066  11.618  68.678  1.00  0.00    -0.121 A  
HETATM   16  C   UNL     1      -8.418  11.266  67.353  1.00  0.00    -0.137 A  
HETATM   17  C   UNL     1      -8.259   9.948  66.868  1.00  0.00    -0.120 A  
HETATM   18  C   UNL     1      -8.542   9.599  65.548  1.00  0.00    -0.162 A  
HETATM   19  C   UNL     1      -9.004  10.564  64.664  1.00  0.00    -0.229 A  
HETATM   20  C   UNL     1      -9.285  10.236  63.219  1.00  0.00    -0.294 C  
HETATM   21  C   UNL     1      -9.206  11.870  65.141  1.00  0.00     0.133 A  
HETATM   22  F   UNL     1      -8.521  10.972  62.365  1.00  0.00    -0.237 F  
HETATM   23  C   UNL     1      -8.938  12.265  66.480  1.00  0.00    -0.161 A  
HETATM   24  F   UNL     1     -10.577  10.485  62.871  1.00  0.00    -0.127 F  
HETATM   25  F   UNL     1      -9.054   8.933  62.898  1.00  0.00    -0.171 F  
HETATM   26  C   UNL     1      -9.158  13.611  66.960  1.00  0.00    -0.254 A  
HETATM   27  C   UNL     1      -9.649  14.671  66.153  1.00  0.00    -0.336 A  
HETATM   28  C   UNL     1      -9.837  15.965  66.643  1.00  0.00    -0.254 A  
HETATM   29  C   UNL     1      -9.556  16.264  67.961  1.00  0.00    -0.224 A  
HETATM   30 CL   UNL     1     -10.416  17.202  65.597  1.00  0.00    -0.285 Cl 
HETATM   31  C   UNL     1      -9.082  15.253  68.790  1.00  0.00    -0.200 A  
HETATM   32  C   UNL     1      -8.876  13.930  68.309  1.00  0.00    -0.185 A  
HETATM   33 CL   UNL     1      -8.728  15.716  70.430  1.00  0.00     0.948 Cl 
HETATM   34  C   UNL     1      -8.366  12.916  69.131  1.00  0.00     0.601 A  
ENDBRANCH  12  15
ENDBRANCH  11  12
ENDBRANCH  10  11
ENDBRANCH   5  10
ENDBRANCH   4   5
ENDBRANCH   3   4
ENDBRANCH   2   3
TORSDOF 10
ENDMDL
MODEL      201
REMARK 921   NORMALIZED FREE ENERGY PREDICTED BY IDOCK:   -0.38 KCAL/MOL
REMARK 922        TOTAL FREE ENERGY PREDICTED BY IDOCK:   -3.09 KCAL/MOL
REMARK 923 INTER-LIGAND FREE ENERGY PREDICTED BY IDOCK:   -5.98 KCAL/MOL
REMARK 924 INTRA-LIGAND FREE ENERGY PREDICTED BY IDOCK:    2.89 KCAL/MOL
REMARK 927      BINDING AFFINITY PREDICTED BY RF-SCORE:    0.00 PKD
ROOT
HETATM    1  C   UNL     1     -10.421   6.256  70.248  1.00  0.00    -0.276 C  
HETATM    2  C   UNL     1      -9.858   5.786  68.914  1.00  0.00    -0.191 C  
ENDROOT
BRANCH   2   3
HETATM    3  C   UNL     1      -9.158   4.438  69.080  1.00  0.00    -0.180 C  
BRANCH   3   4
HETATM    4  C   UNL     1      -7.629   4.537  69.131  1.00  0.00    -0.056 C  
BRANCH   4   5
HETATM    5  N   UNL     1      -6.991   5.846  68.846  1.00  0.00    -0.066 NA 
BRANCH   5   6
HETATM    6  C   UNL     1      -6.326   5.837  67.525  1.00  0.00    -0.042 C  
BRANCH   6   7
HETATM    7  C   UNL     1      -6.193   4.466  66.834  1.00  0.00    -0.036 C  
BRANCH   7   8
HETATM    8  C   UNL     1      -6.889   4.381  65.478  1.00  0.00    -0.057 C  
HETATM    9  C   UNL     1      -5.869   4.431  64.344  1.00  0.00    -0.014 C  
ENDBRANCH   7   8
ENDBRANCH   6   7
ENDBRANCH   5   6
BRANCH   5  10
HETATM   10  C   UNL     1      -8.004   6.935  68.910  1.00  0.00    -0.116 C  
BRANCH  10  11
HETATM   11  C   UNL     1      -7.373   8.315  68.737  1.00  0.00    -0.088 C  
BRANCH  11  12
HETATM   12  C   UNL     1      -7.782   9.034  67.444  1.00  0.00    -0.092 C  
HETATM   13  H   UNL     1      -9.142   8.813  66.042  1.00  0.00     0.000 HD 
HETATM   14  O   UNL     1      -8.888   8.368  66.843  1.00  0.00    -0.135 OA 
BRANCH  12  15
HETATM   15  C   UNL     1      -8.140  10.506  67.664  1.00  0.00    -0.107 A  
HETATM   16  C   UNL     1      -9.212  11.128  66.982  1.00  0.00    -0.172 A  
HETATM   17  C   UNL     1     -10.129  10.384  66.204  1.00  0.00    -0.299 A  
HETATM   18  C   UNL     1     -11.152  10.988  65.476  1.00  0.00     0.001 A  
HETATM   19  C   UNL     1     -11.299  12.368  65.507  1.00  0.00    -0.387 A  
HETATM   20  C   UNL     1     -12.369  13.064  64.705  1.00  0.00    -0.422 C  
HETATM   21  C   UNL     1     -10.422  13.119  66.309  1.00  0.00    -0.291 A  
HETATM   22  F   UNL     1     -11.850  13.946  63.807  1.00  0.00    -0.420 F  
HETATM   23  C   UNL     1      -9.371  12.541  67.072  1.00  0.00    -0.210 A  
HETATM   24  F   UNL     1     -13.221  13.784  65.485  1.00  0.00    -0.515 F  
HETATM   25  F   UNL     1     -13.152  12.214  63.983  1.00  0.00    -0.533 F  
HETATM   26  C   UNL     1      -8.480  13.324  67.898  1.00  0.00    -0.177 A  
HETATM   27  C   UNL     1      -8.552  14.737  68.026  1.00  0.00    -0.166 A  
HETATM   28  C   UNL     1      -7.666  15.466  68.822  1.00  0.00    -0.150 A  
HETATM   29  C   UNL     1      -6.675  14.826  69.537  1.00  0.00    -0.160 A  
HETATM   30 CL   UNL     1      -7.804  17.179  68.909  1.00  0.00    -0.246 Cl 
HETATM   31  C   UNL     1      -6.573  13.442  69.448  1.00  0.00    -0.075 A  
HETATM   32  C   UNL     1      -7.461  12.680  68.637  1.00  0.00    -0.094 A  
HETATM   33 CL   UNL     1      -5.282  12.713  70.359  1.00  0.00    -0.104 Cl 
HETATM   34  C   UNL     1      -7.341  11.289  68.518  1.00  0.00    -0.106 A  
ENDBRANCH  12  15
ENDBRANCH  11  12
ENDBRANCH  10  11
ENDBRANCH   5  10
ENDBRANCH   4   5
ENDBRANCH   3   4
ENDBRANCH   2   3
TORSDOF 10
ENDMDL
MODEL      202
REMARK 921   NORMALIZED FREE ENERGY PREDICTED BY IDOCK:   -0.28 KCAL/MOL
REMARK 922        TOTAL FREE ENERGY PREDICTED BY IDOCK:   -2.94 KCAL/MOL
REMARK 923 INTER-LIGAND FREE ENERGY PREDICTED BY IDOCK:   -3.56 KCAL/MOL
REMARK 924 INTRA-LIGAND FREE ENERGY PREDICTED BY IDOCK:    0.62 KCAL/MOL
REMARK 927      BINDING AFFINITY PREDICTED BY RF-SCORE:    0.00 PKD
ROOT
HETATM    1  C   UNL     1     -13.253  14.192  70.813  1.00  0.00    -0.212 C  
HETATM    2  C   UNL     1     -12.480  13.082  70.117  1.00  0.00    -0.166 C  
ENDROOT
BRANCH   2   3
HETATM    3  C   UNL     1     -12.230  11.924  71.082  1.00  0.00    -0.170 C  
BRANCH   3   4
HETATM    4  C   UNL     1     -11.055  11.026  70.680  1.00  0.00     0.477 C  
BRANCH   4   5
HETATM    5  N   UNL     1     -11.120   9.580  71.009  1.00  0.00    -0.333 NA 
BRANCH   5   6
HETATM    6  C   UNL     1     -12.485   9.049  70.801  1.00  0.00     0.030 C  
BRANCH   6   7
HETATM    7  C   UNL     1     -13.471   9.216  71.973  1.00  0.00    -0.510 C  
BRANCH   7   8
HETATM    8  C   UNL     1     -14.408   8.027  72.174  1.00  0.00    -0.442 C  
HETATM    9  C   UNL     1     -14.034   6.881  71.238  1.00  0.00    -0.125 C  
ENDBRANCH   7   8
ENDBRANCH   6   7
ENDBRANCH   5   6
BRANCH   5  10
HETATM   10  C   UNL     1     -10.137   8.822  70.189  1.00  0.00    -0.187 C  
BRANCH  10  11
HETATM   11  C   UNL     1     -10.814   7.779  69.302  1.00  0.00    -0.091 C  
BRANCH  11  12
HETATM   12  C   UNL     1     -11.257   8.315  67.933  1.00  0.00     0.656 C  
HETATM   13  H   UNL     1     -11.758  10.050  67.158  1.00  0.00     0.000 HD 
HETATM   14  O   UNL     1     -11.483   9.718  68.006  1.00  0.00    -0.010 OA 
BRANCH  12  15
HETATM   15  C   UNL     1     -10.247   8.024  66.820  1.00  0.00    -0.367 A  
HETATM   16  C   UNL     1      -9.776   6.716  66.556  1.00  0.00    -0.176 A  
HETATM   17  C   UNL     1     -10.347   5.582  67.176  1.00  0.00    -0.301 A  
HETATM   18  C   UNL     1      -9.855   4.294  66.975  1.00  0.00    -0.216 A  
HETATM   19  C   UNL     1      -8.768   4.094  66.134  1.00  0.00    -0.115 A  
HETATM   20  C   UNL     1      -8.182   2.723  65.919  1.00  0.00    -0.089 C  
HETATM   21  C   UNL     1      -8.214   5.207  65.478  1.00  0.00    -0.121 A  
HETATM   22  F   UNL     1      -6.875   2.654  66.299  1.00  0.00    -0.040 F  
HETATM   23  C   UNL     1      -8.692   6.535  65.648  1.00  0.00    -0.102 A  
HETATM   24  F   UNL     1      -8.210   2.342  64.612  1.00  0.00    -0.082 F  
HETATM   25  F   UNL     1      -8.822   1.738  66.610  1.00  0.00    -0.104 F  
HETATM   26  C   UNL     1      -8.118   7.669  64.961  1.00  0.00    -0.133 A  
HETATM   27  C   UNL     1      -7.023   7.581  64.061  1.00  0.00    -0.058 A  
HETATM   28  C   UNL     1      -6.481   8.699  63.423  1.00  0.00    -0.089 A  
HETATM   29  C   UNL     1      -7.009   9.956  63.642  1.00  0.00    -0.123 A  
HETATM   30 CL   UNL     1      -5.140   8.515  62.361  1.00  0.00    -0.068 Cl 
HETATM   31  C   UNL     1      -8.088  10.088  64.509  1.00  0.00    -0.156 A  
HETATM   32  C   UNL     1      -8.650   8.962  65.175  1.00  0.00    -0.208 A  
HETATM   33 CL   UNL     1      -8.679  11.707  64.750  1.00  0.00     0.428 Cl 
HETATM   34  C   UNL     1      -9.716   9.094  66.076  1.00  0.00    -0.358 A  
ENDBRANCH  12  15
ENDBRANCH  11  12
ENDBRANCH  10  11
ENDBRANCH   5  10
ENDBRANCH   4   5
ENDBRANCH   3   4
ENDBRANCH   2   3
TORSDOF 10
ENDMDL
MODEL      203
REMARK 921   NORMALIZED FREE ENERGY PREDICTED BY IDOCK:   -0.08 KCAL/MOL
REMARK 922        TOTAL FREE ENERGY PREDICTED BY IDOCK:   -2.62 KCAL/MOL
REMARK 923 INTER-LIGAND FREE ENERGY PREDICTED BY IDOCK:   -3.16 KCAL/MOL
REMARK 924 INTRA-LIGAND FREE ENERGY PREDICTED BY IDOCK:    0.54 KCAL/MOL
REMARK 927      BINDING AFFINITY PREDICTED BY RF-SCORE:    0.00 PKD
ROOT
HETATM    1  C   UNL     1     -12.952  11.274  63.123  1.00  0.00     1.123 C  
HETATM    2  C   UNL     1     -11.610  11.554  62.464  1.00  0.00     1.406 C  
ENDROOT
BRANCH   2   3
HETATM    3  C   UNL     1     -10.530  11.758  63.525  1.00  0.00    -0.500 C  
BRANCH   3   4
HETATM    4  C   UNL     1     -10.663  13.076  64.298  1.00  0.00    -0.407 C  
BRANCH   4   5
HETATM    5  N   UNL     1     -11.800  13.236  65.239  1.00  0.00    -0.339 NA 
BRANCH   5   6
HETATM    6  C   UNL     1     -11.798  12.168  66.262  1.00  0.00    -0.246 C  
BRANCH   6   7
HETATM    7  C   UNL     1     -10.735  12.285  67.371  1.00  0.00    -0.261 C  
BRANCH   7   8
HETATM    8  C   UNL     1     -11.084  11.527  68.650  1.00  0.00    -0.291 C  
HETATM    9  C   UNL     1     -12.052  12.335  69.509  1.00  0.00    -0.260 C  
ENDBRANCH   7   8
ENDBRANCH   6   7
ENDBRANCH   5   6
BRANCH   5  10
HETATM   10  C   UNL     1     -11.747  14.576  65.885  1.00  0.00    -0.345 C  
BRANCH  10  11
HETATM   11  C   UNL     1     -11.128  15.629  64.969  1.00  0.00    -0.399 C  
BRANCH  11  12
HETATM   12  C   UNL     1     -10.310  16.698  65.707  1.00  0.00    -0.321 C  
HETATM   13  H   UNL     1     -10.632  18.466  66.501  1.00  0.00     0.000 HD 
HETATM   14  O   UNL     1     -11.139  17.805  66.044  1.00  0.00     0.135 OA 
BRANCH  12  15
HETATM   15  C   UNL     1      -9.637  16.168  66.976  1.00  0.00    -0.233 A  
HETATM   16  C   UNL     1     -10.372  15.879  68.151  1.00  0.00    -0.256 A  
HETATM   17  C   UNL     1     -11.786  15.885  68.162  1.00  0.00    -0.134 A  
HETATM   18  C   UNL     1     -12.523  15.664  69.324  1.00  0.00     0.085 A  
HETATM   19  C   UNL     1     -11.866  15.422  70.523  1.00  0.00    -0.373 A  
HETATM   20  C   UNL     1     -12.625  15.217  71.809  1.00  0.00    -0.347 C  
HETATM   21  C   UNL     1     -10.461  15.373  70.520  1.00  0.00    -0.140 A  
HETATM   22  F   UNL     1     -12.307  16.148  72.751  1.00  0.00    -0.448 F  
HETATM   23  C   UNL     1      -9.673  15.584  69.357  1.00  0.00    -0.283 A  
HETATM   24  F   UNL     1     -12.368  14.007  72.378  1.00  0.00    -0.291 F  
HETATM   25  F   UNL     1     -13.978  15.282  71.662  1.00  0.00    -0.442 F  
HETATM   26  C   UNL     1      -8.228  15.523  69.366  1.00  0.00    -0.247 A  
HETATM   27  C   UNL     1      -7.453  15.259  70.526  1.00  0.00     0.845 A  
HETATM   28  C   UNL     1      -6.057  15.221  70.505  1.00  0.00    -0.014 A  
HETATM   29  C   UNL     1      -5.367  15.432  69.329  1.00  0.00    -0.096 A  
HETATM   30 CL   UNL     1      -5.186  14.915  71.958  1.00  0.00    -0.117 Cl 
HETATM   31  C   UNL     1      -6.087  15.685  68.166  1.00  0.00    -0.129 A  
HETATM   32  C   UNL     1      -7.509  15.735  68.167  1.00  0.00    -0.129 A  
HETATM   33 CL   UNL     1      -5.143  15.965  66.732  1.00  0.00     0.545 Cl 
HETATM   34  C   UNL     1      -8.238  16.023  67.005  1.00  0.00    -0.255 A  
ENDBRANCH  12  15
ENDBRANCH  11  12
ENDBRANCH  10  11
ENDBRANCH   5  10
ENDBRANCH   4   5
ENDBRANCH   3   4
ENDBRANCH   2   3
TORSDOF 10
ENDMDL
MODEL      204
REMARK 921   NORMALIZED FREE ENERGY PREDICTED BY IDOCK:   -0.05 KCAL/MOL
REMARK 922        TOTAL FREE ENERGY PREDICTED BY IDOCK:   -2.57 KCAL/MOL
REMARK 923 INTER-LIGAND FREE ENERGY PREDICTED BY IDOCK:   -5.77 KCAL/MOL
REMARK 924 INTRA-LIGAND FREE ENERGY PREDICTED BY IDOCK:    3.20 KCAL/MOL
REMARK 927      BINDING AFFINITY PREDICTED BY RF-SCORE:    0.00 PKD
ROOT
HETATM    1  C   UNL     1      -7.697  20.710  64.255  1.00  0.00     1.477 C  
HETATM    2  C   UNL     1      -7.203  20.463  65.673  1.00  0.00    -0.195 C  
ENDROOT
BRANCH   2   3
HETATM    3  C   UNL     1      -8.295  19.792  66.504  1.00  0.00    -0.373 C  
BRANCH   3   4
HETATM    4  C   UNL     1      -8.745  18.433  65.955  1.00  0.00     0.213 C  
BRANCH   4   5
HETATM    5  N   UNL     1      -7.930  17.234  66.271  1.00  0.00    -0.374 NA 
BRANCH   5   6
HETATM    6  C   UNL     1      -7.789  17.057  67.732  1.00  0.00    -0.180 C  
BRANCH   6   7
HETATM    7  C   UNL     1      -8.542  18.066  68.621  1.00  0.00    -0.274 C  
BRANCH   7   8
HETATM    8  C   UNL     1     -10.061  17.915  68.586  1.00  0.00    -0.394 C  
HETATM    9  C   UNL     1     -10.685  18.955  67.660  1.00  0.00    -0.469 C  
ENDBRANCH   7   8
ENDBRANCH   6   7
ENDBRANCH   5   6
BRANCH   5  10
HETATM   10  C   UNL     1      -8.539  16.022  65.657  1.00  0.00     0.672 C  
BRANCH  10  11
HETATM   11  C   UNL     1      -8.780  14.919  66.684  1.00  0.00    -0.262 C  
BRANCH  11  12
HETATM   12  C   UNL     1     -10.250  14.751  67.090  1.00  0.00    -0.245 C  
HETATM   13  H   UNL     1     -11.988  14.616  66.184  1.00  0.00     0.000 HD 
HETATM   14  O   UNL     1     -11.078  14.719  65.932  1.00  0.00    -0.329 OA 
BRANCH  12  15
HETATM   15  C   UNL     1     -10.503  13.493  67.924  1.00  0.00    -0.253 A  
HETATM   16  C   UNL     1      -9.989  12.228  67.550  1.00  0.00    -0.201 A  
HETATM   17  C   UNL     1      -9.061  12.087  66.492  1.00  0.00    -0.202 A  
HETATM   18  C   UNL     1      -8.594  10.843  66.071  1.00  0.00    -0.179 A  
HETATM   19  C   UNL     1      -9.037   9.689  66.703  1.00  0.00    -0.176 A  
HETATM   20  C   UNL     1      -8.585   8.323  66.253  1.00  0.00    -0.138 C  
HETATM   21  C   UNL     1      -9.928   9.816  67.783  1.00  0.00    -0.206 A  
HETATM   22  F   UNL     1      -9.626   7.541  65.855  1.00  0.00    -0.156 F  
HETATM   23  C   UNL     1     -10.421  11.064  68.249  1.00  0.00    -0.212 A  
HETATM   24  F   UNL     1      -7.955   7.631  67.242  1.00  0.00    -0.109 F  
HETATM   25  F   UNL     1      -7.717   8.352  65.204  1.00  0.00    -0.081 F  
HETATM   26  C   UNL     1     -11.331  11.180  69.366  1.00  0.00    -0.352 A  
HETATM   27  C   UNL     1     -11.830  10.073  70.102  1.00  0.00    -0.245 A  
HETATM   28  C   UNL     1     -12.721  10.217  71.168  1.00  0.00    -0.396 A  
HETATM   29  C   UNL     1     -13.148  11.469  71.561  1.00  0.00    -0.429 A  
HETATM   30 CL   UNL     1     -13.298   8.824  71.998  1.00  0.00    -0.413 Cl 
HETATM   31  C   UNL     1     -12.677  12.583  70.874  1.00  0.00    -0.182 A  
HETATM   32  C   UNL     1     -11.776  12.458  69.780  1.00  0.00    -0.361 A  
HETATM   33 CL   UNL     1     -13.283  14.122  71.414  1.00  0.00    -0.414 Cl 
HETATM   34  C   UNL     1     -11.325  13.574  69.063  1.00  0.00    -0.336 A  
ENDBRANCH  12  15
ENDBRANCH  11  12
ENDBRANCH  10  11
ENDBRANCH   5  10
ENDBRANCH   4   5
ENDBRANCH   3   4
ENDBRANCH   2   3
TORSDOF 10
ENDMDL
MODEL      205
REMARK 921   NORMALIZED FREE ENERGY PREDICTED BY IDOCK:   -0.02 KCAL/MOL
REMARK 922        TOTAL FREE ENERGY PREDICTED BY IDOCK:   -2.52 KCAL/MOL
REMARK 923 INTER-LIGAND FREE ENERGY PREDICTED BY IDOCK:   -4.33 KCAL/MOL
REMARK 924 INTRA-LIGAND FREE ENERGY PREDICTED BY IDOCK:    1.81 KCAL/MOL
REMARK 927      BINDING AFFINITY PREDICTED BY RF-SCORE:    0.00 PKD
ROOT
HETATM    1  C   UNL     1      -5.611   3.223  65.321  1.00  0.00    -0.017 C  
HETATM    2  C   UNL     1      -5.644   4.609  65.948  1.00  0.00    -0.017 C  
ENDROOT
BRANCH   2   3
HETATM    3  C   UNL     1      -6.179   5.631  64.947  1.00  0.00    -0.032 C  
BRANCH   3   4
HETATM    4  C   UNL     1      -7.558   6.192  65.312  1.00  0.00    -0.089 C  
BRANCH   4   5
HETATM    5  N   UNL     1      -7.648   7.223  66.376  1.00  0.00    -0.090 NA 
BRANCH   5   6
HETATM    6  C   UNL     1      -6.896   8.441  66.000  1.00  0.00    -0.064 C  
BRANCH   6   7
HETATM    7  C   UNL     1      -5.619   8.735  66.811  1.00  0.00    -0.040 C  
BRANCH   7   8
HETATM    8  C   UNL     1      -5.416   7.814  68.011  1.00  0.00    -0.032 C  
HETATM    9  C   UNL     1      -6.632   7.853  68.932  1.00  0.00    -0.052 C  
ENDBRANCH   7   8
ENDBRANCH   6   7
ENDBRANCH   5   6
BRANCH   5  10
HETATM   10  C   UNL     1      -9.072   7.556  66.650  1.00  0.00    -0.158 C  
BRANCH  10  11
HETATM   11  C   UNL     1      -9.407   8.997  66.271  1.00  0.00    -0.284 C  
BRANCH  11  12
HETATM   12  C   UNL     1      -9.301   9.992  67.435  1.00  0.00    -0.148 C  
HETATM   13  H   UNL     1      -9.813  11.856  67.788  1.00  0.00     0.000 HD 
HETATM   14  O   UNL     1      -9.879  11.240  67.067  1.00  0.00    -0.188 OA 
BRANCH  12  15
HETATM   15  C   UNL     1      -9.965   9.487  68.718  1.00  0.00    -0.185 A  
HETATM   16  C   UNL     1     -10.802  10.313  69.505  1.00  0.00    -0.292 A  
HETATM   17  C   UNL     1     -11.221  11.587  69.057  1.00  0.00    -0.324 A  
HETATM   18  C   UNL     1     -11.993  12.438  69.846  1.00  0.00    -0.369 A  
HETATM   19  C   UNL     1     -12.380  12.038  71.118  1.00  0.00    -0.282 A  
HETATM   20  C   UNL     1     -13.183  12.944  72.017  1.00  0.00    -0.448 C  
HETATM   21  C   UNL     1     -12.006  10.758  71.562  1.00  0.00    -0.061 A  
HETATM   22  F   UNL     1     -12.532  13.227  73.179  1.00  0.00     0.190 F  
HETATM   23  C   UNL     1     -11.227   9.857  70.787  1.00  0.00    -0.427 A  
HETATM   24  F   UNL     1     -14.374  12.394  72.381  1.00  0.00    -0.216 F  
HETATM   25  F   UNL     1     -13.482  14.148  71.455  1.00  0.00    -0.382 F  
HETATM   26  C   UNL     1     -10.855   8.540  71.253  1.00  0.00    -0.312 A  
HETATM   27  C   UNL     1     -11.215   8.017  72.523  1.00  0.00    -0.452 A  
HETATM   28  C   UNL     1     -10.827   6.745  72.950  1.00  0.00    -0.272 A  
HETATM   29  C   UNL     1     -10.074   5.930  72.131  1.00  0.00    -0.210 A  
HETATM   30 CL   UNL     1     -11.285   6.189  74.513  1.00  0.00     1.568 Cl 
HETATM   31  C   UNL     1      -9.706   6.398  70.874  1.00  0.00    -0.176 A  
HETATM   32  C   UNL     1     -10.084   7.694  70.422  1.00  0.00    -0.190 A  
HETATM   33 CL   UNL     1      -8.736   5.320  69.913  1.00  0.00    -0.109 Cl 
HETATM   34  C   UNL     1      -9.688   8.184  69.171  1.00  0.00    -0.163 A  
ENDBRANCH  12  15
ENDBRANCH  11  12
ENDBRANCH  10  11
ENDBRANCH   5  10
ENDBRANCH   4   5
ENDBRANCH   3   4
ENDBRANCH   2   3
TORSDOF 10
ENDMDL
MODEL      206
REMARK 921   NORMALIZED FREE ENERGY PREDICTED BY IDOCK:    0.01 KCAL/MOL
REMARK 922        TOTAL FREE ENERGY PREDICTED BY IDOCK:   -2.48 KCAL/MOL
REMARK 923 INTER-LIGAND FREE ENERGY PREDICTED BY IDOCK:   -1.86 KCAL/MOL
REMARK 924 INTRA-LIGAND FREE ENERGY PREDICTED BY IDOCK:   -0.62 KCAL/MOL
REMARK 927      BINDING AFFINITY PREDICTED BY RF-SCORE:    0.00 PKD
ROOT
HETATM    1  C   UNL     1      -8.266  15.461  68.641  1.00  0.00    -0.158 C  
HETATM    2  C   UNL     1      -7.299  15.408  69.815  1.00  0.00    -0.123 C  
ENDROOT
BRANCH   2   3
HETATM    3  C   UNL     1      -7.069  13.961  70.247  1.00  0.00     0.618 C  
BRANCH   3   4
HETATM    4  C   UNL     1      -7.248  12.941  69.116  1.00  0.00     0.087 C  
BRANCH   4   5
HETATM    5  N   UNL     1      -6.042  12.453  68.402  1.00  0.00    -0.054 NA 
BRANCH   5   6
HETATM    6  C   UNL     1      -5.143  11.718  69.318  1.00  0.00    -0.052 C  
BRANCH   6   7
HETATM    7  C   UNL     1      -5.788  10.600  70.160  1.00  0.00    -0.087 C  
BRANCH   7   8
HETATM    8  C   UNL     1      -5.710  10.832  71.667  1.00  0.00     0.361 C  
HETATM    9  C   UNL     1      -5.350   9.539  72.393  1.00  0.00    -0.043 C  
ENDBRANCH   7   8
ENDBRANCH   6   7
ENDBRANCH   5   6
BRANCH   5  10
HETATM   10  C   UNL     1      -6.438  11.589  67.257  1.00  0.00    -0.110 C  
BRANCH  10  11
HETATM   11  C   UNL     1      -7.837  11.924  66.744  1.00  0.00    -0.070 C  
BRANCH  11  12
HETATM   12  C   UNL     1      -8.938  11.000  67.281  1.00  0.00    -0.138 C  
HETATM   13  H   UNL     1     -10.652  10.280  66.645  1.00  0.00     0.000 HD 
HETATM   14  O   UNL     1      -9.970  10.852  66.311  1.00  0.00    -0.211 OA 
BRANCH  12  15
HETATM   15  C   UNL     1      -8.419   9.617  67.680  1.00  0.00    -0.125 A  
HETATM   16  C   UNL     1      -7.999   8.666  66.720  1.00  0.00    -0.094 A  
HETATM   17  C   UNL     1      -7.858   9.004  65.354  1.00  0.00    -0.101 A  
HETATM   18  C   UNL     1      -7.506   8.065  64.386  1.00  0.00    -0.104 A  
HETATM   19  C   UNL     1      -7.275   6.747  64.755  1.00  0.00    -0.082 A  
HETATM   20  C   UNL     1      -6.929   5.693  63.734  1.00  0.00    -0.050 C  
HETATM   21  C   UNL     1      -7.371   6.404  66.115  1.00  0.00    -0.080 A  
HETATM   22  F   UNL     1      -7.841   4.681  63.708  1.00  0.00    -0.072 F  
HETATM   23  C   UNL     1      -7.719   7.332  67.134  1.00  0.00    -0.112 A  
HETATM   24  F   UNL     1      -5.726   5.104  63.979  1.00  0.00    -0.015 F  
HETATM   25  F   UNL     1      -6.862   6.167  62.459  1.00  0.00    -0.037 F  
HETATM   26  C   UNL     1      -7.807   6.968  68.530  1.00  0.00    -0.122 A  
HETATM   27  C   UNL     1      -7.568   5.658  69.025  1.00  0.00    -0.088 A  
HETATM   28  C   UNL     1      -7.675   5.335  70.379  1.00  0.00    -0.076 A  
HETATM   29  C   UNL     1      -8.014   6.299  71.306  1.00  0.00    -0.116 A  
HETATM   30 CL   UNL     1      -7.391   3.719  70.900  1.00  0.00    -0.037 Cl 
HETATM   31  C   UNL     1      -8.248   7.598  70.867  1.00  0.00    -0.108 A  
HETATM   32  C   UNL     1      -8.151   7.947  69.490  1.00  0.00    -0.121 A  
HETATM   33 CL   UNL     1      -8.694   8.748  72.093  1.00  0.00    -0.208 Cl 
HETATM   34  C   UNL     1      -8.419   9.246  69.038  1.00  0.00    -0.132 A  
ENDBRANCH  12  15
ENDBRANCH  11  12
ENDBRANCH  10  11
ENDBRANCH   5  10
ENDBRANCH   4   5
ENDBRANCH   3   4
ENDBRANCH   2   3
TORSDOF 10
ENDMDL
MODEL      207
REMARK 921   NORMALIZED FREE ENERGY PREDICTED BY IDOCK:    0.54 KCAL/MOL
REMARK 922        TOTAL FREE ENERGY PREDICTED BY IDOCK:   -1.64 KCAL/MOL
REMARK 923 INTER-LIGAND FREE ENERGY PREDICTED BY IDOCK:   -2.76 KCAL/MOL
REMARK 924 INTRA-LIGAND FREE ENERGY PREDICTED BY IDOCK:    1.12 KCAL/MOL
REMARK 927      BINDING AFFINITY PREDICTED BY RF-SCORE:    0.00 PKD
ROOT
HETATM    1  C   UNL     1      -9.048  19.168  65.237  1.00  0.00     1.634 C  
HETATM    2  C   UNL     1     -10.568  19.107  65.232  1.00  0.00     0.387 C  
ENDROOT
BRANCH   2   3
HETATM    3  C   UNL     1     -11.044  17.695  65.567  1.00  0.00     0.436 C  
BRANCH   3   4
HETATM    4  C   UNL     1     -10.399  17.108  66.828  1.00  0.00    -0.302 C  
BRANCH   4   5
HETATM    5  N   UNL     1      -8.924  17.186  66.974  1.00  0.00    -0.223 NA 
BRANCH   5   6
HETATM    6  C   UNL     1      -8.546  17.591  68.346  1.00  0.00    -0.275 C  
BRANCH   6   7
HETATM    7  C   UNL     1      -8.773  19.070  68.710  1.00  0.00    -0.351 C  
BRANCH   7   8
HETATM    8  C   UNL     1     -10.188  19.385  69.188  1.00  0.00    -0.226 C  
HETATM    9  C   UNL     1     -10.156  20.335  70.382  1.00  0.00     1.001 C  
ENDBRANCH   7   8
ENDBRANCH   6   7
ENDBRANCH   5   6
BRANCH   5  10
HETATM   10  C   UNL     1      -8.303  15.878  66.629  1.00  0.00    -0.293 C  
BRANCH  10  11
HETATM   11  C   UNL     1      -8.192  14.959  67.843  1.00  0.00    -0.148 C  
BRANCH  11  12
HETATM   12  C   UNL     1      -8.002  13.477  67.491  1.00  0.00    -0.181 C  
HETATM   13  H   UNL     1      -6.583  12.127  67.657  1.00  0.00     0.000 HD 
HETATM   14  O   UNL     1      -6.701  13.045  67.876  1.00  0.00    -0.096 OA 
BRANCH  12  15
HETATM   15  C   UNL     1      -9.047  12.567  68.140  1.00  0.00    -0.204 A  
HETATM   16  C   UNL     1     -10.044  13.070  69.010  1.00  0.00     0.157 A  
HETATM   17  C   UNL     1     -10.247  14.458  69.182  1.00  0.00    -0.136 A  
HETATM   18  C   UNL     1     -11.181  14.970  70.082  1.00  0.00    -0.291 A  
HETATM   19  C   UNL     1     -11.955  14.102  70.841  1.00  0.00    -0.371 A  
HETATM   20  C   UNL     1     -12.949  14.614  71.851  1.00  0.00    -0.331 C  
HETATM   21  C   UNL     1     -11.793  12.719  70.651  1.00  0.00    -0.026 A  
HETATM   22  F   UNL     1     -12.669  14.186  73.114  1.00  0.00    -0.477 F  
HETATM   23  C   UNL     1     -10.859  12.157  69.739  1.00  0.00     0.325 A  
HETATM   24  F   UNL     1     -14.219  14.199  71.590  1.00  0.00    -0.444 F  
HETATM   25  F   UNL     1     -13.006  15.973  71.923  1.00  0.00    -0.488 F  
HETATM   26  C   UNL     1     -10.709  10.732  69.549  1.00  0.00    -0.268 A  
HETATM   27  C   UNL     1     -11.462   9.754  70.251  1.00  0.00    -0.317 A  
HETATM   28  C   UNL     1     -11.283   8.382  70.054  1.00  0.00    -0.085 A  
HETATM   29  C   UNL     1     -10.355   7.920  69.143  1.00  0.00    -0.225 A  
HETATM   30 CL   UNL     1     -12.219   7.257  70.958  1.00  0.00    -0.363 Cl 
HETATM   31  C   UNL     1      -9.601   8.843  68.427  1.00  0.00    -0.146 A  
HETATM   32  C   UNL     1      -9.763  10.244  68.617  1.00  0.00    -0.171 A  
HETATM   33 CL   UNL     1      -8.437   8.179  67.317  1.00  0.00    -0.124 Cl 
HETATM   34  C   UNL     1      -8.983  11.178  67.922  1.00  0.00    -0.143 A  
ENDBRANCH  12  15
ENDBRANCH  11  12
ENDBRANCH  10  11
ENDBRANCH   5  10
ENDBRANCH   4   5
ENDBRANCH   3   4
ENDBRANCH   2   3
TORSDOF 10
ENDMDL
MODEL      208
REMARK 921   NORMALIZED FREE ENERGY PREDICTED BY IDOCK:    0.62 KCAL/MOL
REMARK 922        TOTAL FREE ENERGY PREDICTED BY IDOCK:   -1.52 KCAL/MOL
REMARK 923 INTER-LIGAND FREE ENERGY PREDICTED BY IDOCK:   -4.44 KCAL/MOL
REMARK 924 INTRA-LIGAND FREE ENERGY PREDICTED BY IDOCK:    2.92 KCAL/MOL
REMARK 927      BINDING AFFINITY PREDICTED BY RF-SCORE:    0.00 PKD
ROOT
HETATM    1  C   UNL     1     -12.490  11.274  64.182  1.00  0.00     0.823 C  
HETATM    2  C   UNL     1     -11.759  12.472  64.771  1.00  0.00    -0.411 C  
ENDROOT
BRANCH   2   3
HETATM    3  C   UNL     1     -11.359  12.190  66.218  1.00  0.00    -0.411 C  
BRANCH   3   4
HETATM    4  C   UNL     1     -10.343  11.052  66.368  1.00  0.00    -0.250 C  
BRANCH   4   5
HETATM    5  N   UNL     1      -8.935  11.298  65.968  1.00  0.00    -0.201 NA 
BRANCH   5   6
HETATM    6  C   UNL     1      -8.123  11.740  67.122  1.00  0.00    -0.169 C  
BRANCH   6   7
HETATM    7  C   UNL     1      -7.912  13.259  67.270  1.00  0.00    -0.134 C  
BRANCH   7   8
HETATM    8  C   UNL     1      -6.873  13.645  68.319  1.00  0.00    -0.108 C  
HETATM    9  C   UNL     1      -6.653  12.502  69.307  1.00  0.00    -0.089 C  
ENDBRANCH   7   8
ENDBRANCH   6   7
ENDBRANCH   5   6
BRANCH   5  10
HETATM   10  C   UNL     1      -8.352  10.070  65.362  1.00  0.00    -0.151 C  
BRANCH  10  11
HETATM   11  C   UNL     1      -8.486   8.858  66.281  1.00  0.00    -0.129 C  
BRANCH  11  12
HETATM   12  C   UNL     1      -9.698   8.917  67.221  1.00  0.00    -0.181 C  
HETATM   13  H   UNL     1     -11.640   8.644  67.088  1.00  0.00     0.000 HD 
HETATM   14  O   UNL     1     -10.889   8.607  66.505  1.00  0.00     0.026 OA 
BRANCH  12  15
HETATM   15  C   UNL     1      -9.573   7.976  68.422  1.00  0.00    -0.157 A  
HETATM   16  C   UNL     1      -8.674   6.883  68.429  1.00  0.00    -0.124 A  
HETATM   17  C   UNL     1      -7.711   6.708  67.409  1.00  0.00    -0.109 A  
HETATM   18  C   UNL     1      -6.861   5.604  67.368  1.00  0.00    -0.060 A  
HETATM   19  C   UNL     1      -6.942   4.633  68.357  1.00  0.00    -0.056 A  
HETATM   20  C   UNL     1      -6.067   3.406  68.328  1.00  0.00    -0.031 C  
HETATM   21  C   UNL     1      -7.866   4.814  69.401  1.00  0.00    -0.063 A  
HETATM   22  F   UNL     1      -6.793   2.256  68.266  1.00  0.00    -0.037 F  
HETATM   23  C   UNL     1      -8.744   5.928  69.484  1.00  0.00    -0.116 A  
HETATM   24  F   UNL     1      -5.288   3.295  69.439  1.00  0.00    -0.010 F  
HETATM   25  F   UNL     1      -5.214   3.366  67.267  1.00  0.00    -0.007 F  
HETATM   26  C   UNL     1      -9.685   6.106  70.567  1.00  0.00    -0.203 A  
HETATM   27  C   UNL     1      -9.837   5.192  71.644  1.00  0.00    -0.230 A  
HETATM   28  C   UNL     1     -10.766   5.385  72.669  1.00  0.00    -0.240 A  
HETATM   29  C   UNL     1     -11.580   6.500  72.677  1.00  0.00    -0.186 A  
HETATM   30 CL   UNL     1     -10.907   4.222  73.929  1.00  0.00    -0.327 Cl 
HETATM   31  C   UNL     1     -11.458   7.426  71.647  1.00  0.00    -0.263 A  
HETATM   32  C   UNL     1     -10.523   7.245  70.589  1.00  0.00    -0.226 A  
HETATM   33 CL   UNL     1     -12.537   8.790  71.717  1.00  0.00    -0.381 Cl 
HETATM   34  C   UNL     1     -10.421   8.157  69.531  1.00  0.00    -0.227 A  
ENDBRANCH  12  15
ENDBRANCH  11  12
ENDBRANCH  10  11
ENDBRANCH   5  10
ENDBRANCH   4   5
ENDBRANCH   3   4
ENDBRANCH   2   3
TORSDOF 10
ENDMDL
MODEL      209
REMARK 921   NORMALIZED FREE ENERGY PREDICTED BY IDOCK:    0.71 KCAL/MOL
REMARK 922        TOTAL FREE ENERGY PREDICTED BY IDOCK:   -1.38 KCAL/MOL
REMARK 923 INTER-LIGAND FREE ENERGY PREDICTED BY IDOCK:   -8.30 KCAL/MOL
REMARK 924 INTRA-LIGAND FREE ENERGY PREDICTED BY IDOCK:    6.92 KCAL/MOL
REMARK 927      BINDING AFFINITY PREDICTED BY RF-SCORE:    0.00 PKD
ROOT
HETATM    1  C   UNL     1      -7.204   4.576  65.061  1.00  0.00    -0.067 C  
HETATM    2  C   UNL     1      -6.909   5.996  65.521  1.00  0.00    -0.052 C  
ENDROOT
BRANCH   2   3
HETATM    3  C   UNL     1      -6.991   6.963  64.341  1.00  0.00    -0.055 C  
BRANCH   3   4
HETATM    4  C   UNL     1      -8.086   8.026  64.488  1.00  0.00    -0.132 C  
BRANCH   4   5
HETATM    5  N   UNL     1      -7.966   9.024  65.581  1.00  0.00    -0.101 NA 
BRANCH   5   6
HETATM    6  C   UNL     1      -7.211  10.214  65.133  1.00  0.00    -0.141 C  
BRANCH   6   7
HETATM    7  C   UNL     1      -7.201  10.489  63.617  1.00  0.00     0.090 C  
BRANCH   7   8
HETATM    8  C   UNL     1      -7.117   9.231  62.756  1.00  0.00    -0.097 C  
HETATM    9  C   UNL     1      -8.510   8.682  62.466  1.00  0.00    -0.179 C  
ENDBRANCH   7   8
ENDBRANCH   6   7
ENDBRANCH   5   6
BRANCH   5  10
HETATM   10  C   UNL     1      -9.316   9.417  66.068  1.00  0.00    -0.220 C  
BRANCH  10  11
HETATM   11  C   UNL     1      -9.896  10.582  65.268  1.00  0.00    -0.345 C  
BRANCH  11  12
HETATM   12  C   UNL     1     -10.631  11.624  66.123  1.00  0.00    -0.262 C  
HETATM   13  H   UNL     1     -12.255  12.720  65.977  1.00  0.00     0.000 HD 
HETATM   14  O   UNL     1     -11.800  12.075  65.448  1.00  0.00    -0.338 OA 
BRANCH  12  15
HETATM   15  C   UNL     1     -11.019  11.099  67.507  1.00  0.00    -0.331 A  
HETATM   16  C   UNL     1     -11.578  11.938  68.500  1.00  0.00    -0.375 A  
HETATM   17  C   UNL     1     -11.983  13.262  68.210  1.00  0.00    -0.338 A  
HETATM   18  C   UNL     1     -12.477  14.122  69.189  1.00  0.00    -0.005 A  
HETATM   19  C   UNL     1     -12.590  13.681  70.501  1.00  0.00    -0.337 A  
HETATM   20  C   UNL     1     -13.084  14.591  71.596  1.00  0.00    -0.343 C  
HETATM   21  C   UNL     1     -12.230  12.355  70.797  1.00  0.00    -0.336 A  
HETATM   22  F   UNL     1     -12.160  14.762  72.582  1.00  0.00    -0.388 F  
HETATM   23  C   UNL     1     -11.731  11.444  69.827  1.00  0.00    -0.418 A  
HETATM   24  F   UNL     1     -14.200  14.110  72.211  1.00  0.00    -0.511 F  
HETATM   25  F   UNL     1     -13.405  15.843  71.165  1.00  0.00    -0.543 F  
HETATM   26  C   UNL     1     -11.371  10.080  70.144  1.00  0.00    -0.357 A  
HETATM   27  C   UNL     1     -11.469   9.515  71.443  1.00  0.00    -0.462 A  
HETATM   28  C   UNL     1     -11.100   8.197  71.720  1.00  0.00    -0.270 A  
HETATM   29  C   UNL     1     -10.627   7.375  70.717  1.00  0.00    -0.234 A  
HETATM   30 CL   UNL     1     -11.227   7.590  73.325  1.00  0.00    -0.328 Cl 
HETATM   31  C   UNL     1     -10.524   7.885  69.427  1.00  0.00    -0.220 A  
HETATM   32  C   UNL     1     -10.887   9.227  69.125  1.00  0.00    -0.154 A  
HETATM   33 CL   UNL     1      -9.896   6.794  68.225  1.00  0.00    -0.140 Cl 
HETATM   34  C   UNL     1     -10.753   9.756  67.834  1.00  0.00    -0.312 A  
ENDBRANCH  12  15
ENDBRANCH  11  12
ENDBRANCH  10  11
ENDBRANCH   5  10
ENDBRANCH   4   5
ENDBRANCH   3   4
ENDBRANCH   2   3
TORSDOF 10
ENDMDL
MODEL      210
REMARK 921   NORMALIZED FREE ENERGY PREDICTED BY IDOCK:    0.76 KCAL/MOL
REMARK 922        TOTAL FREE ENERGY PREDICTED BY IDOCK:   -1.29 KCAL/MOL
REMARK 923 INTER-LIGAND FREE ENERGY PREDICTED BY IDOCK:   -1.63 KCAL/MOL
REMARK 924 INTRA-LIGAND FREE ENERGY PREDICTED BY IDOCK:    0.34 KCAL/MOL
REMARK 927      BINDING AFFINITY PREDICTED BY RF-SCORE:    0.00 PKD
ROOT
HETATM    1  C   UNL     1     -13.135  11.538  63.222  1.00  0.00     0.462 C  
HETATM    2  C   UNL     1     -11.709  11.626  62.700  1.00  0.00     0.981 C  
ENDROOT
BRANCH   2   3
HETATM    3  C   UNL     1     -10.737  11.874  63.852  1.00  0.00    -0.450 C  
BRANCH   3   4
HETATM    4  C   UNL     1     -10.622  13.348  64.258  1.00  0.00    -0.341 C  
BRANCH   4   5
HETATM    5  N   UNL     1     -11.858  14.082  64.627  1.00  0.00    -0.396 NA 
BRANCH   5   6
HETATM    6  C   UNL     1     -12.712  13.269  65.520  1.00  0.00    -0.367 C  
BRANCH   6   7
HETATM    7  C   UNL     1     -12.159  12.991  66.931  1.00  0.00    -0.349 C  
BRANCH   7   8
HETATM    8  C   UNL     1     -11.832  11.523  67.194  1.00  0.00    -0.000 C  
HETATM    9  C   UNL     1     -12.245  11.123  68.607  1.00  0.00    -0.012 C  
ENDBRANCH   7   8
ENDBRANCH   6   7
ENDBRANCH   5   6
BRANCH   5  10
HETATM   10  C   UNL     1     -11.512  15.377  65.276  1.00  0.00    -0.158 C  
BRANCH  10  11
HETATM   11  C   UNL     1     -10.199  15.949  64.746  1.00  0.00     0.348 C  
BRANCH  11  12
HETATM   12  C   UNL     1      -9.078  16.015  65.792  1.00  0.00    -0.133 C  
HETATM   13  H   UNL     1      -8.467  17.275  67.172  1.00  0.00     0.000 HD 
HETATM   14  O   UNL     1      -9.162  17.234  66.524  1.00  0.00    -0.244 OA 
BRANCH  12  15
HETATM   15  C   UNL     1      -9.100  14.838  66.771  1.00  0.00    -0.291 A  
HETATM   16  C   UNL     1      -9.838  14.878  67.978  1.00  0.00    -0.216 A  
HETATM   17  C   UNL     1     -10.742  15.928  68.260  1.00  0.00    -0.291 A  
HETATM   18  C   UNL     1     -11.429  16.015  69.470  1.00  0.00    -0.326 A  
HETATM   19  C   UNL     1     -11.238  15.044  70.444  1.00  0.00    -0.290 A  
HETATM   20  C   UNL     1     -11.933  15.123  71.779  1.00  0.00    -0.382 C  
HETATM   21  C   UNL     1     -10.374  13.973  70.162  1.00  0.00     1.013 A  
HETATM   22  F   UNL     1     -11.052  15.189  72.816  1.00  0.00    -0.478 F  
HETATM   23  C   UNL     1      -9.661  13.841  68.939  1.00  0.00     0.025 A  
HETATM   24  F   UNL     1     -12.715  14.036  72.024  1.00  0.00    -0.377 F  
HETATM   25  F   UNL     1     -12.746  16.208  71.911  1.00  0.00    -0.486 F  
HETATM   26  C   UNL     1      -8.781  12.730  68.659  1.00  0.00     0.057 A  
HETATM   27  C   UNL     1      -8.529  11.669  69.569  1.00  0.00     0.907 A  
HETATM   28  C   UNL     1      -7.661  10.615  69.274  1.00  0.00    -0.138 A  
HETATM   29  C   UNL     1      -7.011  10.561  68.058  1.00  0.00    -0.074 A  
HETATM   30 CL   UNL     1      -7.391   9.376  70.437  1.00  0.00    -0.105 Cl 
HETATM   31  C   UNL     1      -7.235  11.575  67.133  1.00  0.00    -0.140 A  
HETATM   32  C   UNL     1      -8.110  12.661  67.416  1.00  0.00    -0.182 A  
HETATM   33 CL   UNL     1      -6.359  11.447  65.635  1.00  0.00     0.368 Cl 
HETATM   34  C   UNL     1      -8.313  13.703  66.501  1.00  0.00     0.434 A  
ENDBRANCH  12  15
ENDBRANCH  11  12
ENDBRANCH  10  11
ENDBRANCH   5  10
ENDBRANCH   4   5
ENDBRANCH   3   4
ENDBRANCH   2   3
TORSDOF 10
ENDMDL
MODEL      211
REMARK 921   NORMALIZED FREE ENERGY PREDICTED BY IDOCK:    1.02 KCAL/MOL
REMARK 922        TOTAL FREE ENERGY PREDICTED BY IDOCK:   -0.88 KCAL/MOL
REMARK 923 INTER-LIGAND FREE ENERGY PREDICTED BY IDOCK:   -1.45 KCAL/MOL
REMARK 924 INTRA-LIGAND FREE ENERGY PREDICTED BY IDOCK:    0.57 KCAL/MOL
REMARK 927      BINDING AFFINITY PREDICTED BY RF-SCORE:    0.00 PKD
ROOT
HETATM    1  C   UNL     1      -8.708   7.765  73.577  1.00  0.00    -0.296 C  
HETATM    2  C   UNL     1      -8.656   8.471  72.231  1.00  0.00    -0.235 C  
ENDROOT
BRANCH   2   3
HETATM    3  C   UNL     1      -8.708   7.451  71.095  1.00  0.00    -0.137 C  
BRANCH   3   4
HETATM    4  C   UNL     1      -9.053   8.060  69.731  1.00  0.00    -0.149 C  
BRANCH   4   5
HETATM    5  N   UNL     1      -9.950   9.242  69.687  1.00  0.00    -0.182 NA 
BRANCH   5   6
HETATM    6  C   UNL     1      -9.745  10.019  68.444  1.00  0.00    -0.146 C  
BRANCH   6   7
HETATM    7  C   UNL     1      -9.173   9.246  67.240  1.00  0.00    -0.149 C  
BRANCH   7   8
HETATM    8  C   UNL     1      -9.447   9.904  65.890  1.00  0.00    -0.272 C  
HETATM    9  C   UNL     1      -8.546   9.314  64.810  1.00  0.00    -0.207 C  
ENDBRANCH   7   8
ENDBRANCH   6   7
ENDBRANCH   5   6
BRANCH   5  10
HETATM   10  C   UNL     1     -11.370   8.814  69.805  1.00  0.00     0.106 C  
BRANCH  10  11
HETATM   11  C   UNL     1     -12.337   9.982  69.621  1.00  0.00     0.286 C  
BRANCH  11  12
HETATM   12  C   UNL     1     -12.203  11.078  70.687  1.00  0.00    -0.385 C  
HETATM   13  H   UNL     1     -10.999  11.494  72.183  1.00  0.00     0.000 HD 
HETATM   14  O   UNL     1     -11.081  10.815  71.523  1.00  0.00     0.946 OA 
BRANCH  12  15
HETATM   15  C   UNL     1     -12.069  12.481  70.090  1.00  0.00    -0.368 A  
HETATM   16  C   UNL     1     -12.084  12.708  68.693  1.00  0.00    -0.144 A  
HETATM   17  C   UNL     1     -12.412  11.681  67.778  1.00  0.00     1.307 A  
HETATM   18  C   UNL     1     -12.371  11.871  66.398  1.00  0.00     1.010 A  
HETATM   19  C   UNL     1     -12.005  13.107  65.882  1.00  0.00    -0.479 A  
HETATM   20  C   UNL     1     -11.912  13.343  64.396  1.00  0.00    -0.411 C  
HETATM   21  C   UNL     1     -11.716  14.150  66.780  1.00  0.00    -0.432 A  
HETATM   22  F   UNL     1     -10.659  13.711  64.010  1.00  0.00    -0.379 F  
HETATM   23  C   UNL     1     -11.754  14.000  68.192  1.00  0.00    -0.387 A  
HETATM   24  F   UNL     1     -12.739  14.338  63.973  1.00  0.00    -0.363 F  
HETATM   25  F   UNL     1     -12.227  12.249  63.648  1.00  0.00    -0.485 F  
HETATM   26  C   UNL     1     -11.462  15.084  69.104  1.00  0.00    -0.320 A  
HETATM   27  C   UNL     1     -11.101  16.393  68.690  1.00  0.00    -0.352 A  
HETATM   28  C   UNL     1     -10.811  17.416  69.597  1.00  0.00     0.472 A  
HETATM   29  C   UNL     1     -10.877  17.187  70.956  1.00  0.00     1.222 A  
HETATM   30 CL   UNL     1     -10.361  18.972  69.018  1.00  0.00    -0.204 Cl 
HETATM   31  C   UNL     1     -11.235  15.921  71.406  1.00  0.00    -0.228 A  
HETATM   32  C   UNL     1     -11.527  14.863  70.499  1.00  0.00    -0.310 A  
HETATM   33 CL   UNL     1     -11.270  15.707  73.133  1.00  0.00     0.236 Cl 
HETATM   34  C   UNL     1     -11.856  13.577  70.948  1.00  0.00    -0.015 A  
ENDBRANCH  12  15
ENDBRANCH  11  12
ENDBRANCH  10  11
ENDBRANCH   5  10
ENDBRANCH   4   5
ENDBRANCH   3   4
ENDBRANCH   2   3
TORSDOF 10
ENDMDL
MODEL      212
REMARK 921   NORMALIZED FREE ENERGY PREDICTED BY IDOCK:    1.69 KCAL/MOL
REMARK 922        TOTAL FREE ENERGY PREDICTED BY IDOCK:    0.19 KCAL/MOL
REMARK 923 INTER-LIGAND FREE ENERGY PREDICTED BY IDOCK:   -3.21 KCAL/MOL
REMARK 924 INTRA-LIGAND FREE ENERGY PREDICTED BY IDOCK:    3.40 KCAL/MOL
REMARK 927      BINDING AFFINITY PREDICTED BY RF-SCORE:    0.00 PKD
ROOT
HETATM    1  C   UNL     1      -7.903   1.699  65.841  1.00  0.00    -0.068 C  
HETATM    2  C   UNL     1      -8.074   2.803  66.874  1.00  0.00    -0.077 C  
ENDROOT
BRANCH   2   3
HETATM    3  C   UNL     1      -9.242   2.481  67.804  1.00  0.00    -0.240 C  
BRANCH   3   4
HETATM    4  C   UNL     1      -9.137   3.144  69.182  1.00  0.00    -0.138 C  
BRANCH   4   5
HETATM    5  N   UNL     1      -8.746   4.575  69.255  1.00  0.00    -0.085 NA 
BRANCH   5   6
HETATM    6  C   UNL     1      -7.422   4.796  68.633  1.00  0.00    -0.065 C  
BRANCH   6   7
HETATM    7  C   UNL     1      -6.302   3.819  69.040  1.00  0.00    -0.029 C  
BRANCH   7   8
HETATM    8  C   UNL     1      -5.606   4.180  70.349  1.00  0.00    -0.013 C  
HETATM    9  C   UNL     1      -5.875   5.635  70.721  1.00  0.00    -0.024 C  
ENDBRANCH   7   8
ENDBRANCH   6   7
ENDBRANCH   5   6
BRANCH   5  10
HETATM   10  C   UNL     1      -9.778   5.423  68.598  1.00  0.00    -0.138 C  
BRANCH  10  11
HETATM   11  C   UNL     1     -10.509   6.314  69.599  1.00  0.00    -0.295 C  
BRANCH  11  12
HETATM   12  C   UNL     1      -9.873   7.699  69.783  1.00  0.00    -0.181 C  
HETATM   13  H   UNL     1      -8.719   8.591  71.101  1.00  0.00     0.000 HD 
HETATM   14  O   UNL     1      -9.112   7.733  70.986  1.00  0.00    -0.145 OA 
BRANCH  12  15
HETATM   15  C   UNL     1      -8.980   8.111  68.611  1.00  0.00    -0.137 A  
HETATM   16  C   UNL     1      -8.362   9.382  68.547  1.00  0.00    -0.118 A  
HETATM   17  C   UNL     1      -8.382  10.273  69.645  1.00  0.00    -0.139 A  
HETATM   18  C   UNL     1      -7.834  11.553  69.577  1.00  0.00     0.430 A  
HETATM   19  C   UNL     1      -7.236  11.986  68.401  1.00  0.00    -0.092 A  
HETATM   20  C   UNL     1      -6.665  13.375  68.275  1.00  0.00    -0.105 C  
HETATM   21  C   UNL     1      -7.172  11.097  67.314  1.00  0.00    -0.113 A  
HETATM   22  F   UNL     1      -7.267  14.093  67.287  1.00  0.00    -0.185 F  
HETATM   23  C   UNL     1      -7.711   9.783  67.344  1.00  0.00    -0.095 A  
HETATM   24  F   UNL     1      -5.337  13.368  67.974  1.00  0.00    -0.079 F  
HETATM   25  F   UNL     1      -6.788  14.123  69.407  1.00  0.00    -0.110 F  
HETATM   26  C   UNL     1      -7.631   8.876  66.221  1.00  0.00    -0.095 A  
HETATM   27  C   UNL     1      -7.023   9.202  64.980  1.00  0.00    -0.081 A  
HETATM   28  C   UNL     1      -6.975   8.308  63.908  1.00  0.00    -0.076 A  
HETATM   29  C   UNL     1      -7.520   7.045  64.023  1.00  0.00    -0.099 A  
HETATM   30 CL   UNL     1      -6.238   8.784  62.427  1.00  0.00    -0.095 Cl 
HETATM   31  C   UNL     1      -8.118   6.680  65.224  1.00  0.00    -0.130 A  
HETATM   32  C   UNL     1      -8.184   7.578  66.326  1.00  0.00    -0.125 A  
HETATM   33 CL   UNL     1      -8.803   5.082  65.279  1.00  0.00    -0.151 Cl 
HETATM   34  C   UNL     1      -8.815   7.228  67.527  1.00  0.00    -0.119 A  
ENDBRANCH  12  15
ENDBRANCH  11  12
ENDBRANCH  10  11
ENDBRANCH   5  10
ENDBRANCH   4   5
ENDBRANCH   3   4
ENDBRANCH   2   3
TORSDOF 10
ENDMDL
MODEL      213
REMARK 921   NORMALIZED FREE ENERGY PREDICTED BY IDOCK:    2.97 KCAL/MOL
REMARK 922        TOTAL FREE ENERGY PREDICTED BY IDOCK:    2.20 KCAL/MOL
REMARK 923 INTER-LIGAND FREE ENERGY PREDICTED BY IDOCK:    0.14 KCAL/MOL
REMARK 924 INTRA-LIGAND FREE ENERGY PREDICTED BY IDOCK:    2.06 KCAL/MOL
REMARK 927      BINDING AFFINITY PREDICTED BY RF-SCORE:    0.00 PKD
ROOT
HETATM    1  C   UNL     1     -11.394   4.177  66.368  1.00  0.00     3.255 C  
HETATM    2  C   UNL     1      -9.918   4.320  66.705  1.00  0.00    -0.191 C  
ENDROOT
BRANCH   2   3
HETATM    3  C   UNL     1      -9.747   4.807  68.143  1.00  0.00    -0.201 C  
BRANCH   3   4
HETATM    4  C   UNL     1     -10.007   6.307  68.323  1.00  0.00    -0.139 C  
BRANCH   4   5
HETATM    5  N   UNL     1      -9.203   7.053  69.324  1.00  0.00    -0.140 NA 
BRANCH   5   6
HETATM    6  C   UNL     1      -9.704   6.812  70.694  1.00  0.00    -0.172 C  
BRANCH   6   7
HETATM    7  C   UNL     1      -9.460   5.406  71.275  1.00  0.00    -0.191 C  
BRANCH   7   8
HETATM    8  C   UNL     1      -9.500   5.346  72.800  1.00  0.00    -0.158 C  
HETATM    9  C   UNL     1      -8.196   5.870  73.395  1.00  0.00    -0.115 C  
ENDBRANCH   7   8
ENDBRANCH   6   7
ENDBRANCH   5   6
BRANCH   5  10
HETATM   10  C   UNL     1      -7.768   6.669  69.219  1.00  0.00    -0.102 C  
BRANCH  10  11
HETATM   11  C   UNL     1      -6.869   7.586  70.045  1.00  0.00    -0.051 C  
BRANCH  11  12
HETATM   12  C   UNL     1      -7.589   8.810  70.627  1.00  0.00    -0.090 C  
HETATM   13  H   UNL     1      -7.562   9.833  72.305  1.00  0.00     0.000 HD 
HETATM   14  O   UNL     1      -7.116   9.075  71.944  1.00  0.00    -0.291 OA 
BRANCH  12  15
HETATM   15  C   UNL     1      -7.424  10.067  69.770  1.00  0.00    -0.152 A  
HETATM   16  C   UNL     1      -7.705  10.073  68.383  1.00  0.00    -0.084 A  
HETATM   17  C   UNL     1      -8.329   8.974  67.748  1.00  0.00    -0.117 A  
HETATM   18  C   UNL     1      -8.556   8.938  66.373  1.00  0.00    -0.136 A  
HETATM   19  C   UNL     1      -8.169  10.011  65.581  1.00  0.00    -0.143 A  
HETATM   20  C   UNL     1      -8.362   9.995  64.086  1.00  0.00    -0.167 C  
HETATM   21  C   UNL     1      -7.584  11.127  66.203  1.00  0.00    -0.032 A  
HETATM   22  F   UNL     1      -7.184  10.110  63.413  1.00  0.00    -0.124 F  
HETATM   23  C   UNL     1      -7.343  11.208  67.602  1.00  0.00    -0.095 A  
HETATM   24  F   UNL     1      -9.142  11.021  63.650  1.00  0.00    -0.197 F  
HETATM   25  F   UNL     1      -8.947   8.855  63.622  1.00  0.00    -0.166 F  
HETATM   26  C   UNL     1      -6.748  12.366  68.230  1.00  0.00    -0.070 A  
HETATM   27  C   UNL     1      -6.336  13.527  67.524  1.00  0.00    -0.096 A  
HETATM   28  C   UNL     1      -5.751  14.625  68.159  1.00  0.00    -0.128 A  
HETATM   29  C   UNL     1      -5.557  14.624  69.525  1.00  0.00    -0.092 A  
HETATM   30 CL   UNL     1      -5.259  15.989  67.232  1.00  0.00    -0.054 Cl 
HETATM   31  C   UNL     1      -5.953  13.511  70.257  1.00  0.00    -0.146 A  
HETATM   32  C   UNL     1      -6.545  12.379  69.629  1.00  0.00    -0.006 A  
HETATM   33 CL   UNL     1      -5.651  13.577  71.970  1.00  0.00    -0.085 Cl 
HETATM   34  C   UNL     1      -6.916  11.240  70.358  1.00  0.00     0.815 A  
ENDBRANCH  12  15
ENDBRANCH  11  12
ENDBRANCH  10  11
ENDBRANCH   5  10
ENDBRANCH   4   5
ENDBRANCH   3   4
ENDBRANCH   2   3
TORSDOF 10
ENDMDL
MODEL      214
REMARK 921   NORMALIZED FREE ENERGY PREDICTED BY IDOCK:    3.03 KCAL/MOL
REMARK 922        TOTAL FREE ENERGY PREDICTED BY IDOCK:    2.30 KCAL/MOL
REMARK 923 INTER-LIGAND FREE ENERGY PREDICTED BY IDOCK:    2.14 KCAL/MOL
REMARK 924 INTRA-LIGAND FREE ENERGY PREDICTED BY IDOCK:    0.16 KCAL/MOL
REMARK 927      BINDING AFFINITY PREDICTED BY RF-SCORE:    0.00 PKD
ROOT
HETATM    1  C   UNL     1      -5.757  12.128  64.876  1.00  0.00     4.606 C  
HETATM    2  C   UNL     1      -6.218  10.930  64.060  1.00  0.00     0.443 C  
ENDROOT
BRANCH   2   3
HETATM    3  C   UNL     1      -7.416  11.310  63.191  1.00  0.00     0.852 C  
BRANCH   3   4
HETATM    4  C   UNL     1      -8.746  10.724  63.680  1.00  0.00    -0.096 C  
BRANCH   4   5
HETATM    5  N   UNL     1      -9.164  10.980  65.081  1.00  0.00    -0.211 NA 
BRANCH   5   6
HETATM    6  C   UNL     1     -10.080  12.139  65.158  1.00  0.00    -0.261 C  
BRANCH   6   7
HETATM    7  C   UNL     1     -11.587  11.819  65.184  1.00  0.00    -0.211 C  
BRANCH   7   8
HETATM    8  C   UNL     1     -12.455  12.847  64.461  1.00  0.00    -0.468 C  
HETATM    9  C   UNL     1     -11.855  14.244  64.588  1.00  0.00    -0.459 C  
ENDBRANCH   7   8
ENDBRANCH   6   7
ENDBRANCH   5   6
BRANCH   5  10
HETATM   10  C   UNL     1      -9.809   9.768  65.655  1.00  0.00    -0.301 C  
BRANCH  10  11
HETATM   11  C   UNL     1      -9.167   9.350  66.976  1.00  0.00    -0.171 C  
BRANCH  11  12
HETATM   12  C   UNL     1      -7.738   8.809  66.835  1.00  0.00    -0.094 C  
HETATM   13  H   UNL     1      -5.966   9.524  66.375  1.00  0.00     0.000 HD 
HETATM   14  O   UNL     1      -6.852   9.859  66.463  1.00  0.00    -0.081 OA 
BRANCH  12  15
HETATM   15  C   UNL     1      -7.220   8.142  68.111  1.00  0.00    -0.094 A  
HETATM   16  C   UNL     1      -7.438   6.770  68.383  1.00  0.00    -0.095 A  
HETATM   17  C   UNL     1      -7.980   5.898  67.411  1.00  0.00    -0.102 A  
HETATM   18  C   UNL     1      -8.258   4.559  67.682  1.00  0.00    -0.099 A  
HETATM   19  C   UNL     1      -7.996   4.042  68.944  1.00  0.00    -0.067 A  
HETATM   20  C   UNL     1      -8.318   2.610  69.289  1.00  0.00    -0.059 C  
HETATM   21  C   UNL     1      -7.419   4.886  69.908  1.00  0.00    -0.056 A  
HETATM   22  F   UNL     1      -9.206   2.514  70.316  1.00  0.00    -0.145 F  
HETATM   23  C   UNL     1      -7.112   6.252  69.670  1.00  0.00    -0.073 A  
HETATM   24  F   UNL     1      -7.218   1.908  69.680  1.00  0.00    -0.036 F  
HETATM   25  F   UNL     1      -8.864   1.907  68.257  1.00  0.00    -0.087 F  
HETATM   26  C   UNL     1      -6.512   7.107  70.669  1.00  0.00    -0.043 A  
HETATM   27  C   UNL     1      -6.178   6.681  71.982  1.00  0.00    -0.038 A  
HETATM   28  C   UNL     1      -5.612   7.536  72.930  1.00  0.00    -0.040 A  
HETATM   29  C   UNL     1      -5.340   8.851  72.615  1.00  0.00    -0.069 A  
HETATM   30 CL   UNL     1      -5.255   6.950  74.508  1.00  0.00    -0.049 Cl 
HETATM   31  C   UNL     1      -5.642   9.310  71.337  1.00  0.00    -0.063 A  
HETATM   32  C   UNL     1      -6.227   8.457  70.358  1.00  0.00    -0.035 A  
HETATM   33 CL   UNL     1      -5.294  10.986  71.027  1.00  0.00    -0.113 Cl 
HETATM   34  C   UNL     1      -6.564   8.923  69.080  1.00  0.00    -0.047 A  
ENDBRANCH  12  15
ENDBRANCH  11  12
ENDBRANCH  10  11
ENDBRANCH   5  10
ENDBRANCH   4   5
ENDBRANCH   3   4
ENDBRANCH   2   3
TORSDOF 10
ENDMDL
MODEL      215
REMARK 921   NORMALIZED FREE ENERGY PREDICTED BY IDOCK:    3.30 KCAL/MOL
REMARK 922        TOTAL FREE ENERGY PREDICTED BY IDOCK:    2.73 KCAL/MOL
REMARK 923 INTER-LIGAND FREE ENERGY PREDICTED BY IDOCK:    2.37 KCAL/MOL
REMARK 924 INTRA-LIGAND FREE ENERGY PREDICTED BY IDOCK:    0.36 KCAL/MOL
REMARK 927      BINDING AFFINITY PREDICTED BY RF-SCORE:    0.00 PKD
ROOT
HETATM    1  C   UNL     1     -10.020  16.469  69.394  1.00  0.00    -0.187 C  
HETATM    2  C   UNL     1     -11.172  16.079  68.480  1.00  0.00    -0.374 C  
ENDROOT
BRANCH   2   3
HETATM    3  C   UNL     1     -12.231  15.306  69.264  1.00  0.00    -0.218 C  
BRANCH   3   4
HETATM    4  C   UNL     1     -12.094  13.783  69.152  1.00  0.00    -0.333 C  
BRANCH   4   5
HETATM    5  N   UNL     1     -11.495  13.038  70.289  1.00  0.00     0.040 NA 
BRANCH   5   6
HETATM    6  C   UNL     1     -12.338  11.885  70.672  1.00  0.00    -0.313 C  
BRANCH   6   7
HETATM    7  C   UNL     1     -13.121  12.017  71.992  1.00  0.00    -0.456 C  
BRANCH   7   8
HETATM    8  C   UNL     1     -14.152  13.143  71.996  1.00  0.00    -0.144 C  
HETATM    9  C   UNL     1     -13.464  14.505  72.020  1.00  0.00    -0.476 C  
ENDBRANCH   7   8
ENDBRANCH   6   7
ENDBRANCH   5   6
BRANCH   5  10
HETATM   10  C   UNL     1     -10.121  12.584  69.938  1.00  0.00     1.936 C  
BRANCH  10  11
HETATM   11  C   UNL     1     -10.055  11.074  69.720  1.00  0.00     0.285 C  
BRANCH  11  12
HETATM   12  C   UNL     1      -9.904  10.660  68.250  1.00  0.00    -0.163 C  
HETATM   13  H   UNL     1     -10.845   9.496  66.977  1.00  0.00     0.000 HD 
HETATM   14  O   UNL     1     -10.939   9.752  67.888  1.00  0.00    -0.262 OA 
BRANCH  12  15
HETATM   15  C   UNL     1      -9.917  11.850  67.287  1.00  0.00    -0.200 A  
HETATM   16  C   UNL     1      -8.976  12.903  67.380  1.00  0.00    -0.199 A  
HETATM   17  C   UNL     1      -7.860  12.826  68.245  1.00  0.00    -0.141 A  
HETATM   18  C   UNL     1      -6.959  13.879  68.395  1.00  0.00    -0.102 A  
HETATM   19  C   UNL     1      -7.142  15.052  67.675  1.00  0.00    -0.206 A  
HETATM   20  C   UNL     1      -6.212  16.227  67.837  1.00  0.00    -0.126 C  
HETATM   21  C   UNL     1      -8.224  15.128  66.781  1.00  0.00    -0.172 A  
HETATM   22  F   UNL     1      -6.861  17.342  68.273  1.00  0.00    -0.168 F  
HETATM   23  C   UNL     1      -9.160  14.075  66.592  1.00  0.00    -0.221 A  
HETATM   24  F   UNL     1      -5.609  16.580  66.668  1.00  0.00    -0.160 F  
HETATM   25  F   UNL     1      -5.205  16.010  68.728  1.00  0.00    -0.099 F  
HETATM   26  C   UNL     1     -10.264  14.165  65.664  1.00  0.00    -0.357 A  
HETATM   27  C   UNL     1     -10.534  15.303  64.859  1.00  0.00    -0.334 A  
HETATM   28  C   UNL     1     -11.619  15.364  63.981  1.00  0.00     0.110 A  
HETATM   29  C   UNL     1     -12.479  14.292  63.854  1.00  0.00    -0.062 A  
HETATM   30 CL   UNL     1     -11.892  16.787  63.053  1.00  0.00     6.095 Cl 
HETATM   31  C   UNL     1     -12.247  13.153  64.616  1.00  0.00    -0.414 A  
HETATM   32  C   UNL     1     -11.152  13.073  65.522  1.00  0.00    -0.300 A  
HETATM   33 CL   UNL     1     -13.391  11.857  64.417  1.00  0.00     0.441 Cl 
HETATM   34  C   UNL     1     -10.934  11.940  66.318  1.00  0.00    -0.345 A  
ENDBRANCH  12  15
ENDBRANCH  11  12
ENDBRANCH  10  11
ENDBRANCH   5  10
ENDBRANCH   4   5
ENDBRANCH   3   4
ENDBRANCH   2   3
TORSDOF 10
ENDMDL
MODEL      216
REMARK 921   NORMALIZED FREE ENERGY PREDICTED BY IDOCK:    3.94 KCAL/MOL
REMARK 922        TOTAL FREE ENERGY PREDICTED BY IDOCK:    3.75 KCAL/MOL
REMARK 923 INTER-LIGAND FREE ENERGY PREDICTED BY IDOCK:   -4.42 KCAL/MOL
REMARK 924 INTRA-LIGAND FREE ENERGY PREDICTED BY IDOCK:    8.16 KCAL/MOL
REMARK 927      BINDING AFFINITY PREDICTED BY RF-SCORE:    0.00 PKD
ROOT
HETATM    1  C   UNL     1      -6.177   7.779  72.048  1.00  0.00    -0.040 C  
HETATM    2  C   UNL     1      -5.365   6.946  73.029  1.00  0.00    -0.038 C  
ENDROOT
BRANCH   2   3
HETATM    3  C   UNL     1      -6.294   6.125  73.923  1.00  0.00    -0.070 C  
BRANCH   3   4
HETATM    4  C   UNL     1      -7.715   5.977  73.369  1.00  0.00    -0.100 C  
BRANCH   4   5
HETATM    5  N   UNL     1      -7.958   6.297  71.939  1.00  0.00    -0.102 NA 
BRANCH   5   6
HETATM    6  C   UNL     1      -7.383   5.257  71.058  1.00  0.00    -0.078 C  
BRANCH   6   7
HETATM    7  C   UNL     1      -7.584   3.795  71.501  1.00  0.00    -0.056 C  
BRANCH   7   8
HETATM    8  C   UNL     1      -6.311   3.114  71.998  1.00  0.00    -0.014 C  
HETATM    9  C   UNL     1      -5.424   2.706  70.825  1.00  0.00    -0.012 C  
ENDBRANCH   7   8
ENDBRANCH   6   7
ENDBRANCH   5   6
BRANCH   5  10
HETATM   10  C   UNL     1      -9.417   6.444  71.687  1.00  0.00    -0.153 C  
BRANCH  10  11
HETATM   11  C   UNL     1      -9.752   7.781  71.029  1.00  0.00    -0.174 C  
BRANCH  11  12
HETATM   12  C   UNL     1      -8.527   8.548  70.512  1.00  0.00    -0.137 C  
HETATM   13  H   UNL     1      -6.576   8.463  70.731  1.00  0.00     0.000 HD 
HETATM   14  O   UNL     1      -7.335   7.988  71.051  1.00  0.00    -0.055 OA 
BRANCH  12  15
HETATM   15  C   UNL     1      -8.430   8.565  68.985  1.00  0.00    -0.126 A  
HETATM   16  C   UNL     1      -8.986   9.610  68.208  1.00  0.00    -0.123 A  
HETATM   17  C   UNL     1      -9.496  10.787  68.804  1.00  0.00    -0.187 A  
HETATM   18  C   UNL     1     -10.102  11.797  68.059  1.00  0.00    -0.198 A  
HETATM   19  C   UNL     1     -10.214  11.666  66.681  1.00  0.00    -0.249 A  
HETATM   20  C   UNL     1     -10.897  12.718  65.845  1.00  0.00    -0.269 C  
HETATM   21  C   UNL     1      -9.676  10.521  66.070  1.00  0.00    -0.257 A  
HETATM   22  F   UNL     1     -11.973  12.224  65.171  1.00  0.00    -0.396 F  
HETATM   23  C   UNL     1      -9.042   9.473  66.791  1.00  0.00    -0.173 A  
HETATM   24  F   UNL     1     -10.074  13.245  64.897  1.00  0.00    -0.311 F  
HETATM   25  F   UNL     1     -11.363  13.775  66.567  1.00  0.00    -0.300 F  
HETATM   26  C   UNL     1      -8.486   8.304  66.149  1.00  0.00    -0.141 A  
HETATM   27  C   UNL     1      -8.521   8.076  64.748  1.00  0.00    -0.037 A  
HETATM   28  C   UNL     1      -7.986   6.928  64.158  1.00  0.00    -0.078 A  
HETATM   29  C   UNL     1      -7.383   5.958  64.933  1.00  0.00    -0.073 A  
HETATM   30 CL   UNL     1      -8.086   6.713  62.454  1.00  0.00    -0.104 Cl 
HETATM   31  C   UNL     1      -7.318   6.144  66.309  1.00  0.00    -0.084 A  
HETATM   32  C   UNL     1      -7.863   7.303  66.930  1.00  0.00    -0.111 A  
HETATM   33 CL   UNL     1      -6.564   4.865  67.216  1.00  0.00    -0.049 Cl 
HETATM   34  C   UNL     1      -7.830   7.479  68.320  1.00  0.00    -0.122 A  
ENDBRANCH  12  15
ENDBRANCH  11  12
ENDBRANCH  10  11
ENDBRANCH   5  10
ENDBRANCH   4   5
ENDBRANCH   3   4
ENDBRANCH   2   3
TORSDOF 10
ENDMDL
MODEL      217
REMARK 921   NORMALIZED FREE ENERGY PREDICTED BY IDOCK:    4.28 KCAL/MOL
REMARK 922        TOTAL FREE ENERGY PREDICTED BY IDOCK:    4.28 KCAL/MOL
REMARK 923 INTER-LIGAND FREE ENERGY PREDICTED BY IDOCK:   -4.85 KCAL/MOL
REMARK 924 INTRA-LIGAND FREE ENERGY PREDICTED BY IDOCK:    9.13 KCAL/MOL
REMARK 927      BINDING AFFINITY PREDICTED BY RF-SCORE:    0.00 PKD
ROOT
HETATM    1  C   UNL     1     -11.723  11.293  69.142  1.00  0.00    -0.410 C  
HETATM    2  C   UNL     1     -10.865  10.067  69.415  1.00  0.00    -0.270 C  
ENDROOT
BRANCH   2   3
HETATM    3  C   UNL     1     -11.087   9.572  70.843  1.00  0.00    -0.406 C  
BRANCH   3   4
HETATM    4  C   UNL     1     -10.130   8.451  71.265  1.00  0.00    -0.202 C  
BRANCH   4   5
HETATM    5  N   UNL     1     -10.696   7.237  71.906  1.00  0.00    -0.214 NA 
BRANCH   5   6
HETATM    6  C   UNL     1     -12.156   7.151  71.685  1.00  0.00    -0.336 C  
BRANCH   6   7
HETATM    7  C   UNL     1     -13.052   7.522  72.882  1.00  0.00     1.019 C  
BRANCH   7   8
HETATM    8  C   UNL     1     -14.295   8.325  72.505  1.00  0.00    -0.230 C  
HETATM    9  C   UNL     1     -13.910   9.723  72.029  1.00  0.00    -0.258 C  
ENDBRANCH   7   8
ENDBRANCH   6   7
ENDBRANCH   5   6
BRANCH   5  10
HETATM   10  C   UNL     1     -10.018   6.018  71.385  1.00  0.00    -0.186 C  
BRANCH  10  11
HETATM   11  C   UNL     1     -10.775   5.401  70.211  1.00  0.00    -0.286 C  
BRANCH  11  12
HETATM   12  C   UNL     1     -11.291   6.425  69.191  1.00  0.00    -0.296 C  
HETATM   13  H   UNL     1     -11.833   8.314  69.194  1.00  0.00     0.000 HD 
HETATM   14  O   UNL     1     -11.513   7.680  69.826  1.00  0.00    -0.033 OA 
BRANCH  12  15
HETATM   15  C   UNL     1     -10.343   6.621  68.005  1.00  0.00    -0.226 A  
HETATM   16  C   UNL     1      -9.407   5.632  67.620  1.00  0.00    -0.111 A  
HETATM   17  C   UNL     1      -9.420   4.337  68.187  1.00  0.00    -0.213 A  
HETATM   18  C   UNL     1      -8.467   3.372  67.866  1.00  0.00    -0.106 A  
HETATM   19  C   UNL     1      -7.464   3.670  66.953  1.00  0.00    -0.079 A  
HETATM   20  C   UNL     1      -6.393   2.668  66.606  1.00  0.00    -0.025 C  
HETATM   21  C   UNL     1      -7.462   4.940  66.350  1.00  0.00    -0.087 A  
HETATM   22  F   UNL     1      -5.145   3.122  66.907  1.00  0.00    -0.004 F  
HETATM   23  C   UNL     1      -8.419   5.948  66.643  1.00  0.00    -0.111 A  
HETATM   24  F   UNL     1      -6.371   2.367  65.279  1.00  0.00    -0.021 F  
HETATM   25  F   UNL     1      -6.524   1.479  67.258  1.00  0.00    -0.023 F  
HETATM   26  C   UNL     1      -8.409   7.247  66.010  1.00  0.00    -0.140 A  
HETATM   27  C   UNL     1      -7.448   7.653  65.046  1.00  0.00    -0.090 A  
HETATM   28  C   UNL     1      -7.457   8.922  64.462  1.00  0.00    -0.105 A  
HETATM   29  C   UNL     1      -8.428   9.843  64.800  1.00  0.00    -0.179 A  
HETATM   30 CL   UNL     1      -6.246   9.347  63.316  1.00  0.00    -0.091 Cl 
HETATM   31  C   UNL     1      -9.395   9.485  65.734  1.00  0.00    -0.233 A  
HETATM   32  C   UNL     1      -9.399   8.200  66.346  1.00  0.00    -0.269 A  
HETATM   33 CL   UNL     1     -10.567  10.710  66.125  1.00  0.00    -0.252 Cl 
HETATM   34  C   UNL     1     -10.351   7.846  67.312  1.00  0.00    -0.377 A  
ENDBRANCH  12  15
ENDBRANCH  11  12
ENDBRANCH  10  11
ENDBRANCH   5  10
ENDBRANCH   4   5
ENDBRANCH   3   4
ENDBRANCH   2   3
TORSDOF 10
ENDMDL
MODEL      218
REMARK 921   NORMALIZED FREE ENERGY PREDICTED BY IDOCK:    4.59 KCAL/MOL
REMARK 922        TOTAL FREE ENERGY PREDICTED BY IDOCK:    4.77 KCAL/MOL
REMARK 923 INTER-LIGAND FREE ENERGY PREDICTED BY IDOCK:    0.77 KCAL/MOL
REMARK 924 INTRA-LIGAND FREE ENERGY PREDICTED BY IDOCK:    4.00 KCAL/MOL
REMARK 927      BINDING AFFINITY PREDICTED BY RF-SCORE:    0.00 PKD
ROOT
HETATM    1  C   UNL     1      -6.489   4.978  70.405  1.00  0.00    -0.031 C  
HETATM    2  C   UNL     1      -7.742   4.920  69.544  1.00  0.00    -0.067 C  
ENDROOT
BRANCH   2   3
HETATM    3  C   UNL     1      -7.495   4.059  68.306  1.00  0.00    -0.059 C  
BRANCH   3   4
HETATM    4  C   UNL     1      -8.774   3.682  67.549  1.00  0.00    -0.108 C  
BRANCH   4   5
HETATM    5  N   UNL     1      -9.165   4.492  66.368  1.00  0.00    -0.128 NA 
BRANCH   5   6
HETATM    6  C   UNL     1     -10.610   4.806  66.394  1.00  0.00    -0.153 C  
BRANCH   6   7
HETATM    7  C   UNL     1     -11.343   4.776  65.039  1.00  0.00     0.571 C  
BRANCH   7   8
HETATM    8  C   UNL     1     -11.117   3.498  64.237  1.00  0.00     0.274 C  
HETATM    9  C   UNL     1     -10.352   3.796  62.950  1.00  0.00    -0.200 C  
ENDBRANCH   7   8
ENDBRANCH   6   7
ENDBRANCH   5   6
BRANCH   5  10
HETATM   10  C   UNL     1      -8.362   5.744  66.315  1.00  0.00    -0.115 C  
BRANCH  10  11
HETATM   11  C   UNL     1      -9.242   6.991  66.355  1.00  0.00    -0.186 C  
BRANCH  11  12
HETATM   12  C   UNL     1      -9.958   7.209  67.694  1.00  0.00    -0.158 C  
HETATM   13  H   UNL     1     -10.533   6.106  69.216  1.00  0.00     0.000 HD 
HETATM   14  O   UNL     1     -10.089   5.971  68.386  1.00  0.00    -0.142 OA 
BRANCH  12  15
HETATM   15  C   UNL     1      -9.247   8.219  68.598  1.00  0.00    -0.143 A  
HETATM   16  C   UNL     1      -9.027   9.559  68.200  1.00  0.00    -0.123 A  
HETATM   17  C   UNL     1      -9.613  10.091  67.028  1.00  0.00    -0.212 A  
HETATM   18  C   UNL     1      -9.356  11.388  66.588  1.00  0.00    -0.198 A  
HETATM   19  C   UNL     1      -8.502  12.207  67.316  1.00  0.00    -0.178 A  
HETATM   20  C   UNL     1      -8.169  13.603  66.854  1.00  0.00     0.067 C  
HETATM   21  C   UNL     1      -7.944  11.706  68.505  1.00  0.00    -0.144 A  
HETATM   22  F   UNL     1      -6.836  13.768  66.633  1.00  0.00     0.556 F  
HETATM   23  C   UNL     1      -8.187  10.394  68.992  1.00  0.00    -0.141 A  
HETATM   24  F   UNL     1      -8.516  14.550  67.768  1.00  0.00    -0.144 F  
HETATM   25  F   UNL     1      -8.787  13.958  65.693  1.00  0.00     0.262 F  
HETATM   26  C   UNL     1      -7.612   9.894  70.220  1.00  0.00    -0.172 A  
HETATM   27  C   UNL     1      -6.746  10.649  71.056  1.00  0.00     0.832 A  
HETATM   28  C   UNL     1      -6.195  10.133  72.231  1.00  0.00     1.053 A  
HETATM   29  C   UNL     1      -6.487   8.846  72.636  1.00  0.00     0.052 A  
HETATM   30 CL   UNL     1      -5.138  11.103  73.180  1.00  0.00     0.313 Cl 
HETATM   31  C   UNL     1      -7.337   8.074  71.852  1.00  0.00    -0.082 A  
HETATM   32  C   UNL     1      -7.904   8.578  70.648  1.00  0.00    -0.091 A  
HETATM   33 CL   UNL     1      -7.634   6.455  72.418  1.00  0.00    -0.096 Cl 
HETATM   34  C   UNL     1      -8.734   7.792  69.837  1.00  0.00    -0.142 A  
ENDBRANCH  12  15
ENDBRANCH  11  12
ENDBRANCH  10  11
ENDBRANCH   5  10
ENDBRANCH   4   5
ENDBRANCH   3   4
ENDBRANCH   2   3
TORSDOF 10
ENDMDL
MODEL      219
REMARK 921   NORMALIZED FREE ENERGY PREDICTED BY IDOCK:    4.63 KCAL/MOL
REMARK 922        TOTAL FREE ENERGY PREDICTED BY IDOCK:    4.84 KCAL/MOL
REMARK 923 INTER-LIGAND FREE ENERGY PREDICTED BY IDOCK:    5.36 KCAL/MOL
REMARK 924 INTRA-LIGAND FREE ENERGY PREDICTED BY IDOCK:   -0.52 KCAL/MOL
REMARK 927      BINDING AFFINITY PREDICTED BY RF-SCORE:    0.00 PKD
ROOT
HETATM    1  C   UNL     1      -8.421  18.662  70.496  1.00  0.00     3.386 C  
HETATM    2  C   UNL     1      -9.841  19.046  70.108  1.00  0.00     0.985 C  
ENDROOT
BRANCH   2   3
HETATM    3  C   UNL     1     -10.263  18.304  68.841  1.00  0.00    -0.299 C  
BRANCH   3   4
HETATM    4  C   UNL     1     -11.263  17.170  69.093  1.00  0.00     0.375 C  
BRANCH   4   5
HETATM    5  N   UNL     1     -10.786  15.939  69.772  1.00  0.00    -0.296 NA 
BRANCH   5   6
HETATM    6  C   UNL     1     -10.666  16.149  71.231  1.00  0.00     0.658 C  
BRANCH   6   7
HETATM    7  C   UNL     1     -11.725  17.060  71.881  1.00  0.00     0.771 C  
BRANCH   7   8
HETATM    8  C   UNL     1     -11.717  17.035  73.408  1.00  0.00     0.264 C  
HETATM    9  C   UNL     1     -11.588  18.447  73.971  1.00  0.00     1.785 C  
ENDBRANCH   7   8
ENDBRANCH   6   7
ENDBRANCH   5   6
BRANCH   5  10
HETATM   10  C   UNL     1     -11.705  14.804  69.484  1.00  0.00    -0.321 C  
BRANCH  10  11
HETATM   11  C   UNL     1     -11.175  13.483  70.037  1.00  0.00     0.088 C  
BRANCH  11  12
HETATM   12  C   UNL     1     -11.842  12.239  69.434  1.00  0.00    -0.310 C  
HETATM   13  H   UNL     1     -13.531  11.808  68.527  1.00  0.00     0.000 HD 
HETATM   14  O   UNL     1     -13.117  12.578  68.900  1.00  0.00     1.451 OA 
BRANCH  12  15
HETATM   15  C   UNL     1     -10.999  11.575  68.343  1.00  0.00    -0.267 A  
HETATM   16  C   UNL     1     -10.106  10.514  68.625  1.00  0.00    -0.190 A  
HETATM   17  C   UNL     1     -10.078   9.884  69.891  1.00  0.00    -0.297 A  
HETATM   18  C   UNL     1      -9.163   8.881  70.205  1.00  0.00    -0.195 A  
HETATM   19  C   UNL     1      -8.241   8.466  69.254  1.00  0.00    -0.116 A  
HETATM   20  C   UNL     1      -7.210   7.411  69.565  1.00  0.00    -0.082 C  
HETATM   21  C   UNL     1      -8.282   9.054  67.978  1.00  0.00    -0.110 A  
HETATM   22  F   UNL     1      -5.937   7.876  69.426  1.00  0.00    -0.030 F  
HETATM   23  C   UNL     1      -9.204  10.073  67.614  1.00  0.00    -0.148 A  
HETATM   24  F   UNL     1      -7.304   6.331  68.742  1.00  0.00    -0.076 F  
HETATM   25  F   UNL     1      -7.292   6.923  70.835  1.00  0.00    -0.071 F  
HETATM   26  C   UNL     1      -9.241  10.664  66.296  1.00  0.00    -0.193 A  
HETATM   27  C   UNL     1      -8.364  10.301  65.239  1.00  0.00    -0.165 A  
HETATM   28  C   UNL     1      -8.415  10.902  63.979  1.00  0.00     0.113 A  
HETATM   29  C   UNL     1      -9.347  11.883  63.707  1.00  0.00     0.100 A  
HETATM   30 CL   UNL     1      -7.305  10.423  62.755  1.00  0.00    -0.141 Cl 
HETATM   31  C   UNL     1     -10.232  12.263  64.710  1.00  0.00    -0.282 A  
HETATM   32  C   UNL     1     -10.192  11.669  66.003  1.00  0.00    -0.270 A  
HETATM   33 CL   UNL     1     -11.358  13.523  64.296  1.00  0.00    -0.405 Cl 
HETATM   34  C   UNL     1     -11.059  12.072  67.028  1.00  0.00    -0.351 A  
ENDBRANCH  12  15
ENDBRANCH  11  12
ENDBRANCH  10  11
ENDBRANCH   5  10
ENDBRANCH   4   5
ENDBRANCH   3   4
ENDBRANCH   2   3
TORSDOF 10
ENDMDL
MODEL      220
REMARK 921   NORMALIZED FREE ENERGY PREDICTED BY IDOCK:    4.68 KCAL/MOL
REMARK 922        TOTAL FREE ENERGY PREDICTED BY IDOCK:    4.92 KCAL/MOL
REMARK 923 INTER-LIGAND FREE ENERGY PREDICTED BY IDOCK:    4.42 KCAL/MOL
REMARK 924 INTRA-LIGAND FREE ENERGY PREDICTED BY IDOCK:    0.50 KCAL/MOL
REMARK 927      BINDING AFFINITY PREDICTED BY RF-SCORE:    0.00 PKD
ROOT
HETATM    1  C   UNL     1     -12.842   9.710  67.850  1.00  0.00     8.186 C  
HETATM    2  C   UNL     1     -11.394   9.496  68.267  1.00  0.00     0.211 C  
ENDROOT
BRANCH   2   3
HETATM    3  C   UNL     1     -10.681   8.594  67.261  1.00  0.00    -0.209 C  
BRANCH   3   4
HETATM    4  C   UNL     1      -9.155   8.742  67.271  1.00  0.00    -0.132 C  
BRANCH   4   5
HETATM    5  N   UNL     1      -8.321   7.517  67.177  1.00  0.00    -0.120 NA 
BRANCH   5   6
HETATM    6  C   UNL     1      -8.747   6.670  66.041  1.00  0.00    -0.147 C  
BRANCH   6   7
HETATM    7  C   UNL     1      -9.561   5.410  66.393  1.00  0.00    -0.172 C  
BRANCH   7   8
HETATM    8  C   UNL     1      -8.779   4.106  66.265  1.00  0.00    -0.115 C  
HETATM    9  C   UNL     1      -9.506   2.968  66.975  1.00  0.00    -0.097 C  
ENDBRANCH   7   8
ENDBRANCH   6   7
ENDBRANCH   5   6
BRANCH   5  10
HETATM   10  C   UNL     1      -6.885   7.882  67.043  1.00  0.00    -0.073 C  
BRANCH  10  11
HETATM   11  C   UNL     1      -6.446   8.879  68.113  1.00  0.00    -0.060 C  
BRANCH  11  12
HETATM   12  C   UNL     1      -6.121   8.239  69.470  1.00  0.00    -0.036 C  
HETATM   13  H   UNL     1      -5.655   8.852  71.278  1.00  0.00     0.000 HD 
HETATM   14  O   UNL     1      -5.857   9.249  70.438  1.00  0.00    -0.033 OA 
BRANCH  12  15
HETATM   15  C   UNL     1      -7.236   7.327  69.985  1.00  0.00    -0.078 A  
HETATM   16  C   UNL     1      -8.480   7.837  70.428  1.00  0.00    -0.132 A  
HETATM   17  C   UNL     1      -8.832   9.194  70.247  1.00  0.00    -0.238 A  
HETATM   18  C   UNL     1     -10.025   9.727  70.732  1.00  0.00    -0.151 A  
HETATM   19  C   UNL     1     -10.916   8.912  71.416  1.00  0.00    -0.380 A  
HETATM   20  C   UNL     1     -12.199   9.457  71.990  1.00  0.00    -0.326 C  
HETATM   21  C   UNL     1     -10.600   7.551  71.569  1.00  0.00    -0.236 A  
HETATM   22  F   UNL     1     -12.268   9.300  73.341  1.00  0.00     0.771 F  
HETATM   23  C   UNL     1      -9.399   6.967  71.082  1.00  0.00    -0.162 A  
HETATM   24  F   UNL     1     -13.301   8.836  71.486  1.00  0.00    -0.326 F  
HETATM   25  F   UNL     1     -12.381  10.787  71.759  1.00  0.00    -0.428 F  
HETATM   26  C   UNL     1      -9.089   5.564  71.240  1.00  0.00    -0.158 A  
HETATM   27  C   UNL     1      -9.935   4.633  71.899  1.00  0.00    -0.254 A  
HETATM   28  C   UNL     1      -9.600   3.286  72.048  1.00  0.00    -0.145 A  
HETATM   29  C   UNL     1      -8.414   2.797  71.540  1.00  0.00    -0.090 A  
HETATM   30 CL   UNL     1     -10.670   2.223  72.878  1.00  0.00    -0.240 Cl 
HETATM   31  C   UNL     1      -7.558   3.672  70.879  1.00  0.00    -0.040 A  
HETATM   32  C   UNL     1      -7.877   5.050  70.723  1.00  0.00    -0.083 A  
HETATM   33 CL   UNL     1      -6.072   2.984  70.290  1.00  0.00    -0.022 Cl 
HETATM   34  C   UNL     1      -7.003   5.942  70.087  1.00  0.00    -0.069 A  
ENDBRANCH  12  15
ENDBRANCH  11  12
ENDBRANCH  10  11
ENDBRANCH   5  10
ENDBRANCH   4   5
ENDBRANCH   3   4
ENDBRANCH   2   3
TORSDOF 10
ENDMDL
MODEL      221
REMARK 921   NORMALIZED FREE ENERGY PREDICTED BY IDOCK:    4.81 KCAL/MOL
REMARK 922        TOTAL FREE ENERGY PREDICTED BY IDOCK:    5.13 KCAL/MOL
REMARK 923 INTER-LIGAND FREE ENERGY PREDICTED BY IDOCK:    2.97 KCAL/MOL
REMARK 924 INTRA-LIGAND FREE ENERGY PREDICTED BY IDOCK:    2.16 KCAL/MOL
REMARK 927      BINDING AFFINITY PREDICTED BY RF-SCORE:    0.00 PKD
ROOT
HETATM    1  C   UNL     1      -7.061   9.880  69.078  1.00  0.00    -0.068 C  
HETATM    2  C   UNL     1      -6.664  10.290  67.667  1.00  0.00    -0.074 C  
ENDROOT
BRANCH   2   3
HETATM    3  C   UNL     1      -7.443   9.471  66.639  1.00  0.00    -0.093 C  
BRANCH   3   4
HETATM    4  C   UNL     1      -8.926   9.848  66.542  1.00  0.00    -0.146 C  
BRANCH   4   5
HETATM    5  N   UNL     1      -9.327  11.242  66.860  1.00  0.00    -0.175 NA 
BRANCH   5   6
HETATM    6  C   UNL     1      -8.951  12.166  65.768  1.00  0.00     0.162 C  
BRANCH   6   7
HETATM    7  C   UNL     1      -9.485  11.820  64.364  1.00  0.00     0.010 C  
BRANCH   7   8
HETATM    8  C   UNL     1     -10.875  12.377  64.071  1.00  0.00    -0.441 C  
HETATM    9  C   UNL     1     -10.897  13.893  64.246  1.00  0.00    -0.185 C  
ENDBRANCH   7   8
ENDBRANCH   6   7
ENDBRANCH   5   6
BRANCH   5  10
HETATM   10  C   UNL     1     -10.792  11.308  67.116  1.00  0.00    -0.270 C  
BRANCH  10  11
HETATM   11  C   UNL     1     -11.181  10.583  68.403  1.00  0.00    -0.339 C  
BRANCH  11  12
HETATM   12  C   UNL     1     -10.484  11.120  69.660  1.00  0.00     0.050 C  
HETATM   13  H   UNL     1      -8.653  11.578  70.207  1.00  0.00     0.000 HD 
HETATM   14  O   UNL     1      -9.085  11.245  69.428  1.00  0.00     0.150 OA 
BRANCH  12  15
HETATM   15  C   UNL     1     -11.040  12.469  70.124  1.00  0.00     0.606 A  
HETATM   16  C   UNL     1     -10.460  13.697  69.727  1.00  0.00     0.612 A  
HETATM   17  C   UNL     1      -9.455  13.757  68.735  1.00  0.00    -0.015 A  
HETATM   18  C   UNL     1      -8.830  14.951  68.377  1.00  0.00    -0.178 A  
HETATM   19  C   UNL     1      -9.197  16.135  69.001  1.00  0.00    -0.252 A  
HETATM   20  C   UNL     1      -8.519  17.441  68.670  1.00  0.00    -0.257 C  
HETATM   21  C   UNL     1     -10.223  16.099  69.960  1.00  0.00    -0.060 A  
HETATM   22  F   UNL     1      -7.912  17.997  69.755  1.00  0.00     0.311 F  
HETATM   23  C   UNL     1     -10.891  14.906  70.347  1.00  0.00    -0.111 A  
HETATM   24  F   UNL     1      -9.391  18.379  68.210  1.00  0.00    -0.287 F  
HETATM   25  F   UNL     1      -7.551  17.329  67.718  1.00  0.00    -0.169 F  
HETATM   26  C   UNL     1     -11.951  14.883  71.330  1.00  0.00    -0.399 A  
HETATM   27  C   UNL     1     -12.424  16.035  72.013  1.00  0.00    -0.498 A  
HETATM   28  C   UNL     1     -13.441  15.978  72.969  1.00  0.00    -0.486 A  
HETATM   29  C   UNL     1     -14.042  14.776  73.283  1.00  0.00     1.231 A  
HETATM   30 CL   UNL     1     -13.946  17.415  73.769  1.00  0.00     2.914 Cl 
HETATM   31  C   UNL     1     -13.616  13.624  72.632  1.00  0.00    -0.485 A  
HETATM   32  C   UNL     1     -12.576  13.659  71.660  1.00  0.00    -0.343 A  
HETATM   33 CL   UNL     1     -14.406  12.147  73.102  1.00  0.00     2.272 Cl 
HETATM   34  C   UNL     1     -12.120  12.495  71.026  1.00  0.00    -0.017 A  
ENDBRANCH  12  15
ENDBRANCH  11  12
ENDBRANCH  10  11
ENDBRANCH   5  10
ENDBRANCH   4   5
ENDBRANCH   3   4
ENDBRANCH   2   3
TORSDOF 10
ENDMDL
MODEL      222
REMARK 921   NORMALIZED FREE ENERGY PREDICTED BY IDOCK:    4.92 KCAL/MOL
REMARK 922        TOTAL FREE ENERGY PREDICTED BY IDOCK:    5.30 KCAL/MOL
REMARK 923 INTER-LIGAND FREE ENERGY PREDICTED BY IDOCK:   -4.22 KCAL/MOL
REMARK 924 INTRA-LIGAND FREE ENERGY PREDICTED BY IDOCK:    9.52 KCAL/MOL
REMARK 927      BINDING AFFINITY PREDICTED BY RF-SCORE:    0.00 PKD
ROOT
HETATM    1  C   UNL     1     -12.184   6.396  70.391  1.00  0.00     0.125 C  
HETATM    2  C   UNL     1     -11.142   6.150  71.472  1.00  0.00    -0.342 C  
ENDROOT
BRANCH   2   3
HETATM    3  C   UNL     1      -9.893   6.989  71.205  1.00  0.00    -0.180 C  
BRANCH   3   4
HETATM    4  C   UNL     1      -9.915   7.721  69.858  1.00  0.00    -0.191 C  
BRANCH   4   5
HETATM    5  N   UNL     1      -9.423   7.008  68.653  1.00  0.00    -0.136 NA 
BRANCH   5   6
HETATM    6  C   UNL     1      -9.193   5.575  68.940  1.00  0.00    -0.119 C  
BRANCH   6   7
HETATM    7  C   UNL     1      -9.239   4.619  67.733  1.00  0.00    -0.150 C  
BRANCH   7   8
HETATM    8  C   UNL     1      -9.042   3.149  68.094  1.00  0.00    -0.219 C  
HETATM    9  C   UNL     1      -8.255   3.014  69.394  1.00  0.00    -0.075 C  
ENDBRANCH   7   8
ENDBRANCH   6   7
ENDBRANCH   5   6
BRANCH   5  10
HETATM   10  C   UNL     1     -10.390   7.166  67.532  1.00  0.00    -0.236 C  
BRANCH  10  11
HETATM   11  C   UNL     1     -10.769   8.627  67.304  1.00  0.00    -0.209 C  
BRANCH  11  12
HETATM   12  C   UNL     1     -10.933   9.440  68.595  1.00  0.00    -0.032 C  
HETATM   13  H   UNL     1     -10.747   9.129  70.527  1.00  0.00     0.000 HD 
HETATM   14  O   UNL     1     -10.645   8.625  69.727  1.00  0.00    -0.221 OA 
BRANCH  12  15
HETATM   15  C   UNL     1     -10.049  10.688  68.635  1.00  0.00    -0.194 A  
HETATM   16  C   UNL     1     -10.570  11.969  68.935  1.00  0.00    -0.192 A  
HETATM   17  C   UNL     1     -11.895  12.142  69.397  1.00  0.00    -0.370 A  
HETATM   18  C   UNL     1     -12.444  13.400  69.637  1.00  0.00    -0.063 A  
HETATM   19  C   UNL     1     -11.677  14.539  69.428  1.00  0.00    -0.361 A  
HETATM   20  C   UNL     1     -12.245  15.919  69.639  1.00  0.00    -0.115 C  
HETATM   21  C   UNL     1     -10.345  14.382  69.008  1.00  0.00    -0.204 A  
HETATM   22  F   UNL     1     -12.216  16.668  68.503  1.00  0.00     0.071 F  
HETATM   23  C   UNL     1      -9.745  13.118  68.760  1.00  0.00     0.039 A  
HETATM   24  F   UNL     1     -11.553  16.630  70.572  1.00  0.00    -0.286 F  
HETATM   25  F   UNL     1     -13.542  15.920  70.054  1.00  0.00     0.191 F  
HETATM   26  C   UNL     1      -8.371  12.971  68.336  1.00  0.00    -0.118 A  
HETATM   27  C   UNL     1      -7.488  14.061  68.114  1.00  0.00    -0.131 A  
HETATM   28  C   UNL     1      -6.169  13.887  67.690  1.00  0.00    -0.095 A  
HETATM   29  C   UNL     1      -5.662  12.621  67.477  1.00  0.00    -0.131 A  
HETATM   30 CL   UNL     1      -5.166  15.259  67.423  1.00  0.00     0.101 Cl 
HETATM   31  C   UNL     1      -6.489  11.524  67.691  1.00  0.00    -0.067 A  
HETATM   32  C   UNL     1      -7.839  11.680  68.115  1.00  0.00    -0.133 A  
HETATM   33 CL   UNL     1      -5.783   9.965  67.375  1.00  0.00    -0.046 Cl 
HETATM   34  C   UNL     1      -8.686  10.579  68.299  1.00  0.00    -0.135 A  
ENDBRANCH  12  15
ENDBRANCH  11  12
ENDBRANCH  10  11
ENDBRANCH   5  10
ENDBRANCH   4   5
ENDBRANCH   3   4
ENDBRANCH   2   3
TORSDOF 10
ENDMDL
MODEL      223
REMARK 921   NORMALIZED FREE ENERGY PREDICTED BY IDOCK:    5.88 KCAL/MOL
REMARK 922        TOTAL FREE ENERGY PREDICTED BY IDOCK:    6.83 KCAL/MOL
REMARK 923 INTER-LIGAND FREE ENERGY PREDICTED BY IDOCK:    5.71 KCAL/MOL
REMARK 924 INTRA-LIGAND FREE ENERGY PREDICTED BY IDOCK:    1.12 KCAL/MOL
REMARK 927      BINDING AFFINITY PREDICTED BY RF-SCORE:    0.00 PKD
ROOT
HETATM    1  C   UNL     1     -10.256  15.003  72.737  1.00  0.00     3.883 C  
HETATM    2  C   UNL     1     -11.244  15.104  71.584  1.00  0.00    -0.312 C  
ENDROOT
BRANCH   2   3
HETATM    3  C   UNL     1     -11.817  13.727  71.255  1.00  0.00     0.164 C  
BRANCH   3   4
HETATM    4  C   UNL     1     -11.097  13.016  70.102  1.00  0.00     0.628 C  
BRANCH   4   5
HETATM    5  N   UNL     1     -10.367  11.756  70.390  1.00  0.00     2.101 NA 
BRANCH   5   6
HETATM    6  C   UNL     1     -11.285  10.715  70.903  1.00  0.00     0.163 C  
BRANCH   6   7
HETATM    7  C   UNL     1     -12.791  11.027  70.818  1.00  0.00    -0.354 C  
BRANCH   7   8
HETATM    8  C   UNL     1     -13.690   9.904  71.327  1.00  0.00    -0.174 C  
HETATM    9  C   UNL     1     -12.865   8.829  72.029  1.00  0.00    -0.442 C  
ENDBRANCH   7   8
ENDBRANCH   6   7
ENDBRANCH   5   6
BRANCH   5  10
HETATM   10  C   UNL     1      -9.669  11.276  69.166  1.00  0.00     0.031 C  
BRANCH  10  11
HETATM   11  C   UNL     1      -8.351  12.012  68.933  1.00  0.00     0.147 C  
BRANCH  11  12
HETATM   12  C   UNL     1      -8.477  13.541  68.951  1.00  0.00     0.196 C  
HETATM   13  H   UNL     1      -7.266  15.085  69.063  1.00  0.00     0.000 HD 
HETATM   14  O   UNL     1      -7.188  14.137  69.052  1.00  0.00    -0.116 OA 
BRANCH  12  15
HETATM   15  C   UNL     1      -9.194  14.099  67.719  1.00  0.00    -0.193 A  
HETATM   16  C   UNL     1      -9.323  15.489  67.490  1.00  0.00    -0.207 A  
HETATM   17  C   UNL     1      -8.638  16.439  68.283  1.00  0.00    -0.200 A  
HETATM   18  C   UNL     1      -8.802  17.812  68.111  1.00  0.00    -0.267 A  
HETATM   19  C   UNL     1      -9.659  18.287  67.127  1.00  0.00    -0.281 A  
HETATM   20  C   UNL     1      -9.894  19.763  66.933  1.00  0.00    -0.400 C  
HETATM   21  C   UNL     1     -10.316  17.356  66.303  1.00  0.00    -0.330 A  
HETATM   22  F   UNL     1     -11.201  20.105  67.106  1.00  0.00    -0.345 F  
HETATM   23  C   UNL     1     -10.170  15.949  66.440  1.00  0.00    -0.311 A  
HETATM   24  F   UNL     1      -9.560  20.184  65.682  1.00  0.00    -0.439 F  
HETATM   25  F   UNL     1      -9.187  20.547  67.794  1.00  0.00    -0.422 F  
HETATM   26  C   UNL     1     -10.846  15.003  65.581  1.00  0.00    -0.356 A  
HETATM   27  C   UNL     1     -11.725  15.373  64.529  1.00  0.00    -0.277 A  
HETATM   28  C   UNL     1     -12.374  14.434  63.725  1.00  0.00     0.076 A  
HETATM   29  C   UNL     1     -12.173  13.083  63.922  1.00  0.00    -0.511 A  
HETATM   30 CL   UNL     1     -13.442  14.961  62.483  1.00  0.00     5.139 Cl 
HETATM   31  C   UNL     1     -11.313  12.675  64.936  1.00  0.00    -0.311 A  
HETATM   32  C   UNL     1     -10.647  13.616  65.771  1.00  0.00    -0.285 A  
HETATM   33 CL   UNL     1     -11.132  10.956  65.136  1.00  0.00    -0.031 Cl 
HETATM   34  C   UNL     1      -9.805  13.209  66.816  1.00  0.00    -0.251 A  
ENDBRANCH  12  15
ENDBRANCH  11  12
ENDBRANCH  10  11
ENDBRANCH   5  10
ENDBRANCH   4   5
ENDBRANCH   3   4
ENDBRANCH   2   3
TORSDOF 10
ENDMDL
MODEL      224
REMARK 921   NORMALIZED FREE ENERGY PREDICTED BY IDOCK:    6.25 KCAL/MOL
REMARK 922        TOTAL FREE ENERGY PREDICTED BY IDOCK:    7.42 KCAL/MOL
REMARK 923 INTER-LIGAND FREE ENERGY PREDICTED BY IDOCK:    8.42 KCAL/MOL
REMARK 924 INTRA-LIGAND FREE ENERGY PREDICTED BY IDOCK:   -1.00 KCAL/MOL
REMARK 927      BINDING AFFINITY PREDICTED BY RF-SCORE:    0.00 PKD
ROOT
HETATM    1  C   UNL     1      -9.569   4.742  72.176  1.00  0.00    -0.202 C  
HETATM    2  C   UNL     1      -8.390   4.799  71.215  1.00  0.00    -0.108 C  
ENDROOT
BRANCH   2   3
HETATM    3  C   UNL     1      -8.078   6.248  70.846  1.00  0.00    -0.124 C  
BRANCH   3   4
HETATM    4  C   UNL     1      -9.142   6.903  69.958  1.00  0.00    -0.145 C  
BRANCH   4   5
HETATM    5  N   UNL     1      -8.824   7.147  68.528  1.00  0.00    -0.126 NA 
BRANCH   5   6
HETATM    6  C   UNL     1      -9.916   6.670  67.652  1.00  0.00    -0.131 C  
BRANCH   6   7
HETATM    7  C   UNL     1      -9.582   5.486  66.724  1.00  0.00    -0.156 C  
BRANCH   7   8
HETATM    8  C   UNL     1     -10.050   4.131  67.249  1.00  0.00     0.035 C  
HETATM    9  C   UNL     1      -8.891   3.369  67.884  1.00  0.00    -0.152 C  
ENDBRANCH   7   8
ENDBRANCH   6   7
ENDBRANCH   5   6
BRANCH   5  10
HETATM   10  C   UNL     1      -8.568   8.595  68.298  1.00  0.00    -0.138 C  
BRANCH  10  11
HETATM   11  C   UNL     1      -9.242   9.470  69.353  1.00  0.00    -0.181 C  
BRANCH  11  12
HETATM   12  C   UNL     1     -10.038  10.647  68.774  1.00  0.00    -0.191 C  
HETATM   13  H   UNL     1     -11.875  11.337  68.885  1.00  0.00     0.000 HD 
HETATM   14  O   UNL     1     -11.382  10.608  69.245  1.00  0.00    -0.244 OA 
BRANCH  12  15
HETATM   15  C   UNL     1      -9.426  12.009  69.109  1.00  0.00     0.435 A  
HETATM   16  C   UNL     1      -9.783  13.186  68.410  1.00  0.00    -0.196 A  
HETATM   17  C   UNL     1     -10.858  13.206  67.491  1.00  0.00    -0.269 A  
HETATM   18  C   UNL     1     -11.183  14.340  66.748  1.00  0.00    -0.337 A  
HETATM   19  C   UNL     1     -10.441  15.503  66.905  1.00  0.00    -0.301 A  
HETATM   20  C   UNL     1     -10.736  16.739  66.093  1.00  0.00    -0.116 C  
HETATM   21  C   UNL     1      -9.396  15.511  67.844  1.00  0.00    -0.192 A  
HETATM   22  F   UNL     1      -9.674  17.121  65.331  1.00  0.00    -0.065 F  
HETATM   23  C   UNL     1      -9.038  14.381  68.627  1.00  0.00    -0.178 A  
HETATM   24  F   UNL     1     -11.043  17.813  66.871  1.00  0.00    -0.183 F  
HETATM   25  F   UNL     1     -11.780  16.591  65.230  1.00  0.00     0.198 F  
HETATM   26  C   UNL     1      -7.965  14.405  69.595  1.00  0.00     0.328 A  
HETATM   27  C   UNL     1      -7.158  15.544  69.857  1.00  0.00    -0.047 A  
HETATM   28  C   UNL     1      -6.118  15.531  70.790  1.00  0.00     0.214 A  
HETATM   29  C   UNL     1      -5.839  14.390  71.514  1.00  0.00    -0.091 A  
HETATM   30 CL   UNL     1      -5.170  16.946  71.036  1.00  0.00    -0.193 Cl 
HETATM   31  C   UNL     1      -6.611  13.254  71.296  1.00  0.00     1.923 A  
HETATM   32  C   UNL     1      -7.670  13.243  70.345  1.00  0.00     3.009 A  
HETATM   33 CL   UNL     1      -6.179  11.850  72.230  1.00  0.00     2.806 Cl 
HETATM   34  C   UNL     1      -8.428  12.091  70.098  1.00  0.00     3.536 A  
ENDBRANCH  12  15
ENDBRANCH  11  12
ENDBRANCH  10  11
ENDBRANCH   5  10
ENDBRANCH   4   5
ENDBRANCH   3   4
ENDBRANCH   2   3
TORSDOF 10
ENDMDL
MODEL      225
REMARK 921   NORMALIZED FREE ENERGY PREDICTED BY IDOCK:    6.47 KCAL/MOL
REMARK 922        TOTAL FREE ENERGY PREDICTED BY IDOCK:    7.76 KCAL/MOL
REMARK 923 INTER-LIGAND FREE ENERGY PREDICTED BY IDOCK:    3.71 KCAL/MOL
REMARK 924 INTRA-LIGAND FREE ENERGY PREDICTED BY IDOCK:    4.05 KCAL/MOL
REMARK 927      BINDING AFFINITY PREDICTED BY RF-SCORE:    0.00 PKD
ROOT
HETATM    1  C   UNL     1     -10.218   7.009  73.188  1.00  0.00    -0.288 C  
HETATM    2  C   UNL     1      -9.940   8.360  73.830  1.00  0.00     1.354 C  
ENDROOT
BRANCH   2   3
HETATM    3  C   UNL     1      -8.681   8.983  73.229  1.00  0.00     1.111 C  
BRANCH   3   4
HETATM    4  C   UNL     1      -7.394   8.216  73.556  1.00  0.00    -0.145 C  
BRANCH   4   5
HETATM    5  N   UNL     1      -6.883   7.232  72.569  1.00  0.00    -0.066 NA 
BRANCH   5   6
HETATM    6  C   UNL     1      -7.959   6.788  71.655  1.00  0.00    -0.102 C  
BRANCH   6   7
HETATM    7  C   UNL     1      -8.875   5.663  72.171  1.00  0.00    -0.137 C  
BRANCH   7   8
HETATM    8  C   UNL     1      -8.876   4.410  71.299  1.00  0.00    -0.152 C  
HETATM    9  C   UNL     1      -9.919   4.525  70.191  1.00  0.00    -0.278 C  
ENDBRANCH   7   8
ENDBRANCH   6   7
ENDBRANCH   5   6
BRANCH   5  10
HETATM   10  C   UNL     1      -5.754   7.818  71.797  1.00  0.00    -0.035 C  
BRANCH  10  11
HETATM   11  C   UNL     1      -6.240   8.724  70.668  1.00  0.00    -0.039 C  
BRANCH  11  12
HETATM   12  C   UNL     1      -6.373  10.201  71.064  1.00  0.00     0.072 C  
HETATM   13  H   UNL     1      -5.232  11.584  71.869  1.00  0.00     0.000 HD 
HETATM   14  O   UNL     1      -5.150  10.669  71.623  1.00  0.00    -0.133 OA 
BRANCH  12  15
HETATM   15  C   UNL     1      -6.769  11.102  69.893  1.00  0.00    -0.098 A  
HETATM   16  C   UNL     1      -7.035  10.585  68.603  1.00  0.00    -0.067 A  
HETATM   17  C   UNL     1      -7.132   9.194  68.366  1.00  0.00    -0.073 A  
HETATM   18  C   UNL     1      -7.331   8.667  67.092  1.00  0.00    -0.088 A  
HETATM   19  C   UNL     1      -7.447   9.519  66.002  1.00  0.00    -0.100 A  
HETATM   20  C   UNL     1      -7.625   8.987  64.603  1.00  0.00    -0.107 C  
HETATM   21  C   UNL     1      -7.394  10.906  66.226  1.00  0.00    -0.127 A  
HETATM   22  F   UNL     1      -6.615   9.369  63.773  1.00  0.00    -0.088 F  
HETATM   23  C   UNL     1      -7.201  11.485  67.510  1.00  0.00    -0.111 A  
HETATM   24  F   UNL     1      -8.773   9.428  64.020  1.00  0.00    -0.179 F  
HETATM   25  F   UNL     1      -7.668   7.627  64.535  1.00  0.00    -0.094 F  
HETATM   26  C   UNL     1      -7.155  12.913  67.728  1.00  0.00    -0.137 A  
HETATM   27  C   UNL     1      -7.286  13.878  66.694  1.00  0.00     1.406 A  
HETATM   28  C   UNL     1      -7.224  15.252  66.935  1.00  0.00     0.221 A  
HETATM   29  C   UNL     1      -7.038  15.732  68.215  1.00  0.00    -0.115 A  
HETATM   30 CL   UNL     1      -7.371  16.359  65.626  1.00  0.00     1.422 Cl 
HETATM   31  C   UNL     1      -6.914  14.822  69.260  1.00  0.00    -0.149 A  
HETATM   32  C   UNL     1      -6.968  13.418  69.035  1.00  0.00    -0.084 A  
HETATM   33 CL   UNL     1      -6.657  15.507  70.839  1.00  0.00     0.596 Cl 
HETATM   34  C   UNL     1      -6.809  12.497  70.080  1.00  0.00     0.523 A  
ENDBRANCH  12  15
ENDBRANCH  11  12
ENDBRANCH  10  11
ENDBRANCH   5  10
ENDBRANCH   4   5
ENDBRANCH   3   4
ENDBRANCH   2   3
TORSDOF 10
ENDMDL
MODEL      226
REMARK 921   NORMALIZED FREE ENERGY PREDICTED BY IDOCK:    6.68 KCAL/MOL
REMARK 922        TOTAL FREE ENERGY PREDICTED BY IDOCK:    8.09 KCAL/MOL
REMARK 923 INTER-LIGAND FREE ENERGY PREDICTED BY IDOCK:    1.90 KCAL/MOL
REMARK 924 INTRA-LIGAND FREE ENERGY PREDICTED BY IDOCK:    6.19 KCAL/MOL
REMARK 927      BINDING AFFINITY PREDICTED BY RF-SCORE:    0.00 PKD
ROOT
HETATM    1  C   UNL     1      -9.579  11.519  66.429  1.00  0.00    -0.230 C  
HETATM    2  C   UNL     1      -8.927  12.485  65.450  1.00  0.00     0.661 C  
ENDROOT
BRANCH   2   3
HETATM    3  C   UNL     1      -9.760  13.760  65.330  1.00  0.00    -0.073 C  
BRANCH   3   4
HETATM    4  C   UNL     1     -11.012  13.767  66.215  1.00  0.00    -0.297 C  
BRANCH   4   5
HETATM    5  N   UNL     1     -11.921  12.594  66.169  1.00  0.00    -0.521 NA 
BRANCH   5   6
HETATM    6  C   UNL     1     -11.407  11.559  65.245  1.00  0.00    -0.081 C  
BRANCH   6   7
HETATM    7  C   UNL     1     -12.442  10.896  64.316  1.00  0.00     2.660 C  
BRANCH   7   8
HETATM    8  C   UNL     1     -12.477  11.480  62.906  1.00  0.00     0.454 C  
HETATM    9  C   UNL     1     -11.319  12.451  62.695  1.00  0.00     1.292 C  
ENDBRANCH   7   8
ENDBRANCH   6   7
ENDBRANCH   5   6
BRANCH   5  10
HETATM   10  C   UNL     1     -12.100  12.030  67.535  1.00  0.00     0.147 C  
BRANCH  10  11
HETATM   11  C   UNL     1     -11.565  12.966  68.616  1.00  0.00    -0.353 C  
BRANCH  11  12
HETATM   12  C   UNL     1     -11.183  12.259  69.923  1.00  0.00     0.125 C  
HETATM   13  H   UNL     1     -12.116  11.507  71.480  1.00  0.00     0.000 HD 
HETATM   14  O   UNL     1     -12.353  11.944  70.670  1.00  0.00    -0.356 OA 
BRANCH  12  15
HETATM   15  C   UNL     1     -10.370  10.982  69.699  1.00  0.00     0.001 A  
HETATM   16  C   UNL     1     -10.788   9.727  70.203  1.00  0.00    -0.340 A  
HETATM   17  C   UNL     1     -12.067   9.547  70.779  1.00  0.00    -0.305 A  
HETATM   18  C   UNL     1     -12.470   8.335  71.336  1.00  0.00    -0.315 A  
HETATM   19  C   UNL     1     -11.603   7.251  71.330  1.00  0.00    -0.305 A  
HETATM   20  C   UNL     1     -11.987   5.934  71.956  1.00  0.00    -0.077 C  
HETATM   21  C   UNL     1     -10.343   7.402  70.725  1.00  0.00    -0.208 A  
HETATM   22  F   UNL     1     -11.144   5.577  72.964  1.00  0.00    -0.260 F  
HETATM   23  C   UNL     1      -9.897   8.617  70.139  1.00  0.00    -0.191 A  
HETATM   24  F   UNL     1     -11.959   4.905  71.065  1.00  0.00     1.297 F  
HETATM   25  F   UNL     1     -13.237   5.928  72.496  1.00  0.00    -0.164 F  
HETATM   26  C   UNL     1      -8.601   8.756  69.513  1.00  0.00    -0.130 A  
HETATM   27  C   UNL     1      -7.645   7.710  69.428  1.00  0.00    -0.095 A  
HETATM   28  C   UNL     1      -6.395   7.881  68.829  1.00  0.00    -0.044 A  
HETATM   29  C   UNL     1      -6.041   9.096  68.277  1.00  0.00    -0.053 A  
HETATM   30 CL   UNL     1      -5.280   6.571  68.782  1.00  0.00    -0.014 Cl 
HETATM   31  C   UNL     1      -6.951  10.146  68.330  1.00  0.00    -0.066 A  
HETATM   32  C   UNL     1      -8.227   9.995  68.943  1.00  0.00    -0.121 A  
HETATM   33 CL   UNL     1      -6.420  11.650  67.636  1.00  0.00    -0.068 Cl 
HETATM   34  C   UNL     1      -9.134  11.060  69.029  1.00  0.00    -0.076 A  
ENDBRANCH  12  15
ENDBRANCH  11  12
ENDBRANCH  10  11
ENDBRANCH   5  10
ENDBRANCH   4   5
ENDBRANCH   3   4
ENDBRANCH   2   3
TORSDOF 10
ENDMDL
MODEL      227
REMARK 921   NORMALIZED FREE ENERGY PREDICTED BY IDOCK:    7.26 KCAL/MOL
REMARK 922        TOTAL FREE ENERGY PREDICTED BY IDOCK:    9.01 KCAL/MOL
REMARK 923 INTER-LIGAND FREE ENERGY PREDICTED BY IDOCK:    4.20 KCAL/MOL
REMARK 924 INTRA-LIGAND FREE ENERGY PREDICTED BY IDOCK:    4.81 KCAL/MOL
REMARK 927      BINDING AFFINITY PREDICTED BY RF-SCORE:    0.00 PKD
ROOT
HETATM    1  C   UNL     1     -11.996   7.154  65.995  1.00  0.00     6.018 C  
HETATM    2  C   UNL     1     -11.841   7.311  67.500  1.00  0.00     1.969 C  
ENDROOT
BRANCH   2   3
HETATM    3  C   UNL     1     -10.853   6.279  68.042  1.00  0.00    -0.409 C  
BRANCH   3   4
HETATM    4  C   UNL     1      -9.389   6.731  67.978  1.00  0.00    -0.118 C  
BRANCH   4   5
HETATM    5  N   UNL     1      -8.715   6.772  66.657  1.00  0.00    -0.122 NA 
BRANCH   5   6
HETATM    6  C   UNL     1      -8.617   5.418  66.068  1.00  0.00    -0.127 C  
BRANCH   6   7
HETATM    7  C   UNL     1      -7.825   4.374  66.879  1.00  0.00    -0.098 C  
BRANCH   7   8
HETATM    8  C   UNL     1      -8.512   3.015  66.983  1.00  0.00    -0.101 C  
HETATM    9  C   UNL     1      -9.629   3.054  68.022  1.00  0.00    -0.126 C  
ENDBRANCH   7   8
ENDBRANCH   6   7
ENDBRANCH   5   6
BRANCH   5  10
HETATM   10  C   UNL     1      -9.443   7.688  65.736  1.00  0.00     0.259 C  
BRANCH  10  11
HETATM   11  C   UNL     1     -10.200   8.776  66.493  1.00  0.00    -0.314 C  
BRANCH  11  12
HETATM   12  C   UNL     1      -9.974  10.192  65.947  1.00  0.00    -0.267 C  
HETATM   13  H   UNL     1     -11.067  11.626  65.166  1.00  0.00     0.000 HD 
HETATM   14  O   UNL     1     -11.207  10.750  65.504  1.00  0.00     0.128 OA 
BRANCH  12  15
HETATM   15  C   UNL     1      -9.333  11.134  66.968  1.00  0.00    -0.182 A  
HETATM   16  C   UNL     1      -9.417  12.542  66.848  1.00  0.00    -0.219 A  
HETATM   17  C   UNL     1     -10.252  13.156  65.887  1.00  0.00    -0.294 A  
HETATM   18  C   UNL     1     -10.298  14.539  65.713  1.00  0.00    -0.347 A  
HETATM   19  C   UNL     1      -9.510  15.360  66.508  1.00  0.00    -0.298 A  
HETATM   20  C   UNL     1      -9.503  16.857  66.327  1.00  0.00    -0.271 C  
HETATM   21  C   UNL     1      -8.706  14.767  67.496  1.00  0.00    -0.195 A  
HETATM   22  F   UNL     1      -8.267  17.333  66.009  1.00  0.00    -0.301 F  
HETATM   23  C   UNL     1      -8.635  13.364  67.711  1.00  0.00    -0.194 A  
HETATM   24  F   UNL     1      -9.879  17.520  67.455  1.00  0.00    -0.269 F  
HETATM   25  F   UNL     1     -10.336  17.293  65.340  1.00  0.00    -0.257 F  
HETATM   26  C   UNL     1      -7.809  12.768  68.736  1.00  0.00     0.040 A  
HETATM   27  C   UNL     1      -6.983  13.510  69.620  1.00  0.00     0.189 A  
HETATM   28  C   UNL     1      -6.184  12.903  70.592  1.00  0.00     0.293 A  
HETATM   29  C   UNL     1      -6.178  11.531  70.738  1.00  0.00     0.372 A  
HETATM   30 CL   UNL     1      -5.193  13.870  71.614  1.00  0.00    -0.173 Cl 
HETATM   31  C   UNL     1      -6.980  10.764  69.899  1.00  0.00    -0.123 A  
HETATM   32  C   UNL     1      -7.795  11.363  68.897  1.00  0.00    -0.096 A  
HETATM   33 CL   UNL     1      -6.897   9.042  70.129  1.00  0.00    -0.041 Cl 
HETATM   34  C   UNL     1      -8.579  10.593  68.027  1.00  0.00    -0.122 A  
ENDBRANCH  12  15
ENDBRANCH  11  12
ENDBRANCH  10  11
ENDBRANCH   5  10
ENDBRANCH   4   5
ENDBRANCH   3   4
ENDBRANCH   2   3
TORSDOF 10
ENDMDL
MODEL      228
REMARK 921   NORMALIZED FREE ENERGY PREDICTED BY IDOCK:    8.13 KCAL/MOL
REMARK 922        TOTAL FREE ENERGY PREDICTED BY IDOCK:   10.39 KCAL/MOL
REMARK 923 INTER-LIGAND FREE ENERGY PREDICTED BY IDOCK:   -2.93 KCAL/MOL
REMARK 924 INTRA-LIGAND FREE ENERGY PREDICTED BY IDOCK:   13.32 KCAL/MOL
REMARK 927      BINDING AFFINITY PREDICTED BY RF-SCORE:    0.00 PKD
ROOT
HETATM    1  C   UNL     1     -11.067  11.282  68.315  1.00  0.00    -0.297 C  
HETATM    2  C   UNL     1     -10.283  10.028  68.671  1.00  0.00    -0.198 C  
ENDROOT
BRANCH   2   3
HETATM    3  C   UNL     1     -10.569   9.615  70.114  1.00  0.00    -0.320 C  
BRANCH   3   4
HETATM    4  C   UNL     1      -9.704   8.450  70.607  1.00  0.00    -0.178 C  
BRANCH   4   5
HETATM    5  N   UNL     1     -10.364   7.322  71.311  1.00  0.00    -0.194 NA 
BRANCH   5   6
HETATM    6  C   UNL     1     -11.836   7.417  71.202  1.00  0.00    -0.301 C  
BRANCH   6   7
HETATM    7  C   UNL     1     -12.502   8.604  71.923  1.00  0.00    -0.412 C  
BRANCH   7   8
HETATM    8  C   UNL     1     -13.742   9.147  71.216  1.00  0.00    -0.250 C  
HETATM    9  C   UNL     1     -13.912  10.638  71.495  1.00  0.00     0.644 C  
ENDBRANCH   7   8
ENDBRANCH   6   7
ENDBRANCH   5   6
BRANCH   5  10
HETATM   10  C   UNL     1      -9.884   6.024  70.765  1.00  0.00    -0.181 C  
BRANCH  10  11
HETATM   11  C   UNL     1     -10.751   5.534  69.607  1.00  0.00    -0.349 C  
BRANCH  11  12
HETATM   12  C   UNL     1     -11.237   6.651  68.673  1.00  0.00    -0.157 C  
HETATM   13  H   UNL     1     -11.638   8.570  68.810  1.00  0.00     0.000 HD 
HETATM   14  O   UNL     1     -11.337   7.878  69.388  1.00  0.00     0.098 OA 
BRANCH  12  15
HETATM   15  C   UNL     1     -10.332   6.850  67.455  1.00  0.00    -0.297 A  
HETATM   16  C   UNL     1     -10.124   5.828  66.499  1.00  0.00    -0.216 A  
HETATM   17  C   UNL     1     -10.881   4.634  66.512  1.00  0.00     0.399 A  
HETATM   18  C   UNL     1     -10.646   3.592  65.617  1.00  0.00     0.965 A  
HETATM   19  C   UNL     1      -9.642   3.712  64.666  1.00  0.00    -0.172 A  
HETATM   20  C   UNL     1      -9.331   2.593  63.705  1.00  0.00    -0.102 C  
HETATM   21  C   UNL     1      -8.907   4.909  64.614  1.00  0.00    -0.139 A  
HETATM   22  F   UNL     1      -8.051   2.146  63.830  1.00  0.00    -0.074 F  
HETATM   23  C   UNL     1      -9.120   5.998  65.501  1.00  0.00     0.022 A  
HETATM   24  F   UNL     1      -9.468   2.971  62.404  1.00  0.00    -0.090 F  
HETATM   25  F   UNL     1     -10.125   1.498  63.863  1.00  0.00    -0.129 F  
HETATM   26  C   UNL     1      -8.362   7.227  65.432  1.00  0.00    -0.127 A  
HETATM   27  C   UNL     1      -7.330   7.471  64.488  1.00  0.00    -0.087 A  
HETATM   28  C   UNL     1      -6.606   8.664  64.455  1.00  0.00    -0.066 A  
HETATM   29  C   UNL     1      -6.881   9.676  65.353  1.00  0.00    -0.094 A  
HETATM   30 CL   UNL     1      -5.355   8.877  63.293  1.00  0.00    -0.067 Cl 
HETATM   31  C   UNL     1      -7.890   9.484  66.290  1.00  0.00    -0.100 A  
HETATM   32  C   UNL     1      -8.635   8.273  66.345  1.00  0.00    -0.144 A  
HETATM   33 CL   UNL     1      -8.157  10.796  67.401  1.00  0.00    -0.111 Cl 
HETATM   34  C   UNL     1      -9.630   8.061  67.309  1.00  0.00    -0.210 A  
ENDBRANCH  12  15
ENDBRANCH  11  12
ENDBRANCH  10  11
ENDBRANCH   5  10
ENDBRANCH   4   5
ENDBRANCH   3   4
ENDBRANCH   2   3
TORSDOF 10
ENDMDL
MODEL      229
REMARK 921   NORMALIZED FREE ENERGY PREDICTED BY IDOCK:    8.98 KCAL/MOL
REMARK 922        TOTAL FREE ENERGY PREDICTED BY IDOCK:   11.73 KCAL/MOL
REMARK 923 INTER-LIGAND FREE ENERGY PREDICTED BY IDOCK:    4.19 KCAL/MOL
REMARK 924 INTRA-LIGAND FREE ENERGY PREDICTED BY IDOCK:    7.54 KCAL/MOL
REMARK 927      BINDING AFFINITY PREDICTED BY RF-SCORE:    0.00 PKD
ROOT
HETATM    1  C   UNL     1     -11.255   8.664  70.550  1.00  0.00    -0.266 C  
HETATM    2  C   UNL     1     -10.985   7.705  69.399  1.00  0.00    -0.071 C  
ENDROOT
BRANCH   2   3
HETATM    3  C   UNL     1      -9.830   8.219  68.541  1.00  0.00    -0.188 C  
BRANCH   3   4
HETATM    4  C   UNL     1     -10.112   9.567  67.867  1.00  0.00    -0.191 C  
BRANCH   4   5
HETATM    5  N   UNL     1     -10.019  10.803  68.684  1.00  0.00    -0.174 NA 
BRANCH   5   6
HETATM    6  C   UNL     1     -11.224  10.977  69.524  1.00  0.00    -0.279 C  
BRANCH   6   7
HETATM    7  C   UNL     1     -11.660  12.428  69.804  1.00  0.00    -0.302 C  
BRANCH   7   8
HETATM    8  C   UNL     1     -13.043  12.551  70.440  1.00  0.00     0.554 C  
HETATM    9  C   UNL     1     -13.336  14.001  70.815  1.00  0.00    -0.086 C  
ENDBRANCH   7   8
ENDBRANCH   6   7
ENDBRANCH   5   6
BRANCH   5  10
HETATM   10  C   UNL     1      -8.795  10.768  69.531  1.00  0.00     0.153 C  
BRANCH  10  11
HETATM   11  C   UNL     1      -7.799  11.859  69.142  1.00  0.00     0.206 C  
BRANCH  11  12
HETATM   12  C   UNL     1      -8.097  13.229  69.766  1.00  0.00     1.692 C  
HETATM   13  H   UNL     1      -7.068  14.787  70.379  1.00  0.00     0.000 HD 
HETATM   14  O   UNL     1      -6.884  13.938  69.993  1.00  0.00     0.014 OA 
BRANCH  12  15
HETATM   15  C   UNL     1      -9.030  14.088  68.909  1.00  0.00     0.059 A  
HETATM   16  C   UNL     1      -9.564  13.624  67.683  1.00  0.00    -0.221 A  
HETATM   17  C   UNL     1      -9.420  12.278  67.273  1.00  0.00    -0.186 A  
HETATM   18  C   UNL     1      -9.885  11.820  66.041  1.00  0.00    -0.258 A  
HETATM   19  C   UNL     1     -10.522  12.697  65.175  1.00  0.00    -0.319 A  
HETATM   20  C   UNL     1     -11.006  12.250  63.819  1.00  0.00    -0.435 C  
HETATM   21  C   UNL     1     -10.710  14.028  65.585  1.00  0.00    -0.306 A  
HETATM   22  F   UNL     1     -10.417  12.945  62.806  1.00  0.00     0.369 F  
HETATM   23  C   UNL     1     -10.259  14.534  66.835  1.00  0.00    -0.264 A  
HETATM   24  F   UNL     1     -12.347  12.425  63.660  1.00  0.00    -0.497 F  
HETATM   25  F   UNL     1     -10.765  10.935  63.557  1.00  0.00    -0.406 F  
HETATM   26  C   UNL     1     -10.466  15.903  67.248  1.00  0.00    -0.310 A  
HETATM   27  C   UNL     1     -11.124  16.880  66.455  1.00  0.00     0.337 A  
HETATM   28  C   UNL     1     -11.296  18.201  66.877  1.00  0.00     0.892 A  
HETATM   29  C   UNL     1     -10.831  18.609  68.111  1.00  0.00    -0.052 A  
HETATM   30 CL   UNL     1     -12.087  19.333  65.851  1.00  0.00     3.499 Cl 
HETATM   31  C   UNL     1     -10.187  17.682  68.924  1.00  0.00    -0.354 A  
HETATM   32  C   UNL     1      -9.995  16.334  68.510  1.00  0.00    -0.234 A  
HETATM   33 CL   UNL     1      -9.608  18.282  70.452  1.00  0.00     2.069 Cl 
HETATM   34  C   UNL     1      -9.318  15.405  69.312  1.00  0.00    -0.254 A  
ENDBRANCH  12  15
ENDBRANCH  11  12
ENDBRANCH  10  11
ENDBRANCH   5  10
ENDBRANCH   4   5
ENDBRANCH   3   4
ENDBRANCH   2   3
TORSDOF 10
ENDMDL
MODEL      230
REMARK 921   NORMALIZED FREE ENERGY PREDICTED BY IDOCK:    9.20 KCAL/MOL
REMARK 922        TOTAL FREE ENERGY PREDICTED BY IDOCK:   12.08 KCAL/MOL
REMARK 923 INTER-LIGAND FREE ENERGY PREDICTED BY IDOCK:    7.45 KCAL/MOL
REMARK 924 INTRA-LIGAND FREE ENERGY PREDICTED BY IDOCK:    4.63 KCAL/MOL
REMARK 927      BINDING AFFINITY PREDICTED BY RF-SCORE:    0.00 PKD
ROOT
HETATM    1  C   UNL     1     -14.176  10.064  73.670  1.00  0.00     3.933 C  
HETATM    2  C   UNL     1     -13.768   8.598  73.689  1.00  0.00     2.344 C  
ENDROOT
BRANCH   2   3
HETATM    3  C   UNL     1     -12.902   8.272  72.474  1.00  0.00    -0.191 C  
BRANCH   3   4
HETATM    4  C   UNL     1     -11.568   9.027  72.444  1.00  0.00    -0.054 C  
BRANCH   4   5
HETATM    5  N   UNL     1     -10.905   9.247  71.134  1.00  0.00    -0.308 NA 
BRANCH   5   6
HETATM    6  C   UNL     1     -11.098   8.086  70.239  1.00  0.00    -0.224 C  
BRANCH   6   7
HETATM    7  C   UNL     1     -11.158   6.703  70.914  1.00  0.00    -0.335 C  
BRANCH   7   8
HETATM    8  C   UNL     1      -9.894   5.866  70.734  1.00  0.00    -0.229 C  
HETATM    9  C   UNL     1     -10.125   4.751  69.717  1.00  0.00    -0.289 C  
ENDBRANCH   7   8
ENDBRANCH   6   7
ENDBRANCH   5   6
BRANCH   5  10
HETATM   10  C   UNL     1     -11.425  10.488  70.497  1.00  0.00    -0.345 C  
BRANCH  10  11
HETATM   11  C   UNL     1     -10.695  10.813  69.196  1.00  0.00    -0.265 C  
BRANCH  11  12
HETATM   12  C   UNL     1      -9.227  10.367  69.174  1.00  0.00    -0.191 C  
HETATM   13  H   UNL     1      -8.081   9.133  70.187  1.00  0.00     0.000 HD 
HETATM   14  O   UNL     1      -8.991   9.409  70.201  1.00  0.00    -0.189 OA 
BRANCH  12  15
HETATM   15  C   UNL     1      -8.800   9.778  67.828  1.00  0.00    -0.129 A  
HETATM   16  C   UNL     1      -9.433   8.642  67.269  1.00  0.00    -0.198 A  
HETATM   17  C   UNL     1     -10.613   8.100  67.829  1.00  0.00    -0.233 A  
HETATM   18  C   UNL     1     -11.214   6.946  67.329  1.00  0.00    -0.231 A  
HETATM   19  C   UNL     1     -10.653   6.292  66.240  1.00  0.00     0.107 A  
HETATM   20  C   UNL     1     -11.251   5.021  65.693  1.00  0.00     0.388 C  
HETATM   21  C   UNL     1      -9.503   6.841  65.647  1.00  0.00     0.357 A  
HETATM   22  F   UNL     1     -10.378   3.976  65.747  1.00  0.00    -0.189 F  
HETATM   23  C   UNL     1      -8.865   8.020  66.120  1.00  0.00    -0.198 A  
HETATM   24  F   UNL     1     -11.614   5.136  64.387  1.00  0.00     0.768 F  
HETATM   25  F   UNL     1     -12.366   4.610  66.358  1.00  0.00     3.756 F  
HETATM   26  C   UNL     1      -7.687   8.578  65.496  1.00  0.00    -0.093 A  
HETATM   27  C   UNL     1      -7.043   8.010  64.365  1.00  0.00    -0.077 A  
HETATM   28  C   UNL     1      -5.896   8.565  63.793  1.00  0.00    -0.071 A  
HETATM   29  C   UNL     1      -5.342   9.717  64.312  1.00  0.00    -0.069 A  
HETATM   30 CL   UNL     1      -5.161   7.807  62.435  1.00  0.00    -0.050 Cl 
HETATM   31  C   UNL     1      -5.944  10.313  65.415  1.00  0.00    -0.115 A  
HETATM   32  C   UNL     1      -7.109   9.759  66.017  1.00  0.00    -0.101 A  
HETATM   33 CL   UNL     1      -5.170  11.747  66.025  1.00  0.00     0.264 Cl 
HETATM   34  C   UNL     1      -7.701  10.336  67.149  1.00  0.00    -0.092 A  
ENDBRANCH  12  15
ENDBRANCH  11  12
ENDBRANCH  10  11
ENDBRANCH   5  10
ENDBRANCH   4   5
ENDBRANCH   3   4
ENDBRANCH   2   3
TORSDOF 10
ENDMDL
MODEL      231
REMARK 921   NORMALIZED FREE ENERGY PREDICTED BY IDOCK:    9.25 KCAL/MOL
REMARK 922        TOTAL FREE ENERGY PREDICTED BY IDOCK:   12.16 KCAL/MOL
REMARK 923 INTER-LIGAND FREE ENERGY PREDICTED BY IDOCK:    2.65 KCAL/MOL
REMARK 924 INTRA-LIGAND FREE ENERGY PREDICTED BY IDOCK:    9.51 KCAL/MOL
REMARK 927      BINDING AFFINITY PREDICTED BY RF-SCORE:    0.00 PKD
ROOT
HETATM    1  C   UNL     1      -7.932   1.685  65.840  1.00  0.00    -0.073 C  
HETATM    2  C   UNL     1      -8.379   2.653  66.925  1.00  0.00    -0.095 C  
ENDROOT
BRANCH   2   3
HETATM    3  C   UNL     1      -9.535   2.055  67.726  1.00  0.00    -0.134 C  
BRANCH   3   4
HETATM    4  C   UNL     1      -9.687   2.649  69.131  1.00  0.00     0.189 C  
BRANCH   4   5
HETATM    5  N   UNL     1      -9.732   4.125  69.277  1.00  0.00    -0.183 NA 
BRANCH   5   6
HETATM    6  C   UNL     1      -8.668   4.771  68.478  1.00  0.00    -0.098 C  
BRANCH   6   7
HETATM    7  C   UNL     1      -7.259   4.159  68.592  1.00  0.00    -0.055 C  
BRANCH   7   8
HETATM    8  C   UNL     1      -6.235   4.772  67.640  1.00  0.00    -0.035 C  
HETATM    9  C   UNL     1      -5.219   5.611  68.409  1.00  0.00    -0.003 C  
ENDBRANCH   7   8
ENDBRANCH   6   7
ENDBRANCH   5   6
BRANCH   5  10
HETATM   10  C   UNL     1     -11.070   4.641  68.875  1.00  0.00     2.481 C  
BRANCH  10  11
HETATM   11  C   UNL     1     -11.839   5.221  70.059  1.00  0.00     3.258 C  
BRANCH  11  12
HETATM   12  C   UNL     1     -11.596   6.719  70.290  1.00  0.00    -0.362 C  
HETATM   13  H   UNL     1     -10.605   7.838  71.565  1.00  0.00     0.000 HD 
HETATM   14  O   UNL     1     -10.755   6.911  71.422  1.00  0.00    -0.219 OA 
BRANCH  12  15
HETATM   15  C   UNL     1     -10.977   7.420  69.078  1.00  0.00    -0.035 A  
HETATM   16  C   UNL     1     -11.061   8.821  68.896  1.00  0.00     0.190 A  
HETATM   17  C   UNL     1     -11.557   9.672  69.909  1.00  0.00    -0.077 A  
HETATM   18  C   UNL     1     -11.706  11.046  69.723  1.00  0.00    -0.410 A  
HETATM   19  C   UNL     1     -11.354  11.619  68.509  1.00  0.00    -0.332 A  
HETATM   20  C   UNL     1     -11.535  13.094  68.254  1.00  0.00    -0.314 C  
HETATM   21  C   UNL     1     -10.821  10.792  67.505  1.00  0.00    -0.342 A  
HETATM   22  F   UNL     1     -12.374  13.339  67.211  1.00  0.00    -0.379 F  
HETATM   23  C   UNL     1     -10.646   9.390  67.657  1.00  0.00    -0.333 A  
HETATM   24  F   UNL     1     -10.364  13.717  67.945  1.00  0.00    -0.230 F  
HETATM   25  F   UNL     1     -12.052  13.774  69.316  1.00  0.00    -0.332 F  
HETATM   26  C   UNL     1     -10.089   8.552  66.619  1.00  0.00    -0.364 A  
HETATM   27  C   UNL     1      -9.673   9.032  65.350  1.00  0.00     0.020 A  
HETATM   28  C   UNL     1      -9.152   8.194  64.362  1.00  0.00     0.902 A  
HETATM   29  C   UNL     1      -9.010   6.841  64.593  1.00  0.00     0.713 A  
HETATM   30 CL   UNL     1      -8.689   8.848  62.839  1.00  0.00    -0.152 Cl 
HETATM   31  C   UNL     1      -9.397   6.328  65.827  1.00  0.00     0.105 A  
HETATM   32  C   UNL     1      -9.937   7.164  66.844  1.00  0.00    -0.293 A  
HETATM   33 CL   UNL     1      -9.210   4.610  66.030  1.00  0.00    -0.136 Cl 
HETATM   34  C   UNL     1     -10.359   6.647  68.077  1.00  0.00    -0.226 A  
ENDBRANCH  12  15
ENDBRANCH  11  12
ENDBRANCH  10  11
ENDBRANCH   5  10
ENDBRANCH   4   5
ENDBRANCH   3   4
ENDBRANCH   2   3
TORSDOF 10
ENDMDL
MODEL      232
REMARK 921   NORMALIZED FREE ENERGY PREDICTED BY IDOCK:    9.45 KCAL/MOL
REMARK 922        TOTAL FREE ENERGY PREDICTED BY IDOCK:   12.49 KCAL/MOL
REMARK 923 INTER-LIGAND FREE ENERGY PREDICTED BY IDOCK:   11.24 KCAL/MOL
REMARK 924 INTRA-LIGAND FREE ENERGY PREDICTED BY IDOCK:    1.25 KCAL/MOL
REMARK 927      BINDING AFFINITY PREDICTED BY RF-SCORE:    0.00 PKD
ROOT
HETATM    1  C   UNL     1      -5.803  12.364  64.830  1.00  0.00     6.618 C  
HETATM    2  C   UNL     1      -6.223  11.341  63.786  1.00  0.00     1.359 C  
ENDROOT
BRANCH   2   3
HETATM    3  C   UNL     1      -7.320  11.915  62.891  1.00  0.00     2.368 C  
BRANCH   3   4
HETATM    4  C   UNL     1      -8.677  11.220  63.052  1.00  0.00    -0.025 C  
BRANCH   4   5
HETATM    5  N   UNL     1      -9.269  11.121  64.410  1.00  0.00    -0.155 NA 
BRANCH   5   6
HETATM    6  C   UNL     1     -10.339  12.124  64.598  1.00  0.00    -0.297 C  
BRANCH   6   7
HETATM    7  C   UNL     1     -11.778  11.654  64.307  1.00  0.00    -0.262 C  
BRANCH   7   8
HETATM    8  C   UNL     1     -12.134  11.619  62.823  1.00  0.00     0.622 C  
HETATM    9  C   UNL     1     -13.606  11.966  62.614  1.00  0.00     2.352 C  
ENDBRANCH   7   8
ENDBRANCH   6   7
ENDBRANCH   5   6
BRANCH   5  10
HETATM   10  C   UNL     1      -9.796   9.748  64.641  1.00  0.00     0.009 C  
BRANCH  10  11
HETATM   11  C   UNL     1      -9.154   9.085  65.858  1.00  0.00    -0.264 C  
BRANCH  11  12
HETATM   12  C   UNL     1      -7.637   8.888  65.735  1.00  0.00    -0.090 C  
HETATM   13  H   UNL     1      -6.034  10.025  65.714  1.00  0.00     0.000 HD 
HETATM   14  O   UNL     1      -6.973  10.147  65.790  1.00  0.00    -0.108 OA 
BRANCH  12  15
HETATM   15  C   UNL     1      -7.062   7.968  66.815  1.00  0.00    -0.081 A  
HETATM   16  C   UNL     1      -6.879   6.581  66.600  1.00  0.00    -0.065 A  
HETATM   17  C   UNL     1      -7.040   6.000  65.321  1.00  0.00    -0.065 A  
HETATM   18  C   UNL     1      -6.925   4.628  65.105  1.00  0.00    -0.062 A  
HETATM   19  C   UNL     1      -6.636   3.784  66.169  1.00  0.00    -0.037 A  
HETATM   20  C   UNL     1      -6.541   2.291  65.985  1.00  0.00    -0.028 C  
HETATM   21  C   UNL     1      -6.433   4.351  67.439  1.00  0.00    -0.042 A  
HETATM   22  F   UNL     1      -7.450   1.618  66.743  1.00  0.00    -0.052 F  
HETATM   23  C   UNL     1      -6.533   5.744  67.700  1.00  0.00    -0.047 A  
HETATM   24  F   UNL     1      -5.322   1.799  66.339  1.00  0.00    -0.010 F  
HETATM   25  F   UNL     1      -6.751   1.883  64.702  1.00  0.00    -0.024 F  
HETATM   26  C   UNL     1      -6.315   6.314  69.010  1.00  0.00    -0.041 A  
HETATM   27  C   UNL     1      -5.991   5.552  70.164  1.00  0.00    -0.021 A  
HETATM   28  C   UNL     1      -5.800   6.132  71.420  1.00  0.00    -0.027 A  
HETATM   29  C   UNL     1      -5.911   7.497  71.586  1.00  0.00    -0.036 A  
HETATM   30 CL   UNL     1      -5.430   5.138  72.775  1.00  0.00    -0.016 Cl 
HETATM   31  C   UNL     1      -6.217   8.284  70.482  1.00  0.00    -0.035 A  
HETATM   32  C   UNL     1      -6.423   7.713  69.194  1.00  0.00    -0.040 A  
HETATM   33 CL   UNL     1      -6.364   9.992  70.780  1.00  0.00    -0.098 Cl 
HETATM   34  C   UNL     1      -6.766   8.497  68.085  1.00  0.00    -0.065 A  
ENDBRANCH  12  15
ENDBRANCH  11  12
ENDBRANCH  10  11
ENDBRANCH   5  10
ENDBRANCH   4   5
ENDBRANCH   3   4
ENDBRANCH   2   3
TORSDOF 10
ENDMDL
MODEL      233
REMARK 921   NORMALIZED FREE ENERGY PREDICTED BY IDOCK:   10.90 KCAL/MOL
REMARK 922        TOTAL FREE ENERGY PREDICTED BY IDOCK:   14.78 KCAL/MOL
REMARK 923 INTER-LIGAND FREE ENERGY PREDICTED BY IDOCK:   11.09 KCAL/MOL
REMARK 924 INTRA-LIGAND FREE ENERGY PREDICTED BY IDOCK:    3.69 KCAL/MOL
REMARK 927      BINDING AFFINITY PREDICTED BY RF-SCORE:    0.00 PKD
ROOT
HETATM    1  C   UNL     1      -7.995   6.894  71.902  1.00  0.00    -0.099 C  
HETATM    2  C   UNL     1      -7.233   6.295  70.730  1.00  0.00    -0.074 C  
ENDROOT
BRANCH   2   3
HETATM    3  C   UNL     1      -8.019   6.484  69.434  1.00  0.00    -0.114 C  
BRANCH   3   4
HETATM    4  C   UNL     1      -9.398   5.814  69.443  1.00  0.00    -0.126 C  
BRANCH   4   5
HETATM    5  N   UNL     1     -10.389   6.240  70.463  1.00  0.00    -0.196 NA 
BRANCH   5   6
HETATM    6  C   UNL     1      -9.966   5.829  71.820  1.00  0.00    -0.169 C  
BRANCH   6   7
HETATM    7  C   UNL     1     -10.527   4.490  72.336  1.00  0.00    -0.235 C  
BRANCH   7   8
HETATM    8  C   UNL     1      -9.660   3.279  71.997  1.00  0.00    -0.215 C  
HETATM    9  C   UNL     1      -8.288   3.397  72.655  1.00  0.00    -0.081 C  
ENDBRANCH   7   8
ENDBRANCH   6   7
ENDBRANCH   5   6
BRANCH   5  10
HETATM   10  C   UNL     1     -10.584   7.714  70.404  1.00  0.00    -0.230 C  
BRANCH  10  11
HETATM   11  C   UNL     1     -10.171   8.293  69.053  1.00  0.00    -0.226 C  
BRANCH  11  12
HETATM   12  C   UNL     1     -11.069   9.436  68.560  1.00  0.00     0.068 C  
HETATM   13  H   UNL     1     -12.619  10.441  69.231  1.00  0.00     0.000 HD 
HETATM   14  O   UNL     1     -12.063   9.733  69.536  1.00  0.00     0.218 OA 
BRANCH  12  15
HETATM   15  C   UNL     1     -10.291  10.711  68.228  1.00  0.00    -0.201 A  
HETATM   16  C   UNL     1      -9.274  11.212  69.076  1.00  0.00    -0.045 A  
HETATM   17  C   UNL     1      -8.793  10.469  70.178  1.00  0.00     0.659 A  
HETATM   18  C   UNL     1      -7.838  10.974  71.059  1.00  0.00     4.200 A  
HETATM   19  C   UNL     1      -7.323  12.248  70.862  1.00  0.00     4.605 A  
HETATM   20  C   UNL     1      -6.317  12.845  71.813  1.00  0.00     2.458 C  
HETATM   21  C   UNL     1      -7.762  12.984  69.748  1.00  0.00     1.324 A  
HETATM   22  F   UNL     1      -6.772  13.991  72.392  1.00  0.00     0.671 F  
HETATM   23  C   UNL     1      -8.727  12.503  68.822  1.00  0.00     0.158 A  
HETATM   24  F   UNL     1      -5.150  13.176  71.196  1.00  0.00    -0.108 F  
HETATM   25  F   UNL     1      -5.977  12.018  72.840  1.00  0.00     1.335 F  
HETATM   26  C   UNL     1      -9.164  13.268  67.676  1.00  0.00    -0.209 A  
HETATM   27  C   UNL     1      -8.689  14.569  67.362  1.00  0.00    -0.210 A  
HETATM   28  C   UNL     1      -9.141  15.288  66.254  1.00  0.00    -0.302 A  
HETATM   29  C   UNL     1     -10.079  14.745  65.400  1.00  0.00    -0.406 A  
HETATM   30 CL   UNL     1      -8.533  16.869  65.952  1.00  0.00    -0.164 Cl 
HETATM   31  C   UNL     1     -10.565  13.469  65.664  1.00  0.00    -0.284 A  
HETATM   32  C   UNL     1     -10.123  12.721  66.791  1.00  0.00    -0.239 A  
HETATM   33 CL   UNL     1     -11.763  12.865  64.555  1.00  0.00    -0.391 Cl 
HETATM   34  C   UNL     1     -10.634  11.449  67.081  1.00  0.00    -0.279 A  
ENDBRANCH  12  15
ENDBRANCH  11  12
ENDBRANCH  10  11
ENDBRANCH   5  10
ENDBRANCH   4   5
ENDBRANCH   3   4
ENDBRANCH   2   3
TORSDOF 10
ENDMDL
MODEL      234
REMARK 921   NORMALIZED FREE ENERGY PREDICTED BY IDOCK:   10.97 KCAL/MOL
REMARK 922        TOTAL FREE ENERGY PREDICTED BY IDOCK:   14.89 KCAL/MOL
REMARK 923 INTER-LIGAND FREE ENERGY PREDICTED BY IDOCK:   -2.98 KCAL/MOL
REMARK 924 INTRA-LIGAND FREE ENERGY PREDICTED BY IDOCK:   17.88 KCAL/MOL
REMARK 927      BINDING AFFINITY PREDICTED BY RF-SCORE:    0.00 PKD
ROOT
HETATM    1  C   UNL     1     -10.180   8.382  69.166  1.00  0.00    -0.217 C  
HETATM    2  C   UNL     1     -10.390   7.898  67.739  1.00  0.00    -0.289 C  
ENDROOT
BRANCH   2   3
HETATM    3  C   UNL     1      -9.773   6.513  67.553  1.00  0.00    -0.141 C  
BRANCH   3   4
HETATM    4  C   UNL     1      -8.460   6.312  68.319  1.00  0.00    -0.114 C  
BRANCH   4   5
HETATM    5  N   UNL     1      -8.076   7.313  69.346  1.00  0.00    -0.128 NA 
BRANCH   5   6
HETATM    6  C   UNL     1      -6.937   8.137  68.885  1.00  0.00    -0.062 C  
BRANCH   6   7
HETATM    7  C   UNL     1      -5.697   7.372  68.383  1.00  0.00    -0.023 C  
BRANCH   7   8
HETATM    8  C   UNL     1      -5.496   7.434  66.871  1.00  0.00    -0.023 C  
HETATM    9  C   UNL     1      -6.514   8.372  66.230  1.00  0.00    -0.054 C  
ENDBRANCH   7   8
ENDBRANCH   6   7
ENDBRANCH   5   6
BRANCH   5  10
HETATM   10  C   UNL     1      -9.241   8.177  69.681  1.00  0.00    -0.155 C  
BRANCH  10  11
HETATM   11  C   UNL     1      -8.851   9.650  69.780  1.00  0.00    -0.224 C  
BRANCH  11  12
HETATM   12  C   UNL     1      -8.971  10.420  68.458  1.00  0.00    -0.139 C  
HETATM   13  H   UNL     1     -10.266  10.561  66.987  1.00  0.00     0.000 HD 
HETATM   14  O   UNL     1     -10.191  10.084  67.806  1.00  0.00    -0.170 OA 
BRANCH  12  15
HETATM   15  C   UNL     1      -8.898  11.938  68.639  1.00  0.00    -0.041 A  
HETATM   16  C   UNL     1      -9.959  12.679  69.212  1.00  0.00     0.563 A  
HETATM   17  C   UNL     1     -11.066  12.041  69.819  1.00  0.00     0.007 A  
HETATM   18  C   UNL     1     -12.149  12.754  70.331  1.00  0.00    -0.382 A  
HETATM   19  C   UNL     1     -12.158  14.141  70.259  1.00  0.00    -0.412 A  
HETATM   20  C   UNL     1     -13.326  14.947  70.768  1.00  0.00    -0.293 C  
HETATM   21  C   UNL     1     -11.047  14.791  69.696  1.00  0.00    -0.299 A  
HETATM   22  F   UNL     1     -13.903  15.695  69.787  1.00  0.00     0.612 F  
HETATM   23  C   UNL     1      -9.920  14.103  69.170  1.00  0.00     0.015 A  
HETATM   24  F   UNL     1     -12.968  15.825  71.744  1.00  0.00    -0.422 F  
HETATM   25  F   UNL     1     -14.327  14.188  71.295  1.00  0.00    -0.362 F  
HETATM   26  C   UNL     1      -8.780  14.784  68.600  1.00  0.00    -0.178 A  
HETATM   27  C   UNL     1      -8.670  16.196  68.497  1.00  0.00    -0.200 A  
HETATM   28  C   UNL     1      -7.560  16.825  67.927  1.00  0.00    -0.169 A  
HETATM   29  C   UNL     1      -6.504  16.080  67.444  1.00  0.00    -0.214 A  
HETATM   30 CL   UNL     1      -7.509  18.541  67.819  1.00  0.00    -0.235 Cl 
HETATM   31  C   UNL     1      -6.565  14.694  67.533  1.00  0.00    -0.087 A  
HETATM   32  C   UNL     1      -7.690  14.033  68.103  1.00  0.00    -0.143 A  
HETATM   33 CL   UNL     1      -5.206  13.827  66.878  1.00  0.00     1.139 Cl 
HETATM   34  C   UNL     1      -7.772  12.635  68.164  1.00  0.00    -0.142 A  
ENDBRANCH  12  15
ENDBRANCH  11  12
ENDBRANCH  10  11
ENDBRANCH   5  10
ENDBRANCH   4   5
ENDBRANCH   3   4
ENDBRANCH   2   3
TORSDOF 10
ENDMDL
MODEL      235
REMARK 921   NORMALIZED FREE ENERGY PREDICTED BY IDOCK:   11.28 KCAL/MOL
REMARK 922        TOTAL FREE ENERGY PREDICTED BY IDOCK:   15.38 KCAL/MOL
REMARK 923 INTER-LIGAND FREE ENERGY PREDICTED BY IDOCK:    7.86 KCAL/MOL
REMARK 924 INTRA-LIGAND FREE ENERGY PREDICTED BY IDOCK:    7.51 KCAL/MOL
REMARK 927      BINDING AFFINITY PREDICTED BY RF-SCORE:    0.00 PKD
ROOT
HETATM    1  C   UNL     1     -12.072   7.184  65.967  1.00  0.00     6.744 C  
HETATM    2  C   UNL     1     -11.995   7.299  67.482  1.00  0.00     2.645 C  
ENDROOT
BRANCH   2   3
HETATM    3  C   UNL     1     -11.071   6.221  68.049  1.00  0.00    -0.365 C  
BRANCH   3   4
HETATM    4  C   UNL     1      -9.580   6.534  67.881  1.00  0.00    -0.118 C  
BRANCH   4   5
HETATM    5  N   UNL     1      -8.986   6.460  66.522  1.00  0.00    -0.141 NA 
BRANCH   5   6
HETATM    6  C   UNL     1      -8.954   5.064  66.032  1.00  0.00    -0.136 C  
BRANCH   6   7
HETATM    7  C   UNL     1      -9.020   4.873  64.505  1.00  0.00    -0.096 C  
BRANCH   7   8
HETATM    8  C   UNL     1      -9.867   3.683  64.061  1.00  0.00    -0.178 C  
HETATM    9  C   UNL     1      -9.070   2.768  63.137  1.00  0.00    -0.094 C  
ENDBRANCH   7   8
ENDBRANCH   6   7
ENDBRANCH   5   6
BRANCH   5  10
HETATM   10  C   UNL     1      -9.749   7.324  65.580  1.00  0.00     0.783 C  
BRANCH  10  11
HETATM   11  C   UNL     1     -10.490   8.445  66.305  1.00  0.00     0.343 C  
BRANCH  11  12
HETATM   12  C   UNL     1     -10.282   9.834  65.687  1.00  0.00    -0.108 C  
HETATM   13  H   UNL     1     -11.403  11.240  64.893  1.00  0.00     0.000 HD 
HETATM   14  O   UNL     1     -11.532  10.380  65.276  1.00  0.00     0.976 OA 
BRANCH  12  15
HETATM   15  C   UNL     1      -9.593  10.816  66.637  1.00  0.00    -0.208 A  
HETATM   16  C   UNL     1     -10.322  11.624  67.542  1.00  0.00    -0.220 A  
HETATM   17  C   UNL     1     -11.708  11.438  67.753  1.00  0.00    -0.279 A  
HETATM   18  C   UNL     1     -12.452  12.264  68.592  1.00  0.00     0.623 A  
HETATM   19  C   UNL     1     -11.830  13.310  69.261  1.00  0.00    -0.383 A  
HETATM   20  C   UNL     1     -12.606  14.249  70.148  1.00  0.00    -0.282 C  
HETATM   21  C   UNL     1     -10.445  13.483  69.094  1.00  0.00     0.007 A  
HETATM   22  F   UNL     1     -12.531  15.541  69.723  1.00  0.00    -0.358 F  
HETATM   23  C   UNL     1      -9.648  12.658  68.255  1.00  0.00    -0.208 A  
HETATM   24  F   UNL     1     -12.149  14.252  71.430  1.00  0.00    -0.369 F  
HETATM   25  F   UNL     1     -13.935  13.958  70.224  1.00  0.00     0.444 F  
HETATM   26  C   UNL     1      -8.223  12.843  68.098  1.00  0.00    -0.163 A  
HETATM   27  C   UNL     1      -7.478  13.861  68.749  1.00  0.00    -0.114 A  
HETATM   28  C   UNL     1      -6.103  14.022  68.566  1.00  0.00    -0.094 A  
HETATM   29  C   UNL     1      -5.402  13.172  67.735  1.00  0.00    -0.100 A  
HETATM   30 CL   UNL     1      -5.273  15.294  69.375  1.00  0.00    -0.092 Cl 
HETATM   31  C   UNL     1      -6.090  12.155  67.083  1.00  0.00    -0.143 A  
HETATM   32  C   UNL     1      -7.492  11.978  67.250  1.00  0.00    -0.158 A  
HETATM   33 CL   UNL     1      -5.139  11.143  66.034  1.00  0.00    -0.132 Cl 
HETATM   34  C   UNL     1      -8.196  10.975  66.569  1.00  0.00    -0.161 A  
ENDBRANCH  12  15
ENDBRANCH  11  12
ENDBRANCH  10  11
ENDBRANCH   5  10
ENDBRANCH   4   5
ENDBRANCH   3   4
ENDBRANCH   2   3
TORSDOF 10
ENDMDL
MODEL      236
REMARK 921   NORMALIZED FREE ENERGY PREDICTED BY IDOCK:   11.30 KCAL/MOL
REMARK 922        TOTAL FREE ENERGY PREDICTED BY IDOCK:   15.41 KCAL/MOL
REMARK 923 INTER-LIGAND FREE ENERGY PREDICTED BY IDOCK:    2.07 KCAL/MOL
REMARK 924 INTRA-LIGAND FREE ENERGY PREDICTED BY IDOCK:   13.34 KCAL/MOL
REMARK 927      BINDING AFFINITY PREDICTED BY RF-SCORE:    0.00 PKD
ROOT
HETATM    1  C   UNL     1     -10.183   7.394  69.529  1.00  0.00    -0.204 C  
HETATM    2  C   UNL     1     -10.452   6.956  68.098  1.00  0.00    -0.243 C  
ENDROOT
BRANCH   2   3
HETATM    3  C   UNL     1      -9.767   5.621  67.814  1.00  0.00    -0.140 C  
BRANCH   3   4
HETATM    4  C   UNL     1      -8.294   5.579  68.236  1.00  0.00    -0.098 C  
BRANCH   4   5
HETATM    5  N   UNL     1      -7.759   6.691  69.061  1.00  0.00    -0.107 NA 
BRANCH   5   6
HETATM    6  C   UNL     1      -6.851   7.550  68.270  1.00  0.00    -0.063 C  
BRANCH   6   7
HETATM    7  C   UNL     1      -5.714   6.835  67.516  1.00  0.00    -0.016 C  
BRANCH   7   8
HETATM    8  C   UNL     1      -5.903   6.787  66.002  1.00  0.00    -0.030 C  
HETATM    9  C   UNL     1      -5.870   8.193  65.410  1.00  0.00    -0.044 C  
ENDBRANCH   7   8
ENDBRANCH   6   7
ENDBRANCH   5   6
BRANCH   5  10
HETATM   10  C   UNL     1      -8.877   7.496  69.625  1.00  0.00    -0.141 C  
BRANCH  10  11
HETATM   11  C   UNL     1      -8.509   8.972  69.757  1.00  0.00    -0.132 C  
BRANCH  11  12
HETATM   12  C   UNL     1      -9.044   9.855  68.621  1.00  0.00    -0.132 C  
HETATM   13  H   UNL     1     -10.741  10.096  67.662  1.00  0.00     0.000 HD 
HETATM   14  O   UNL     1     -10.411   9.550  68.366  1.00  0.00    -0.190 OA 
BRANCH  12  15
HETATM   15  C   UNL     1      -8.906  11.352  68.909  1.00  0.00    -0.010 A  
HETATM   16  C   UNL     1      -9.801  12.306  68.368  1.00  0.00    -0.199 A  
HETATM   17  C   UNL     1     -10.977  11.917  67.686  1.00  0.00    -0.286 A  
HETATM   18  C   UNL     1     -11.836  12.842  67.094  1.00  0.00    -0.415 A  
HETATM   19  C   UNL     1     -11.547  14.198  67.169  1.00  0.00    -0.400 A  
HETATM   20  C   UNL     1     -12.430  15.227  66.509  1.00  0.00     1.022 C  
HETATM   21  C   UNL     1     -10.403  14.602  67.878  1.00  0.00    -0.237 A  
HETATM   22  F   UNL     1     -11.760  15.957  65.574  1.00  0.00     0.013 F  
HETATM   23  C   UNL     1      -9.508  13.694  68.503  1.00  0.00    -0.143 A  
HETATM   24  F   UNL     1     -12.932  16.128  67.397  1.00  0.00     1.930 F  
HETATM   25  F   UNL     1     -13.506  14.694  65.866  1.00  0.00    -0.073 F  
HETATM   26  C   UNL     1      -8.338  14.124  69.236  1.00  0.00     0.292 A  
HETATM   27  C   UNL     1      -7.959  15.482  69.399  1.00  0.00    -0.229 A  
HETATM   28  C   UNL     1      -6.814  15.865  70.102  1.00  0.00     0.255 A  
HETATM   29  C   UNL     1      -5.999  14.917  70.684  1.00  0.00    -0.106 A  
HETATM   30 CL   UNL     1      -6.410  17.532  70.238  1.00  0.00     0.212 Cl 
HETATM   31  C   UNL     1      -6.337  13.574  70.558  1.00  0.00     0.112 A  
HETATM   32  C   UNL     1      -7.495  13.162  69.840  1.00  0.00     1.179 A  
HETATM   33 CL   UNL     1      -5.245  12.440  71.299  1.00  0.00    -0.144 Cl 
HETATM   34  C   UNL     1      -7.822  11.808  69.681  1.00  0.00     0.838 A  
ENDBRANCH  12  15
ENDBRANCH  11  12
ENDBRANCH  10  11
ENDBRANCH   5  10
ENDBRANCH   4   5
ENDBRANCH   3   4
ENDBRANCH   2   3
TORSDOF 10
ENDMDL
MODEL      237
REMARK 921   NORMALIZED FREE ENERGY PREDICTED BY IDOCK:   13.06 KCAL/MOL
REMARK 922        TOTAL FREE ENERGY PREDICTED BY IDOCK:   18.19 KCAL/MOL
REMARK 923 INTER-LIGAND FREE ENERGY PREDICTED BY IDOCK:   -3.19 KCAL/MOL
REMARK 924 INTRA-LIGAND FREE ENERGY PREDICTED BY IDOCK:   21.38 KCAL/MOL
REMARK 927      BINDING AFFINITY PREDICTED BY RF-SCORE:    0.00 PKD
ROOT
HETATM    1  C   UNL     1      -5.244   5.849  71.297  1.00  0.00    -0.013 C  
HETATM    2  C   UNL     1      -6.241   5.169  70.371  1.00  0.00    -0.019 C  
ENDROOT
BRANCH   2   3
HETATM    3  C   UNL     1      -5.507   4.398  69.275  1.00  0.00    -0.012 C  
BRANCH   3   4
HETATM    4  C   UNL     1      -6.287   3.191  68.740  1.00  0.00    -0.029 C  
BRANCH   4   5
HETATM    5  N   UNL     1      -7.122   3.366  67.525  1.00  0.00    -0.057 NA 
BRANCH   5   6
HETATM    6  C   UNL     1      -8.562   3.341  67.863  1.00  0.00    -0.097 C  
BRANCH   6   7
HETATM    7  C   UNL     1      -9.532   3.037  66.705  1.00  0.00    -0.056 C  
BRANCH   7   8
HETATM    8  C   UNL     1      -8.996   2.031  65.690  1.00  0.00    -0.110 C  
HETATM    9  C   UNL     1      -8.614   2.729  64.388  1.00  0.00    -0.091 C  
ENDBRANCH   7   8
ENDBRANCH   6   7
ENDBRANCH   5   6
BRANCH   5  10
HETATM   10  C   UNL     1      -6.771   4.640  66.839  1.00  0.00    -0.051 C  
BRANCH  10  11
HETATM   11  C   UNL     1      -8.004   5.492  66.548  1.00  0.00    -0.101 C  
BRANCH  11  12
HETATM   12  C   UNL     1      -9.215   5.164  67.432  1.00  0.00    -0.116 C  
HETATM   13  H   UNL     1      -9.885   3.616  68.440  1.00  0.00     0.000 HD 
HETATM   14  O   UNL     1      -9.135   3.819  67.892  1.00  0.00    -0.126 OA 
BRANCH  12  15
HETATM   15  C   UNL     1      -9.352   6.101  68.634  1.00  0.00    -0.121 A  
HETATM   16  C   UNL     1      -9.889   7.405  68.513  1.00  0.00    -0.164 A  
HETATM   17  C   UNL     1     -10.500   7.847  67.318  1.00  0.00    -0.390 A  
HETATM   18  C   UNL     1     -10.978   9.148  67.161  1.00  0.00     0.074 A  
HETATM   19  C   UNL     1     -10.865  10.054  68.207  1.00  0.00    -0.286 A  
HETATM   20  C   UNL     1     -11.335  11.480  68.065  1.00  0.00    -0.298 C  
HETATM   21  C   UNL     1     -10.297   9.618  69.416  1.00  0.00    -0.226 A  
HETATM   22  F   UNL     1     -10.325  12.376  68.243  1.00  0.00    -0.200 F  
HETATM   23  C   UNL     1      -9.806   8.300  69.619  1.00  0.00    -0.184 A  
HETATM   24  F   UNL     1     -12.290  11.807  68.979  1.00  0.00    -0.324 F  
HETATM   25  F   UNL     1     -11.872  11.761  66.845  1.00  0.00    -0.367 F  
HETATM   26  C   UNL     1      -9.231   7.861  70.870  1.00  0.00    -0.160 A  
HETATM   27  C   UNL     1      -9.087   8.693  72.012  1.00  0.00    -0.311 A  
HETATM   28  C   UNL     1      -8.513   8.243  73.204  1.00  0.00    -0.198 A  
HETATM   29  C   UNL     1      -8.065   6.943  73.319  1.00  0.00    -0.113 A  
HETATM   30 CL   UNL     1      -8.355   9.318  74.538  1.00  0.00     1.424 Cl 
HETATM   31  C   UNL     1      -8.194   6.091  72.228  1.00  0.00    -0.110 A  
HETATM   32  C   UNL     1      -8.769   6.531  71.003  1.00  0.00    -0.138 A  
HETATM   33 CL   UNL     1      -7.582   4.477  72.446  1.00  0.00    -0.082 Cl 
HETATM   34  C   UNL     1      -8.870   5.686  69.890  1.00  0.00    -0.135 A  
ENDBRANCH  12  15
ENDBRANCH  11  12
ENDBRANCH  10  11
ENDBRANCH   5  10
ENDBRANCH   4   5
ENDBRANCH   3   4
ENDBRANCH   2   3
TORSDOF 10
ENDMDL
MODEL      238
REMARK 921   NORMALIZED FREE ENERGY PREDICTED BY IDOCK:   14.18 KCAL/MOL
REMARK 922        TOTAL FREE ENERGY PREDICTED BY IDOCK:   19.98 KCAL/MOL
REMARK 923 INTER-LIGAND FREE ENERGY PREDICTED BY IDOCK:   -4.04 KCAL/MOL
REMARK 924 INTRA-LIGAND FREE ENERGY PREDICTED BY IDOCK:   24.01 KCAL/MOL
REMARK 927      BINDING AFFINITY PREDICTED BY RF-SCORE:    0.00 PKD
ROOT
HETATM    1  C   UNL     1     -10.253   8.903  68.480  1.00  0.00    -0.223 C  
HETATM    2  C   UNL     1     -10.137   8.306  67.086  1.00  0.00    -0.334 C  
ENDROOT
BRANCH   2   3
HETATM    3  C   UNL     1      -9.860   6.807  67.172  1.00  0.00    -0.207 C  
BRANCH   3   4
HETATM    4  C   UNL     1      -9.375   6.345  68.551  1.00  0.00    -0.122 C  
BRANCH   4   5
HETATM    5  N   UNL     1      -9.583   7.243  69.715  1.00  0.00    -0.163 NA 
BRANCH   5   6
HETATM    6  C   UNL     1      -8.296   7.777  70.211  1.00  0.00    -0.127 C  
BRANCH   6   7
HETATM    7  C   UNL     1      -7.742   7.143  71.501  1.00  0.00    -0.089 C  
BRANCH   7   8
HETATM    8  C   UNL     1      -6.420   7.742  71.973  1.00  0.00    -0.044 C  
HETATM    9  C   UNL     1      -6.280   9.184  71.494  1.00  0.00    -0.069 C  
ENDBRANCH   7   8
ENDBRANCH   6   7
ENDBRANCH   5   6
BRANCH   5  10
HETATM   10  C   UNL     1     -10.501   8.356  69.347  1.00  0.00    -0.217 C  
BRANCH  10  11
HETATM   11  C   UNL     1      -9.936   9.718  69.742  1.00  0.00    -0.265 C  
BRANCH  11  12
HETATM   12  C   UNL     1      -8.728  10.162  68.905  1.00  0.00    -0.149 C  
HETATM   13  H   UNL     1      -8.138  10.011  67.036  1.00  0.00     0.000 HD 
HETATM   14  O   UNL     1      -8.886   9.737  67.555  1.00  0.00    -0.125 OA 
BRANCH  12  15
HETATM   15  C   UNL     1      -8.502  11.675  68.933  1.00  0.00     0.052 A  
HETATM   16  C   UNL     1      -9.207  12.557  68.079  1.00  0.00    -0.204 A  
HETATM   17  C   UNL     1     -10.290  12.114  67.286  1.00  0.00    -0.230 A  
HETATM   18  C   UNL     1     -10.954  12.954  66.394  1.00  0.00    -0.310 A  
HETATM   19  C   UNL     1     -10.558  14.278  66.269  1.00  0.00    -0.291 A  
HETATM   20  C   UNL     1     -11.225  15.209  65.289  1.00  0.00    -0.358 C  
HETATM   21  C   UNL     1      -9.509  14.745  67.080  1.00  0.00    -0.233 A  
HETATM   22  F   UNL     1     -10.351  15.701  64.367  1.00  0.00    -0.189 F  
HETATM   23  C   UNL     1      -8.812  13.924  68.008  1.00  0.00    -0.184 A  
HETATM   24  F   UNL     1     -11.778  16.296  65.895  1.00  0.00     0.326 F  
HETATM   25  F   UNL     1     -12.230  14.626  64.576  1.00  0.00    -0.427 F  
HETATM   26  C   UNL     1      -7.740  14.418  68.841  1.00  0.00    -0.128 A  
HETATM   27  C   UNL     1      -7.268  15.758  68.816  1.00  0.00    -0.137 A  
HETATM   28  C   UNL     1      -6.220  16.201  69.625  1.00  0.00    -0.191 A  
HETATM   29  C   UNL     1      -5.598  15.338  70.504  1.00  0.00    -0.129 A  
HETATM   30 CL   UNL     1      -5.690  17.835  69.522  1.00  0.00    -0.218 Cl 
HETATM   31  C   UNL     1      -6.034  14.019  70.569  1.00  0.00    -0.177 A  
HETATM   32  C   UNL     1      -7.096  13.545  69.748  1.00  0.00     0.376 A  
HETATM   33 CL   UNL     1      -5.183  12.989  71.683  1.00  0.00    -0.157 Cl 
HETATM   34  C   UNL     1      -7.516  12.208  69.785  1.00  0.00     0.903 A  
ENDBRANCH  12  15
ENDBRANCH  11  12
ENDBRANCH  10  11
ENDBRANCH   5  10
ENDBRANCH   4   5
ENDBRANCH   3   4
ENDBRANCH   2   3
TORSDOF 10
ENDMDL
MODEL      239
REMARK 921   NORMALIZED FREE ENERGY PREDICTED BY IDOCK:   14.50 KCAL/MOL
REMARK 922        TOTAL FREE ENERGY PREDICTED BY IDOCK:   20.48 KCAL/MOL
REMARK 923 INTER-LIGAND FREE ENERGY PREDICTED BY IDOCK:   11.92 KCAL/MOL
REMARK 924 INTRA-LIGAND FREE ENERGY PREDICTED BY IDOCK:    8.56 KCAL/MOL
REMARK 927      BINDING AFFINITY PREDICTED BY RF-SCORE:    0.00 PKD
ROOT
HETATM    1  C   UNL     1      -8.049  20.462  64.027  1.00  0.00     3.122 C  
HETATM    2  C   UNL     1      -7.263  19.780  65.137  1.00  0.00     0.032 C  
ENDROOT
BRANCH   2   3
HETATM    3  C   UNL     1      -8.209  19.025  66.070  1.00  0.00    -0.149 C  
BRANCH   3   4
HETATM    4  C   UNL     1      -8.663  17.667  65.523  1.00  0.00     0.991 C  
BRANCH   4   5
HETATM    5  N   UNL     1      -7.742  16.509  65.641  1.00  0.00     0.589 NA 
BRANCH   5   6
HETATM    6  C   UNL     1      -7.445  16.208  67.059  1.00  0.00    -0.229 C  
BRANCH   6   7
HETATM    7  C   UNL     1      -8.582  16.466  68.066  1.00  0.00    -0.185 C  
BRANCH   7   8
HETATM    8  C   UNL     1      -9.881  15.731  67.742  1.00  0.00    -0.224 C  
HETATM    9  C   UNL     1     -10.663  16.470  66.660  1.00  0.00    -0.150 C  
ENDBRANCH   7   8
ENDBRANCH   6   7
ENDBRANCH   5   6
BRANCH   5  10
HETATM   10  C   UNL     1      -8.326  15.317  64.968  1.00  0.00     5.103 C  
BRANCH  10  11
HETATM   11  C   UNL     1      -8.203  14.058  65.824  1.00  0.00     2.601 C  
BRANCH  11  12
HETATM   12  C   UNL     1      -9.412  13.799  66.732  1.00  0.00    -0.275 C  
HETATM   13  H   UNL     1     -11.369  13.910  66.592  1.00  0.00     0.000 HD 
HETATM   14  O   UNL     1     -10.620  14.070  66.029  1.00  0.00    -0.286 OA 
BRANCH  12  15
HETATM   15  C   UNL     1      -9.457  12.370  67.278  1.00  0.00    -0.191 A  
HETATM   16  C   UNL     1      -9.083  11.254  66.492  1.00  0.00    -0.193 A  
HETATM   17  C   UNL     1      -8.472  11.408  65.227  1.00  0.00     0.285 A  
HETATM   18  C   UNL     1      -8.155  10.321  64.413  1.00  0.00    -0.149 A  
HETATM   19  C   UNL     1      -8.435   9.032  64.845  1.00  0.00    -0.195 A  
HETATM   20  C   UNL     1      -8.143   7.832  63.980  1.00  0.00    -0.062 C  
HETATM   21  C   UNL     1      -9.005   8.859  66.118  1.00  0.00    -0.218 A  
HETATM   22  F   UNL     1      -9.265   7.117  63.693  1.00  0.00     0.922 F  
HETATM   23  C   UNL     1      -9.336   9.939  66.981  1.00  0.00    -0.175 A  
HETATM   24  F   UNL     1      -7.286   6.958  64.575  1.00  0.00    -0.058 F  
HETATM   25  F   UNL     1      -7.583   8.147  62.778  1.00  0.00    -0.098 F  
HETATM   26  C   UNL     1      -9.915   9.747  68.291  1.00  0.00    -0.175 A  
HETATM   27  C   UNL     1     -10.221   8.476  68.845  1.00  0.00    -0.221 A  
HETATM   28  C   UNL     1     -10.794   8.324  70.110  1.00  0.00    -0.237 A  
HETATM   29  C   UNL     1     -11.080   9.428  70.887  1.00  0.00    -0.389 A  
HETATM   30 CL   UNL     1     -11.155   6.750  70.704  1.00  0.00    -0.316 Cl 
HETATM   31  C   UNL     1     -10.788  10.693  70.388  1.00  0.00     0.012 A  
HETATM   32  C   UNL     1     -10.211  10.870  69.099  1.00  0.00    -0.215 A  
HETATM   33 CL   UNL     1     -11.202  12.032  71.419  1.00  0.00     2.834 Cl 
HETATM   34  C   UNL     1      -9.946  12.143  68.578  1.00  0.00    -0.180 A  
ENDBRANCH  12  15
ENDBRANCH  11  12
ENDBRANCH  10  11
ENDBRANCH   5  10
ENDBRANCH   4   5
ENDBRANCH   3   4
ENDBRANCH   2   3
TORSDOF 10
ENDMDL
MODEL      240
REMARK 921   NORMALIZED FREE ENERGY PREDICTED BY IDOCK:   17.06 KCAL/MOL
REMARK 922        TOTAL FREE ENERGY PREDICTED BY IDOCK:   24.54 KCAL/MOL
REMARK 923 INTER-LIGAND FREE ENERGY PREDICTED BY IDOCK:   25.45 KCAL/MOL
REMARK 924 INTRA-LIGAND FREE ENERGY PREDICTED BY IDOCK:   -0.92 KCAL/MOL
REMARK 927      BINDING AFFINITY PREDICTED BY RF-SCORE:    0.00 PKD
ROOT
HETATM    1  C   UNL     1      -5.939  12.505  64.803  1.00  0.00     7.660 C  
HETATM    2  C   UNL     1      -6.527  11.594  63.735  1.00  0.00     2.968 C  
ENDROOT
BRANCH   2   3
HETATM    3  C   UNL     1      -7.540  12.358  62.885  1.00  0.00     4.708 C  
BRANCH   3   4
HETATM    4  C   UNL     1      -8.992  11.916  63.106  1.00  0.00     0.529 C  
BRANCH   4   5
HETATM    5  N   UNL     1      -9.555  11.987  64.478  1.00  0.00    -0.050 NA 
BRANCH   5   6
HETATM    6  C   UNL     1     -10.411  13.183  64.639  1.00  0.00    -0.392 C  
BRANCH   6   7
HETATM    7  C   UNL     1     -11.910  12.998  64.336  1.00  0.00    -0.443 C  
BRANCH   7   8
HETATM    8  C   UNL     1     -12.266  13.112  62.856  1.00  0.00     0.301 C  
HETATM    9  C   UNL     1     -13.619  13.795  62.678  1.00  0.00     5.242 C  
ENDBRANCH   7   8
ENDBRANCH   6   7
ENDBRANCH   5   6
BRANCH   5  10
HETATM   10  C   UNL     1     -10.326  10.751  64.781  1.00  0.00    -0.310 C  
BRANCH  10  11
HETATM   11  C   UNL     1      -9.719   9.968  65.943  1.00  0.00    -0.309 C  
BRANCH  11  12
HETATM   12  C   UNL     1     -10.419   8.633  66.231  1.00  0.00     0.292 C  
HETATM   13  H   UNL     1     -10.648   6.902  65.330  1.00  0.00     0.000 HD 
HETATM   14  O   UNL     1     -10.214   7.728  65.151  1.00  0.00     2.256 OA 
BRANCH  12  15
HETATM   15  C   UNL     1      -9.948   7.977  67.532  1.00  0.00    -0.253 A  
HETATM   16  C   UNL     1     -10.653   8.132  68.749  1.00  0.00    -0.149 A  
HETATM   17  C   UNL     1     -11.928   8.743  68.796  1.00  0.00     2.185 A  
HETATM   18  C   UNL     1     -12.607   8.959  69.994  1.00  0.00     1.216 A  
HETATM   19  C   UNL     1     -12.033   8.564  71.194  1.00  0.00    -0.306 A  
HETATM   20  C   UNL     1     -12.718   8.814  72.514  1.00  0.00    -0.311 C  
HETATM   21  C   UNL     1     -10.785   7.919  71.161  1.00  0.00    -0.251 A  
HETATM   22  F   UNL     1     -11.973   9.596  73.342  1.00  0.00     1.734 F  
HETATM   23  C   UNL     1     -10.063   7.671  69.962  1.00  0.00    -0.204 A  
HETATM   24  F   UNL     1     -12.958   7.664  73.203  1.00  0.00     0.489 F  
HETATM   25  F   UNL     1     -13.923   9.438  72.395  1.00  0.00    -0.441 F  
HETATM   26  C   UNL     1      -8.783   7.000  69.941  1.00  0.00    -0.142 A  
HETATM   27  C   UNL     1      -8.114   6.531  71.102  1.00  0.00    -0.116 A  
HETATM   28  C   UNL     1      -6.870   5.898  71.050  1.00  0.00    -0.065 A  
HETATM   29  C   UNL     1      -6.238   5.692  69.841  1.00  0.00    -0.026 A  
HETATM   30 CL   UNL     1      -6.113   5.376  72.504  1.00  0.00    -0.030 Cl 
HETATM   31  C   UNL     1      -6.862   6.127  68.677  1.00  0.00    -0.070 A  
HETATM   32  C   UNL     1      -8.126   6.781  68.708  1.00  0.00    -0.120 A  
HETATM   33 CL   UNL     1      -5.988   5.853  67.197  1.00  0.00    -0.017 Cl 
HETATM   34  C   UNL     1      -8.742   7.252  67.541  1.00  0.00    -0.121 A  
ENDBRANCH  12  15
ENDBRANCH  11  12
ENDBRANCH  10  11
ENDBRANCH   5  10
ENDBRANCH   4   5
ENDBRANCH   3   4
ENDBRANCH   2   3
TORSDOF 10
ENDMDL
MODEL      241
REMARK 921   NORMALIZED FREE ENERGY PREDICTED BY IDOCK:   17.55 KCAL/MOL
REMARK 922        TOTAL FREE ENERGY PREDICTED BY IDOCK:   25.32 KCAL/MOL
REMARK 923 INTER-LIGAND FREE ENERGY PREDICTED BY IDOCK:   16.14 KCAL/MOL
REMARK 924 INTRA-LIGAND FREE ENERGY PREDICTED BY IDOCK:    9.18 KCAL/MOL
REMARK 927      BINDING AFFINITY PREDICTED BY RF-SCORE:    0.00 PKD
ROOT
HETATM    1  C   UNL     1     -11.098  13.524  70.176  1.00  0.00     0.351 C  
HETATM    2  C   UNL     1      -9.635  13.528  70.594  1.00  0.00     5.113 C  
ENDROOT
BRANCH   2   3
HETATM    3  C   UNL     1      -9.439  14.404  71.830  1.00  0.00     6.137 C  
BRANCH   3   4
HETATM    4  C   UNL     1     -10.730  15.060  72.334  1.00  0.00     1.402 C  
BRANCH   4   5
HETATM    5  N   UNL     1     -11.933  14.211  72.521  1.00  0.00     0.286 NA 
BRANCH   5   6
HETATM    6  C   UNL     1     -13.099  14.777  71.808  1.00  0.00    -0.336 C  
BRANCH   6   7
HETATM    7  C   UNL     1     -13.343  16.288  71.983  1.00  0.00     0.599 C  
BRANCH   7   8
HETATM    8  C   UNL     1     -12.230  17.016  72.732  1.00  0.00     0.689 C  
HETATM    9  C   UNL     1     -12.268  16.676  74.219  1.00  0.00    -0.382 C  
ENDBRANCH   7   8
ENDBRANCH   6   7
ENDBRANCH   5   6
BRANCH   5  10
HETATM   10  C   UNL     1     -11.661  12.824  72.055  1.00  0.00     3.583 C  
BRANCH  10  11
HETATM   11  C   UNL     1     -12.822  11.880  72.357  1.00  0.00     0.504 C  
BRANCH  11  12
HETATM   12  C   UNL     1     -12.666  10.481  71.746  1.00  0.00    -0.402 C  
HETATM   13  H   UNL     1     -13.828   9.143  70.897  1.00  0.00     0.000 HD 
HETATM   14  O   UNL     1     -13.925  10.009  71.275  1.00  0.00    -0.041 OA 
BRANCH  12  15
HETATM   15  C   UNL     1     -11.651  10.436  70.602  1.00  0.00    -0.440 A  
HETATM   16  C   UNL     1     -10.434   9.721  70.706  1.00  0.00    -0.339 A  
HETATM   17  C   UNL     1     -10.169   8.859  71.795  1.00  0.00    -0.414 A  
HETATM   18  C   UNL     1      -8.952   8.198  71.944  1.00  0.00    -0.225 A  
HETATM   19  C   UNL     1      -7.951   8.372  70.998  1.00  0.00    -0.116 A  
HETATM   20  C   UNL     1      -6.607   7.705  71.142  1.00  0.00    -0.038 C  
HETATM   21  C   UNL     1      -8.213   9.194  69.888  1.00  0.00    -0.137 A  
HETATM   22  F   UNL     1      -5.588   8.606  71.210  1.00  0.00    -0.032 F  
HETATM   23  C   UNL     1      -9.443   9.880  69.694  1.00  0.00    -0.252 A  
HETATM   24  F   UNL     1      -6.314   6.890  70.092  1.00  0.00    -0.032 F  
HETATM   25  F   UNL     1      -6.496   6.932  72.258  1.00  0.00    -0.053 F  
HETATM   26  C   UNL     1      -9.702  10.716  68.544  1.00  0.00    -0.177 A  
HETATM   27  C   UNL     1      -8.763  10.948  67.504  1.00  0.00    -0.130 A  
HETATM   28  C   UNL     1      -9.039  11.773  66.411  1.00  0.00    -0.213 A  
HETATM   29  C   UNL     1     -10.263  12.399  66.297  1.00  0.00    -0.258 A  
HETATM   30 CL   UNL     1      -7.842  12.021  65.201  1.00  0.00     1.846 Cl 
HETATM   31  C   UNL     1     -11.216  12.193  67.288  1.00  0.00    -0.306 A  
HETATM   32  C   UNL     1     -10.953  11.362  68.413  1.00  0.00    -0.263 A  
HETATM   33 CL   UNL     1     -12.724  13.038  67.083  1.00  0.00     0.636 Cl 
HETATM   34  C   UNL     1     -11.897  11.178  69.432  1.00  0.00    -0.415 A  
ENDBRANCH  12  15
ENDBRANCH  11  12
ENDBRANCH  10  11
ENDBRANCH   5  10
ENDBRANCH   4   5
ENDBRANCH   3   4
ENDBRANCH   2   3
TORSDOF 10
ENDMDL
MODEL      242
REMARK 921   NORMALIZED FREE ENERGY PREDICTED BY IDOCK:   17.57 KCAL/MOL
REMARK 922        TOTAL FREE ENERGY PREDICTED BY IDOCK:   25.35 KCAL/MOL
REMARK 923 INTER-LIGAND FREE ENERGY PREDICTED BY IDOCK:   18.45 KCAL/MOL
REMARK 924 INTRA-LIGAND FREE ENERGY PREDICTED BY IDOCK:    6.90 KCAL/MOL
REMARK 927      BINDING AFFINITY PREDICTED BY RF-SCORE:    0.00 PKD
ROOT
HETATM    1  C   UNL     1      -8.991   9.855  71.128  1.00  0.00     1.107 C  
HETATM    2  C   UNL     1      -8.975  10.190  69.644  1.00  0.00    -0.190 C  
ENDROOT
BRANCH   2   3
HETATM    3  C   UNL     1      -9.616   9.061  68.839  1.00  0.00    -0.156 C  
BRANCH   3   4
HETATM    4  C   UNL     1      -9.689   9.339  67.333  1.00  0.00    -0.161 C  
BRANCH   4   5
HETATM    5  N   UNL     1     -10.496  10.492  66.861  1.00  0.00    -0.242 NA 
BRANCH   5   6
HETATM    6  C   UNL     1     -10.232  10.777  65.434  1.00  0.00    -0.276 C  
BRANCH   6   7
HETATM    7  C   UNL     1      -8.770  10.641  64.967  1.00  0.00    -0.186 C  
BRANCH   7   8
HETATM    8  C   UNL     1      -8.606  10.541  63.453  1.00  0.00    -0.172 C  
HETATM    9  C   UNL     1      -7.926  11.791  62.900  1.00  0.00     1.311 C  
ENDBRANCH   7   8
ENDBRANCH   6   7
ENDBRANCH   5   6
BRANCH   5  10
HETATM   10  C   UNL     1     -11.944  10.228  67.080  1.00  0.00     2.694 C  
BRANCH  10  11
HETATM   11  C   UNL     1     -12.576  11.251  68.022  1.00  0.00     1.842 C  
BRANCH  11  12
HETATM   12  C   UNL     1     -11.574  11.954  68.947  1.00  0.00    -0.311 C  
HETATM   13  H   UNL     1      -9.654  11.830  69.349  1.00  0.00     0.000 HD 
HETATM   14  O   UNL     1     -10.275  11.395  68.776  1.00  0.00    -0.203 OA 
BRANCH  12  15
HETATM   15  C   UNL     1     -11.505  13.466  68.719  1.00  0.00    -0.344 A  
HETATM   16  C   UNL     1     -11.475  14.030  67.422  1.00  0.00    -0.373 A  
HETATM   17  C   UNL     1     -11.693  13.245  66.266  1.00  0.00    -0.412 A  
HETATM   18  C   UNL     1     -11.604  13.772  64.979  1.00  0.00    -0.350 A  
HETATM   19  C   UNL     1     -11.298  15.115  64.802  1.00  0.00    -0.399 A  
HETATM   20  C   UNL     1     -11.155  15.715  63.427  1.00  0.00     3.147 C  
HETATM   21  C   UNL     1     -11.118  15.917  65.942  1.00  0.00    -0.053 A  
HETATM   22  F   UNL     1      -9.913  16.233  63.216  1.00  0.00     5.071 F  
HETATM   23  C   UNL     1     -11.208  15.421  67.271  1.00  0.00    -0.270 A  
HETATM   24  F   UNL     1     -12.027  16.738  63.212  1.00  0.00     1.763 F  
HETATM   25  F   UNL     1     -11.364  14.825  62.417  1.00  0.00     3.623 F  
HETATM   26  C   UNL     1     -11.029  16.260  68.435  1.00  0.00    -0.351 A  
HETATM   27  C   UNL     1     -10.737  17.648  68.375  1.00  0.00    -0.246 A  
HETATM   28  C   UNL     1     -10.556  18.429  69.519  1.00  0.00     0.873 A  
HETATM   29  C   UNL     1     -10.665  17.868  70.776  1.00  0.00     2.058 A  
HETATM   30 CL   UNL     1     -10.184  20.102  69.366  1.00  0.00    -0.218 Cl 
HETATM   31  C   UNL     1     -10.959  16.513  70.881  1.00  0.00     0.209 A  
HETATM   32  C   UNL     1     -11.141  15.698  69.728  1.00  0.00    -0.315 A  
HETATM   33 CL   UNL     1     -11.055  15.878  72.498  1.00  0.00     0.257 Cl 
HETATM   34  C   UNL     1     -11.403  14.325  69.829  1.00  0.00    -0.279 A  
ENDBRANCH  12  15
ENDBRANCH  11  12
ENDBRANCH  10  11
ENDBRANCH   5  10
ENDBRANCH   4   5
ENDBRANCH   3   4
ENDBRANCH   2   3
TORSDOF 10
ENDMDL
MODEL      243
REMARK 921   NORMALIZED FREE ENERGY PREDICTED BY IDOCK:   18.12 KCAL/MOL
REMARK 922        TOTAL FREE ENERGY PREDICTED BY IDOCK:   26.22 KCAL/MOL
REMARK 923 INTER-LIGAND FREE ENERGY PREDICTED BY IDOCK:    3.83 KCAL/MOL
REMARK 924 INTRA-LIGAND FREE ENERGY PREDICTED BY IDOCK:   22.39 KCAL/MOL
REMARK 927      BINDING AFFINITY PREDICTED BY RF-SCORE:    0.00 PKD
ROOT
HETATM    1  C   UNL     1     -10.744  12.093  68.663  1.00  0.00    -0.261 C  
HETATM    2  C   UNL     1      -9.931  10.933  69.217  1.00  0.00    -0.137 C  
ENDROOT
BRANCH   2   3
HETATM    3  C   UNL     1     -10.072  10.865  70.737  1.00  0.00     2.269 C  
BRANCH   3   4
HETATM    4  C   UNL     1      -9.168   9.817  71.396  1.00  0.00     1.144 C  
BRANCH   4   5
HETATM    5  N   UNL     1      -9.741   8.949  72.455  1.00  0.00    -0.222 NA 
BRANCH   5   6
HETATM    6  C   UNL     1     -11.219   8.954  72.404  1.00  0.00    -0.072 C  
BRANCH   6   7
HETATM    7  C   UNL     1     -11.909  10.304  72.679  1.00  0.00     2.625 C  
BRANCH   7   8
HETATM    8  C   UNL     1     -13.099  10.593  71.767  1.00  0.00    -0.571 C  
HETATM    9  C   UNL     1     -12.755  11.689  70.763  1.00  0.00    -0.291 C  
ENDBRANCH   7   8
ENDBRANCH   6   7
ENDBRANCH   5   6
BRANCH   5  10
HETATM   10  C   UNL     1      -9.221   7.561  72.318  1.00  0.00    -0.138 C  
BRANCH  10  11
HETATM   11  C   UNL     1     -10.106   6.704  71.416  1.00  0.00    -0.209 C  
BRANCH  11  12
HETATM   12  C   UNL     1     -11.124   7.506  70.594  1.00  0.00    -0.265 C  
HETATM   13  H   UNL     1     -12.068   9.223  70.749  1.00  0.00     0.000 HD 
HETATM   14  O   UNL     1     -11.438   8.726  71.258  1.00  0.00    -0.261 OA 
BRANCH  12  15
HETATM   15  C   UNL     1     -10.640   7.815  69.175  1.00  0.00    -0.193 A  
HETATM   16  C   UNL     1      -9.598   7.081  68.561  1.00  0.00    -0.137 A  
HETATM   17  C   UNL     1      -9.072   5.906  69.146  1.00  0.00    -0.125 A  
HETATM   18  C   UNL     1      -8.004   5.207  68.586  1.00  0.00    -0.086 A  
HETATM   19  C   UNL     1      -7.425   5.660  67.408  1.00  0.00    -0.084 A  
HETATM   20  C   UNL     1      -6.245   4.955  66.791  1.00  0.00    -0.032 C  
HETATM   21  C   UNL     1      -7.962   6.804  66.793  1.00  0.00    -0.108 A  
HETATM   22  F   UNL     1      -5.153   5.763  66.694  1.00  0.00    -0.004 F  
HETATM   23  C   UNL     1      -9.055   7.540  67.326  1.00  0.00    -0.137 A  
HETATM   24  F   UNL     1      -6.500   4.520  65.526  1.00  0.00    -0.035 F  
HETATM   25  F   UNL     1      -5.835   3.858  67.488  1.00  0.00    -0.020 F  
HETATM   26  C   UNL     1      -9.602   8.710  66.678  1.00  0.00    -0.285 A  
HETATM   27  C   UNL     1      -9.107   9.249  65.461  1.00  0.00    -0.275 A  
HETATM   28  C   UNL     1      -9.649  10.391  64.867  1.00  0.00    -0.289 A  
HETATM   29  C   UNL     1     -10.716  11.045  65.449  1.00  0.00    -0.222 A  
HETATM   30 CL   UNL     1      -8.980  10.995  63.401  1.00  0.00    -0.170 Cl 
HETATM   31  C   UNL     1     -11.239  10.547  66.638  1.00  0.00     0.209 A  
HETATM   32  C   UNL     1     -10.697   9.389  67.263  1.00  0.00    -0.258 A  
HETATM   33 CL   UNL     1     -12.565  11.443  67.321  1.00  0.00     2.097 Cl 
HETATM   34  C   UNL     1     -11.198   8.903  68.478  1.00  0.00     0.369 A  
ENDBRANCH  12  15
ENDBRANCH  11  12
ENDBRANCH  10  11
ENDBRANCH   5  10
ENDBRANCH   4   5
ENDBRANCH   3   4
ENDBRANCH   2   3
TORSDOF 10
ENDMDL
MODEL      244
REMARK 921   NORMALIZED FREE ENERGY PREDICTED BY IDOCK:   21.33 KCAL/MOL
REMARK 922        TOTAL FREE ENERGY PREDICTED BY IDOCK:   31.31 KCAL/MOL
REMARK 923 INTER-LIGAND FREE ENERGY PREDICTED BY IDOCK:   33.19 KCAL/MOL
REMARK 924 INTRA-LIGAND FREE ENERGY PREDICTED BY IDOCK:   -1.88 KCAL/MOL
REMARK 927      BINDING AFFINITY PREDICTED BY RF-SCORE:    0.00 PKD
ROOT
HETATM    1  C   UNL     1      -7.210  12.138  67.629  1.00  0.00    -0.123 C  
HETATM    2  C   UNL     1      -5.920  11.846  66.876  1.00  0.00    -0.115 C  
ENDROOT
BRANCH   2   3
HETATM    3  C   UNL     1      -6.037  10.525  66.117  1.00  0.00    -0.110 C  
BRANCH   3   4
HETATM    4  C   UNL     1      -5.658   9.296  66.951  1.00  0.00    -0.040 C  
BRANCH   4   5
HETATM    5  N   UNL     1      -6.143   9.210  68.352  1.00  0.00    -0.045 NA 
BRANCH   5   6
HETATM    6  C   UNL     1      -7.448   8.518  68.420  1.00  0.00    -0.095 C  
BRANCH   6   7
HETATM    7  C   UNL     1      -8.621   9.322  69.014  1.00  0.00    -0.134 C  
BRANCH   7   8
HETATM    8  C   UNL     1      -9.506   8.522  69.966  1.00  0.00    -0.165 C  
HETATM    9  C   UNL     1      -9.431   9.091  71.380  1.00  0.00    -0.334 C  
ENDBRANCH   7   8
ENDBRANCH   6   7
ENDBRANCH   5   6
BRANCH   5  10
HETATM   10  C   UNL     1      -5.140   8.514  69.202  1.00  0.00    -0.031 C  
BRANCH  10  11
HETATM   11  C   UNL     1      -5.763   7.944  70.474  1.00  0.00    -0.029 C  
BRANCH  11  12
HETATM   12  C   UNL     1      -5.558   6.433  70.649  1.00  0.00    -0.019 C  
HETATM   13  H   UNL     1      -5.090   5.203  72.108  1.00  0.00     0.000 HD 
HETATM   14  O   UNL     1      -5.217   6.139  72.000  1.00  0.00    -0.021 OA 
BRANCH  12  15
HETATM   15  C   UNL     1      -6.786   5.611  70.249  1.00  0.00    -0.048 A  
HETATM   16  C   UNL     1      -6.937   5.071  68.950  1.00  0.00    -0.052 A  
HETATM   17  C   UNL     1      -5.883   5.100  68.007  1.00  0.00    -0.018 A  
HETATM   18  C   UNL     1      -6.036   4.629  66.703  1.00  0.00    -0.027 A  
HETATM   19  C   UNL     1      -7.255   4.103  66.298  1.00  0.00    -0.068 A  
HETATM   20  C   UNL     1      -7.472   3.618  64.887  1.00  0.00    -0.073 C  
HETATM   21  C   UNL     1      -8.299   4.030  67.236  1.00  0.00    -0.099 A  
HETATM   22  F   UNL     1      -8.468   4.299  64.255  1.00  0.00    -0.096 F  
HETATM   23  C   UNL     1      -8.183   4.490  68.575  1.00  0.00    -0.082 A  
HETATM   24  F   UNL     1      -7.827   2.305  64.836  1.00  0.00    -0.072 F  
HETATM   25  F   UNL     1      -6.373   3.741  64.091  1.00  0.00    -0.026 F  
HETATM   26  C   UNL     1      -9.263   4.402  69.532  1.00  0.00    -0.196 A  
HETATM   27  C   UNL     1     -10.543   3.862  69.236  1.00  0.00     1.866 A  
HETATM   28  C   UNL     1     -11.571   3.804  70.179  1.00  0.00     8.305 A  
HETATM   29  C   UNL     1     -11.373   4.270  71.463  1.00  0.00     1.728 A  
HETATM   30 CL   UNL     1     -13.102   3.153  69.739  1.00  0.00    24.066 Cl 
HETATM   31  C   UNL     1     -10.132   4.799  71.799  1.00  0.00    -0.193 A  
HETATM   32  C   UNL     1      -9.073   4.874  70.851  1.00  0.00    -0.184 A  
HETATM   33 CL   UNL     1      -9.970   5.388  73.429  1.00  0.00    -0.179 Cl 
HETATM   34  C   UNL     1      -7.831   5.438  71.175  1.00  0.00    -0.104 A  
ENDBRANCH  12  15
ENDBRANCH  11  12
ENDBRANCH  10  11
ENDBRANCH   5  10
ENDBRANCH   4   5
ENDBRANCH   3   4
ENDBRANCH   2   3
TORSDOF 10
ENDMDL
MODEL      245
REMARK 921   NORMALIZED FREE ENERGY PREDICTED BY IDOCK:   21.49 KCAL/MOL
REMARK 922        TOTAL FREE ENERGY PREDICTED BY IDOCK:   31.56 KCAL/MOL
REMARK 923 INTER-LIGAND FREE ENERGY PREDICTED BY IDOCK:   -1.07 KCAL/MOL
REMARK 924 INTRA-LIGAND FREE ENERGY PREDICTED BY IDOCK:   32.63 KCAL/MOL
REMARK 927      BINDING AFFINITY PREDICTED BY RF-SCORE:    0.00 PKD
ROOT
HETATM    1  C   UNL     1      -9.099  16.535  67.871  1.00  0.00    -0.206 C  
HETATM    2  C   UNL     1      -9.328  16.720  69.363  1.00  0.00     0.053 C  
ENDROOT
BRANCH   2   3
HETATM    3  C   UNL     1      -9.578  18.193  69.683  1.00  0.00     0.575 C  
BRANCH   3   4
HETATM    4  C   UNL     1      -9.837  19.060  68.445  1.00  0.00    -0.392 C  
BRANCH   4   5
HETATM    5  N   UNL     1      -8.673  19.613  67.708  1.00  0.00    -0.316 NA 
BRANCH   5   6
HETATM    6  C   UNL     1      -7.420  19.415  68.469  1.00  0.00    -0.331 C  
BRANCH   6   7
HETATM    7  C   UNL     1      -7.126  17.980  68.944  1.00  0.00    -0.268 C  
BRANCH   7   8
HETATM    8  C   UNL     1      -6.112  17.895  70.082  1.00  0.00    -0.029 C  
HETATM    9  C   UNL     1      -5.581  19.281  70.436  1.00  0.00    -0.255 C  
ENDBRANCH   7   8
ENDBRANCH   6   7
ENDBRANCH   5   6
BRANCH   5  10
HETATM   10  C   UNL     1      -8.570  18.983  66.363  1.00  0.00    -0.315 C  
BRANCH  10  11
HETATM   11  C   UNL     1      -7.119  18.722  65.963  1.00  0.00    -0.302 C  
BRANCH  11  12
HETATM   12  C   UNL     1      -6.525  17.441  66.563  1.00  0.00    -0.234 C  
HETATM   13  H   UNL     1      -5.422  16.953  68.114  1.00  0.00     0.000 HD 
HETATM   14  O   UNL     1      -5.790  17.747  67.743  1.00  0.00    -0.143 OA 
BRANCH  12  15
HETATM   15  C   UNL     1      -7.583  16.384  66.888  1.00  0.00    -0.275 A  
HETATM   16  C   UNL     1      -7.308  15.281  67.731  1.00  0.00    -0.181 A  
HETATM   17  C   UNL     1      -6.105  15.191  68.468  1.00  0.00    -0.095 A  
HETATM   18  C   UNL     1      -5.792  14.083  69.254  1.00  0.00    -0.087 A  
HETATM   19  C   UNL     1      -6.683  13.021  69.334  1.00  0.00    -0.018 A  
HETATM   20  C   UNL     1      -6.365  11.789  70.142  1.00  0.00    -0.034 C  
HETATM   21  C   UNL     1      -7.901  13.113  68.640  1.00  0.00    -0.056 A  
HETATM   22  F   UNL     1      -6.341  10.662  69.377  1.00  0.00    -0.043 F  
HETATM   23  C   UNL     1      -8.262  14.227  67.836  1.00  0.00    -0.156 A  
HETATM   24  F   UNL     1      -7.284  11.555  71.119  1.00  0.00     2.014 F  
HETATM   25  F   UNL     1      -5.156  11.840  70.768  1.00  0.00    -0.084 F  
HETATM   26  C   UNL     1      -9.522  14.312  67.132  1.00  0.00    -0.229 A  
HETATM   27  C   UNL     1     -10.517  13.299  67.162  1.00  0.00    -0.248 A  
HETATM   28  C   UNL     1     -11.720  13.405  66.460  1.00  0.00    -0.373 A  
HETATM   29  C   UNL     1     -11.994  14.526  65.704  1.00  0.00    -0.311 A  
HETATM   30 CL   UNL     1     -12.868  12.125  66.528  1.00  0.00     1.996 Cl 
HETATM   31  C   UNL     1     -11.052  15.547  65.654  1.00  0.00    -0.235 A  
HETATM   32  C   UNL     1      -9.817  15.457  66.356  1.00  0.00    -0.301 A  
HETATM   33 CL   UNL     1     -11.463  16.915  64.659  1.00  0.00     0.170 Cl 
HETATM   34  C   UNL     1      -8.850  16.468  66.281  1.00  0.00    -0.364 A  
ENDBRANCH  12  15
ENDBRANCH  11  12
ENDBRANCH  10  11
ENDBRANCH   5  10
ENDBRANCH   4   5
ENDBRANCH   3   4
ENDBRANCH   2   3
TORSDOF 10
ENDMDL
MODEL      246
REMARK 921   NORMALIZED FREE ENERGY PREDICTED BY IDOCK:   22.26 KCAL/MOL
REMARK 922        TOTAL FREE ENERGY PREDICTED BY IDOCK:   32.78 KCAL/MOL
REMARK 923 INTER-LIGAND FREE ENERGY PREDICTED BY IDOCK:   19.59 KCAL/MOL
REMARK 924 INTRA-LIGAND FREE ENERGY PREDICTED BY IDOCK:   13.19 KCAL/MOL
REMARK 927      BINDING AFFINITY PREDICTED BY RF-SCORE:    0.00 PKD
ROOT
HETATM    1  C   UNL     1     -12.935   9.799  64.490  1.00  0.00    13.532 C  
HETATM    2  C   UNL     1     -13.363  11.199  64.903  1.00  0.00     5.099 C  
ENDROOT
BRANCH   2   3
HETATM    3  C   UNL     1     -12.881  11.505  66.320  1.00  0.00     4.391 C  
BRANCH   3   4
HETATM    4  C   UNL     1     -11.367  11.725  66.424  1.00  0.00    -0.297 C  
BRANCH   4   5
HETATM    5  N   UNL     1     -10.757  12.845  65.663  1.00  0.00    -0.270 NA 
BRANCH   5   6
HETATM    6  C   UNL     1     -11.043  14.144  66.310  1.00  0.00    -0.318 C  
BRANCH   6   7
HETATM    7  C   UNL     1      -9.951  15.224  66.190  1.00  0.00    -0.325 C  
BRANCH   7   8
HETATM    8  C   UNL     1     -10.253  16.304  65.155  1.00  0.00    -0.039 C  
HETATM    9  C   UNL     1     -11.489  17.104  65.554  1.00  0.00     1.060 C  
ENDBRANCH   7   8
ENDBRANCH   6   7
ENDBRANCH   5   6
BRANCH   5  10
HETATM   10  C   UNL     1      -9.288  12.640  65.536  1.00  0.00     0.200 C  
BRANCH  10  11
HETATM   11  C   UNL     1      -8.758  11.643  66.565  1.00  0.00    -0.182 C  
BRANCH  11  12
HETATM   12  C   UNL     1      -9.789  11.228  67.623  1.00  0.00    -0.175 C  
HETATM   13  H   UNL     1     -11.723  10.886  67.694  1.00  0.00     0.000 HD 
HETATM   14  O   UNL     1     -11.085  11.143  67.038  1.00  0.00    -0.291 OA 
BRANCH  12  15
HETATM   15  C   UNL     1      -9.453   9.896  68.298  1.00  0.00    -0.147 A  
HETATM   16  C   UNL     1      -8.590   8.947  67.700  1.00  0.00    -0.124 A  
HETATM   17  C   UNL     1      -7.844   9.252  66.538  1.00  0.00    -0.100 A  
HETATM   18  C   UNL     1      -7.038   8.310  65.901  1.00  0.00    -0.071 A  
HETATM   19  C   UNL     1      -6.945   7.022  66.412  1.00  0.00    -0.069 A  
HETATM   20  C   UNL     1      -6.115   5.964  65.732  1.00  0.00    -0.032 C  
HETATM   21  C   UNL     1      -7.649   6.716  67.590  1.00  0.00    -0.106 A  
HETATM   22  F   UNL     1      -6.861   4.892  65.346  1.00  0.00    -0.053 F  
HETATM   23  C   UNL     1      -8.474   7.649  68.275  1.00  0.00    -0.125 A  
HETATM   24  F   UNL     1      -5.140   5.467  66.542  1.00  0.00    -0.004 F  
HETATM   25  F   UNL     1      -5.482   6.403  64.609  1.00  0.00    -0.019 F  
HETATM   26  C   UNL     1      -9.186   7.322  69.489  1.00  0.00    -0.149 A  
HETATM   27  C   UNL     1      -9.146   6.048  70.115  1.00  0.00    -0.154 A  
HETATM   28  C   UNL     1      -9.858   5.760  71.281  1.00  0.00    -0.179 A  
HETATM   29  C   UNL     1     -10.634   6.727  71.887  1.00  0.00    -0.234 A  
HETATM   30 CL   UNL     1      -9.775   4.184  71.969  1.00  0.00    -0.219 Cl 
HETATM   31  C   UNL     1     -10.695   7.992  71.313  1.00  0.00    -0.229 A  
HETATM   32  C   UNL     1      -9.984   8.305  70.121  1.00  0.00    -0.187 A  
HETATM   33 CL   UNL     1     -11.715   9.147  72.122  1.00  0.00    -0.377 Cl 
HETATM   34  C   UNL     1     -10.069   9.568  69.520  1.00  0.00    -0.218 A  
ENDBRANCH  12  15
ENDBRANCH  11  12
ENDBRANCH  10  11
ENDBRANCH   5  10
ENDBRANCH   4   5
ENDBRANCH   3   4
ENDBRANCH   2   3
TORSDOF 10
ENDMDL
MODEL      247
REMARK 921   NORMALIZED FREE ENERGY PREDICTED BY IDOCK:   22.60 KCAL/MOL
REMARK 922        TOTAL FREE ENERGY PREDICTED BY IDOCK:   33.32 KCAL/MOL
REMARK 923 INTER-LIGAND FREE ENERGY PREDICTED BY IDOCK:   28.17 KCAL/MOL
REMARK 924 INTRA-LIGAND FREE ENERGY PREDICTED BY IDOCK:    5.15 KCAL/MOL
REMARK 927      BINDING AFFINITY PREDICTED BY RF-SCORE:    0.00 PKD
ROOT
HETATM    1  C   UNL     1      -6.287   9.848  68.246  1.00  0.00    -0.054 C  
HETATM    2  C   UNL     1      -6.034  10.303  66.816  1.00  0.00    -0.060 C  
ENDROOT
BRANCH   2   3
HETATM    3  C   UNL     1      -7.082   9.707  65.877  1.00  0.00    -0.098 C  
BRANCH   3   4
HETATM    4  C   UNL     1      -8.465  10.358  66.000  1.00  0.00    -0.146 C  
BRANCH   4   5
HETATM    5  N   UNL     1      -8.543  11.797  66.355  1.00  0.00    -0.155 NA 
BRANCH   5   6
HETATM    6  C   UNL     1      -8.290  12.651  65.174  1.00  0.00     2.596 C  
BRANCH   6   7
HETATM    7  C   UNL     1      -9.494  12.921  64.252  1.00  0.00     0.672 C  
BRANCH   7   8
HETATM    8  C   UNL     1     -10.603  13.746  64.901  1.00  0.00    -0.427 C  
HETATM    9  C   UNL     1     -10.053  14.569  66.063  1.00  0.00    -0.336 C  
ENDBRANCH   7   8
ENDBRANCH   6   7
ENDBRANCH   5   6
BRANCH   5  10
HETATM   10  C   UNL     1      -9.873  12.109  66.946  1.00  0.00    -0.203 C  
BRANCH  10  11
HETATM   11  C   UNL     1     -10.001  11.587  68.375  1.00  0.00    -0.206 C  
BRANCH  11  12
HETATM   12  C   UNL     1      -8.950  12.148  69.343  1.00  0.00     1.132 C  
HETATM   13  H   UNL     1      -6.993  12.314  69.406  1.00  0.00     0.000 HD 
HETATM   14  O   UNL     1      -7.644  11.966  68.806  1.00  0.00    -0.125 OA 
BRANCH  12  15
HETATM   15  C   UNL     1      -9.161  13.629  69.664  1.00  0.00     1.411 A  
HETATM   16  C   UNL     1      -8.521  14.656  68.931  1.00  0.00    -0.136 A  
HETATM   17  C   UNL     1      -7.800  14.382  67.745  1.00  0.00    -0.169 A  
HETATM   18  C   UNL     1      -7.111  15.372  67.046  1.00  0.00    -0.001 A  
HETATM   19  C   UNL     1      -7.126  16.681  67.508  1.00  0.00    -0.169 A  
HETATM   20  C   UNL     1      -6.364  17.773  66.802  1.00  0.00    -0.174 C  
HETATM   21  C   UNL     1      -7.872  16.977  68.662  1.00  0.00    -0.257 A  
HETATM   22  F   UNL     1      -5.427  18.350  67.604  1.00  0.00    -0.149 F  
HETATM   23  C   UNL     1      -8.594  16.000  69.399  1.00  0.00    -0.150 A  
HETATM   24  F   UNL     1      -7.172  18.786  66.384  1.00  0.00    -0.213 F  
HETATM   25  F   UNL     1      -5.695  17.346  65.695  1.00  0.00    -0.186 F  
HETATM   26  C   UNL     1      -9.363  16.319  70.581  1.00  0.00     2.344 A  
HETATM   27  C   UNL     1      -9.470  17.624  71.130  1.00  0.00     6.091 A  
HETATM   28  C   UNL     1     -10.211  17.898  72.282  1.00  0.00     5.892 A  
HETATM   29  C   UNL     1     -10.888  16.889  72.936  1.00  0.00     3.079 A  
HETATM   30 CL   UNL     1     -10.275  19.503  72.898  1.00  0.00     2.734 Cl 
HETATM   31  C   UNL     1     -10.819  15.597  72.429  1.00  0.00     0.916 A  
HETATM   32  C   UNL     1     -10.064  15.295  71.260  1.00  0.00     1.238 A  
HETATM   33 CL   UNL     1     -11.679  14.379  73.325  1.00  0.00     0.290 Cl 
HETATM   34  C   UNL     1      -9.963  13.988  70.764  1.00  0.00     3.192 A  
ENDBRANCH  12  15
ENDBRANCH  11  12
ENDBRANCH  10  11
ENDBRANCH   5  10
ENDBRANCH   4   5
ENDBRANCH   3   4
ENDBRANCH   2   3
TORSDOF 10
ENDMDL
MODEL      248
REMARK 921   NORMALIZED FREE ENERGY PREDICTED BY IDOCK:   22.86 KCAL/MOL
REMARK 922        TOTAL FREE ENERGY PREDICTED BY IDOCK:   33.72 KCAL/MOL
REMARK 923 INTER-LIGAND FREE ENERGY PREDICTED BY IDOCK:   16.56 KCAL/MOL
REMARK 924 INTRA-LIGAND FREE ENERGY PREDICTED BY IDOCK:   17.17 KCAL/MOL
REMARK 927      BINDING AFFINITY PREDICTED BY RF-SCORE:    0.00 PKD
ROOT
HETATM    1  C   UNL     1      -8.342  16.682  71.506  1.00  0.00     8.679 C  
HETATM    2  C   UNL     1      -7.967  15.357  70.857  1.00  0.00     2.305 C  
ENDROOT
BRANCH   2   3
HETATM    3  C   UNL     1      -8.318  15.378  69.370  1.00  0.00    -0.250 C  
BRANCH   3   4
HETATM    4  C   UNL     1      -9.393  16.407  69.002  1.00  0.00    -0.248 C  
BRANCH   4   5
HETATM    5  N   UNL     1     -10.747  16.263  69.592  1.00  0.00    -0.319 NA 
BRANCH   5   6
HETATM    6  C   UNL     1     -10.822  16.917  70.917  1.00  0.00     0.785 C  
BRANCH   6   7
HETATM    7  C   UNL     1     -12.180  16.844  71.642  1.00  0.00     1.544 C  
BRANCH   7   8
HETATM    8  C   UNL     1     -12.071  16.591  73.143  1.00  0.00    -0.479 C  
HETATM    9  C   UNL     1     -10.629  16.287  73.537  1.00  0.00     5.038 C  
ENDBRANCH   7   8
ENDBRANCH   6   7
ENDBRANCH   5   6
BRANCH   5  10
HETATM   10  C   UNL     1     -11.772  16.830  68.673  1.00  0.00     0.404 C  
BRANCH  10  11
HETATM   11  C   UNL     1     -11.250  16.958  67.244  1.00  0.00     0.231 C  
BRANCH  11  12
HETATM   12  C   UNL     1     -10.073  16.028  66.922  1.00  0.00    -0.265 C  
HETATM   13  H   UNL     1      -8.159  15.923  67.357  1.00  0.00     0.000 HD 
HETATM   14  O   UNL     1      -8.888  16.499  67.557  1.00  0.00    -0.189 OA 
BRANCH  12  15
HETATM   15  C   UNL     1     -10.324  14.576  67.337  1.00  0.00    -0.252 A  
HETATM   16  C   UNL     1     -10.103  13.493  66.454  1.00  0.00    -0.294 A  
HETATM   17  C   UNL     1      -9.463  13.672  65.205  1.00  0.00     0.314 A  
HETATM   18  C   UNL     1      -9.294  12.628  64.297  1.00  0.00     0.666 A  
HETATM   19  C   UNL     1      -9.757  11.358  64.612  1.00  0.00    -0.275 A  
HETATM   20  C   UNL     1      -9.628  10.211  63.643  1.00  0.00    -0.207 C  
HETATM   21  C   UNL     1     -10.359  11.155  65.866  1.00  0.00    -0.314 A  
HETATM   22  F   UNL     1     -10.838   9.690  63.295  1.00  0.00     2.034 F  
HETATM   23  C   UNL     1     -10.543  12.189  66.823  1.00  0.00    -0.256 A  
HETATM   24  F   UNL     1      -8.909   9.175  64.154  1.00  0.00    -0.211 F  
HETATM   25  F   UNL     1      -9.018  10.549  62.472  1.00  0.00    -0.179 F  
HETATM   26  C   UNL     1     -11.157  11.965  68.113  1.00  0.00    -0.294 A  
HETATM   27  C   UNL     1     -11.644  10.706  68.551  1.00  0.00    -0.279 A  
HETATM   28  C   UNL     1     -12.246  10.524  69.799  1.00  0.00    -0.181 A  
HETATM   29  C   UNL     1     -12.381  11.583  70.673  1.00  0.00    -0.457 A  
HETATM   30 CL   UNL     1     -12.831   8.970  70.250  1.00  0.00     0.694 Cl 
HETATM   31  C   UNL     1     -11.909  12.834  70.288  1.00  0.00    -0.212 A  
HETATM   32  C   UNL     1     -11.300  13.042  69.019  1.00  0.00    -0.340 A  
HETATM   33 CL   UNL     1     -12.140  14.121  71.436  1.00  0.00    -0.372 Cl 
HETATM   34  C   UNL     1     -10.853  14.307  68.613  1.00  0.00    -0.265 A  
ENDBRANCH  12  15
ENDBRANCH  11  12
ENDBRANCH  10  11
ENDBRANCH   5  10
ENDBRANCH   4   5
ENDBRANCH   3   4
ENDBRANCH   2   3
TORSDOF 10
ENDMDL
MODEL      249
REMARK 921   NORMALIZED FREE ENERGY PREDICTED BY IDOCK:   25.72 KCAL/MOL
REMARK 922        TOTAL FREE ENERGY PREDICTED BY IDOCK:   38.27 KCAL/MOL
REMARK 923 INTER-LIGAND FREE ENERGY PREDICTED BY IDOCK:   32.62 KCAL/MOL
REMARK 924 INTRA-LIGAND FREE ENERGY PREDICTED BY IDOCK:    5.65 KCAL/MOL
REMARK 927      BINDING AFFINITY PREDICTED BY RF-SCORE:    0.00 PKD
ROOT
HETATM    1  C   UNL     1     -13.971   9.544  67.418  1.00  0.00    21.124 C  
HETATM    2  C   UNL     1     -12.465   9.758  67.407  1.00  0.00     6.597 C  
ENDROOT
BRANCH   2   3
HETATM    3  C   UNL     1     -11.808   8.850  66.368  1.00  0.00     5.774 C  
BRANCH   3   4
HETATM    4  C   UNL     1     -10.299   9.075  66.215  1.00  0.00    -0.060 C  
BRANCH   4   5
HETATM    5  N   UNL     1      -9.373   8.279  67.059  1.00  0.00    -0.152 NA 
BRANCH   5   6
HETATM    6  C   UNL     1     -10.023   7.040  67.539  1.00  0.00    -0.156 C  
BRANCH   6   7
HETATM    7  C   UNL     1      -9.158   6.105  68.406  1.00  0.00    -0.113 C  
BRANCH   7   8
HETATM    8  C   UNL     1      -8.378   5.061  67.610  1.00  0.00    -0.105 C  
HETATM    9  C   UNL     1      -7.148   4.600  68.386  1.00  0.00    -0.057 C  
ENDBRANCH   7   8
ENDBRANCH   6   7
ENDBRANCH   5   6
BRANCH   5  10
HETATM   10  C   UNL     1      -8.135   7.956  66.299  1.00  0.00    -0.110 C  
BRANCH  10  11
HETATM   11  C   UNL     1      -6.969   8.862  66.690  1.00  0.00    -0.080 C  
BRANCH  11  12
HETATM   12  C   UNL     1      -6.744   8.973  68.204  1.00  0.00    -0.065 C  
HETATM   13  H   UNL     1      -5.884  10.232  69.444  1.00  0.00     0.000 HD 
HETATM   14  O   UNL     1      -6.024  10.163  68.506  1.00  0.00    -0.042 OA 
BRANCH  12  15
HETATM   15  C   UNL     1      -8.047   8.955  69.007  1.00  0.00    -0.115 A  
HETATM   16  C   UNL     1      -8.930  10.060  69.031  1.00  0.00    -0.163 A  
HETATM   17  C   UNL     1      -8.756  11.168  68.171  1.00  0.00    -0.144 A  
HETATM   18  C   UNL     1      -9.579  12.292  68.224  1.00  0.00    -0.212 A  
HETATM   19  C   UNL     1     -10.618  12.342  69.144  1.00  0.00    -0.003 A  
HETATM   20  C   UNL     1     -11.507  13.554  69.260  1.00  0.00    -0.291 C  
HETATM   21  C   UNL     1     -10.830  11.231  69.979  1.00  0.00     0.124 A  
HETATM   22  F   UNL     1     -11.453  14.116  70.499  1.00  0.00    -0.308 F  
HETATM   23  C   UNL     1     -10.019  10.064  69.950  1.00  0.00    -0.280 A  
HETATM   24  F   UNL     1     -12.818  13.261  69.040  1.00  0.00     0.127 F  
HETATM   25  F   UNL     1     -11.193  14.550  68.385  1.00  0.00    -0.242 F  
HETATM   26  C   UNL     1     -10.253   8.925  70.809  1.00  0.00    -0.282 A  
HETATM   27  C   UNL     1     -11.298   8.856  71.768  1.00  0.00    -0.431 A  
HETATM   28  C   UNL     1     -11.489   7.746  72.594  1.00  0.00    -0.375 A  
HETATM   29  C   UNL     1     -10.658   6.649  72.498  1.00  0.00    -0.245 A  
HETATM   30 CL   UNL     1     -12.766   7.745  73.747  1.00  0.00     3.485 Cl 
HETATM   31  C   UNL     1      -9.626   6.670  71.565  1.00  0.00    -0.164 A  
HETATM   32  C   UNL     1      -9.409   7.794  70.720  1.00  0.00    -0.162 A  
HETATM   33 CL   UNL     1      -8.607   5.260  71.524  1.00  0.00    -0.128 Cl 
HETATM   34  C   UNL     1      -8.351   7.834  69.802  1.00  0.00    -0.131 A  
ENDBRANCH  12  15
ENDBRANCH  11  12
ENDBRANCH  10  11
ENDBRANCH   5  10
ENDBRANCH   4   5
ENDBRANCH   3   4
ENDBRANCH   2   3
TORSDOF 10
ENDMDL
MODEL      250
REMARK 921   NORMALIZED FREE ENERGY PREDICTED BY IDOCK:   27.29 KCAL/MOL
REMARK 922        TOTAL FREE ENERGY PREDICTED BY IDOCK:   40.75 KCAL/MOL
REMARK 923 INTER-LIGAND FREE ENERGY PREDICTED BY IDOCK:   -2.72 KCAL/MOL
REMARK 924 INTRA-LIGAND FREE ENERGY PREDICTED BY IDOCK:   43.47 KCAL/MOL
REMARK 927      BINDING AFFINITY PREDICTED BY RF-SCORE:    0.00 PKD
ROOT
HETATM    1  C   UNL     1     -11.190  10.771  70.360  1.00  0.00    -0.270 C  
HETATM    2  C   UNL     1     -10.292  10.341  69.210  1.00  0.00    -0.250 C  
ENDROOT
BRANCH   2   3
HETATM    3  C   UNL     1      -8.825  10.401  69.631  1.00  0.00    -0.049 C  
BRANCH   3   4
HETATM    4  C   UNL     1      -8.350   9.161  70.398  1.00  0.00    -0.185 C  
BRANCH   4   5
HETATM    5  N   UNL     1      -7.413   9.344  71.535  1.00  0.00    -0.304 NA 
BRANCH   5   6
HETATM    6  C   UNL     1      -7.323   8.115  72.352  1.00  0.00    -0.106 C  
BRANCH   6   7
HETATM    7  C   UNL     1      -7.153   6.791  71.583  1.00  0.00    -0.076 C  
BRANCH   7   8
HETATM    8  C   UNL     1      -7.048   5.559  72.478  1.00  0.00    -0.084 C  
HETATM    9  C   UNL     1      -6.802   4.305  71.644  1.00  0.00    -0.031 C  
ENDBRANCH   7   8
ENDBRANCH   6   7
ENDBRANCH   5   6
BRANCH   5  10
HETATM   10  C   UNL     1      -6.068   9.735  71.033  1.00  0.00    -0.069 C  
BRANCH  10  11
HETATM   11  C   UNL     1      -6.095  10.112  69.554  1.00  0.00    -0.043 C  
BRANCH  11  12
HETATM   12  C   UNL     1      -7.353   9.641  68.811  1.00  0.00    -0.074 C  
HETATM   13  H   UNL     1      -7.873   9.266  66.954  1.00  0.00     0.000 HD 
HETATM   14  O   UNL     1      -7.094   9.557  67.414  1.00  0.00    -0.084 OA 
BRANCH  12  15
HETATM   15  C   UNL     1      -7.873   8.290  69.309  1.00  0.00    -0.108 A  
HETATM   16  C   UNL     1      -7.746   7.107  68.542  1.00  0.00    -0.120 A  
HETATM   17  C   UNL     1      -6.969   7.068  67.362  1.00  0.00    -0.079 A  
HETATM   18  C   UNL     1      -6.884   5.930  66.562  1.00  0.00    -0.059 A  
HETATM   19  C   UNL     1      -7.573   4.780  66.923  1.00  0.00    -0.087 A  
HETATM   20  C   UNL     1      -7.538   3.540  66.066  1.00  0.00    -0.081 C  
HETATM   21  C   UNL     1      -8.317   4.790  68.116  1.00  0.00    -0.098 A  
HETATM   22  F   UNL     1      -8.777   3.179  65.631  1.00  0.00    -0.107 F  
HETATM   23  C   UNL     1      -8.423   5.926  68.963  1.00  0.00    -0.105 A  
HETATM   24  F   UNL     1      -7.047   2.460  66.733  1.00  0.00    -0.045 F  
HETATM   25  F   UNL     1      -6.772   3.670  64.947  1.00  0.00    -0.042 F  
HETATM   26  C   UNL     1      -9.186   5.921  70.191  1.00  0.00    -0.169 A  
HETATM   27  C   UNL     1      -9.909   4.797  70.671  1.00  0.00    -0.292 A  
HETATM   28  C   UNL     1     -10.649   4.828  71.855  1.00  0.00    -0.080 A  
HETATM   29  C   UNL     1     -10.695   5.973  72.623  1.00  0.00    -0.266 A  
HETATM   30 CL   UNL     1     -11.517   3.431  72.360  1.00  0.00     0.843 Cl 
HETATM   31  C   UNL     1      -9.993   7.096  72.196  1.00  0.00    -0.165 A  
HETATM   32  C   UNL     1      -9.240   7.087  70.989  1.00  0.00    -0.155 A  
HETATM   33 CL   UNL     1     -10.123   8.506  73.207  1.00  0.00     0.247 Cl 
HETATM   34  C   UNL     1      -8.559   8.226  70.536  1.00  0.00    -0.131 A  
ENDBRANCH  12  15
ENDBRANCH  11  12
ENDBRANCH  10  11
ENDBRANCH   5  10
ENDBRANCH   4   5
ENDBRANCH   3   4
ENDBRANCH   2   3
TORSDOF 10
ENDMDL
MODEL      251
REMARK 921   NORMALIZED FREE ENERGY PREDICTED BY IDOCK:   29.15 KCAL/MOL
REMARK 922        TOTAL FREE ENERGY PREDICTED BY IDOCK:   43.69 KCAL/MOL
REMARK 923 INTER-LIGAND FREE ENERGY PREDICTED BY IDOCK:   44.69 KCAL/MOL
REMARK 924 INTRA-LIGAND FREE ENERGY PREDICTED BY IDOCK:   -1.00 KCAL/MOL
REMARK 927      BINDING AFFINITY PREDICTED BY RF-SCORE:    0.00 PKD
ROOT
HETATM    1  C   UNL     1      -5.969  12.604  64.790  1.00  0.00     8.601 C  
HETATM    2  C   UNL     1      -6.710  11.934  63.643  1.00  0.00     4.109 C  
ENDROOT
BRANCH   2   3
HETATM    3  C   UNL     1      -7.449  12.977  62.807  1.00  0.00     9.678 C  
BRANCH   3   4
HETATM    4  C   UNL     1      -8.968  12.978  63.021  1.00  0.00     5.462 C  
BRANCH   4   5
HETATM    5  N   UNL     1      -9.493  13.249  64.383  1.00  0.00     0.472 NA 
BRANCH   5   6
HETATM    6  C   UNL     1      -9.833  14.679  64.547  1.00  0.00     0.987 C  
BRANCH   6   7
HETATM    7  C   UNL     1      -9.592  15.284  65.943  1.00  0.00    -0.377 C  
BRANCH   7   8
HETATM    8  C   UNL     1      -9.764  16.800  66.003  1.00  0.00    -0.287 C  
HETATM    9  C   UNL     1      -8.475  17.471  66.467  1.00  0.00    -0.300 C  
ENDBRANCH   7   8
ENDBRANCH   6   7
ENDBRANCH   5   6
BRANCH   5  10
HETATM   10  C   UNL     1     -10.684  12.397  64.652  1.00  0.00    -0.305 C  
BRANCH  10  11
HETATM   11  C   UNL     1     -10.433  11.404  65.785  1.00  0.00    -0.314 C  
BRANCH  11  12
HETATM   12  C   UNL     1     -11.649  10.537  66.138  1.00  0.00     1.398 C  
HETATM   13  H   UNL     1     -12.756   9.178  65.250  1.00  0.00     0.000 HD 
HETATM   14  O   UNL     1     -12.002   9.714  65.031  1.00  0.00     6.042 OA 
BRANCH  12  15
HETATM   15  C   UNL     1     -11.420   9.655  67.368  1.00  0.00     0.958 A  
HETATM   16  C   UNL     1     -11.796  10.068  68.669  1.00  0.00     0.432 A  
HETATM   17  C   UNL     1     -12.569  11.232  68.884  1.00  0.00     0.589 A  
HETATM   18  C   UNL     1     -12.894  11.687  70.161  1.00  0.00     0.163 A  
HETATM   19  C   UNL     1     -12.458  10.983  71.275  1.00  0.00    -0.475 A  
HETATM   20  C   UNL     1     -12.756  11.461  72.673  1.00  0.00     2.054 C  
HETATM   21  C   UNL     1     -11.723   9.801  71.078  1.00  0.00    -0.453 A  
HETATM   22  F   UNL     1     -11.622  11.711  73.386  1.00  0.00     6.768 F  
HETATM   23  C   UNL     1     -11.378   9.299  69.794  1.00  0.00    -0.029 A  
HETATM   24  F   UNL     1     -13.459  10.548  73.398  1.00  0.00     1.619 F  
HETATM   25  F   UNL     1     -13.483  12.613  72.715  1.00  0.00    -0.533 F  
HETATM   26  C   UNL     1     -10.628   8.079  69.604  1.00  0.00    -0.223 A  
HETATM   27  C   UNL     1     -10.152   7.266  70.668  1.00  0.00    -0.198 A  
HETATM   28  C   UNL     1      -9.417   6.099  70.452  1.00  0.00    -0.161 A  
HETATM   29  C   UNL     1      -9.129   5.678  69.170  1.00  0.00    -0.126 A  
HETATM   30 CL   UNL     1      -8.857   5.178  71.794  1.00  0.00    -0.139 Cl 
HETATM   31  C   UNL     1      -9.582   6.438  68.097  1.00  0.00    -0.115 A  
HETATM   32  C   UNL     1     -10.327   7.635  68.295  1.00  0.00    -0.238 A  
HETATM   33 CL   UNL     1      -9.156   5.855  66.515  1.00  0.00    -0.141 Cl 
HETATM   34  C   UNL     1     -10.757   8.423  67.219  1.00  0.00    -0.230 A  
ENDBRANCH  12  15
ENDBRANCH  11  12
ENDBRANCH  10  11
ENDBRANCH   5  10
ENDBRANCH   4   5
ENDBRANCH   3   4
ENDBRANCH   2   3
TORSDOF 10
ENDMDL
MODEL      252
REMARK 921   NORMALIZED FREE ENERGY PREDICTED BY IDOCK:   29.54 KCAL/MOL
REMARK 922        TOTAL FREE ENERGY PREDICTED BY IDOCK:   44.31 KCAL/MOL
REMARK 923 INTER-LIGAND FREE ENERGY PREDICTED BY IDOCK:   30.30 KCAL/MOL
REMARK 924 INTRA-LIGAND FREE ENERGY PREDICTED BY IDOCK:   14.01 KCAL/MOL
REMARK 927      BINDING AFFINITY PREDICTED BY RF-SCORE:    0.00 PKD
ROOT
HETATM    1  C   UNL     1     -10.889  14.535  70.125  1.00  0.00     0.022 C  
HETATM    2  C   UNL     1      -9.405  14.507  70.462  1.00  0.00     1.945 C  
ENDROOT
BRANCH   2   3
HETATM    3  C   UNL     1      -9.124  15.375  71.688  1.00  0.00     4.495 C  
BRANCH   3   4
HETATM    4  C   UNL     1     -10.359  16.108  72.224  1.00  0.00     3.585 C  
BRANCH   4   5
HETATM    5  N   UNL     1     -11.656  15.385  72.258  1.00  0.00    -0.458 NA 
BRANCH   5   6
HETATM    6  C   UNL     1     -12.753  16.237  71.750  1.00  0.00     0.179 C  
BRANCH   6   7
HETATM    7  C   UNL     1     -14.048  16.257  72.584  1.00  0.00     0.305 C  
BRANCH   7   8
HETATM    8  C   UNL     1     -13.927  15.563  73.939  1.00  0.00     2.198 C  
HETATM    9  C   UNL     1     -13.821  14.051  73.763  1.00  0.00     3.729 C  
ENDBRANCH   7   8
ENDBRANCH   6   7
ENDBRANCH   5   6
BRANCH   5  10
HETATM   10  C   UNL     1     -11.564  14.129  71.465  1.00  0.00     0.515 C  
BRANCH  10  11
HETATM   11  C   UNL     1     -12.843  13.300  71.556  1.00  0.00    -0.419 C  
BRANCH  11  12
HETATM   12  C   UNL     1     -12.936  12.176  70.515  1.00  0.00     0.297 C  
HETATM   13  H   UNL     1     -14.336  11.339  69.419  1.00  0.00     0.000 HD 
HETATM   14  O   UNL     1     -14.279  12.035  70.064  1.00  0.00     4.863 OA 
BRANCH  12  15
HETATM   15  C   UNL     1     -12.020  12.398  69.309  1.00  0.00    -0.308 A  
HETATM   16  C   UNL     1     -10.907  11.564  69.047  1.00  0.00    -0.258 A  
HETATM   17  C   UNL     1     -10.685  10.372  69.774  1.00  0.00    -0.325 A  
HETATM   18  C   UNL     1      -9.561   9.573  69.572  1.00  0.00    -0.198 A  
HETATM   19  C   UNL     1      -8.616   9.939  68.624  1.00  0.00    -0.119 A  
HETATM   20  C   UNL     1      -7.369   9.123  68.401  1.00  0.00    -0.078 C  
HETATM   21  C   UNL     1      -8.842  11.100  67.864  1.00  0.00    -0.136 A  
HETATM   22  F   UNL     1      -6.234   9.840  68.635  1.00  0.00    -0.043 F  
HETATM   23  C   UNL     1      -9.978  11.937  68.033  1.00  0.00    -0.192 A  
HETATM   24  F   UNL     1      -7.265   8.668  67.122  1.00  0.00    -0.072 F  
HETATM   25  F   UNL     1      -7.285   8.022  69.199  1.00  0.00    -0.068 F  
HETATM   26  C   UNL     1     -10.202  13.124  67.240  1.00  0.00    -0.243 A  
HETATM   27  C   UNL     1      -9.318  13.581  66.227  1.00  0.00    -0.143 A  
HETATM   28  C   UNL     1      -9.556  14.741  65.487  1.00  0.00    -0.124 A  
HETATM   29  C   UNL     1     -10.689  15.496  65.711  1.00  0.00    -0.362 A  
HETATM   30 CL   UNL     1      -8.425  15.241  64.290  1.00  0.00     8.684 Cl 
HETATM   31  C   UNL     1     -11.588  15.081  66.687  1.00  0.00    -0.198 A  
HETATM   32  C   UNL     1     -11.361  13.906  67.458  1.00  0.00    -0.342 A  
HETATM   33 CL   UNL     1     -12.978  16.101  66.926  1.00  0.00     3.734 Cl 
HETATM   34  C   UNL     1     -12.246  13.502  68.466  1.00  0.00    -0.160 A  
ENDBRANCH  12  15
ENDBRANCH  11  12
ENDBRANCH  10  11
ENDBRANCH   5  10
ENDBRANCH   4   5
ENDBRANCH   3   4
ENDBRANCH   2   3
TORSDOF 10
ENDMDL
MODEL      253
REMARK 921   NORMALIZED FREE ENERGY PREDICTED BY IDOCK:   31.61 KCAL/MOL
REMARK 922        TOTAL FREE ENERGY PREDICTED BY IDOCK:   47.60 KCAL/MOL
REMARK 923 INTER-LIGAND FREE ENERGY PREDICTED BY IDOCK:   46.26 KCAL/MOL
REMARK 924 INTRA-LIGAND FREE ENERGY PREDICTED BY IDOCK:    1.34 KCAL/MOL
REMARK 927      BINDING AFFINITY PREDICTED BY RF-SCORE:    0.00 PKD
ROOT
HETATM    1  C   UNL     1      -9.508   8.588  65.900  1.00  0.00    -0.207 C  
HETATM    2  C   UNL     1      -8.802   7.270  66.182  1.00  0.00    -0.181 C  
ENDROOT
BRANCH   2   3
HETATM    3  C   UNL     1      -7.290   7.479  66.234  1.00  0.00    -0.082 C  
BRANCH   3   4
HETATM    4  C   UNL     1      -6.681   7.252  67.622  1.00  0.00    -0.065 C  
BRANCH   4   5
HETATM    5  N   UNL     1      -7.489   6.543  68.646  1.00  0.00    -0.087 NA 
BRANCH   5   6
HETATM    6  C   UNL     1      -6.697   5.486  69.311  1.00  0.00    -0.056 C  
BRANCH   6   7
HETATM    7  C   UNL     1      -7.289   4.064  69.282  1.00  0.00    -0.054 C  
BRANCH   7   8
HETATM    8  C   UNL     1      -7.654   3.513  70.658  1.00  0.00    -0.040 C  
HETATM    9  C   UNL     1      -9.097   3.015  70.674  1.00  0.00    -0.192 C  
ENDBRANCH   7   8
ENDBRANCH   6   7
ENDBRANCH   5   6
BRANCH   5  10
HETATM   10  C   UNL     1      -8.012   7.511  69.649  1.00  0.00    -0.125 C  
BRANCH  10  11
HETATM   11  C   UNL     1      -8.159   8.915  69.067  1.00  0.00    -0.115 C  
BRANCH  11  12
HETATM   12  C   UNL     1      -7.992  10.040  70.097  1.00  0.00    -0.101 C  
HETATM   13  H   UNL     1      -6.562  10.736  71.251  1.00  0.00     0.000 HD 
HETATM   14  O   UNL     1      -6.665  10.039  70.613  1.00  0.00    -0.199 OA 
BRANCH  12  15
HETATM   15  C   UNL     1      -8.311  11.425  69.530  1.00  0.00     0.605 A  
HETATM   16  C   UNL     1      -8.196  11.717  68.149  1.00  0.00    -0.151 A  
HETATM   17  C   UNL     1      -7.961  10.701  67.194  1.00  0.00    -0.121 A  
HETATM   18  C   UNL     1      -7.783  10.979  65.839  1.00  0.00    -0.012 A  
HETATM   19  C   UNL     1      -7.840  12.291  65.391  1.00  0.00     2.341 A  
HETATM   20  C   UNL     1      -7.615  12.637  63.941  1.00  0.00     7.899 C  
HETATM   21  C   UNL     1      -8.113  13.308  66.322  1.00  0.00     1.146 A  
HETATM   22  F   UNL     1      -6.553  13.472  63.768  1.00  0.00    13.554 F  
HETATM   23  C   UNL     1      -8.309  13.067  67.709  1.00  0.00    -0.175 A  
HETATM   24  F   UNL     1      -8.683  13.272  63.384  1.00  0.00     2.990 F  
HETATM   25  F   UNL     1      -7.370  11.554  63.151  1.00  0.00     0.570 F  
HETATM   26  C   UNL     1      -8.597  14.121  68.655  1.00  0.00    -0.126 A  
HETATM   27  C   UNL     1      -8.703  15.493  68.306  1.00  0.00    -0.170 A  
HETATM   28  C   UNL     1      -8.968  16.491  69.247  1.00  0.00    -0.083 A  
HETATM   29  C   UNL     1      -9.151  16.170  70.577  1.00  0.00     2.045 A  
HETATM   30 CL   UNL     1      -9.061  18.136  68.750  1.00  0.00    -0.281 Cl 
HETATM   31  C   UNL     1      -9.065  14.837  70.962  1.00  0.00     2.978 A  
HETATM   32  C   UNL     1      -8.788  13.806  70.020  1.00  0.00     2.347 A  
HETATM   33 CL   UNL     1      -9.282  14.519  72.659  1.00  0.00     6.731 Cl 
HETATM   34  C   UNL     1      -8.667  12.465  70.409  1.00  0.00     5.675 A  
ENDBRANCH  12  15
ENDBRANCH  11  12
ENDBRANCH  10  11
ENDBRANCH   5  10
ENDBRANCH   4   5
ENDBRANCH   3   4
ENDBRANCH   2   3
TORSDOF 10
ENDMDL
MODEL      254
REMARK 921   NORMALIZED FREE ENERGY PREDICTED BY IDOCK:   31.92 KCAL/MOL
REMARK 922        TOTAL FREE ENERGY PREDICTED BY IDOCK:   48.08 KCAL/MOL
REMARK 923 INTER-LIGAND FREE ENERGY PREDICTED BY IDOCK:   22.54 KCAL/MOL
REMARK 924 INTRA-LIGAND FREE ENERGY PREDICTED BY IDOCK:   25.54 KCAL/MOL
REMARK 927      BINDING AFFINITY PREDICTED BY RF-SCORE:    0.00 PKD
ROOT
HETATM    1  C   UNL     1     -11.334   8.610  63.839  1.00  0.00    14.290 C  
HETATM    2  C   UNL     1     -11.193   7.750  65.086  1.00  0.00     8.769 C  
ENDROOT
BRANCH   2   3
HETATM    3  C   UNL     1     -10.286   8.438  66.104  1.00  0.00     0.161 C  
BRANCH   3   4
HETATM    4  C   UNL     1      -8.804   8.072  65.960  1.00  0.00    -0.162 C  
BRANCH   4   5
HETATM    5  N   UNL     1      -8.449   6.684  65.570  1.00  0.00    -0.150 NA 
BRANCH   5   6
HETATM    6  C   UNL     1      -6.998   6.560  65.311  1.00  0.00    -0.052 C  
BRANCH   6   7
HETATM    7  C   UNL     1      -6.583   6.295  63.851  1.00  0.00    -0.033 C  
BRANCH   7   8
HETATM    8  C   UNL     1      -5.897   4.949  63.632  1.00  0.00    -0.017 C  
HETATM    9  C   UNL     1      -6.578   4.173  62.508  1.00  0.00    -0.026 C  
ENDBRANCH   7   8
ENDBRANCH   6   7
ENDBRANCH   5   6
BRANCH   5  10
HETATM   10  C   UNL     1      -8.872   5.729  66.630  1.00  0.00    -0.121 C  
BRANCH  10  11
HETATM   11  C   UNL     1      -7.928   5.750  67.830  1.00  0.00    -0.098 C  
BRANCH  11  12
HETATM   12  C   UNL     1      -8.257   6.833  68.866  1.00  0.00    -0.121 C  
HETATM   13  H   UNL     1      -7.392   7.633  70.439  1.00  0.00     0.000 HD 
HETATM   14  O   UNL     1      -7.188   6.962  69.797  1.00  0.00    -0.075 OA 
BRANCH  12  15
HETATM   15  C   UNL     1      -8.545   8.198  68.237  1.00  0.00    -0.130 A  
HETATM   16  C   UNL     1      -9.454   9.116  68.815  1.00  0.00    -0.147 A  
HETATM   17  C   UNL     1     -10.006   8.905  70.099  1.00  0.00    -0.207 A  
HETATM   18  C   UNL     1     -10.949   9.766  70.656  1.00  0.00    -0.398 A  
HETATM   19  C   UNL     1     -11.372  10.880  69.944  1.00  0.00    -0.381 A  
HETATM   20  C   UNL     1     -12.418  11.815  70.495  1.00  0.00    -0.230 C  
HETATM   21  C   UNL     1     -10.802  11.126  68.683  1.00  0.00    -0.251 A  
HETATM   22  F   UNL     1     -13.519  11.886  69.697  1.00  0.00     1.085 F  
HETATM   23  C   UNL     1      -9.832  10.279  68.083  1.00  0.00    -0.166 A  
HETATM   24  F   UNL     1     -11.964  13.092  70.618  1.00  0.00    -0.401 F  
HETATM   25  F   UNL     1     -12.875  11.460  71.729  1.00  0.00    -0.486 F  
HETATM   26  C   UNL     1      -9.249  10.548  66.788  1.00  0.00    -0.175 A  
HETATM   27  C   UNL     1      -9.586  11.668  65.983  1.00  0.00    -0.249 A  
HETATM   28  C   UNL     1      -9.015  11.893  64.729  1.00  0.00     0.548 A  
HETATM   29  C   UNL     1      -8.074  11.021  64.221  1.00  0.00     0.424 A  
HETATM   30 CL   UNL     1      -9.491  13.263  63.803  1.00  0.00     1.762 Cl 
HETATM   31  C   UNL     1      -7.706   9.915  64.979  1.00  0.00    -0.133 A  
HETATM   32  C   UNL     1      -8.282   9.664  66.257  1.00  0.00    -0.116 A  
HETATM   33 CL   UNL     1      -6.533   8.851  64.257  1.00  0.00    -0.071 Cl 
HETATM   34  C   UNL     1      -7.940   8.532  67.010  1.00  0.00    -0.100 A  
ENDBRANCH  12  15
ENDBRANCH  11  12
ENDBRANCH  10  11
ENDBRANCH   5  10
ENDBRANCH   4   5
ENDBRANCH   3   4
ENDBRANCH   2   3
TORSDOF 10
ENDMDL
MODEL      255
REMARK 921   NORMALIZED FREE ENERGY PREDICTED BY IDOCK:   32.48 KCAL/MOL
REMARK 922        TOTAL FREE ENERGY PREDICTED BY IDOCK:   48.97 KCAL/MOL
REMARK 923 INTER-LIGAND FREE ENERGY PREDICTED BY IDOCK:   24.96 KCAL/MOL
REMARK 924 INTRA-LIGAND FREE ENERGY PREDICTED BY IDOCK:   24.01 KCAL/MOL
REMARK 927      BINDING AFFINITY PREDICTED BY RF-SCORE:    0.00 PKD
ROOT
HETATM    1  C   UNL     1     -10.945  14.565  70.285  1.00  0.00    -0.005 C  
HETATM    2  C   UNL     1      -9.655  13.758  70.303  1.00  0.00     2.834 C  
ENDROOT
BRANCH   2   3
HETATM    3  C   UNL     1      -8.930  13.948  71.635  1.00  0.00     9.204 C  
BRANCH   3   4
HETATM    4  C   UNL     1      -9.486  15.097  72.484  1.00  0.00     6.355 C  
BRANCH   4   5
HETATM    5  N   UNL     1     -10.941  15.387  72.422  1.00  0.00     0.076 NA 
BRANCH   5   6
HETATM    6  C   UNL     1     -11.206  16.824  72.653  1.00  0.00     1.159 C  
BRANCH   6   7
HETATM    7  C   UNL     1     -12.406  17.162  73.559  1.00  0.00     0.462 C  
BRANCH   7   8
HETATM    8  C   UNL     1     -13.026  15.951  74.250  1.00  0.00    -0.215 C  
HETATM    9  C   UNL     1     -13.750  15.066  73.239  1.00  0.00     0.086 C  
ENDBRANCH   7   8
ENDBRANCH   6   7
ENDBRANCH   5   6
BRANCH   5  10
HETATM   10  C   UNL     1     -11.494  14.960  71.108  1.00  0.00    -0.264 C  
BRANCH  10  11
HETATM   11  C   UNL     1     -12.648  15.853  70.656  1.00  0.00    -0.222 C  
BRANCH  11  12
HETATM   12  C   UNL     1     -12.781  15.979  69.132  1.00  0.00     1.031 C  
HETATM   13  H   UNL     1     -13.079  17.417  67.827  1.00  0.00     0.000 HD 
HETATM   14  O   UNL     1     -12.996  17.339  68.770  1.00  0.00     3.577 OA 
BRANCH  12  15
HETATM   15  C   UNL     1     -11.562  15.444  68.377  1.00  0.00    -0.368 A  
HETATM   16  C   UNL     1     -11.687  14.555  67.283  1.00  0.00    -0.429 A  
HETATM   17  C   UNL     1     -12.944  14.258  66.708  1.00  0.00     1.019 A  
HETATM   18  C   UNL     1     -13.091  13.338  65.671  1.00  0.00     0.214 A  
HETATM   19  C   UNL     1     -11.976  12.683  65.167  1.00  0.00    -0.474 A  
HETATM   20  C   UNL     1     -12.098  11.653  64.072  1.00  0.00    -0.153 C  
HETATM   21  C   UNL     1     -10.715  12.997  65.700  1.00  0.00    -0.293 A  
HETATM   22  F   UNL     1     -11.642  10.430  64.462  1.00  0.00     0.786 F  
HETATM   23  C   UNL     1     -10.520  13.934  66.750  1.00  0.00    -0.270 A  
HETATM   24  F   UNL     1     -11.379  11.983  62.964  1.00  0.00    -0.371 F  
HETATM   25  F   UNL     1     -13.376  11.456  63.645  1.00  0.00    -0.281 F  
HETATM   26  C   UNL     1      -9.216  14.254  67.285  1.00  0.00    -0.218 A  
HETATM   27  C   UNL     1      -8.006  13.665  66.831  1.00  0.00     0.197 A  
HETATM   28  C   UNL     1      -6.761  13.985  67.378  1.00  0.00     0.038 A  
HETATM   29  C   UNL     1      -6.660  14.912  68.395  1.00  0.00    -0.103 A  
HETATM   30 CL   UNL     1      -5.341  13.213  66.787  1.00  0.00     0.968 Cl 
HETATM   31  C   UNL     1      -7.818  15.521  68.865  1.00  0.00    -0.182 A  
HETATM   32  C   UNL     1      -9.097  15.204  68.326  1.00  0.00    -0.183 A  
HETATM   33 CL   UNL     1      -7.608  16.659  70.165  1.00  0.00     1.200 Cl 
HETATM   34  C   UNL     1     -10.271  15.789  68.819  1.00  0.00    -0.217 A  
ENDBRANCH  12  15
ENDBRANCH  11  12
ENDBRANCH  10  11
ENDBRANCH   5  10
ENDBRANCH   4   5
ENDBRANCH   3   4
ENDBRANCH   2   3
TORSDOF 10
ENDMDL
MODEL      256
REMARK 921   NORMALIZED FREE ENERGY PREDICTED BY IDOCK:   34.30 KCAL/MOL
REMARK 922        TOTAL FREE ENERGY PREDICTED BY IDOCK:   51.85 KCAL/MOL
REMARK 923 INTER-LIGAND FREE ENERGY PREDICTED BY IDOCK:   29.25 KCAL/MOL
REMARK 924 INTRA-LIGAND FREE ENERGY PREDICTED BY IDOCK:   22.60 KCAL/MOL
REMARK 927      BINDING AFFINITY PREDICTED BY RF-SCORE:    0.00 PKD
ROOT
HETATM    1  C   UNL     1     -10.951  14.693  70.453  1.00  0.00    -0.027 C  
HETATM    2  C   UNL     1      -9.931  13.570  70.565  1.00  0.00     3.720 C  
ENDROOT
BRANCH   2   3
HETATM    3  C   UNL     1      -9.312  13.553  71.961  1.00  0.00    13.308 C  
BRANCH   3   4
HETATM    4  C   UNL     1      -9.742  14.731  72.843  1.00  0.00     6.584 C  
BRANCH   4   5
HETATM    5  N   UNL     1     -11.171  15.132  72.846  1.00  0.00     0.038 NA 
BRANCH   5   6
HETATM    6  C   UNL     1     -11.310  16.603  72.775  1.00  0.00     0.750 C  
BRANCH   6   7
HETATM    7  C   UNL     1     -12.463  17.222  73.589  1.00  0.00     0.823 C  
BRANCH   7   8
HETATM    8  C   UNL     1     -13.127  16.255  74.565  1.00  0.00     0.413 C  
HETATM    9  C   UNL     1     -13.870  15.155  73.813  1.00  0.00     1.821 C  
ENDBRANCH   7   8
ENDBRANCH   6   7
ENDBRANCH   5   6
BRANCH   5  10
HETATM   10  C   UNL     1     -11.889  14.486  71.714  1.00  0.00    -0.131 C  
BRANCH  10  11
HETATM   11  C   UNL     1     -13.101  15.299  71.265  1.00  0.00    -0.540 C  
BRANCH  11  12
HETATM   12  C   UNL     1     -13.306  15.331  69.745  1.00  0.00     0.806 C  
HETATM   13  H   UNL     1     -13.608  16.692  68.360  1.00  0.00     0.000 HD 
HETATM   14  O   UNL     1     -13.481  16.673  69.302  1.00  0.00     2.918 OA 
BRANCH  12  15
HETATM   15  C   UNL     1     -12.151  14.692  68.970  1.00  0.00    -0.270 A  
HETATM   16  C   UNL     1     -11.168  15.467  68.310  1.00  0.00    -0.343 A  
HETATM   17  C   UNL     1     -11.090  16.869  68.483  1.00  0.00    -0.213 A  
HETATM   18  C   UNL     1     -10.169  17.655  67.792  1.00  0.00    -0.354 A  
HETATM   19  C   UNL     1      -9.284  17.060  66.903  1.00  0.00    -0.254 A  
HETATM   20  C   UNL     1      -8.298  17.879  66.109  1.00  0.00    -0.128 C  
HETATM   21  C   UNL     1      -9.322  15.663  66.751  1.00  0.00    -0.268 A  
HETATM   22  F   UNL     1      -8.480  17.745  64.766  1.00  0.00     2.248 F  
HETATM   23  C   UNL     1     -10.238  14.825  67.442  1.00  0.00    -0.236 A  
HETATM   24  F   UNL     1      -7.008  17.518  66.348  1.00  0.00    -0.212 F  
HETATM   25  F   UNL     1      -8.367  19.216  66.363  1.00  0.00    -0.274 F  
HETATM   26  C   UNL     1     -10.262  13.389  67.282  1.00  0.00    -0.241 A  
HETATM   27  C   UNL     1      -9.390  12.672  66.421  1.00  0.00    -0.198 A  
HETATM   28  C   UNL     1      -9.447  11.284  66.278  1.00  0.00    -0.204 A  
HETATM   29  C   UNL     1     -10.366  10.542  66.991  1.00  0.00    -0.289 A  
HETATM   30 CL   UNL     1      -8.369  10.488  65.198  1.00  0.00    -0.165 Cl 
HETATM   31  C   UNL     1     -11.235  11.202  67.854  1.00  0.00    -0.302 A  
HETATM   32  C   UNL     1     -11.198  12.617  68.009  1.00  0.00    -0.308 A  
HETATM   33 CL   UNL     1     -12.380  10.200  68.696  1.00  0.00     1.036 Cl 
HETATM   34  C   UNL     1     -12.094  13.290  68.851  1.00  0.00    -0.260 A  
ENDBRANCH  12  15
ENDBRANCH  11  12
ENDBRANCH  10  11
ENDBRANCH   5  10
ENDBRANCH   4   5
ENDBRANCH   3   4
ENDBRANCH   2   3
TORSDOF 10
ENDMDL
MODEL      257
REMARK 921   NORMALIZED FREE ENERGY PREDICTED BY IDOCK:   34.78 KCAL/MOL
REMARK 922        TOTAL FREE ENERGY PREDICTED BY IDOCK:   52.62 KCAL/MOL
REMARK 923 INTER-LIGAND FREE ENERGY PREDICTED BY IDOCK:   -0.54 KCAL/MOL
REMARK 924 INTRA-LIGAND FREE ENERGY PREDICTED BY IDOCK:   53.16 KCAL/MOL
REMARK 927      BINDING AFFINITY PREDICTED BY RF-SCORE:    0.00 PKD
ROOT
HETATM    1  C   UNL     1      -6.493   9.605  68.063  1.00  0.00    -0.057 C  
HETATM    2  C   UNL     1      -6.131  10.734  67.109  1.00  0.00    -0.063 C  
ENDROOT
BRANCH   2   3
HETATM    3  C   UNL     1      -5.759  10.170  65.738  1.00  0.00    -0.072 C  
BRANCH   3   4
HETATM    4  C   UNL     1      -6.743   9.117  65.215  1.00  0.00    -0.069 C  
BRANCH   4   5
HETATM    5  N   UNL     1      -8.004   8.888  65.963  1.00  0.00    -0.104 NA 
BRANCH   5   6
HETATM    6  C   UNL     1      -8.896  10.064  65.874  1.00  0.00    -0.144 C  
BRANCH   6   7
HETATM    7  C   UNL     1      -9.718  10.203  64.578  1.00  0.00    -0.361 C  
BRANCH   7   8
HETATM    8  C   UNL     1     -10.298  11.597  64.354  1.00  0.00    -0.362 C  
HETATM    9  C   UNL     1     -11.641  11.514  63.634  1.00  0.00    -0.323 C  
ENDBRANCH   7   8
ENDBRANCH   6   7
ENDBRANCH   5   6
BRANCH   5  10
HETATM   10  C   UNL     1      -8.692   7.672  65.450  1.00  0.00     0.001 C  
BRANCH  10  11
HETATM   11  C   UNL     1      -8.138   6.393  66.075  1.00  0.00    -0.120 C  
BRANCH  11  12
HETATM   12  C   UNL     1      -7.737   6.540  67.549  1.00  0.00    -0.106 C  
HETATM   13  H   UNL     1      -6.115   6.994  68.562  1.00  0.00     0.000 HD 
HETATM   14  O   UNL     1      -6.364   6.904  67.649  1.00  0.00    -0.044 OA 
BRANCH  12  15
HETATM   15  C   UNL     1      -8.586   7.566  68.303  1.00  0.00    -0.124 A  
HETATM   16  C   UNL     1      -8.420   8.960  68.117  1.00  0.00    -0.129 A  
HETATM   17  C   UNL     1      -7.596   9.480  67.093  1.00  0.00    -0.091 A  
HETATM   18  C   UNL     1      -7.373  10.846  66.936  1.00  0.00    -0.128 A  
HETATM   19  C   UNL     1      -7.977  11.748  67.802  1.00  0.00    -0.141 A  
HETATM   20  C   UNL     1      -7.732  13.231  67.690  1.00  0.00    -0.171 C  
HETATM   21  C   UNL     1      -8.833  11.249  68.800  1.00  0.00    -0.106 A  
HETATM   22  F   UNL     1      -7.180  13.749  68.822  1.00  0.00    -0.091 F  
HETATM   23  C   UNL     1      -9.093   9.865  68.988  1.00  0.00    -0.164 A  
HETATM   24  F   UNL     1      -8.879  13.934  67.479  1.00  0.00    -0.161 F  
HETATM   25  F   UNL     1      -6.891  13.572  66.674  1.00  0.00     0.472 F  
HETATM   26  C   UNL     1      -9.981   9.366  70.014  1.00  0.00    -0.253 A  
HETATM   27  C   UNL     1     -10.671  10.195  70.938  1.00  0.00    -0.059 A  
HETATM   28  C   UNL     1     -11.512   9.681  71.927  1.00  0.00    -0.017 A  
HETATM   29  C   UNL     1     -11.715   8.321  72.039  1.00  0.00    -0.407 A  
HETATM   30 CL   UNL     1     -12.298  10.749  73.024  1.00  0.00     3.705 Cl 
HETATM   31  C   UNL     1     -11.066   7.472  71.149  1.00  0.00    -0.251 A  
HETATM   32  C   UNL     1     -10.199   7.974  70.137  1.00  0.00    -0.203 A  
HETATM   33 CL   UNL     1     -11.353   5.770  71.371  1.00  0.00    -0.244 Cl 
HETATM   34  C   UNL     1      -9.516   7.121  69.260  1.00  0.00    -0.152 A  
ENDBRANCH  12  15
ENDBRANCH  11  12
ENDBRANCH  10  11
ENDBRANCH   5  10
ENDBRANCH   4   5
ENDBRANCH   3   4
ENDBRANCH   2   3
TORSDOF 10
ENDMDL
MODEL      258
REMARK 921   NORMALIZED FREE ENERGY PREDICTED BY IDOCK:   44.62 KCAL/MOL
REMARK 922        TOTAL FREE ENERGY PREDICTED BY IDOCK:   68.20 KCAL/MOL
REMARK 923 INTER-LIGAND FREE ENERGY PREDICTED BY IDOCK:   64.50 KCAL/MOL
REMARK 924 INTRA-LIGAND FREE ENERGY PREDICTED BY IDOCK:    3.71 KCAL/MOL
REMARK 927      BINDING AFFINITY PREDICTED BY RF-SCORE:    0.00 PKD
ROOT
HETATM    1  C   UNL     1     -13.458  10.997  68.129  1.00  0.00     7.771 C  
HETATM    2  C   UNL     1     -12.476  10.568  67.049  1.00  0.00     4.930 C  
ENDROOT
BRANCH   2   3
HETATM    3  C   UNL     1     -12.905   9.233  66.443  1.00  0.00    14.925 C  
BRANCH   3   4
HETATM    4  C   UNL     1     -11.732   8.344  66.012  1.00  0.00     6.675 C  
BRANCH   4   5
HETATM    5  N   UNL     1     -10.378   8.946  65.929  1.00  0.00     0.244 NA 
BRANCH   5   6
HETATM    6  C   UNL     1      -9.859   8.900  64.544  1.00  0.00     1.609 C  
BRANCH   6   7
HETATM    7  C   UNL     1      -9.343  10.229  63.961  1.00  0.00    -0.337 C  
BRANCH   7   8
HETATM    8  C   UNL     1      -8.880  10.134  62.509  1.00  0.00    -0.254 C  
HETATM    9  C   UNL     1      -7.407  10.515  62.387  1.00  0.00    -0.164 C  
ENDBRANCH   7   8
ENDBRANCH   6   7
ENDBRANCH   5   6
BRANCH   5  10
HETATM   10  C   UNL     1     -10.407  10.349  66.426  1.00  0.00    -0.213 C  
BRANCH  10  11
HETATM   11  C   UNL     1      -9.196  11.150  65.953  1.00  0.00    -0.225 C  
BRANCH  11  12
HETATM   12  C   UNL     1      -7.872  10.725  66.603  1.00  0.00    -0.140 C  
HETATM   13  H   UNL     1      -5.965  10.746  66.132  1.00  0.00     0.000 HD 
HETATM   14  O   UNL     1      -6.785  11.009  65.729  1.00  0.00    -0.048 OA 
BRANCH  12  15
HETATM   15  C   UNL     1      -7.623  11.400  67.954  1.00  0.00    -0.108 A  
HETATM   16  C   UNL     1      -7.256  10.664  69.105  1.00  0.00    -0.102 A  
HETATM   17  C   UNL     1      -6.916   9.293  69.032  1.00  0.00    -0.059 A  
HETATM   18  C   UNL     1      -6.613   8.539  70.164  1.00  0.00    -0.038 A  
HETATM   19  C   UNL     1      -6.633   9.136  71.417  1.00  0.00    -0.059 A  
HETATM   20  C   UNL     1      -6.349   8.347  72.670  1.00  0.00    -0.083 C  
HETATM   21  C   UNL     1      -6.929  10.508  71.502  1.00  0.00     2.121 A  
HETATM   22  F   UNL     1      -7.399   8.357  73.536  1.00  0.00    -0.160 F  
HETATM   23  C   UNL     1      -7.235  11.314  70.373  1.00  0.00     1.258 A  
HETATM   24  F   UNL     1      -5.287   8.838  73.366  1.00  0.00    -0.063 F  
HETATM   25  F   UNL     1      -6.069   7.034  72.438  1.00  0.00    -0.041 F  
HETATM   26  C   UNL     1      -7.530  12.725  70.473  1.00  0.00     3.356 A  
HETATM   27  C   UNL     1      -7.555  13.446  71.697  1.00  0.00     7.240 A  
HETATM   28  C   UNL     1      -7.858  14.808  71.762  1.00  0.00     4.272 A  
HETATM   29  C   UNL     1      -8.140  15.520  70.614  1.00  0.00     1.822 A  
HETATM   30 CL   UNL     1      -7.889  15.607  73.286  1.00  0.00    10.377 Cl 
HETATM   31  C   UNL     1      -8.118  14.856  69.392  1.00  0.00    -0.103 A  
HETATM   32  C   UNL     1      -7.819  13.467  69.304  1.00  0.00     0.406 A  
HETATM   33 CL   UNL     1      -8.508  15.818  67.996  1.00  0.00    -0.159 Cl 
HETATM   34  C   UNL     1      -7.828  12.787  68.079  1.00  0.00    -0.150 A  
ENDBRANCH  12  15
ENDBRANCH  11  12
ENDBRANCH  10  11
ENDBRANCH   5  10
ENDBRANCH   4   5
ENDBRANCH   3   4
ENDBRANCH   2   3
TORSDOF 10
ENDMDL
MODEL      259
REMARK 921   NORMALIZED FREE ENERGY PREDICTED BY IDOCK:   46.44 KCAL/MOL
REMARK 922        TOTAL FREE ENERGY PREDICTED BY IDOCK:   71.09 KCAL/MOL
REMARK 923 INTER-LIGAND FREE ENERGY PREDICTED BY IDOCK:   56.54 KCAL/MOL
REMARK 924 INTRA-LIGAND FREE ENERGY PREDICTED BY IDOCK:   14.55 KCAL/MOL
REMARK 927      BINDING AFFINITY PREDICTED BY RF-SCORE:    0.00 PKD
ROOT
HETATM    1  C   UNL     1      -8.737  19.999  63.693  1.00  0.00     8.113 C  
HETATM    2  C   UNL     1      -8.376  18.521  63.739  1.00  0.00    12.659 C  
ENDROOT
BRANCH   2   3
HETATM    3  C   UNL     1      -9.209  17.804  64.800  1.00  0.00     4.502 C  
BRANCH   3   4
HETATM    4  C   UNL     1     -10.276  16.868  64.221  1.00  0.00     3.463 C  
BRANCH   4   5
HETATM    5  N   UNL     1      -9.861  15.522  63.750  1.00  0.00     3.980 NA 
BRANCH   5   6
HETATM    6  C   UNL     1      -8.680  15.039  64.498  1.00  0.00     6.484 C  
BRANCH   6   7
HETATM    7  C   UNL     1      -8.383  15.739  65.838  1.00  0.00     0.536 C  
BRANCH   7   8
HETATM    8  C   UNL     1      -9.499  15.605  66.872  1.00  0.00    -0.245 C  
HETATM    9  C   UNL     1     -10.810  16.165  66.326  1.00  0.00    -0.135 C  
ENDBRANCH   7   8
ENDBRANCH   6   7
ENDBRANCH   5   6
BRANCH   5  10
HETATM   10  C   UNL     1     -10.990  14.561  63.883  1.00  0.00     0.917 C  
BRANCH  10  11
HETATM   11  C   UNL     1     -10.801  13.616  65.067  1.00  0.00    -0.358 C  
BRANCH  11  12
HETATM   12  C   UNL     1     -11.307  14.177  66.403  1.00  0.00    -0.338 C  
HETATM   13  H   UNL     1     -13.019  14.782  67.155  1.00  0.00     0.000 HD 
HETATM   14  O   UNL     1     -12.705  14.434  66.327  1.00  0.00    -0.286 OA 
BRANCH  12  15
HETATM   15  C   UNL     1     -11.029  13.248  67.587  1.00  0.00    -0.281 A  
HETATM   16  C   UNL     1     -10.523  11.938  67.412  1.00  0.00    -0.242 A  
HETATM   17  C   UNL     1     -10.071  11.479  66.154  1.00  0.00    -0.266 A  
HETATM   18  C   UNL     1      -9.629  10.173  65.951  1.00  0.00    -0.274 A  
HETATM   19  C   UNL     1      -9.618   9.276  67.011  1.00  0.00    -0.223 A  
HETATM   20  C   UNL     1      -9.184   7.844  66.825  1.00  0.00    -0.166 C  
HETATM   21  C   UNL     1     -10.026   9.729  68.278  1.00  0.00    -0.175 A  
HETATM   22  F   UNL     1     -10.171   6.960  67.137  1.00  0.00    -0.203 F  
HETATM   23  C   UNL     1     -10.475  11.053  68.528  1.00  0.00    -0.210 A  
HETATM   24  F   UNL     1      -8.125   7.514  67.615  1.00  0.00    -0.111 F  
HETATM   25  F   UNL     1      -8.807   7.547  65.550  1.00  0.00    -0.161 F  
HETATM   26  C   UNL     1     -10.885  11.508  69.838  1.00  0.00     0.177 A  
HETATM   27  C   UNL     1     -10.891  10.687  70.997  1.00  0.00     0.845 A  
HETATM   28  C   UNL     1     -11.307  11.153  72.246  1.00  0.00     5.138 A  
HETATM   29  C   UNL     1     -11.725  12.458  72.405  1.00  0.00     4.504 A  
HETATM   30 CL   UNL     1     -11.306  10.091  73.600  1.00  0.00     8.525 Cl 
HETATM   31  C   UNL     1     -11.726  13.301  71.298  1.00  0.00     1.019 A  
HETATM   32  C   UNL     1     -11.314  12.844  70.015  1.00  0.00     0.052 A  
HETATM   33 CL   UNL     1     -12.290  14.923  71.576  1.00  0.00    -0.373 Cl 
HETATM   34  C   UNL     1     -11.345  13.679  68.889  1.00  0.00    -0.332 A  
ENDBRANCH  12  15
ENDBRANCH  11  12
ENDBRANCH  10  11
ENDBRANCH   5  10
ENDBRANCH   4   5
ENDBRANCH   3   4
ENDBRANCH   2   3
TORSDOF 10
ENDMDL
MODEL      260
REMARK 921   NORMALIZED FREE ENERGY PREDICTED BY IDOCK:   55.07 KCAL/MOL
REMARK 922        TOTAL FREE ENERGY PREDICTED BY IDOCK:   84.77 KCAL/MOL
REMARK 923 INTER-LIGAND FREE ENERGY PREDICTED BY IDOCK:   13.25 KCAL/MOL
REMARK 924 INTRA-LIGAND FREE ENERGY PREDICTED BY IDOCK:   71.52 KCAL/MOL
REMARK 927      BINDING AFFINITY PREDICTED BY RF-SCORE:    0.00 PKD
ROOT
HETATM    1  C   UNL     1     -10.930   9.135  70.135  1.00  0.00    -0.267 C  
HETATM    2  C   UNL     1     -10.038   8.683  68.988  1.00  0.00    -0.207 C  
ENDROOT
BRANCH   2   3
HETATM    3  C   UNL     1      -8.604   8.486  69.477  1.00  0.00    -0.131 C  
BRANCH   3   4
HETATM    4  C   UNL     1      -8.347   7.110  70.102  1.00  0.00    -0.137 C  
BRANCH   4   5
HETATM    5  N   UNL     1      -7.456   7.022  71.286  1.00  0.00    -0.080 NA 
BRANCH   5   6
HETATM    6  C   UNL     1      -7.471   5.660  71.862  1.00  0.00    -0.095 C  
BRANCH   6   7
HETATM    7  C   UNL     1      -7.841   4.513  70.902  1.00  0.00    -0.068 C  
BRANCH   7   8
HETATM    8  C   UNL     1      -7.330   3.143  71.341  1.00  0.00    -0.036 C  
HETATM    9  C   UNL     1      -7.685   2.078  70.307  1.00  0.00    -0.044 C  
ENDBRANCH   7   8
ENDBRANCH   6   7
ENDBRANCH   5   6
BRANCH   5  10
HETATM   10  C   UNL     1      -6.069   7.414  70.914  1.00  0.00    -0.035 C  
BRANCH  10  11
HETATM   11  C   UNL     1      -6.037   8.291  69.665  1.00  0.00    -0.029 C  
BRANCH  11  12
HETATM   12  C   UNL     1      -7.383   8.386  68.932  1.00  0.00    -0.090 C  
HETATM   13  H   UNL     1      -8.004   8.728  67.100  1.00  0.00     0.000 HD 
HETATM   14  O   UNL     1      -7.171   8.669  67.553  1.00  0.00    -0.079 OA 
BRANCH  12  15
HETATM   15  C   UNL     1      -8.226   7.115  69.061  1.00  0.00    -0.125 A  
HETATM   16  C   UNL     1      -8.813   6.486  67.938  1.00  0.00    -0.114 A  
HETATM   17  C   UNL     1      -8.501   6.884  66.617  1.00  0.00    -0.121 A  
HETATM   18  C   UNL     1      -9.117   6.317  65.502  1.00  0.00     0.084 A  
HETATM   19  C   UNL     1     -10.068   5.320  65.672  1.00  0.00     0.051 A  
HETATM   20  C   UNL     1     -10.784   4.708  64.495  1.00  0.00     0.335 C  
HETATM   21  C   UNL     1     -10.359   4.885  66.976  1.00  0.00    -0.209 A  
HETATM   22  F   UNL     1     -12.132   4.889  64.559  1.00  0.00     0.778 F  
HETATM   23  C   UNL     1      -9.749   5.430  68.138  1.00  0.00    -0.174 A  
HETATM   24  F   UNL     1     -10.592   3.363  64.410  1.00  0.00    -0.184 F  
HETATM   25  F   UNL     1     -10.396   5.218  63.292  1.00  0.00     0.785 F  
HETATM   26  C   UNL     1     -10.052   4.968  69.473  1.00  0.00    -0.301 A  
HETATM   27  C   UNL     1     -10.987   3.940  69.764  1.00  0.00     3.660 A  
HETATM   28  C   UNL     1     -11.269   3.525  71.068  1.00  0.00     3.672 A  
HETATM   29  C   UNL     1     -10.626   4.105  72.142  1.00  0.00    -0.026 A  
HETATM   30 CL   UNL     1     -12.431   2.286  71.341  1.00  0.00     7.051 Cl 
HETATM   31  C   UNL     1      -9.695   5.110  71.904  1.00  0.00    -0.161 A  
HETATM   32  C   UNL     1      -9.399   5.552  70.584  1.00  0.00    -0.195 A  
HETATM   33 CL   UNL     1      -8.948   5.807  73.312  1.00  0.00    -0.127 Cl 
HETATM   34  C   UNL     1      -8.487   6.588  70.340  1.00  0.00    -0.131 A  
ENDBRANCH  12  15
ENDBRANCH  11  12
ENDBRANCH  10  11
ENDBRANCH   5  10
ENDBRANCH   4   5
ENDBRANCH   3   4
ENDBRANCH   2   3
TORSDOF 10
ENDMDL
MODEL      261
REMARK 921   NORMALIZED FREE ENERGY PREDICTED BY IDOCK:   66.08 KCAL/MOL
REMARK 922        TOTAL FREE ENERGY PREDICTED BY IDOCK:  102.21 KCAL/MOL
REMARK 923 INTER-LIGAND FREE ENERGY PREDICTED BY IDOCK:   88.95 KCAL/MOL
REMARK 924 INTRA-LIGAND FREE ENERGY PREDICTED BY IDOCK:   13.26 KCAL/MOL
REMARK 927      BINDING AFFINITY PREDICTED BY RF-SCORE:    0.00 PKD
ROOT
HETATM    1  C   UNL     1      -8.919  18.729  64.077  1.00  0.00    10.785 C  
HETATM    2  C   UNL     1      -9.500  18.511  62.688  1.00  0.00    24.694 C  
ENDROOT
BRANCH   2   3
HETATM    3  C   UNL     1     -10.365  17.252  62.667  1.00  0.00    15.763 C  
BRANCH   3   4
HETATM    4  C   UNL     1     -10.667  16.685  64.059  1.00  0.00     2.374 C  
BRANCH   4   5
HETATM    5  N   UNL     1      -9.806  17.097  65.196  1.00  0.00     0.161 NA 
BRANCH   5   6
HETATM    6  C   UNL     1     -10.342  16.592  66.479  1.00  0.00    -0.299 C  
BRANCH   6   7
HETATM    7  C   UNL     1      -9.358  16.549  67.663  1.00  0.00    -0.212 C  
BRANCH   7   8
HETATM    8  C   UNL     1      -8.733  17.899  68.004  1.00  0.00    -0.256 C  
HETATM    9  C   UNL     1      -8.336  17.954  69.477  1.00  0.00     0.685 C  
ENDBRANCH   7   8
ENDBRANCH   6   7
ENDBRANCH   5   6
BRANCH   5  10
HETATM   10  C   UNL     1      -8.414  16.613  64.988  1.00  0.00     3.546 C  
BRANCH  10  11
HETATM   11  C   UNL     1      -7.996  15.598  66.050  1.00  0.00     0.951 C  
BRANCH  11  12
HETATM   12  C   UNL     1      -7.830  14.168  65.517  1.00  0.00     5.482 C  
HETATM   13  H   UNL     1      -6.350  13.000  64.963  1.00  0.00     0.000 HD 
HETATM   14  O   UNL     1      -6.452  13.886  65.293  1.00  0.00     9.771 OA 
BRANCH  12  15
HETATM   15  C   UNL     1      -8.414  13.108  66.454  1.00  0.00     0.407 A  
HETATM   16  C   UNL     1      -8.899  13.430  67.744  1.00  0.00    -0.199 A  
HETATM   17  C   UNL     1      -9.042  14.770  68.170  1.00  0.00    -0.180 A  
HETATM   18  C   UNL     1      -9.458  15.103  69.458  1.00  0.00    -0.151 A  
HETATM   19  C   UNL     1      -9.752  14.098  70.369  1.00  0.00     2.169 A  
HETATM   20  C   UNL     1     -10.168  14.416  71.783  1.00  0.00     3.872 C  
HETATM   21  C   UNL     1      -9.654  12.761  69.949  1.00  0.00     2.639 A  
HETATM   22  F   UNL     1      -9.312  13.892  72.703  1.00  0.00     6.428 F  
HETATM   23  C   UNL     1      -9.242  12.379  68.643  1.00  0.00     0.008 A  
HETATM   24  F   UNL     1     -11.397  13.916  72.090  1.00  0.00     0.749 F  
HETATM   25  F   UNL     1     -10.230  15.751  72.049  1.00  0.00     0.832 F  
HETATM   26  C   UNL     1      -9.152  10.999  68.221  1.00  0.00    -0.158 A  
HETATM   27  C   UNL     1      -9.452   9.892  69.059  1.00  0.00    -0.185 A  
HETATM   28  C   UNL     1      -9.341   8.569  68.625  1.00  0.00    -0.142 A  
HETATM   29  C   UNL     1      -8.938   8.284  67.336  1.00  0.00    -0.142 A  
HETATM   30 CL   UNL     1      -9.702   7.280  69.706  1.00  0.00    -0.166 Cl 
HETATM   31  C   UNL     1      -8.644   9.339  66.479  1.00  0.00    -0.130 A  
HETATM   32  C   UNL     1      -8.743  10.694  66.902  1.00  0.00    -0.133 A  
HETATM   33 CL   UNL     1      -8.119   8.896  64.880  1.00  0.00    -0.135 Cl 
HETATM   34  C   UNL     1      -8.414  11.759  66.053  1.00  0.00     0.125 A  
ENDBRANCH  12  15
ENDBRANCH  11  12
ENDBRANCH  10  11
ENDBRANCH   5  10
ENDBRANCH   4   5
ENDBRANCH   3   4
ENDBRANCH   2   3
TORSDOF 10
ENDMDL
MODEL      262
REMARK 921   NORMALIZED FREE ENERGY PREDICTED BY IDOCK:   66.14 KCAL/MOL
REMARK 922        TOTAL FREE ENERGY PREDICTED BY IDOCK:  102.31 KCAL/MOL
REMARK 923 INTER-LIGAND FREE ENERGY PREDICTED BY IDOCK:   89.12 KCAL/MOL
REMARK 924 INTRA-LIGAND FREE ENERGY PREDICTED BY IDOCK:   13.20 KCAL/MOL
REMARK 927      BINDING AFFINITY PREDICTED BY RF-SCORE:    0.00 PKD
ROOT
HETATM    1  C   UNL     1     -13.080   9.593  64.489  1.00  0.00    15.197 C  
HETATM    2  C   UNL     1     -13.336  11.093  64.479  1.00  0.00     3.798 C  
ENDROOT
BRANCH   2   3
HETATM    3  C   UNL     1     -12.710  11.746  65.711  1.00  0.00     2.317 C  
BRANCH   3   4
HETATM    4  C   UNL     1     -11.211  11.463  65.867  1.00  0.00    -0.107 C  
BRANCH   4   5
HETATM    5  N   UNL     1     -10.322  11.681  64.699  1.00  0.00    -0.275 NA 
BRANCH   5   6
HETATM    6  C   UNL     1      -9.876  13.089  64.625  1.00  0.00    -0.001 C  
BRANCH   6   7
HETATM    7  C   UNL     1      -8.453  13.331  64.088  1.00  0.00     6.248 C  
BRANCH   7   8
HETATM    8  C   UNL     1      -8.404  13.766  62.626  1.00  0.00    14.908 C  
HETATM    9  C   UNL     1      -9.023  15.150  62.454  1.00  0.00    24.059 C  
ENDBRANCH   7   8
ENDBRANCH   6   7
ENDBRANCH   5   6
BRANCH   5  10
HETATM   10  C   UNL     1      -9.148  10.768  64.770  1.00  0.00    -0.200 C  
BRANCH  10  11
HETATM   11  C   UNL     1      -8.101  11.258  65.767  1.00  0.00     0.111 C  
BRANCH  11  12
HETATM   12  C   UNL     1      -8.343  12.684  66.279  1.00  0.00     0.490 C  
HETATM   13  H   UNL     1      -9.870  13.905  66.472  1.00  0.00     0.000 HD 
HETATM   14  O   UNL     1      -9.721  13.022  66.155  1.00  0.00    -0.274 OA 
BRANCH  12  15
HETATM   15  C   UNL     1      -7.904  12.883  67.731  1.00  0.00    -0.158 A  
HETATM   16  C   UNL     1      -7.820  11.805  68.645  1.00  0.00    -0.117 A  
HETATM   17  C   UNL     1      -7.954  10.462  68.223  1.00  0.00    -0.111 A  
HETATM   18  C   UNL     1      -7.936   9.394  69.117  1.00  0.00    -0.091 A  
HETATM   19  C   UNL     1      -7.775   9.634  70.475  1.00  0.00    -0.152 A  
HETATM   20  C   UNL     1      -7.787   8.509  71.479  1.00  0.00    -0.125 C  
HETATM   21  C   UNL     1      -7.599  10.960  70.906  1.00  0.00     2.770 A  
HETATM   22  F   UNL     1      -8.788   8.645  72.393  1.00  0.00    -0.257 F  
HETATM   23  C   UNL     1      -7.603  12.076  70.027  1.00  0.00     1.675 A  
HETATM   24  F   UNL     1      -6.633   8.439  72.198  1.00  0.00    -0.058 F  
HETATM   25  F   UNL     1      -7.957   7.278  70.921  1.00  0.00    -0.093 F  
HETATM   26  C   UNL     1      -7.414  13.435  70.483  1.00  0.00     2.568 A  
HETATM   27  C   UNL     1      -7.216  13.795  71.842  1.00  0.00     4.674 A  
HETATM   28  C   UNL     1      -7.050  15.120  72.252  1.00  0.00     3.602 A  
HETATM   29  C   UNL     1      -7.062  16.147  71.331  1.00  0.00     3.953 A  
HETATM   30 CL   UNL     1      -6.837  15.480  73.921  1.00  0.00     4.932 Cl 
HETATM   31  C   UNL     1      -7.243  15.839  69.987  1.00  0.00     0.231 A  
HETATM   32  C   UNL     1      -7.421  14.496  69.548  1.00  0.00    -0.027 A  
HETATM   33 CL   UNL     1      -7.271  17.191  68.892  1.00  0.00    -0.236 Cl 
HETATM   34  C   UNL     1      -7.638  14.183  68.199  1.00  0.00    -0.136 A  
ENDBRANCH  12  15
ENDBRANCH  11  12
ENDBRANCH  10  11
ENDBRANCH   5  10
ENDBRANCH   4   5
ENDBRANCH   3   4
ENDBRANCH   2   3
TORSDOF 10
ENDMDL
